MODEL 1
REMARK VINA RESULT:     -12.1      0.000      0.000
REMARK SMILES COc1cc(OC(F)(F)F)cc2c1O[C@@H](C(F)(F)F)C(C(=O)NCCCNC(=O)c1ccc(-c3c4nc(c(-c5cc(S(=O)(=O)[O-])ccc5F)c5ccc([nH]5)c(-c5cc(S(=O)(=O)[O-])ccc5F)c5nc(c(-c6cc(S(=O)(=O)[O-])ccc6F)c6ccc3[nH]6)C=C5)C=C4)cc1)=C2
REMARK SMILES IDX 25 1 24 2 23 3 21 4 22 5 20 7 3 8 4 9 13 10 5 11 12 12 14 13
REMARK SMILES IDX 11 14 93 15 15 16 2 17 1 18 6 19 7 20 8 21 9 22 10 23 16 24
REMARK SMILES IDX 17 25 18 26 19 27 26 28 27 29 28 30 29 32 30 33 31 34 92 35
REMARK SMILES IDX 32 36 91 37 33 38 34 39 35 40 85 41 36 42 90 43 84 44 86 45
REMARK SMILES IDX 37 46 89 47 83 48 82 49 38 51 70 52 50 53 69 54 51 55 54 56
REMARK SMILES IDX 68 57 87 58 52 59 53 60 67 62 88 63 55 64 39 65 40 66 48 67
REMARK SMILES IDX 41 68 47 69 49 70 46 71 42 72 43 73 44 74 45 75 71 76 72 77
REMARK SMILES IDX 80 78 73 79 79 80 81 81 78 82 74 83 75 84 76 85 77 86 56 87
REMARK SMILES IDX 57 88 65 89 58 90 64 91 66 92 63 93 59 94 60 95 61 96 62 97
REMARK H PARENT 23 6 27 31 86 50 54 61
REMARK Flexibility Score: inf
ROOT
ATOM      1  C   UNL A   1      33.799  31.699  27.004  1.00  0.00     0.042 C 
ENDROOT
BRANCH   1   2
ATOM      2  C   UNL A   1      34.093  30.262  27.445  1.00  0.00     0.118 C 
BRANCH   2   3
ATOM      3  N   UNL A   1      32.867  29.582  27.831  1.00  0.00    -0.352 N 
ATOM      4  C   UNL A   1      32.170  28.552  27.289  1.00  0.00     0.251 C 
ATOM      5  O   UNL A   1      31.072  28.282  27.771  1.00  0.00    -0.270 OA
ATOM      6  H   UNL A   1      32.460  29.943  28.652  1.00  0.00     0.163 HD
BRANCH   4   7
ATOM      7  C   UNL A   1      32.702  27.695  26.197  1.00  0.00     0.067 C 
ATOM      8  C   UNL A   1      33.954  25.389  22.911  1.00  0.00     0.165 A 
ATOM      9  C   UNL A   1      34.553  24.142  23.130  1.00  0.00     0.097 A 
ATOM     10  C   UNL A   1      33.543  26.178  23.992  1.00  0.00     0.170 A 
ATOM     11  C   UNL A   1      34.789  23.695  24.428  1.00  0.00     0.134 A 
ATOM     12  C   UNL A   1      33.790  25.741  25.292  1.00  0.00     0.025 A 
ATOM     13  O   UNL A   1      32.817  27.304  23.738  1.00  0.00    -0.471 OA
ATOM     14  C   UNL A   1      34.418  24.507  25.504  1.00  0.00     0.059 A 
ATOM     15  C   UNL A   1      33.318  26.527  26.422  1.00  0.00     0.026 C 
ATOM     16  C   UNL A   1      32.669  28.293  24.795  1.00  0.00     0.314 C 
BRANCH   8  17
ATOM     17  O   UNL A   1      33.751  25.722  21.595  1.00  0.00    -0.493 OA
ATOM     18  C   UNL A   1      32.508  25.237  21.087  1.00  0.00     0.278 C 
ENDBRANCH   8  17
BRANCH  11  19
ATOM     19  O   UNL A   1      35.348  22.503  24.792  1.00  0.00    -0.406 OA
BRANCH  19  20
ATOM     20  C   UNL A   1      36.760  22.433  24.883  1.00  0.00     0.573 C 
ATOM     21  F   UNL A   1      37.305  23.665  24.990  1.00  0.00    -0.132 F 
ATOM     22  F   UNL A   1      37.140  21.680  25.937  1.00  0.00    -0.132 F 
ATOM     23  F   UNL A   1      37.241  21.859  23.759  1.00  0.00    -0.132 F 
ENDBRANCH  19  20
ENDBRANCH  11  19
BRANCH  16  24
ATOM     24  C   UNL A   1      31.434  29.152  24.430  1.00  0.00     0.429 C 
ATOM     25  F   UNL A   1      31.347  29.417  23.107  1.00  0.00    -0.167 F 
ATOM     26  F   UNL A   1      30.282  28.494  24.736  1.00  0.00    -0.167 F 
ATOM     27  F   UNL A   1      31.401  30.325  25.103  1.00  0.00    -0.167 F 
ENDBRANCH  16  24
ENDBRANCH   4   7
ENDBRANCH   2   3
ENDBRANCH   1   2
BRANCH   1  28
ATOM     28  C   UNL A   1      32.444  32.214  27.489  1.00  0.00     0.118 C 
BRANCH  28  29
ATOM     29  N   UNL A   1      32.454  33.657  27.674  1.00  0.00    -0.352 N 
ATOM     30  C   UNL A   1      33.197  34.427  28.534  1.00  0.00     0.251 C 
ATOM     31  H   UNL A   1      31.834  34.157  27.095  1.00  0.00     0.163 HD
ATOM     32  O   UNL A   1      32.868  35.595  28.720  1.00  0.00    -0.269 OA
BRANCH  30  33
ATOM     33  C   UNL A   1      34.371  33.860  29.238  1.00  0.00     0.039 A 
ATOM     34  C   UNL A   1      34.156  32.981  30.303  1.00  0.00     0.014 A 
ATOM     35  C   UNL A   1      35.673  34.233  28.894  1.00  0.00     0.014 A 
ATOM     36  C   UNL A   1      35.246  32.442  30.993  1.00  0.00     0.010 A 
ATOM     37  C   UNL A   1      36.760  33.644  29.539  1.00  0.00     0.010 A 
ATOM     38  C   UNL A   1      36.558  32.749  30.600  1.00  0.00    -0.014 A 
BRANCH  38  39
ATOM     39  C   UNL A   1      37.729  32.158  31.301  1.00  0.00     0.031 A 
ATOM     40  C   UNL A   1      38.498  31.029  30.668  1.00  0.00     0.074 A 
ATOM     41  C   UNL A   1      38.062  32.600  32.529  1.00  0.00     0.049 A 
ATOM     42  N   UNL A   1      39.491  30.328  31.153  1.00  0.00    -0.248 NA
ATOM     43  C   UNL A   1      38.070  30.616  29.324  1.00  0.00     0.031 C 
ATOM     44  C   UNL A   1      37.371  33.666  33.259  1.00  0.00     0.029 A 
ATOM     45  N   UNL A   1      39.056  32.205  33.388  1.00  0.00    -0.354 N 
ATOM     46  C   UNL A   1      39.798  29.381  30.181  1.00  0.00     0.074 A 
ATOM     47  C   UNL A   1      38.845  29.563  29.106  1.00  0.00     0.031 C 
ATOM     48  C   UNL A   1      37.973  33.851  34.443  1.00  0.00     0.029 A 
ATOM     49  C   UNL A   1      39.064  32.890  34.581  1.00  0.00     0.049 A 
ATOM     50  H   UNL A   1      39.705  31.496  33.171  1.00  0.00     0.167 HD
ATOM     51  C   UNL A   1      40.794  28.461  30.176  1.00  0.00     0.034 A 
ATOM     52  C   UNL A   1      39.849  32.751  35.667  1.00  0.00     0.034 A 
ATOM     53  C   UNL A   1      41.744  28.303  31.252  1.00  0.00     0.049 A 
ATOM     54  C   UNL A   1      40.938  31.709  35.648  1.00  0.00     0.074 A 
ATOM     55  C   UNL A   1      42.823  27.441  31.332  1.00  0.00     0.029 A 
ATOM     56  N   UNL A   1      41.724  29.021  32.442  1.00  0.00    -0.354 N 
ATOM     57  N   UNL A   1      41.244  30.851  34.701  1.00  0.00    -0.248 NA
ATOM     58  C   UNL A   1      41.795  31.626  36.838  1.00  0.00     0.031 C 
ATOM     59  C   UNL A   1      43.414  27.590  32.591  1.00  0.00     0.029 A 
ATOM     60  C   UNL A   1      42.753  28.600  33.272  1.00  0.00     0.049 A 
ATOM     61  H   UNL A   1      41.073  29.725  32.665  1.00  0.00     0.167 HD
ATOM     62  C   UNL A   1      42.349  30.147  35.171  1.00  0.00     0.074 A 
ATOM     63  C   UNL A   1      42.663  30.692  36.477  1.00  0.00     0.031 C 
ATOM     64  C   UNL A   1      43.046  29.145  34.576  1.00  0.00     0.034 A 
BRANCH  51  65
ATOM     65  C   UNL A   1      40.885  27.540  28.981  1.00  0.00     0.023 A 
ATOM     66  C   UNL A   1      41.834  27.741  27.962  1.00  0.00     0.031 A 
ATOM     67  C   UNL A   1      39.993  26.461  28.841  1.00  0.00     0.131 A 
ATOM     68  C   UNL A   1      41.816  26.932  26.817  1.00  0.00     0.055 A 
ATOM     69  C   UNL A   1      40.036  25.607  27.738  1.00  0.00     0.041 A 
ATOM     70  F   UNL A   1      39.052  26.228  29.770  1.00  0.00    -0.206 F 
ATOM     71  C   UNL A   1      40.940  25.849  26.708  1.00  0.00     0.022 A 
BRANCH  68  72
ATOM     72  S   UNL A   1      42.852  27.408  25.406  1.00  0.00     0.124 S 
ATOM     73  O   UNL A   1      42.931  26.151  24.663  1.00  0.00    -0.237 OA
ATOM     74  O   UNL A   1      42.071  28.470  24.785  1.00  0.00    -0.237 OA
ATOM     75  O   UNL A   1      44.104  27.834  26.028  1.00  0.00    -0.744 OA
ENDBRANCH  68  72
ENDBRANCH  51  65
BRANCH  52  76
ATOM     76  C   UNL A   1      39.635  33.610  36.867  1.00  0.00     0.023 A 
ATOM     77  C   UNL A   1      39.080  33.083  38.044  1.00  0.00     0.031 A 
ATOM     78  C   UNL A   1      39.948  34.980  36.842  1.00  0.00     0.131 A 
ATOM     79  C   UNL A   1      38.812  33.929  39.131  1.00  0.00     0.055 A 
ATOM     80  C   UNL A   1      39.729  35.808  37.945  1.00  0.00     0.041 A 
ATOM     81  F   UNL A   1      40.487  35.534  35.744  1.00  0.00    -0.206 F 
ATOM     82  C   UNL A   1      39.145  35.285  39.095  1.00  0.00     0.022 A 
BRANCH  79  83
ATOM     83  S   UNL A   1      37.945  33.244  40.570  1.00  0.00     0.124 S 
ATOM     84  O   UNL A   1      38.693  32.015  40.810  1.00  0.00    -0.237 OA
ATOM     85  O   UNL A   1      38.115  34.305  41.558  1.00  0.00    -0.237 OA
ATOM     86  O   UNL A   1      36.579  33.060  40.085  1.00  0.00    -0.744 OA
ENDBRANCH  79  83
ENDBRANCH  52  76
BRANCH  64  87
ATOM     87  C   UNL A   1      44.245  28.610  35.320  1.00  0.00     0.023 A 
ATOM     88  C   UNL A   1      44.129  27.580  36.270  1.00  0.00     0.031 A 
ATOM     89  C   UNL A   1      45.522  29.151  35.083  1.00  0.00     0.131 A 
ATOM     90  C   UNL A   1      45.259  27.162  36.988  1.00  0.00     0.055 A 
ATOM     91  C   UNL A   1      46.652  28.689  35.756  1.00  0.00     0.041 A 
ATOM     92  F   UNL A   1      45.689  30.139  34.189  1.00  0.00    -0.206 F 
ATOM     93  C   UNL A   1      46.523  27.697  36.725  1.00  0.00     0.022 A 
BRANCH  90  94
ATOM     94  S   UNL A   1      45.042  25.969  38.337  1.00  0.00     0.124 S 
ATOM     95  O   UNL A   1      43.836  26.468  38.992  1.00  0.00    -0.237 OA
ATOM     96  O   UNL A   1      44.900  24.707  37.619  1.00  0.00    -0.237 OA
ATOM     97  O   UNL A   1      46.271  26.103  39.115  1.00  0.00    -0.744 OA
ENDBRANCH  90  94
ENDBRANCH  64  87
ENDBRANCH  38  39
ENDBRANCH  30  33
ENDBRANCH  28  29
ENDBRANCH   1  28
TORSDOF 17
ENDMDL
MODEL 2
REMARK VINA RESULT:     -11.6      5.571     11.442
REMARK SMILES COc1cc(OC(F)(F)F)cc2c1O[C@@H](C(F)(F)F)C(C(=O)NCCCNC(=O)c1ccc(-c3c4nc(c(-c5cc(S(=O)(=O)[O-])ccc5F)c5ccc([nH]5)c(-c5cc(S(=O)(=O)[O-])ccc5F)c5nc(c(-c6cc(S(=O)(=O)[O-])ccc6F)c6ccc3[nH]6)C=C5)C=C4)cc1)=C2
REMARK SMILES IDX 25 1 24 2 23 3 21 4 22 5 20 7 3 8 4 9 13 10 5 11 12 12 14 13
REMARK SMILES IDX 11 14 93 15 15 16 2 17 1 18 6 19 7 20 8 21 9 22 10 23 16 24
REMARK SMILES IDX 17 25 18 26 19 27 26 28 27 29 28 30 29 32 30 33 31 34 92 35
REMARK SMILES IDX 32 36 91 37 33 38 34 39 35 40 85 41 36 42 90 43 84 44 86 45
REMARK SMILES IDX 37 46 89 47 83 48 82 49 38 51 70 52 50 53 69 54 51 55 54 56
REMARK SMILES IDX 68 57 87 58 52 59 53 60 67 62 88 63 55 64 39 65 40 66 48 67
REMARK SMILES IDX 41 68 47 69 49 70 46 71 42 72 43 73 44 74 45 75 71 76 72 77
REMARK SMILES IDX 80 78 73 79 79 80 81 81 78 82 74 83 75 84 76 85 77 86 56 87
REMARK SMILES IDX 57 88 65 89 58 90 64 91 66 92 63 93 59 94 60 95 61 96 62 97
REMARK H PARENT 23 6 27 31 86 50 54 61
REMARK Flexibility Score: inf
ROOT
ATOM      1  C   UNL A   1      38.752  21.486  26.496  1.00  0.00     0.042 C 
ENDROOT
BRANCH   1   2
ATOM      2  C   UNL A   1      38.237  22.838  25.995  1.00  0.00     0.118 C 
BRANCH   2   3
ATOM      3  N   UNL A   1      37.796  22.737  24.613  1.00  0.00    -0.352 N 
ATOM      4  C   UNL A   1      36.585  22.874  24.015  1.00  0.00     0.251 C 
ATOM      5  O   UNL A   1      36.496  22.589  22.823  1.00  0.00    -0.270 OA
ATOM      6  H   UNL A   1      38.523  22.527  23.983  1.00  0.00     0.163 HD
BRANCH   4   7
ATOM      7  C   UNL A   1      35.392  23.421  24.712  1.00  0.00     0.067 C 
ATOM      8  C   UNL A   1      31.869  24.658  26.647  1.00  0.00     0.165 A 
ATOM      9  C   UNL A   1      31.442  25.986  26.522  1.00  0.00     0.097 A 
ATOM     10  C   UNL A   1      33.046  24.230  26.021  1.00  0.00     0.170 A 
ATOM     11  C   UNL A   1      32.211  26.907  25.814  1.00  0.00     0.134 A 
ATOM     12  C   UNL A   1      33.826  25.151  25.325  1.00  0.00     0.025 A 
ATOM     13  O   UNL A   1      33.339  22.898  26.028  1.00  0.00    -0.471 OA
ATOM     14  C   UNL A   1      33.409  26.485  25.231  1.00  0.00     0.059 A 
ATOM     15  C   UNL A   1      35.021  24.706  24.626  1.00  0.00     0.026 C 
ATOM     16  C   UNL A   1      34.690  22.479  25.684  1.00  0.00     0.314 C 
BRANCH   8  17
ATOM     17  O   UNL A   1      31.026  23.833  27.348  1.00  0.00    -0.493 OA
ATOM     18  C   UNL A   1      30.188  23.046  26.500  1.00  0.00     0.278 C 
ENDBRANCH   8  17
BRANCH  11  19
ATOM     19  O   UNL A   1      31.916  28.223  25.599  1.00  0.00    -0.406 OA
BRANCH  19  20
ATOM     20  C   UNL A   1      31.193  28.559  24.427  1.00  0.00     0.573 C 
ATOM     21  F   UNL A   1      31.995  28.558  23.341  1.00  0.00    -0.132 F 
ATOM     22  F   UNL A   1      30.167  27.704  24.230  1.00  0.00    -0.132 F 
ATOM     23  F   UNL A   1      30.685  29.802  24.570  1.00  0.00    -0.132 F 
ENDBRANCH  19  20
ENDBRANCH  11  19
BRANCH  16  24
ATOM     24  C   UNL A   1      34.602  20.989  25.275  1.00  0.00     0.429 C 
ATOM     25  F   UNL A   1      33.756  20.276  26.052  1.00  0.00    -0.167 F 
ATOM     26  F   UNL A   1      34.111  20.865  24.010  1.00  0.00    -0.167 F 
ATOM     27  F   UNL A   1      35.807  20.376  25.283  1.00  0.00    -0.167 F 
ENDBRANCH  16  24
ENDBRANCH   4   7
ENDBRANCH   2   3
ENDBRANCH   1   2
BRANCH   1  28
ATOM     28  C   UNL A   1      39.155  20.536  25.369  1.00  0.00     0.118 C 
BRANCH  28  29
ATOM     29  N   UNL A   1      40.151  19.572  25.810  1.00  0.00    -0.352 N 
ATOM     30  C   UNL A   1      41.460  19.768  26.177  1.00  0.00     0.251 C 
ATOM     31  H   UNL A   1      39.841  18.639  25.850  1.00  0.00     0.163 HD
ATOM     32  O   UNL A   1      42.204  18.795  26.262  1.00  0.00    -0.269 OA
BRANCH  30  33
ATOM     33  C   UNL A   1      41.974  21.128  26.459  1.00  0.00     0.039 A 
ATOM     34  C   UNL A   1      42.208  21.496  27.787  1.00  0.00     0.014 A 
ATOM     35  C   UNL A   1      42.171  22.057  25.433  1.00  0.00     0.014 A 
ATOM     36  C   UNL A   1      42.681  22.778  28.082  1.00  0.00     0.010 A 
ATOM     37  C   UNL A   1      42.705  23.312  25.723  1.00  0.00     0.010 A 
ATOM     38  C   UNL A   1      42.958  23.689  27.050  1.00  0.00    -0.014 A 
BRANCH  38  39
ATOM     39  C   UNL A   1      43.494  25.045  27.343  1.00  0.00     0.031 A 
ATOM     40  C   UNL A   1      42.587  26.113  27.893  1.00  0.00     0.074 A 
ATOM     41  C   UNL A   1      44.780  25.328  27.059  1.00  0.00     0.049 A 
ATOM     42  N   UNL A   1      42.842  27.373  28.136  1.00  0.00    -0.248 NA
ATOM     43  C   UNL A   1      41.201  25.714  28.181  1.00  0.00     0.031 C 
ATOM     44  C   UNL A   1      45.746  24.384  26.491  1.00  0.00     0.029 A 
ATOM     45  N   UNL A   1      45.496  26.490  27.197  1.00  0.00    -0.354 N 
ATOM     46  C   UNL A   1      41.647  27.923  28.589  1.00  0.00     0.074 A 
ATOM     47  C   UNL A   1      40.654  26.869  28.530  1.00  0.00     0.031 C 
ATOM     48  C   UNL A   1      46.930  24.999  26.349  1.00  0.00     0.029 A 
ATOM     49  C   UNL A   1      46.800  26.391  26.769  1.00  0.00     0.049 A 
ATOM     50  H   UNL A   1      45.112  27.318  27.567  1.00  0.00     0.167 HD
ATOM     51  C   UNL A   1      41.404  29.182  29.032  1.00  0.00     0.034 A 
ATOM     52  C   UNL A   1      47.775  27.319  26.709  1.00  0.00     0.034 A 
ATOM     53  C   UNL A   1      42.410  30.215  29.095  1.00  0.00     0.049 A 
ATOM     54  C   UNL A   1      47.479  28.717  27.189  1.00  0.00     0.074 A 
ATOM     55  C   UNL A   1      42.291  31.508  29.574  1.00  0.00     0.029 A 
ATOM     56  N   UNL A   1      43.723  30.076  28.659  1.00  0.00    -0.354 N 
ATOM     57  N   UNL A   1      46.354  29.209  27.657  1.00  0.00    -0.248 NA
ATOM     58  C   UNL A   1      48.586  29.681  27.144  1.00  0.00     0.031 C 
ATOM     59  C   UNL A   1      43.507  32.169  29.367  1.00  0.00     0.029 A 
ATOM     60  C   UNL A   1      44.412  31.268  28.831  1.00  0.00     0.049 A 
ATOM     61  H   UNL A   1      44.107  29.252  28.282  1.00  0.00     0.167 HD
ATOM     62  C   UNL A   1      46.630  30.532  27.991  1.00  0.00     0.074 A 
ATOM     63  C   UNL A   1      48.029  30.755  27.684  1.00  0.00     0.031 C 
ATOM     64  C   UNL A   1      45.804  31.477  28.509  1.00  0.00     0.034 A 
BRANCH  51  65
ATOM     65  C   UNL A   1      39.992  29.511  29.455  1.00  0.00     0.023 A 
ATOM     66  C   UNL A   1      39.626  29.599  30.810  1.00  0.00     0.031 A 
ATOM     67  C   UNL A   1      38.986  29.712  28.491  1.00  0.00     0.131 A 
ATOM     68  C   UNL A   1      38.283  29.798  31.164  1.00  0.00     0.055 A 
ATOM     69  C   UNL A   1      37.667  29.993  28.850  1.00  0.00     0.041 A 
ATOM     70  F   UNL A   1      39.267  29.622  27.182  1.00  0.00    -0.206 F 
ATOM     71  C   UNL A   1      37.304  30.021  30.193  1.00  0.00     0.022 A 
BRANCH  68  72
ATOM     72  S   UNL A   1      37.811  29.609  32.905  1.00  0.00     0.124 S 
ATOM     73  O   UNL A   1      39.023  30.056  33.589  1.00  0.00    -0.237 OA
ATOM     74  O   UNL A   1      36.653  30.488  33.015  1.00  0.00    -0.237 OA
ATOM     75  O   UNL A   1      37.525  28.181  33.030  1.00  0.00    -0.744 OA
ENDBRANCH  68  72
ENDBRANCH  51  65
BRANCH  52  76
ATOM     76  C   UNL A   1      49.120  26.966  26.169  1.00  0.00     0.023 A 
ATOM     77  C   UNL A   1      49.517  27.383  24.889  1.00  0.00     0.031 A 
ATOM     78  C   UNL A   1      50.013  26.175  26.911  1.00  0.00     0.131 A 
ATOM     79  C   UNL A   1      50.754  26.968  24.370  1.00  0.00     0.055 A 
ATOM     80  C   UNL A   1      51.264  25.808  26.413  1.00  0.00     0.041 A 
ATOM     81  F   UNL A   1      49.686  25.755  28.144  1.00  0.00    -0.206 F 
ATOM     82  C   UNL A   1      51.636  26.195  25.128  1.00  0.00     0.022 A 
BRANCH  79  83
ATOM     83  S   UNL A   1      51.159  27.390  22.653  1.00  0.00     0.124 S 
ATOM     84  O   UNL A   1      52.529  26.902  22.544  1.00  0.00    -0.237 OA
ATOM     85  O   UNL A   1      50.149  26.641  21.912  1.00  0.00    -0.237 OA
ATOM     86  O   UNL A   1      51.007  28.843  22.616  1.00  0.00    -0.744 OA
ENDBRANCH  79  83
ENDBRANCH  52  76
BRANCH  64  87
ATOM     87  C   UNL A   1      46.413  32.823  28.818  1.00  0.00     0.023 A 
ATOM     88  C   UNL A   1      46.443  33.858  27.868  1.00  0.00     0.031 A 
ATOM     89  C   UNL A   1      46.984  33.066  30.080  1.00  0.00     0.131 A 
ATOM     90  C   UNL A   1      47.082  35.069  28.175  1.00  0.00     0.055 A 
ATOM     91  C   UNL A   1      47.564  34.293  30.401  1.00  0.00     0.041 A 
ATOM     92  F   UNL A   1      46.986  32.111  31.025  1.00  0.00    -0.206 F 
ATOM     93  C   UNL A   1      47.627  35.300  29.441  1.00  0.00     0.022 A 
BRANCH  90  94
ATOM     94  S   UNL A   1      47.271  36.311  26.866  1.00  0.00     0.124 S 
ATOM     95  O   UNL A   1      47.555  35.481  25.700  1.00  0.00    -0.237 OA
ATOM     96  O   UNL A   1      45.972  36.974  26.874  1.00  0.00    -0.237 OA
ATOM     97  O   UNL A   1      48.388  37.131  27.330  1.00  0.00    -0.744 OA
ENDBRANCH  90  94
ENDBRANCH  64  87
ENDBRANCH  38  39
ENDBRANCH  30  33
ENDBRANCH  28  29
ENDBRANCH   1  28
TORSDOF 17
ENDMDL
MODEL 3
REMARK VINA RESULT:     -11.6      1.479      7.499
REMARK SMILES COc1cc(OC(F)(F)F)cc2c1O[C@@H](C(F)(F)F)C(C(=O)NCCCNC(=O)c1ccc(-c3c4nc(c(-c5cc(S(=O)(=O)[O-])ccc5F)c5ccc([nH]5)c(-c5cc(S(=O)(=O)[O-])ccc5F)c5nc(c(-c6cc(S(=O)(=O)[O-])ccc6F)c6ccc3[nH]6)C=C5)C=C4)cc1)=C2
REMARK SMILES IDX 25 1 24 2 23 3 21 4 22 5 20 7 3 8 4 9 13 10 5 11 12 12 14 13
REMARK SMILES IDX 11 14 93 15 15 16 2 17 1 18 6 19 7 20 8 21 9 22 10 23 16 24
REMARK SMILES IDX 17 25 18 26 19 27 26 28 27 29 28 30 29 32 30 33 31 34 92 35
REMARK SMILES IDX 32 36 91 37 33 38 34 39 35 40 85 41 36 42 90 43 84 44 86 45
REMARK SMILES IDX 37 46 89 47 83 48 82 49 38 51 70 52 50 53 69 54 51 55 54 56
REMARK SMILES IDX 68 57 87 58 52 59 53 60 67 62 88 63 55 64 39 65 40 66 48 67
REMARK SMILES IDX 41 68 47 69 49 70 46 71 42 72 43 73 44 74 45 75 71 76 72 77
REMARK SMILES IDX 80 78 73 79 79 80 81 81 78 82 74 83 75 84 76 85 77 86 56 87
REMARK SMILES IDX 57 88 65 89 58 90 64 91 66 92 63 93 59 94 60 95 61 96 62 97
REMARK H PARENT 23 6 27 31 86 50 54 61
REMARK Flexibility Score: inf
ROOT
ATOM      1  C   UNL A   1      33.556  31.708  26.844  1.00  0.00     0.042 C 
ENDROOT
BRANCH   1   2
ATOM      2  C   UNL A   1      33.985  30.329  27.353  1.00  0.00     0.118 C 
BRANCH   2   3
ATOM      3  N   UNL A   1      32.830  29.566  27.799  1.00  0.00    -0.352 N 
ATOM      4  C   UNL A   1      32.153  28.517  27.268  1.00  0.00     0.251 C 
ATOM      5  O   UNL A   1      31.111  28.167  27.818  1.00  0.00    -0.270 OA
ATOM      6  H   UNL A   1      32.466  29.873  28.660  1.00  0.00     0.163 HD
BRANCH   4   7
ATOM      7  C   UNL A   1      32.650  27.732  26.108  1.00  0.00     0.067 C 
ATOM      8  C   UNL A   1      33.788  25.631  22.648  1.00  0.00     0.165 A 
ATOM      9  C   UNL A   1      34.427  24.390  22.771  1.00  0.00     0.097 A 
ATOM     10  C   UNL A   1      33.413  26.352  23.788  1.00  0.00     0.170 A 
ATOM     11  C   UNL A   1      34.739  23.884  24.030  1.00  0.00     0.134 A 
ATOM     12  C   UNL A   1      33.737  25.856  25.049  1.00  0.00     0.025 A 
ATOM     13  O   UNL A   1      32.649  27.470  23.629  1.00  0.00    -0.471 OA
ATOM     14  C   UNL A   1      34.404  24.630  25.164  1.00  0.00     0.059 A 
ATOM     15  C   UNL A   1      33.304  26.569  26.241  1.00  0.00     0.026 C 
ATOM     16  C   UNL A   1      32.531  28.399  24.743  1.00  0.00     0.314 C 
BRANCH   8  17
ATOM     17  O   UNL A   1      33.510  26.025  21.363  1.00  0.00    -0.493 OA
ATOM     18  C   UNL A   1      32.490  25.236  20.749  1.00  0.00     0.278 C 
ENDBRANCH   8  17
BRANCH  11  19
ATOM     19  O   UNL A   1      35.344  22.690  24.303  1.00  0.00    -0.406 OA
BRANCH  19  20
ATOM     20  C   UNL A   1      36.699  22.529  23.919  1.00  0.00     0.573 C 
ATOM     21  F   UNL A   1      37.193  21.349  24.352  1.00  0.00    -0.132 F 
ATOM     22  F   UNL A   1      36.834  22.609  22.578  1.00  0.00    -0.132 F 
ATOM     23  F   UNL A   1      37.430  23.519  24.476  1.00  0.00    -0.132 F 
ENDBRANCH  19  20
ENDBRANCH  11  19
BRANCH  16  24
ATOM     24  C   UNL A   1      31.259  29.243  24.484  1.00  0.00     0.429 C 
ATOM     25  F   UNL A   1      31.224  30.382  25.211  1.00  0.00    -0.167 F 
ATOM     26  F   UNL A   1      31.206  29.648  23.185  1.00  0.00    -0.167 F 
ATOM     27  F   UNL A   1      30.121  28.551  24.720  1.00  0.00    -0.167 F 
ENDBRANCH  16  24
ENDBRANCH   4   7
ENDBRANCH   2   3
ENDBRANCH   1   2
BRANCH   1  28
ATOM     28  C   UNL A   1      32.452  32.348  27.685  1.00  0.00     0.118 C 
BRANCH  28  29
ATOM     29  N   UNL A   1      32.643  33.783  27.820  1.00  0.00    -0.352 N 
ATOM     30  C   UNL A   1      33.520  34.482  28.613  1.00  0.00     0.251 C 
ATOM     31  H   UNL A   1      32.055  34.338  27.258  1.00  0.00     0.163 HD
ATOM     32  O   UNL A   1      33.343  35.686  28.775  1.00  0.00    -0.269 OA
BRANCH  30  33
ATOM     33  C   UNL A   1      34.657  33.799  29.272  1.00  0.00     0.039 A 
ATOM     34  C   UNL A   1      34.392  32.909  30.317  1.00  0.00     0.014 A 
ATOM     35  C   UNL A   1      35.978  34.070  28.906  1.00  0.00     0.014 A 
ATOM     36  C   UNL A   1      35.447  32.261  30.965  1.00  0.00     0.010 A 
ATOM     37  C   UNL A   1      37.025  33.373  29.509  1.00  0.00     0.010 A 
ATOM     38  C   UNL A   1      36.771  32.467  30.549  1.00  0.00    -0.014 A 
BRANCH  38  39
ATOM     39  C   UNL A   1      37.904  31.760  31.205  1.00  0.00     0.031 A 
ATOM     40  C   UNL A   1      38.392  32.205  32.557  1.00  0.00     0.074 A 
ATOM     41  C   UNL A   1      38.526  30.757  30.556  1.00  0.00     0.049 A 
ATOM     42  N   UNL A   1      39.412  31.774  33.254  1.00  0.00    -0.248 NA
ATOM     43  C   UNL A   1      37.649  33.302  33.195  1.00  0.00     0.031 C 
ATOM     44  C   UNL A   1      38.165  30.259  29.226  1.00  0.00     0.029 A 
ATOM     45  N   UNL A   1      39.599  29.981  30.917  1.00  0.00    -0.354 N 
ATOM     46  C   UNL A   1      39.444  32.555  34.404  1.00  0.00     0.074 A 
ATOM     47  C   UNL A   1      38.375  33.525  34.281  1.00  0.00     0.031 C 
ATOM     48  C   UNL A   1      38.987  29.252  28.895  1.00  0.00     0.029 A 
ATOM     49  C   UNL A   1      39.963  29.060  29.964  1.00  0.00     0.049 A 
ATOM     50  H   UNL A   1      40.065  30.075  31.781  1.00  0.00     0.167 HD
ATOM     51  C   UNL A   1      40.274  32.460  35.473  1.00  0.00     0.034 A 
ATOM     52  C   UNL A   1      40.977  28.172  29.944  1.00  0.00     0.034 A 
ATOM     53  C   UNL A   1      41.326  31.478  35.585  1.00  0.00     0.049 A 
ATOM     54  C   UNL A   1      41.899  28.096  31.134  1.00  0.00     0.074 A 
ATOM     55  C   UNL A   1      42.191  31.256  36.641  1.00  0.00     0.029 A 
ATOM     56  N   UNL A   1      41.662  30.556  34.600  1.00  0.00    -0.354 N 
ATOM     57  N   UNL A   1      41.888  28.813  32.235  1.00  0.00    -0.248 NA
ATOM     58  C   UNL A   1      42.961  27.083  31.085  1.00  0.00     0.031 C 
ATOM     59  C   UNL A   1      43.089  30.248  36.272  1.00  0.00     0.029 A 
ATOM     60  C   UNL A   1      42.738  29.785  35.014  1.00  0.00     0.049 A 
ATOM     61  H   UNL A   1      41.202  30.464  33.734  1.00  0.00     0.167 HD
ATOM     62  C   UNL A   1      42.923  28.314  33.021  1.00  0.00     0.074 A 
ATOM     63  C   UNL A   1      43.525  27.228  32.275  1.00  0.00     0.031 C 
ATOM     64  C   UNL A   1      43.335  28.713  34.252  1.00  0.00     0.034 A 
BRANCH  51  65
ATOM     65  C   UNL A   1      40.089  33.462  36.589  1.00  0.00     0.023 A 
ATOM     66  C   UNL A   1      40.961  34.553  36.757  1.00  0.00     0.031 A 
ATOM     67  C   UNL A   1      39.043  33.311  37.518  1.00  0.00     0.131 A 
ATOM     68  C   UNL A   1      40.822  35.398  37.868  1.00  0.00     0.055 A 
ATOM     69  C   UNL A   1      38.859  34.205  38.574  1.00  0.00     0.041 A 
ATOM     70  F   UNL A   1      38.189  32.279  37.425  1.00  0.00    -0.206 F 
ATOM     71  C   UNL A   1      39.762  35.248  38.764  1.00  0.00     0.022 A 
BRANCH  68  72
ATOM     72  S   UNL A   1      42.135  36.603  38.206  1.00  0.00     0.124 S 
ATOM     73  O   UNL A   1      41.409  37.624  38.960  1.00  0.00    -0.237 OA
ATOM     74  O   UNL A   1      43.099  35.815  38.963  1.00  0.00    -0.237 OA
ATOM     75  O   UNL A   1      42.573  37.017  36.875  1.00  0.00    -0.744 OA
ENDBRANCH  68  72
ENDBRANCH  51  65
BRANCH  52  76
ATOM     76  C   UNL A   1      41.183  27.288  28.761  1.00  0.00     0.023 A 
ATOM     77  C   UNL A   1      42.198  27.554  27.828  1.00  0.00     0.031 A 
ATOM     78  C   UNL A   1      40.344  26.185  28.525  1.00  0.00     0.131 A 
ATOM     79  C   UNL A   1      42.319  26.757  26.679  1.00  0.00     0.055 A 
ATOM     80  C   UNL A   1      40.501  25.363  27.409  1.00  0.00     0.041 A 
ATOM     81  F   UNL A   1      39.362  25.882  29.390  1.00  0.00    -0.206 F 
ATOM     82  C   UNL A   1      41.487  25.655  26.470  1.00  0.00     0.022 A 
BRANCH  79  83
ATOM     83  S   UNL A   1      43.534  27.231  25.418  1.00  0.00     0.124 S 
ATOM     84  O   UNL A   1      42.700  27.942  24.456  1.00  0.00    -0.237 OA
ATOM     85  O   UNL A   1      44.467  28.046  26.190  1.00  0.00    -0.237 OA
ATOM     86  O   UNL A   1      44.063  25.948  24.960  1.00  0.00    -0.744 OA
ENDBRANCH  79  83
ENDBRANCH  52  76
BRANCH  64  87
ATOM     87  C   UNL A   1      44.465  27.935  34.881  1.00  0.00     0.023 A 
ATOM     88  C   UNL A   1      44.231  26.790  35.662  1.00  0.00     0.031 A 
ATOM     89  C   UNL A   1      45.795  28.356  34.705  1.00  0.00     0.131 A 
ATOM     90  C   UNL A   1      45.307  26.138  36.285  1.00  0.00     0.055 A 
ATOM     91  C   UNL A   1      46.866  27.668  35.276  1.00  0.00     0.041 A 
ATOM     92  F   UNL A   1      46.075  29.446  33.971  1.00  0.00    -0.206 F 
ATOM     93  C   UNL A   1      46.624  26.559  36.083  1.00  0.00     0.022 A 
BRANCH  90  94
ATOM     94  S   UNL A   1      44.954  24.782  37.437  1.00  0.00     0.124 S 
ATOM     95  O   UNL A   1      43.553  25.022  37.768  1.00  0.00    -0.237 OA
ATOM     96  O   UNL A   1      45.223  23.602  36.623  1.00  0.00    -0.237 OA
ATOM     97  O   UNL A   1      45.897  25.008  38.531  1.00  0.00    -0.744 OA
ENDBRANCH  90  94
ENDBRANCH  64  87
ENDBRANCH  38  39
ENDBRANCH  30  33
ENDBRANCH  28  29
ENDBRANCH   1  28
TORSDOF 17
ENDMDL
