MODEL 1
REMARK VINA RESULT:     -10.3      0.000      0.000
REMARK SMILES CS(=O)(=O)c1ccc(/C=C(/C(=O)NCCCNC(=O)c2ccc(-c3c4nc(c(-c5cc(S(=O)(=O)[O-])ccc5F)c5ccc([nH]5)c(-c5cc(S(=O)(=O)[O-])ccc5F)c5nc(c(-c6cc(S(=O)(=O)[O-])ccc6F)c6ccc3[nH]6)C=C5)C=C4)cc2)c2cccc(-c3ccc(S(C)(=O)=O)cc3)c2)cc1
REMARK SMILES IDX 15 1 14 2 13 3 11 4 12 5 10 7 9 8 8 9 5 10 6 11 100 12 7 13
REMARK SMILES IDX 99 14 2 15 1 16 3 17 4 18 83 19 84 20 98 21 85 22 87 23
REMARK SMILES IDX 86 24 88 25 89 26 97 27 90 28 96 29 91 30 92 31 93 32 94 33
REMARK SMILES IDX 95 34 16 35 17 36 18 37 19 39 20 40 21 41 82 42 22 43 81 44
REMARK SMILES IDX 23 45 24 46 25 47 75 48 26 49 80 50 74 51 76 52 27 53 79 54
REMARK SMILES IDX 73 55 72 56 28 58 60 59 40 60 59 61 41 62 44 63 58 64 77 65
REMARK SMILES IDX 42 66 43 67 57 69 78 70 45 71 29 72 30 73 38 74 31 75 37 76
REMARK SMILES IDX 39 77 36 78 32 79 33 80 34 81 35 82 61 83 62 84 70 85 63 86
REMARK SMILES IDX 69 87 71 88 68 89 64 90 65 91 66 92 67 93 46 94 47 95 55 96
REMARK SMILES IDX 48 97 54 98 56 99 53 100 49 101 50 102 51 103 52 104
REMARK H PARENT 13 6 17 38 76 57 44 68
REMARK Flexibility Score: inf
ROOT
ATOM      1  C   UNL A   1      45.150  23.647  25.303  1.00  0.00     0.042 C 
ENDROOT
BRANCH   1   2
ATOM      2  C   UNL A   1      44.673  22.304  25.862  1.00  0.00     0.118 C 
BRANCH   2   3
ATOM      3  N   UNL A   1      44.391  22.403  27.283  1.00  0.00    -0.352 N 
ATOM      4  C   UNL A   1      43.309  22.774  28.014  1.00  0.00     0.251 C 
ATOM      5  O   UNL A   1      43.452  22.722  29.239  1.00  0.00    -0.269 OA
ATOM      6  H   UNL A   1      45.158  22.139  27.841  1.00  0.00     0.163 HD
BRANCH   4   7
ATOM      7  C   UNL A   1      41.971  23.146  27.414  1.00  0.00     0.047 C 
ATOM      8  C   UNL A   1      41.101  22.203  26.977  1.00  0.00     0.022 C 
BRANCH   8   9
ATOM      9  C   UNL A   1      39.721  22.349  26.452  1.00  0.00    -0.025 A 
ATOM     10  C   UNL A   1      37.058  22.406  25.548  1.00  0.00     0.067 A 
ATOM     11  C   UNL A   1      37.600  23.516  26.196  1.00  0.00     0.021 A 
ATOM     12  C   UNL A   1      37.850  21.288  25.290  1.00  0.00     0.021 A 
ATOM     13  C   UNL A   1      38.935  23.496  26.612  1.00  0.00     0.009 A 
ATOM     14  C   UNL A   1      39.172  21.261  25.750  1.00  0.00     0.009 A 
BRANCH  10  15
ATOM     15  S   UNL A   1      35.349  22.432  25.057  1.00  0.00     0.175 S 
ATOM     16  C   UNL A   1      34.502  23.327  26.333  1.00  0.00     0.163 C 
ATOM     17  O   UNL A   1      34.887  21.059  25.080  1.00  0.00    -0.224 OA
ATOM     18  O   UNL A   1      35.261  23.230  23.847  1.00  0.00    -0.224 OA
ENDBRANCH  10  15
ENDBRANCH   8   9
BRANCH   7  19
ATOM     19  C   UNL A   1      41.725  24.592  27.156  1.00  0.00    -0.012 A 
ATOM     20  C   UNL A   1      41.791  25.068  25.836  1.00  0.00     0.009 A 
ATOM     21  C   UNL A   1      41.295  25.465  28.165  1.00  0.00     0.017 A 
ATOM     22  C   UNL A   1      41.416  26.373  25.525  1.00  0.00     0.001 A 
ATOM     23  C   UNL A   1      40.830  26.756  27.853  1.00  0.00    -0.018 A 
ATOM     24  C   UNL A   1      40.922  27.205  26.526  1.00  0.00     0.009 A 
BRANCH  23  25
ATOM     25  C   UNL A   1      40.126  27.552  28.866  1.00  0.00    -0.018 A 
ATOM     26  C   UNL A   1      39.175  26.932  29.699  1.00  0.00     0.010 A 
ATOM     27  C   UNL A   1      40.429  28.905  29.085  1.00  0.00     0.010 A 
ATOM     28  C   UNL A   1      38.550  27.635  30.728  1.00  0.00     0.021 A 
ATOM     29  C   UNL A   1      39.799  29.620  30.107  1.00  0.00     0.021 A 
ATOM     30  C   UNL A   1      38.862  28.980  30.921  1.00  0.00     0.067 A 
BRANCH  30  31
ATOM     31  S   UNL A   1      38.073  29.864  32.242  1.00  0.00     0.175 S 
ATOM     32  C   UNL A   1      38.408  31.567  31.870  1.00  0.00     0.163 C 
ATOM     33  O   UNL A   1      36.647  29.638  32.117  1.00  0.00    -0.224 OA
ATOM     34  O   UNL A   1      38.772  29.542  33.472  1.00  0.00    -0.224 OA
ENDBRANCH  30  31
ENDBRANCH  23  25
ENDBRANCH   7  19
ENDBRANCH   4   7
ENDBRANCH   2   3
ENDBRANCH   1   2
BRANCH   1  35
ATOM     35  C   UNL A   1      46.560  24.039  25.749  1.00  0.00     0.118 C 
BRANCH  35  36
ATOM     36  N   UNL A   1      47.134  25.076  24.904  1.00  0.00    -0.352 N 
ATOM     37  C   UNL A   1      46.926  26.432  24.904  1.00  0.00     0.251 C 
ATOM     38  H   UNL A   1      47.772  24.754  24.228  1.00  0.00     0.163 HD
ATOM     39  O   UNL A   1      47.332  27.094  23.953  1.00  0.00    -0.269 OA
BRANCH  37  40
ATOM     40  C   UNL A   1      46.211  27.097  26.019  1.00  0.00     0.039 A 
ATOM     41  C   UNL A   1      46.948  27.531  27.126  1.00  0.00     0.014 A 
ATOM     42  C   UNL A   1      44.820  27.242  26.012  1.00  0.00     0.014 A 
ATOM     43  C   UNL A   1      46.300  28.154  28.196  1.00  0.00     0.010 A 
ATOM     44  C   UNL A   1      44.182  27.917  27.052  1.00  0.00     0.010 A 
ATOM     45  C   UNL A   1      44.915  28.378  28.158  1.00  0.00    -0.014 A 
BRANCH  45  46
ATOM     46  C   UNL A   1      44.218  29.081  29.269  1.00  0.00     0.031 A 
ATOM     47  C   UNL A   1      43.898  30.547  29.156  1.00  0.00     0.074 A 
ATOM     48  C   UNL A   1      43.923  28.410  30.400  1.00  0.00     0.049 A 
ATOM     49  N   UNL A   1      43.372  31.352  30.043  1.00  0.00    -0.248 NA
ATOM     50  C   UNL A   1      44.243  31.198  27.883  1.00  0.00     0.031 C 
ATOM     51  C   UNL A   1      44.213  26.996  30.643  1.00  0.00     0.029 A 
ATOM     52  N   UNL A   1      43.326  28.830  31.563  1.00  0.00    -0.354 N 
ATOM     53  C   UNL A   1      43.332  32.607  29.443  1.00  0.00     0.074 A 
ATOM     54  C   UNL A   1      43.943  32.463  28.138  1.00  0.00     0.031 C 
ATOM     55  C   UNL A   1      43.781  26.662  31.869  1.00  0.00     0.029 A 
ATOM     56  C   UNL A   1      43.222  27.845  32.517  1.00  0.00     0.049 A 
ATOM     57  H   UNL A   1      43.002  29.749  31.701  1.00  0.00     0.167 HD
ATOM     58  C   UNL A   1      42.815  33.765  29.925  1.00  0.00     0.034 A 
ATOM     59  C   UNL A   1      42.744  27.891  33.777  1.00  0.00     0.034 A 
ATOM     60  C   UNL A   1      42.202  33.891  31.227  1.00  0.00     0.049 A 
ATOM     61  C   UNL A   1      42.192  29.193  34.300  1.00  0.00     0.074 A 
ATOM     62  C   UNL A   1      41.612  35.005  31.800  1.00  0.00     0.029 A 
ATOM     63  N   UNL A   1      42.104  32.868  32.162  1.00  0.00    -0.354 N 
ATOM     64  N   UNL A   1      42.127  30.361  33.704  1.00  0.00    -0.248 NA
ATOM     65  C   UNL A   1      41.638  29.178  35.660  1.00  0.00     0.031 C 
ATOM     66  C   UNL A   1      41.212  34.672  33.100  1.00  0.00     0.029 A 
ATOM     67  C   UNL A   1      41.486  33.331  33.315  1.00  0.00     0.049 A 
ATOM     68  H   UNL A   1      42.426  31.947  32.026  1.00  0.00     0.167 HD
ATOM     69  C   UNL A   1      41.496  31.212  34.608  1.00  0.00     0.074 A 
ATOM     70  C   UNL A   1      41.188  30.418  35.779  1.00  0.00     0.031 C 
ATOM     71  C   UNL A   1      41.196  32.529  34.480  1.00  0.00     0.034 A 
BRANCH  58  72
ATOM     72  C   UNL A   1      42.917  34.989  29.044  1.00  0.00     0.023 A 
ATOM     73  C   UNL A   1      44.140  35.655  28.849  1.00  0.00     0.031 A 
ATOM     74  C   UNL A   1      41.775  35.517  28.417  1.00  0.00     0.131 A 
ATOM     75  C   UNL A   1      44.179  36.852  28.118  1.00  0.00     0.055 A 
ATOM     76  C   UNL A   1      41.835  36.663  27.620  1.00  0.00     0.041 A 
ATOM     77  F   UNL A   1      40.575  34.936  28.579  1.00  0.00    -0.206 F 
ATOM     78  C   UNL A   1      43.039  37.347  27.481  1.00  0.00     0.022 A 
BRANCH  75  79
ATOM     79  S   UNL A   1      45.707  37.828  28.136  1.00  0.00     0.124 S 
ATOM     80  O   UNL A   1      45.863  38.156  26.722  1.00  0.00    -0.237 OA
ATOM     81  O   UNL A   1      45.361  38.940  29.015  1.00  0.00    -0.237 OA
ATOM     82  O   UNL A   1      46.703  36.899  28.667  1.00  0.00    -0.744 OA
ENDBRANCH  75  79
ENDBRANCH  58  72
BRANCH  59  83
ATOM     83  C   UNL A   1      42.776  26.677  34.641  1.00  0.00     0.023 A 
ATOM     84  C   UNL A   1      43.978  26.221  35.203  1.00  0.00     0.031 A 
ATOM     85  C   UNL A   1      41.609  25.932  34.885  1.00  0.00     0.131 A 
ATOM     86  C   UNL A   1      43.997  25.026  35.941  1.00  0.00     0.055 A 
ATOM     87  C   UNL A   1      41.623  24.772  35.662  1.00  0.00     0.041 A 
ATOM     88  F   UNL A   1      40.431  26.329  34.377  1.00  0.00    -0.206 F 
ATOM     89  C   UNL A   1      42.827  24.306  36.183  1.00  0.00     0.022 A 
BRANCH  86  90
ATOM     90  S   UNL A   1      45.595  24.384  36.509  1.00  0.00     0.124 S 
ATOM     91  O   UNL A   1      46.491  24.839  35.453  1.00  0.00    -0.237 OA
ATOM     92  O   UNL A   1      45.741  25.042  37.803  1.00  0.00    -0.237 OA
ATOM     93  O   UNL A   1      45.379  22.940  36.567  1.00  0.00    -0.744 OA
ENDBRANCH  86  90
ENDBRANCH  59  83
BRANCH  71  94
ATOM     94  C   UNL A   1      40.455  33.174  35.626  1.00  0.00     0.023 A 
ATOM     95  C   UNL A   1      41.131  33.856  36.653  1.00  0.00     0.031 A 
ATOM     96  C   UNL A   1      39.054  33.084  35.700  1.00  0.00     0.131 A 
ATOM     97  C   UNL A   1      40.410  34.373  37.740  1.00  0.00     0.055 A 
ATOM     98  C   UNL A   1      38.337  33.650  36.755  1.00  0.00     0.041 A 
ATOM     99  F   UNL A   1      38.359  32.442  34.747  1.00  0.00    -0.206 F 
ATOM    100  C   UNL A   1      39.016  34.287  37.790  1.00  0.00     0.022 A 
BRANCH  97 101
ATOM    101  S   UNL A   1      41.326  35.081  39.136  1.00  0.00     0.124 S 
ATOM    102  O   UNL A   1      42.699  34.702  38.821  1.00  0.00    -0.237 OA
ATOM    103  O   UNL A   1      41.016  36.503  39.023  1.00  0.00    -0.237 OA
ATOM    104  O   UNL A   1      40.749  34.412  40.300  1.00  0.00    -0.744 OA
ENDBRANCH  97 101
ENDBRANCH  71  94
ENDBRANCH  45  46
ENDBRANCH  37  40
ENDBRANCH  35  36
ENDBRANCH   1  35
TORSDOF 18
ENDMDL
MODEL 2
REMARK VINA RESULT:      -9.9      3.667     11.202
REMARK SMILES CS(=O)(=O)c1ccc(/C=C(/C(=O)NCCCNC(=O)c2ccc(-c3c4nc(c(-c5cc(S(=O)(=O)[O-])ccc5F)c5ccc([nH]5)c(-c5cc(S(=O)(=O)[O-])ccc5F)c5nc(c(-c6cc(S(=O)(=O)[O-])ccc6F)c6ccc3[nH]6)C=C5)C=C4)cc2)c2cccc(-c3ccc(S(C)(=O)=O)cc3)c2)cc1
REMARK SMILES IDX 15 1 14 2 13 3 11 4 12 5 10 7 9 8 8 9 5 10 6 11 100 12 7 13
REMARK SMILES IDX 99 14 2 15 1 16 3 17 4 18 83 19 84 20 98 21 85 22 87 23
REMARK SMILES IDX 86 24 88 25 89 26 97 27 90 28 96 29 91 30 92 31 93 32 94 33
REMARK SMILES IDX 95 34 16 35 17 36 18 37 19 39 20 40 21 41 82 42 22 43 81 44
REMARK SMILES IDX 23 45 24 46 25 47 75 48 26 49 80 50 74 51 76 52 27 53 79 54
REMARK SMILES IDX 73 55 72 56 28 58 60 59 40 60 59 61 41 62 44 63 58 64 77 65
REMARK SMILES IDX 42 66 43 67 57 69 78 70 45 71 29 72 30 73 38 74 31 75 37 76
REMARK SMILES IDX 39 77 36 78 32 79 33 80 34 81 35 82 61 83 62 84 70 85 63 86
REMARK SMILES IDX 69 87 71 88 68 89 64 90 65 91 66 92 67 93 46 94 47 95 55 96
REMARK SMILES IDX 48 97 54 98 56 99 53 100 49 101 50 102 51 103 52 104
REMARK H PARENT 13 6 17 38 76 57 44 68
REMARK Flexibility Score: inf
ROOT
ATOM      1  C   UNL A   1      35.260  34.317  31.847  1.00  0.00     0.042 C 
ENDROOT
BRANCH   1   2
ATOM      2  C   UNL A   1      36.228  33.679  30.849  1.00  0.00     0.118 C 
BRANCH   2   3
ATOM      3  N   UNL A   1      35.962  34.141  29.498  1.00  0.00    -0.352 N 
ATOM      4  C   UNL A   1      35.619  33.531  28.335  1.00  0.00     0.251 C 
ATOM      5  O   UNL A   1      35.471  34.281  27.365  1.00  0.00    -0.269 OA
ATOM      6  H   UNL A   1      36.049  35.118  29.407  1.00  0.00     0.163 HD
BRANCH   4   7
ATOM      7  C   UNL A   1      35.338  32.049  28.208  1.00  0.00     0.047 C 
ATOM      8  C   UNL A   1      34.229  31.587  27.583  1.00  0.00     0.022 C 
BRANCH   8   9
ATOM      9  C   UNL A   1      33.819  30.196  27.273  1.00  0.00    -0.025 A 
ATOM     10  C   UNL A   1      32.868  27.650  26.544  1.00  0.00     0.067 A 
ATOM     11  C   UNL A   1      34.236  27.919  26.517  1.00  0.00     0.021 A 
ATOM     12  C   UNL A   1      31.971  28.620  26.990  1.00  0.00     0.021 A 
ATOM     13  C   UNL A   1      34.707  29.175  26.914  1.00  0.00     0.009 A 
ATOM     14  C   UNL A   1      32.448  29.888  27.343  1.00  0.00     0.009 A 
BRANCH  10  15
ATOM     15  S   UNL A   1      32.281  26.062  26.002  1.00  0.00     0.175 S 
ATOM     16  C   UNL A   1      33.710  25.011  25.978  1.00  0.00     0.163 C 
ATOM     17  O   UNL A   1      31.817  26.231  24.639  1.00  0.00    -0.224 OA
ATOM     18  O   UNL A   1      31.396  25.554  27.035  1.00  0.00    -0.224 OA
ENDBRANCH  10  15
ENDBRANCH   8   9
BRANCH   7  19
ATOM     19  C   UNL A   1      36.236  31.126  28.956  1.00  0.00    -0.012 A 
ATOM     20  C   UNL A   1      35.737  30.462  30.089  1.00  0.00     0.009 A 
ATOM     21  C   UNL A   1      37.515  30.792  28.489  1.00  0.00     0.017 A 
ATOM     22  C   UNL A   1      36.483  29.474  30.727  1.00  0.00     0.001 A 
ATOM     23  C   UNL A   1      38.242  29.736  29.068  1.00  0.00    -0.018 A 
ATOM     24  C   UNL A   1      37.721  29.102  30.208  1.00  0.00     0.009 A 
BRANCH  23  25
ATOM     25  C   UNL A   1      39.442  29.212  28.404  1.00  0.00    -0.018 A 
ATOM     26  C   UNL A   1      39.309  28.221  27.412  1.00  0.00     0.010 A 
ATOM     27  C   UNL A   1      40.719  29.726  28.671  1.00  0.00     0.010 A 
ATOM     28  C   UNL A   1      40.415  27.762  26.698  1.00  0.00     0.021 A 
ATOM     29  C   UNL A   1      41.836  29.264  27.969  1.00  0.00     0.021 A 
ATOM     30  C   UNL A   1      41.676  28.283  26.988  1.00  0.00     0.067 A 
BRANCH  30  31
ATOM     31  S   UNL A   1      43.077  27.704  26.066  1.00  0.00     0.175 S 
ATOM     32  C   UNL A   1      44.395  28.773  26.585  1.00  0.00     0.163 C 
ATOM     33  O   UNL A   1      43.366  26.361  26.524  1.00  0.00    -0.224 OA
ATOM     34  O   UNL A   1      42.827  27.973  24.661  1.00  0.00    -0.224 OA
ENDBRANCH  30  31
ENDBRANCH  23  25
ENDBRANCH   7  19
ENDBRANCH   4   7
ENDBRANCH   2   3
ENDBRANCH   1   2
BRANCH   1  35
ATOM     35  C   UNL A   1      34.686  33.332  32.869  1.00  0.00     0.118 C 
BRANCH  35  36
ATOM     36  N   UNL A   1      34.982  33.728  34.238  1.00  0.00    -0.352 N 
ATOM     37  C   UNL A   1      36.084  33.471  35.014  1.00  0.00     0.251 C 
ATOM     38  H   UNL A   1      34.282  34.264  34.675  1.00  0.00     0.163 HD
ATOM     39  O   UNL A   1      36.026  33.699  36.220  1.00  0.00    -0.269 OA
BRANCH  37  40
ATOM     40  C   UNL A   1      37.324  32.915  34.423  1.00  0.00     0.039 A 
ATOM     41  C   UNL A   1      38.521  33.620  34.587  1.00  0.00     0.014 A 
ATOM     42  C   UNL A   1      37.308  31.742  33.663  1.00  0.00     0.014 A 
ATOM     43  C   UNL A   1      39.705  33.125  34.033  1.00  0.00     0.010 A 
ATOM     44  C   UNL A   1      38.500  31.217  33.163  1.00  0.00     0.010 A 
ATOM     45  C   UNL A   1      39.711  31.905  33.339  1.00  0.00    -0.014 A 
BRANCH  45  46
ATOM     46  C   UNL A   1      40.971  31.341  32.785  1.00  0.00     0.031 A 
ATOM     47  C   UNL A   1      41.652  30.187  33.470  1.00  0.00     0.074 A 
ATOM     48  C   UNL A   1      41.530  31.905  31.696  1.00  0.00     0.049 A 
ATOM     49  N   UNL A   1      42.794  29.612  33.190  1.00  0.00    -0.248 NA
ATOM     50  C   UNL A   1      40.968  29.625  34.644  1.00  0.00     0.031 C 
ATOM     51  C   UNL A   1      40.985  33.049  30.963  1.00  0.00     0.029 A 
ATOM     52  N   UNL A   1      42.687  31.602  31.021  1.00  0.00    -0.354 N 
ATOM     53  C   UNL A   1      42.972  28.627  34.158  1.00  0.00     0.074 A 
ATOM     54  C   UNL A   1      41.847  28.727  35.064  1.00  0.00     0.031 C 
ATOM     55  C   UNL A   1      41.796  33.341  29.935  1.00  0.00     0.029 A 
ATOM     56  C   UNL A   1      42.942  32.436  29.958  1.00  0.00     0.049 A 
ATOM     57  H   UNL A   1      43.280  30.858  31.275  1.00  0.00     0.167 HD
ATOM     58  C   UNL A   1      43.968  27.713  34.267  1.00  0.00     0.034 A 
ATOM     59  C   UNL A   1      43.985  32.477  29.105  1.00  0.00     0.034 A 
ATOM     60  C   UNL A   1      45.080  27.621  33.350  1.00  0.00     0.049 A 
ATOM     61  C   UNL A   1      45.091  31.463  29.257  1.00  0.00     0.074 A 
ATOM     62  C   UNL A   1      46.123  26.710  33.344  1.00  0.00     0.029 A 
ATOM     63  N   UNL A   1      45.298  28.476  32.276  1.00  0.00    -0.354 N 
ATOM     64  N   UNL A   1      45.224  30.514  30.154  1.00  0.00    -0.248 NA
ATOM     65  C   UNL A   1      46.179  31.519  28.272  1.00  0.00     0.031 C 
ATOM     66  C   UNL A   1      46.998  27.049  32.305  1.00  0.00     0.029 A 
ATOM     67  C   UNL A   1      46.468  28.129  31.617  1.00  0.00     0.049 A 
ATOM     68  H   UNL A   1      44.706  29.221  32.020  1.00  0.00     0.167 HD
ATOM     69  C   UNL A   1      46.396  29.841  29.822  1.00  0.00     0.074 A 
ATOM     70  C   UNL A   1      46.921  30.484  28.634  1.00  0.00     0.031 C 
ATOM     71  C   UNL A   1      46.984  28.786  30.440  1.00  0.00     0.034 A 
BRANCH  58  72
ATOM     72  C   UNL A   1      43.906  26.758  35.436  1.00  0.00     0.023 A 
ATOM     73  C   UNL A   1      44.340  27.136  36.719  1.00  0.00     0.031 A 
ATOM     74  C   UNL A   1      43.436  25.444  35.264  1.00  0.00     0.131 A 
ATOM     75  C   UNL A   1      44.375  26.191  37.756  1.00  0.00     0.055 A 
ATOM     76  C   UNL A   1      43.393  24.531  36.321  1.00  0.00     0.041 A 
ATOM     77  F   UNL A   1      43.024  25.017  34.059  1.00  0.00    -0.206 F 
ATOM     78  C   UNL A   1      43.880  24.898  37.572  1.00  0.00     0.022 A 
BRANCH  75  79
ATOM     79  S   UNL A   1      45.210  26.634  39.303  1.00  0.00     0.124 S 
ATOM     80  O   UNL A   1      44.928  28.064  39.391  1.00  0.00    -0.237 OA
ATOM     81  O   UNL A   1      44.534  25.788  40.281  1.00  0.00    -0.237 OA
ATOM     82  O   UNL A   1      46.609  26.296  39.047  1.00  0.00    -0.744 OA
ENDBRANCH  75  79
ENDBRANCH  58  72
BRANCH  59  83
ATOM     83  C   UNL A   1      44.048  33.518  28.040  1.00  0.00     0.023 A 
ATOM     84  C   UNL A   1      44.286  34.864  28.358  1.00  0.00     0.031 A 
ATOM     85  C   UNL A   1      43.832  33.187  26.691  1.00  0.00     0.131 A 
ATOM     86  C   UNL A   1      44.255  35.838  27.347  1.00  0.00     0.055 A 
ATOM     87  C   UNL A   1      43.852  34.152  25.682  1.00  0.00     0.041 A 
ATOM     88  F   UNL A   1      43.608  31.913  26.332  1.00  0.00    -0.206 F 
ATOM     89  C   UNL A   1      44.050  35.489  26.011  1.00  0.00     0.022 A 
BRANCH  86  90
ATOM     90  S   UNL A   1      44.402  37.583  27.820  1.00  0.00     0.124 S 
ATOM     91  O   UNL A   1      45.815  37.679  28.164  1.00  0.00    -0.237 OA
ATOM     92  O   UNL A   1      43.992  38.262  26.595  1.00  0.00    -0.237 OA
ATOM     93  O   UNL A   1      43.475  37.710  28.942  1.00  0.00    -0.744 OA
ENDBRANCH  86  90
ENDBRANCH  59  83
BRANCH  71  94
ATOM     94  C   UNL A   1      48.240  28.238  29.806  1.00  0.00     0.023 A 
ATOM     95  C   UNL A   1      48.196  27.212  28.847  1.00  0.00     0.031 A 
ATOM     96  C   UNL A   1      49.497  28.739  30.184  1.00  0.00     0.131 A 
ATOM     97  C   UNL A   1      49.391  26.679  28.340  1.00  0.00     0.055 A 
ATOM     98  C   UNL A   1      50.681  28.244  29.635  1.00  0.00     0.041 A 
ATOM     99  F   UNL A   1      49.597  29.719  31.098  1.00  0.00    -0.206 F 
ATOM    100  C   UNL A   1      50.632  27.198  28.716  1.00  0.00     0.022 A 
BRANCH  97 101
ATOM    101  S   UNL A   1      49.307  25.233  27.248  1.00  0.00     0.124 S 
ATOM    102  O   UNL A   1      48.027  24.641  27.627  1.00  0.00    -0.237 OA
ATOM    103  O   UNL A   1      49.360  25.840  25.922  1.00  0.00    -0.237 OA
ATOM    104  O   UNL A   1      50.485  24.452  27.620  1.00  0.00    -0.744 OA
ENDBRANCH  97 101
ENDBRANCH  71  94
ENDBRANCH  45  46
ENDBRANCH  37  40
ENDBRANCH  35  36
ENDBRANCH   1  35
TORSDOF 18
ENDMDL
MODEL 3
REMARK VINA RESULT:      -9.7      4.000      8.542
REMARK SMILES CS(=O)(=O)c1ccc(/C=C(/C(=O)NCCCNC(=O)c2ccc(-c3c4nc(c(-c5cc(S(=O)(=O)[O-])ccc5F)c5ccc([nH]5)c(-c5cc(S(=O)(=O)[O-])ccc5F)c5nc(c(-c6cc(S(=O)(=O)[O-])ccc6F)c6ccc3[nH]6)C=C5)C=C4)cc2)c2cccc(-c3ccc(S(C)(=O)=O)cc3)c2)cc1
REMARK SMILES IDX 15 1 14 2 13 3 11 4 12 5 10 7 9 8 8 9 5 10 6 11 100 12 7 13
REMARK SMILES IDX 99 14 2 15 1 16 3 17 4 18 83 19 84 20 98 21 85 22 87 23
REMARK SMILES IDX 86 24 88 25 89 26 97 27 90 28 96 29 91 30 92 31 93 32 94 33
REMARK SMILES IDX 95 34 16 35 17 36 18 37 19 39 20 40 21 41 82 42 22 43 81 44
REMARK SMILES IDX 23 45 24 46 25 47 75 48 26 49 80 50 74 51 76 52 27 53 79 54
REMARK SMILES IDX 73 55 72 56 28 58 60 59 40 60 59 61 41 62 44 63 58 64 77 65
REMARK SMILES IDX 42 66 43 67 57 69 78 70 45 71 29 72 30 73 38 74 31 75 37 76
REMARK SMILES IDX 39 77 36 78 32 79 33 80 34 81 35 82 61 83 62 84 70 85 63 86
REMARK SMILES IDX 69 87 71 88 68 89 64 90 65 91 66 92 67 93 46 94 47 95 55 96
REMARK SMILES IDX 48 97 54 98 56 99 53 100 49 101 50 102 51 103 52 104
REMARK H PARENT 13 6 17 38 76 57 44 68
REMARK Flexibility Score: inf
ROOT
ATOM      1  C   UNL A   1      46.738  29.250  26.289  1.00  0.00     0.042 C 
ENDROOT
BRANCH   1   2
ATOM      2  C   UNL A   1      45.664  28.271  26.766  1.00  0.00     0.118 C 
BRANCH   2   3
ATOM      3  N   UNL A   1      44.487  28.335  25.918  1.00  0.00    -0.352 N 
ATOM      4  C   UNL A   1      43.680  27.410  25.339  1.00  0.00     0.251 C 
ATOM      5  O   UNL A   1      42.746  27.862  24.671  1.00  0.00    -0.269 OA
ATOM      6  H   UNL A   1      44.212  29.259  25.719  1.00  0.00     0.163 HD
BRANCH   4   7
ATOM      7  C   UNL A   1      43.822  25.917  25.546  1.00  0.00     0.047 C 
ATOM      8  C   UNL A   1      44.617  25.162  24.751  1.00  0.00     0.022 C 
BRANCH   8   9
ATOM      9  C   UNL A   1      44.964  23.722  24.841  1.00  0.00    -0.025 A 
ATOM     10  C   UNL A   1      45.394  20.944  24.946  1.00  0.00     0.067 A 
ATOM     11  C   UNL A   1      46.313  21.769  24.299  1.00  0.00     0.021 A 
ATOM     12  C   UNL A   1      44.291  21.496  25.596  1.00  0.00     0.021 A 
ATOM     13  C   UNL A   1      46.114  23.153  24.279  1.00  0.00     0.009 A 
ATOM     14  C   UNL A   1      44.077  22.878  25.533  1.00  0.00     0.009 A 
BRANCH  10  15
ATOM     15  S   UNL A   1      45.642  19.183  24.931  1.00  0.00     0.175 S 
ATOM     16  C   UNL A   1      44.093  18.480  25.435  1.00  0.00     0.163 C 
ATOM     17  O   UNL A   1      46.629  18.892  25.951  1.00  0.00    -0.224 OA
ATOM     18  O   UNL A   1      45.858  18.791  23.549  1.00  0.00    -0.224 OA
ENDBRANCH  10  15
ENDBRANCH   8   9
BRANCH   7  19
ATOM     19  C   UNL A   1      42.914  25.284  26.543  1.00  0.00    -0.012 A 
ATOM     20  C   UNL A   1      43.055  25.620  27.900  1.00  0.00     0.009 A 
ATOM     21  C   UNL A   1      41.837  24.474  26.159  1.00  0.00     0.017 A 
ATOM     22  C   UNL A   1      42.134  25.179  28.847  1.00  0.00     0.001 A 
ATOM     23  C   UNL A   1      40.850  24.096  27.089  1.00  0.00    -0.018 A 
ATOM     24  C   UNL A   1      41.029  24.436  28.439  1.00  0.00     0.009 A 
BRANCH  23  25
ATOM     25  C   UNL A   1      39.593  23.492  26.629  1.00  0.00    -0.018 A 
ATOM     26  C   UNL A   1      38.425  24.278  26.576  1.00  0.00     0.010 A 
ATOM     27  C   UNL A   1      39.534  22.171  26.163  1.00  0.00     0.010 A 
ATOM     28  C   UNL A   1      37.234  23.766  26.063  1.00  0.00     0.021 A 
ATOM     29  C   UNL A   1      38.341  21.645  25.658  1.00  0.00     0.021 A 
ATOM     30  C   UNL A   1      37.199  22.446  25.613  1.00  0.00     0.067 A 
BRANCH  30  31
ATOM     31  S   UNL A   1      35.683  21.805  24.950  1.00  0.00     0.175 S 
ATOM     32  C   UNL A   1      34.461  22.290  26.142  1.00  0.00     0.163 C 
ATOM     33  O   UNL A   1      35.424  22.513  23.713  1.00  0.00    -0.224 OA
ATOM     34  O   UNL A   1      35.764  20.356  24.975  1.00  0.00    -0.224 OA
ENDBRANCH  30  31
ENDBRANCH  23  25
ENDBRANCH   7  19
ENDBRANCH   4   7
ENDBRANCH   2   3
ENDBRANCH   1   2
BRANCH   1  35
ATOM     35  C   UNL A   1      46.591  30.661  26.865  1.00  0.00     0.118 C 
BRANCH  35  36
ATOM     36  N   UNL A   1      45.971  31.577  25.920  1.00  0.00    -0.352 N 
ATOM     37  C   UNL A   1      44.830  32.331  26.039  1.00  0.00     0.251 C 
ATOM     38  H   UNL A   1      46.444  31.672  25.063  1.00  0.00     0.163 HD
ATOM     39  O   UNL A   1      44.359  32.856  25.033  1.00  0.00    -0.269 OA
BRANCH  37  40
ATOM     40  C   UNL A   1      44.160  32.504  27.348  1.00  0.00     0.039 A 
ATOM     41  C   UNL A   1      43.630  31.377  27.986  1.00  0.00     0.014 A 
ATOM     42  C   UNL A   1      43.996  33.767  27.924  1.00  0.00     0.014 A 
ATOM     43  C   UNL A   1      42.984  31.510  29.218  1.00  0.00     0.010 A 
ATOM     44  C   UNL A   1      43.406  33.891  29.182  1.00  0.00     0.010 A 
ATOM     45  C   UNL A   1      42.890  32.764  29.842  1.00  0.00    -0.014 A 
BRANCH  45  46
ATOM     46  C   UNL A   1      42.247  32.914  31.175  1.00  0.00     0.031 A 
ATOM     47  C   UNL A   1      43.051  32.711  32.431  1.00  0.00     0.074 A 
ATOM     48  C   UNL A   1      40.928  33.181  31.252  1.00  0.00     0.049 A 
ATOM     49  N   UNL A   1      42.655  32.717  33.679  1.00  0.00    -0.248 NA
ATOM     50  C   UNL A   1      44.485  32.436  32.256  1.00  0.00     0.031 C 
ATOM     51  C   UNL A   1      40.036  33.365  30.107  1.00  0.00     0.029 A 
ATOM     52  N   UNL A   1      40.105  33.329  32.340  1.00  0.00    -0.354 N 
ATOM     53  C   UNL A   1      43.788  32.437  34.439  1.00  0.00     0.074 A 
ATOM     54  C   UNL A   1      44.869  32.208  33.503  1.00  0.00     0.031 C 
ATOM     55  C   UNL A   1      38.795  33.616  30.551  1.00  0.00     0.029 A 
ATOM     56  C   UNL A   1      38.791  33.570  32.010  1.00  0.00     0.049 A 
ATOM     57  H   UNL A   1      40.424  33.269  33.270  1.00  0.00     0.167 HD
ATOM     58  C   UNL A   1      43.917  32.396  35.789  1.00  0.00     0.034 A 
ATOM     59  C   UNL A   1      37.704  33.721  32.793  1.00  0.00     0.034 A 
ATOM     60  C   UNL A   1      42.830  32.634  36.709  1.00  0.00     0.049 A 
ATOM     61  C   UNL A   1      37.867  33.652  34.290  1.00  0.00     0.074 A 
ATOM     62  C   UNL A   1      42.858  32.655  38.093  1.00  0.00     0.029 A 
ATOM     63  N   UNL A   1      41.515  32.886  36.337  1.00  0.00    -0.354 N 
ATOM     64  N   UNL A   1      38.953  33.425  34.992  1.00  0.00    -0.248 NA
ATOM     65  C   UNL A   1      36.661  33.874  35.098  1.00  0.00     0.031 C 
ATOM     66  C   UNL A   1      41.553  32.862  38.557  1.00  0.00     0.029 A 
ATOM     67  C   UNL A   1      40.721  33.041  37.464  1.00  0.00     0.049 A 
ATOM     68  H   UNL A   1      41.194  32.947  35.408  1.00  0.00     0.167 HD
ATOM     69  C   UNL A   1      38.564  33.507  36.326  1.00  0.00     0.074 A 
ATOM     70  C   UNL A   1      37.150  33.820  36.328  1.00  0.00     0.031 C 
ATOM     71  C   UNL A   1      39.309  33.342  37.449  1.00  0.00     0.034 A 
BRANCH  58  72
ATOM     72  C   UNL A   1      45.282  32.057  36.343  1.00  0.00     0.023 A 
ATOM     73  C   UNL A   1      45.636  30.736  36.670  1.00  0.00     0.031 A 
ATOM     74  C   UNL A   1      46.231  33.068  36.577  1.00  0.00     0.131 A 
ATOM     75  C   UNL A   1      46.868  30.471  37.287  1.00  0.00     0.055 A 
ATOM     76  C   UNL A   1      47.489  32.787  37.115  1.00  0.00     0.041 A 
ATOM     77  F   UNL A   1      45.946  34.351  36.302  1.00  0.00    -0.206 F 
ATOM     78  C   UNL A   1      47.808  31.484  37.489  1.00  0.00     0.022 A 
BRANCH  75  79
ATOM     79  S   UNL A   1      47.162  28.812  37.956  1.00  0.00     0.124 S 
ATOM     80  O   UNL A   1      48.490  28.514  37.428  1.00  0.00    -0.237 OA
ATOM     81  O   UNL A   1      47.082  29.032  39.396  1.00  0.00    -0.237 OA
ATOM     82  O   UNL A   1      46.079  28.014  37.385  1.00  0.00    -0.744 OA
ENDBRANCH  75  79
ENDBRANCH  58  72
BRANCH  59  83
ATOM     83  C   UNL A   1      36.360  33.938  32.184  1.00  0.00     0.023 A 
ATOM     84  C   UNL A   1      35.692  35.164  32.327  1.00  0.00     0.031 A 
ATOM     85  C   UNL A   1      35.708  32.909  31.484  1.00  0.00     0.131 A 
ATOM     86  C   UNL A   1      34.392  35.316  31.820  1.00  0.00     0.055 A 
ATOM     87  C   UNL A   1      34.435  33.081  30.937  1.00  0.00     0.041 A 
ATOM     88  F   UNL A   1      36.306  31.719  31.312  1.00  0.00    -0.206 F 
ATOM     89  C   UNL A   1      33.764  34.286  31.116  1.00  0.00     0.022 A 
BRANCH  86  90
ATOM     90  S   UNL A   1      33.499  36.856  32.168  1.00  0.00     0.124 S 
ATOM     91  O   UNL A   1      32.408  36.382  33.012  1.00  0.00    -0.237 OA
ATOM     92  O   UNL A   1      34.524  37.654  32.832  1.00  0.00    -0.237 OA
ATOM     93  O   UNL A   1      33.105  37.327  30.843  1.00  0.00    -0.744 OA
ENDBRANCH  86  90
ENDBRANCH  59  83
BRANCH  71  94
ATOM     94  C   UNL A   1      38.605  33.545  38.769  1.00  0.00     0.023 A 
ATOM     95  C   UNL A   1      37.652  32.630  39.247  1.00  0.00     0.031 A 
ATOM     96  C   UNL A   1      38.882  34.682  39.548  1.00  0.00     0.131 A 
ATOM     97  C   UNL A   1      36.966  32.897  40.442  1.00  0.00     0.055 A 
ATOM     98  C   UNL A   1      38.238  34.914  40.764  1.00  0.00     0.041 A 
ATOM     99  F   UNL A   1      39.784  35.589  39.137  1.00  0.00    -0.206 F 
ATOM    100  C   UNL A   1      37.263  34.026  41.210  1.00  0.00     0.022 A 
BRANCH  97 101
ATOM    101  S   UNL A   1      35.611  31.796  40.935  1.00  0.00     0.124 S 
ATOM    102  O   UNL A   1      36.187  31.103  42.083  1.00  0.00    -0.237 OA
ATOM    103  O   UNL A   1      34.537  32.738  41.232  1.00  0.00    -0.237 OA
ATOM    104  O   UNL A   1      35.396  30.964  39.753  1.00  0.00    -0.744 OA
ENDBRANCH  97 101
ENDBRANCH  71  94
ENDBRANCH  45  46
ENDBRANCH  37  40
ENDBRANCH  35  36
ENDBRANCH   1  35
TORSDOF 18
ENDMDL
