MODEL 1
REMARK VINA RESULT:     -11.0      0.000      0.000
REMARK SMILES O=C(CCCc1nc2cc(Cl)ccc2[nH]1)NCCCNC(=O)c1ccc(-c2c3nc(c(-c4cc(S(=O)(=O)[O-])ccc4F)c4ccc([nH]4)c(-c4cc(S(=O)(=O)[O-])ccc4F)c4nc(c(-c5cc(S(=O)(=O)[O-])ccc5F)c5ccc2[nH]5)C=C4)C=C3)cc1
REMARK SMILES IDX 18 1 17 2 16 3 1 4 2 5 3 7 4 8 5 9 6 10 7 11 15 12 8 13
REMARK SMILES IDX 14 14 9 16 13 17 10 18 12 19 11 20 19 21 20 22 21 23 22 25
REMARK SMILES IDX 23 26 24 27 85 28 25 29 84 30 26 31 27 32 28 33 78 34 29 35
REMARK SMILES IDX 83 36 77 37 79 38 30 39 82 40 76 41 75 42 31 44 63 45 43 46
REMARK SMILES IDX 62 47 44 48 47 49 61 50 80 51 45 52 46 53 60 55 81 56 48 57
REMARK SMILES IDX 32 58 33 59 41 60 34 61 40 62 42 63 39 64 35 65 36 66 37 67
REMARK SMILES IDX 38 68 64 69 65 70 73 71 66 72 72 73 74 74 71 75 67 76 68 77
REMARK SMILES IDX 69 78 70 79 49 80 50 81 58 82 51 83 57 84 59 85 56 86 52 87
REMARK SMILES IDX 53 88 54 89 55 90
REMARK H PARENT 16 6 15 15 20 24 79 43 47 54
REMARK Flexibility Score: inf
ROOT
ATOM      1  C   UNL A   1      34.364  34.962  28.455  1.00  0.00     0.042 C 
ENDROOT
BRANCH   1   2
ATOM      2  C   UNL A   1      33.289  35.933  28.922  1.00  0.00     0.117 C 
BRANCH   2   3
ATOM      3  N   UNL A   1      33.682  36.696  30.088  1.00  0.00    -0.356 N 
ATOM      4  O   UNL A   1      32.240  35.639  31.533  1.00  0.00    -0.275 OA
ATOM      5  C   UNL A   1      33.138  36.451  31.327  1.00  0.00     0.220 C 
ATOM      6  H   UNL A   1      34.356  37.407  29.993  1.00  0.00     0.163 HD
BRANCH   5   7
ATOM      7  C   UNL A   1      33.778  37.242  32.444  1.00  0.00     0.100 C 
BRANCH   7   8
ATOM      8  C   UNL A   1      34.235  36.343  33.599  1.00  0.00     0.018 C 
BRANCH   8   9
ATOM      9  C   UNL A   1      34.644  34.906  33.239  1.00  0.00     0.076 C 
BRANCH   9  10
ATOM     10  C   UNL A   1      36.092  34.756  32.905  1.00  0.00     0.107 A 
ATOM     11  N   UNL A   1      37.103  34.788  33.749  1.00  0.00    -0.233 NA
ATOM     12  N   UNL A   1      36.543  34.583  31.617  1.00  0.00    -0.342 N 
ATOM     13  C   UNL A   1      38.236  34.662  32.990  1.00  0.00     0.090 A 
ATOM     14  C   UNL A   1      37.915  34.539  31.644  1.00  0.00     0.066 A 
ATOM     15  H   UNL A   1      35.978  34.503  30.813  1.00  0.00     0.168 HD
ATOM     16  C   UNL A   1      39.576  34.657  33.393  1.00  0.00     0.051 A 
ATOM     17  C   UNL A   1      38.878  34.406  30.640  1.00  0.00     0.030 A 
ATOM     18  C   UNL A   1      40.556  34.527  32.406  1.00  0.00     0.043 A 
ATOM     19  C   UNL A   1      40.216  34.405  31.056  1.00  0.00     0.023 A 
ATOM     20  Cl  UNL A   1      42.216  34.520  32.870  1.00  0.00    -0.084 Cl
ENDBRANCH   9  10
ENDBRANCH   8   9
ENDBRANCH   7   8
ENDBRANCH   5   7
ENDBRANCH   2   3
ENDBRANCH   1   2
BRANCH   1  21
ATOM     21  C   UNL A   1      34.282  33.565  29.065  1.00  0.00     0.118 C 
BRANCH  21  22
ATOM     22  N   UNL A   1      33.791  32.558  28.140  1.00  0.00    -0.352 N 
ATOM     23  C   UNL A   1      34.362  31.376  27.734  1.00  0.00     0.251 C 
ATOM     24  H   UNL A   1      32.911  32.752  27.742  1.00  0.00     0.163 HD
ATOM     25  O   UNL A   1      33.814  30.732  26.838  1.00  0.00    -0.269 OA
BRANCH  23  26
ATOM     26  C   UNL A   1      35.629  30.887  28.329  1.00  0.00     0.039 A 
ATOM     27  C   UNL A   1      35.573  29.814  29.224  1.00  0.00     0.014 A 
ATOM     28  C   UNL A   1      36.861  31.481  28.042  1.00  0.00     0.014 A 
ATOM     29  C   UNL A   1      36.751  29.305  29.780  1.00  0.00     0.010 A 
ATOM     30  C   UNL A   1      38.042  30.921  28.535  1.00  0.00     0.010 A 
ATOM     31  C   UNL A   1      38.002  29.829  29.414  1.00  0.00    -0.014 A 
BRANCH  31  32
ATOM     32  C   UNL A   1      39.259  29.232  29.945  1.00  0.00     0.031 A 
ATOM     33  C   UNL A   1      39.887  29.757  31.211  1.00  0.00     0.074 A 
ATOM     34  C   UNL A   1      39.853  28.226  29.270  1.00  0.00     0.049 A 
ATOM     35  N   UNL A   1      40.967  29.351  31.830  1.00  0.00    -0.248 NA
ATOM     36  C   UNL A   1      39.229  30.904  31.850  1.00  0.00     0.031 C 
ATOM     37  C   UNL A   1      39.377  27.667  28.004  1.00  0.00     0.029 A 
ATOM     38  N   UNL A   1      40.978  27.492  29.553  1.00  0.00    -0.354 N 
ATOM     39  C   UNL A   1      41.120  30.193  32.926  1.00  0.00     0.074 A 
ATOM     40  C   UNL A   1      40.060  31.176  32.845  1.00  0.00     0.031 C 
ATOM     41  C   UNL A   1      40.179  26.652  27.642  1.00  0.00     0.029 A 
ATOM     42  C   UNL A   1      41.249  26.513  28.624  1.00  0.00     0.049 A 
ATOM     43  H   UNL A   1      41.540  27.652  30.346  1.00  0.00     0.167 HD
ATOM     44  C   UNL A   1      42.041  30.137  33.922  1.00  0.00     0.034 A 
ATOM     45  C   UNL A   1      42.243  25.605  28.568  1.00  0.00     0.034 A 
ATOM     46  C   UNL A   1      43.092  29.150  33.992  1.00  0.00     0.049 A 
ATOM     47  C   UNL A   1      43.260  25.569  29.682  1.00  0.00     0.074 A 
ATOM     48  C   UNL A   1      44.047  28.974  34.980  1.00  0.00     0.029 A 
ATOM     49  N   UNL A   1      43.337  28.175  33.032  1.00  0.00    -0.354 N 
ATOM     50  N   UNL A   1      43.349  26.333  30.746  1.00  0.00    -0.248 NA
ATOM     51  C   UNL A   1      44.295  24.532  29.594  1.00  0.00     0.031 C 
ATOM     52  C   UNL A   1      44.909  27.945  34.584  1.00  0.00     0.029 A 
ATOM     53  C   UNL A   1      44.444  27.417  33.390  1.00  0.00     0.049 A 
ATOM     54  H   UNL A   1      42.804  28.042  32.216  1.00  0.00     0.167 HD
ATOM     55  C   UNL A   1      44.435  25.845  31.471  1.00  0.00     0.074 A 
ATOM     56  C   UNL A   1      44.946  24.708  30.734  1.00  0.00     0.031 C 
ATOM     57  C   UNL A   1      44.961  26.295  32.639  1.00  0.00     0.034 A 
BRANCH  44  58
ATOM     58  C   UNL A   1      41.959  31.192  35.004  1.00  0.00     0.023 A 
ATOM     59  C   UNL A   1      40.852  31.282  35.867  1.00  0.00     0.031 A 
ATOM     60  C   UNL A   1      42.991  32.135  35.163  1.00  0.00     0.131 A 
ATOM     61  C   UNL A   1      40.765  32.336  36.790  1.00  0.00     0.055 A 
ATOM     62  C   UNL A   1      42.938  33.128  36.144  1.00  0.00     0.041 A 
ATOM     63  F   UNL A   1      44.064  32.118  34.357  1.00  0.00    -0.206 F 
ATOM     64  C   UNL A   1      41.813  33.243  36.954  1.00  0.00     0.022 A 
BRANCH  61  65
ATOM     65  S   UNL A   1      39.195  32.593  37.662  1.00  0.00     0.124 S 
ATOM     66  O   UNL A   1      39.642  32.680  39.051  1.00  0.00    -0.237 OA
ATOM     67  O   UNL A   1      38.702  33.831  37.070  1.00  0.00    -0.237 OA
ATOM     68  O   UNL A   1      38.423  31.394  37.339  1.00  0.00    -0.744 OA
ENDBRANCH  61  65
ENDBRANCH  44  58
BRANCH  45  69
ATOM     69  C   UNL A   1      42.333  24.650  27.426  1.00  0.00     0.023 A 
ATOM     70  C   UNL A   1      41.593  23.456  27.419  1.00  0.00     0.031 A 
ATOM     71  C   UNL A   1      43.198  24.893  26.345  1.00  0.00     0.131 A 
ATOM     72  C   UNL A   1      41.771  22.527  26.381  1.00  0.00     0.055 A 
ATOM     73  C   UNL A   1      43.329  23.994  25.285  1.00  0.00     0.041 A 
ATOM     74  F   UNL A   1      43.925  26.021  26.298  1.00  0.00    -0.206 F 
ATOM     75  C   UNL A   1      42.623  22.795  25.308  1.00  0.00     0.022 A 
BRANCH  72  76
ATOM     76  S   UNL A   1      40.941  20.919  26.503  1.00  0.00     0.124 S 
ATOM     77  O   UNL A   1      39.674  21.187  25.833  1.00  0.00    -0.237 OA
ATOM     78  O   UNL A   1      41.870  20.045  25.795  1.00  0.00    -0.237 OA
ATOM     79  O   UNL A   1      40.852  20.692  27.944  1.00  0.00    -0.744 OA
ENDBRANCH  72  76
ENDBRANCH  45  69
BRANCH  57  80
ATOM     80  C   UNL A   1      46.128  25.519  33.206  1.00  0.00     0.023 A 
ATOM     81  C   UNL A   1      45.943  24.443  34.091  1.00  0.00     0.031 A 
ATOM     82  C   UNL A   1      47.448  25.894  32.892  1.00  0.00     0.131 A 
ATOM     83  C   UNL A   1      47.053  23.836  34.698  1.00  0.00     0.055 A 
ATOM     84  C   UNL A   1      48.550  25.235  33.440  1.00  0.00     0.041 A 
ATOM     85  F   UNL A   1      47.689  26.915  32.055  1.00  0.00    -0.206 F 
ATOM     86  C   UNL A   1      48.357  24.214  34.365  1.00  0.00     0.022 A 
BRANCH  83  87
ATOM     87  S   UNL A   1      46.768  22.640  36.033  1.00  0.00     0.124 S 
ATOM     88  O   UNL A   1      45.444  23.026  36.508  1.00  0.00    -0.237 OA
ATOM     89  O   UNL A   1      46.847  21.364  35.330  1.00  0.00    -0.237 OA
ATOM     90  O   UNL A   1      47.862  22.902  36.966  1.00  0.00    -0.744 OA
ENDBRANCH  83  87
ENDBRANCH  57  80
ENDBRANCH  31  32
ENDBRANCH  23  26
ENDBRANCH  21  22
ENDBRANCH   1  21
TORSDOF 16
ENDMDL
MODEL 2
REMARK VINA RESULT:     -10.5      2.085      2.379
REMARK SMILES O=C(CCCc1nc2cc(Cl)ccc2[nH]1)NCCCNC(=O)c1ccc(-c2c3nc(c(-c4cc(S(=O)(=O)[O-])ccc4F)c4ccc([nH]4)c(-c4cc(S(=O)(=O)[O-])ccc4F)c4nc(c(-c5cc(S(=O)(=O)[O-])ccc5F)c5ccc2[nH]5)C=C4)C=C3)cc1
REMARK SMILES IDX 18 1 17 2 16 3 1 4 2 5 3 7 4 8 5 9 6 10 7 11 15 12 8 13
REMARK SMILES IDX 14 14 9 16 13 17 10 18 12 19 11 20 19 21 20 22 21 23 22 25
REMARK SMILES IDX 23 26 24 27 85 28 25 29 84 30 26 31 27 32 28 33 78 34 29 35
REMARK SMILES IDX 83 36 77 37 79 38 30 39 82 40 76 41 75 42 31 44 63 45 43 46
REMARK SMILES IDX 62 47 44 48 47 49 61 50 80 51 45 52 46 53 60 55 81 56 48 57
REMARK SMILES IDX 32 58 33 59 41 60 34 61 40 62 42 63 39 64 35 65 36 66 37 67
REMARK SMILES IDX 38 68 64 69 65 70 73 71 66 72 72 73 74 74 71 75 67 76 68 77
REMARK SMILES IDX 69 78 70 79 49 80 50 81 58 82 51 83 57 84 59 85 56 86 52 87
REMARK SMILES IDX 53 88 54 89 55 90
REMARK H PARENT 16 6 15 15 20 24 79 43 47 54
REMARK Flexibility Score: inf
ROOT
ATOM      1  C   UNL A   1      34.509  34.827  28.180  1.00  0.00     0.042 C 
ENDROOT
BRANCH   1   2
ATOM      2  C   UNL A   1      33.446  35.477  29.054  1.00  0.00     0.117 C 
BRANCH   2   3
ATOM      3  N   UNL A   1      33.828  35.556  30.448  1.00  0.00    -0.356 N 
ATOM      4  O   UNL A   1      31.927  36.654  31.130  1.00  0.00    -0.275 OA
ATOM      5  C   UNL A   1      33.000  36.117  31.392  1.00  0.00     0.220 C 
ATOM      6  H   UNL A   1      34.702  35.200  30.728  1.00  0.00     0.163 HD
BRANCH   5   7
ATOM      7  C   UNL A   1      33.503  35.974  32.809  1.00  0.00     0.100 C 
BRANCH   7   8
ATOM      8  C   UNL A   1      34.387  34.734  32.986  1.00  0.00     0.018 C 
BRANCH   8   9
ATOM      9  C   UNL A   1      35.652  34.901  33.841  1.00  0.00     0.076 C 
BRANCH   9  10
ATOM     10  C   UNL A   1      36.924  34.707  33.083  1.00  0.00     0.107 A 
ATOM     11  N   UNL A   1      38.140  34.655  33.584  1.00  0.00    -0.233 NA
ATOM     12  N   UNL A   1      36.959  34.579  31.713  1.00  0.00    -0.342 N 
ATOM     13  C   UNL A   1      38.987  34.520  32.515  1.00  0.00     0.090 A 
ATOM     14  C   UNL A   1      38.272  34.477  31.324  1.00  0.00     0.066 A 
ATOM     15  H   UNL A   1      36.177  34.563  31.114  1.00  0.00     0.168 HD
ATOM     16  C   UNL A   1      40.384  34.439  32.496  1.00  0.00     0.051 A 
ATOM     17  C   UNL A   1      38.883  34.353  30.074  1.00  0.00     0.030 A 
ATOM     18  C   UNL A   1      41.015  34.317  31.257  1.00  0.00     0.043 A 
ATOM     19  C   UNL A   1      40.282  34.276  30.068  1.00  0.00     0.023 A 
ATOM     20  Cl  UNL A   1      42.735  34.218  31.200  1.00  0.00    -0.084 Cl
ENDBRANCH   9  10
ENDBRANCH   8   9
ENDBRANCH   7   8
ENDBRANCH   5   7
ENDBRANCH   2   3
ENDBRANCH   1   2
BRANCH   1  21
ATOM     21  C   UNL A   1      34.903  33.410  28.589  1.00  0.00     0.118 C 
BRANCH  21  22
ATOM     22  N   UNL A   1      34.096  32.380  27.956  1.00  0.00    -0.352 N 
ATOM     23  C   UNL A   1      34.377  31.055  27.723  1.00  0.00     0.251 C 
ATOM     24  H   UNL A   1      33.210  32.677  27.647  1.00  0.00     0.163 HD
ATOM     25  O   UNL A   1      33.583  30.392  27.054  1.00  0.00    -0.269 OA
BRANCH  23  26
ATOM     26  C   UNL A   1      35.621  30.428  28.232  1.00  0.00     0.039 A 
ATOM     27  C   UNL A   1      36.767  30.476  27.432  1.00  0.00     0.014 A 
ATOM     28  C   UNL A   1      35.669  29.774  29.466  1.00  0.00     0.014 A 
ATOM     29  C   UNL A   1      37.966  29.924  27.894  1.00  0.00     0.010 A 
ATOM     30  C   UNL A   1      36.885  29.294  29.958  1.00  0.00     0.010 A 
ATOM     31  C   UNL A   1      38.048  29.358  29.177  1.00  0.00    -0.014 A 
BRANCH  31  32
ATOM     32  C   UNL A   1      39.345  28.844  29.697  1.00  0.00     0.031 A 
ATOM     33  C   UNL A   1      39.986  29.460  30.914  1.00  0.00     0.074 A 
ATOM     34  C   UNL A   1      39.964  27.832  29.054  1.00  0.00     0.049 A 
ATOM     35  N   UNL A   1      41.102  29.134  31.517  1.00  0.00    -0.248 NA
ATOM     36  C   UNL A   1      39.296  30.609  31.516  1.00  0.00     0.031 C 
ATOM     37  C   UNL A   1      39.476  27.188  27.833  1.00  0.00     0.029 A 
ATOM     38  N   UNL A   1      41.129  27.163  29.337  1.00  0.00    -0.354 N 
ATOM     39  C   UNL A   1      41.249  30.037  32.565  1.00  0.00     0.074 A 
ATOM     40  C   UNL A   1      40.144  30.968  32.469  1.00  0.00     0.031 C 
ATOM     41  C   UNL A   1      40.312  26.192  27.498  1.00  0.00     0.029 A 
ATOM     42  C   UNL A   1      41.415  26.151  28.451  1.00  0.00     0.049 A 
ATOM     43  H   UNL A   1      41.706  27.388  30.103  1.00  0.00     0.167 HD
ATOM     44  C   UNL A   1      42.200  30.073  33.533  1.00  0.00     0.034 A 
ATOM     45  C   UNL A   1      42.448  25.285  28.408  1.00  0.00     0.034 A 
ATOM     46  C   UNL A   1      43.297  29.138  33.618  1.00  0.00     0.049 A 
ATOM     47  C   UNL A   1      43.497  25.350  29.489  1.00  0.00     0.074 A 
ATOM     48  C   UNL A   1      44.287  29.054  34.583  1.00  0.00     0.029 A 
ATOM     49  N   UNL A   1      43.557  28.126  32.700  1.00  0.00    -0.354 N 
ATOM     50  N   UNL A   1      43.584  26.171  30.511  1.00  0.00    -0.248 NA
ATOM     51  C   UNL A   1      44.575  24.357  29.420  1.00  0.00     0.031 C 
ATOM     52  C   UNL A   1      45.183  28.044  34.212  1.00  0.00     0.029 A 
ATOM     53  C   UNL A   1      44.707  27.436  33.060  1.00  0.00     0.049 A 
ATOM     54  H   UNL A   1      43.006  27.928  31.910  1.00  0.00     0.167 HD
ATOM     55  C   UNL A   1      44.711  25.769  31.224  1.00  0.00     0.074 A 
ATOM     56  C   UNL A   1      45.252  24.618  30.529  1.00  0.00     0.031 C 
ATOM     57  C   UNL A   1      45.251  26.301  32.351  1.00  0.00     0.034 A 
BRANCH  44  58
ATOM     58  C   UNL A   1      42.104  31.178  34.562  1.00  0.00     0.023 A 
ATOM     59  C   UNL A   1      42.778  32.402  34.398  1.00  0.00     0.031 A 
ATOM     60  C   UNL A   1      41.345  31.001  35.733  1.00  0.00     0.131 A 
ATOM     61  C   UNL A   1      42.748  33.363  35.420  1.00  0.00     0.055 A 
ATOM     62  C   UNL A   1      41.247  31.998  36.707  1.00  0.00     0.041 A 
ATOM     63  F   UNL A   1      40.696  29.849  35.960  1.00  0.00    -0.206 F 
ATOM     64  C   UNL A   1      41.964  33.181  36.561  1.00  0.00     0.022 A 
BRANCH  61  65
ATOM     65  S   UNL A   1      43.871  34.783  35.305  1.00  0.00     0.124 S 
ATOM     66  O   UNL A   1      45.116  34.141  34.886  1.00  0.00    -0.237 OA
ATOM     67  O   UNL A   1      43.218  35.623  34.308  1.00  0.00    -0.237 OA
ATOM     68  O   UNL A   1      43.884  35.321  36.665  1.00  0.00    -0.744 OA
ENDBRANCH  61  65
ENDBRANCH  44  58
BRANCH  45  69
ATOM     69  C   UNL A   1      42.547  24.277  27.313  1.00  0.00     0.023 A 
ATOM     70  C   UNL A   1      41.915  23.026  27.419  1.00  0.00     0.031 A 
ATOM     71  C   UNL A   1      43.315  24.530  26.163  1.00  0.00     0.131 A 
ATOM     72  C   UNL A   1      42.106  22.059  26.420  1.00  0.00     0.055 A 
ATOM     73  C   UNL A   1      43.455  23.586  25.145  1.00  0.00     0.041 A 
ATOM     74  F   UNL A   1      43.936  25.711  26.008  1.00  0.00    -0.206 F 
ATOM     75  C   UNL A   1      42.860  22.335  25.278  1.00  0.00     0.022 A 
BRANCH  72  76
ATOM     76  S   UNL A   1      41.430  20.396  26.681  1.00  0.00     0.124 S 
ATOM     77  O   UNL A   1      40.018  20.681  26.907  1.00  0.00    -0.237 OA
ATOM     78  O   UNL A   1      41.759  19.734  25.424  1.00  0.00    -0.237 OA
ATOM     79  O   UNL A   1      42.165  19.911  27.849  1.00  0.00    -0.744 OA
ENDBRANCH  72  76
ENDBRANCH  45  69
BRANCH  57  80
ATOM     80  C   UNL A   1      46.469  25.607  32.918  1.00  0.00     0.023 A 
ATOM     81  C   UNL A   1      47.764  25.879  32.445  1.00  0.00     0.031 A 
ATOM     82  C   UNL A   1      46.325  24.623  33.914  1.00  0.00     0.131 A 
ATOM     83  C   UNL A   1      48.851  25.118  32.903  1.00  0.00     0.055 A 
ATOM     84  C   UNL A   1      47.421  23.923  34.421  1.00  0.00     0.041 A 
ATOM     85  F   UNL A   1      45.113  24.318  34.404  1.00  0.00    -0.206 F 
ATOM     86  C   UNL A   1      48.691  24.154  33.901  1.00  0.00     0.022 A 
BRANCH  83  87
ATOM     87  S   UNL A   1      50.455  25.310  32.076  1.00  0.00     0.124 S 
ATOM     88  O   UNL A   1      50.135  26.246  31.004  1.00  0.00    -0.237 OA
ATOM     89  O   UNL A   1      51.297  25.831  33.148  1.00  0.00    -0.237 OA
ATOM     90  O   UNL A   1      50.779  23.953  31.638  1.00  0.00    -0.744 OA
ENDBRANCH  83  87
ENDBRANCH  57  80
ENDBRANCH  31  32
ENDBRANCH  23  26
ENDBRANCH  21  22
ENDBRANCH   1  21
TORSDOF 16
ENDMDL
MODEL 3
REMARK VINA RESULT:     -10.4      3.544      6.151
REMARK SMILES O=C(CCCc1nc2cc(Cl)ccc2[nH]1)NCCCNC(=O)c1ccc(-c2c3nc(c(-c4cc(S(=O)(=O)[O-])ccc4F)c4ccc([nH]4)c(-c4cc(S(=O)(=O)[O-])ccc4F)c4nc(c(-c5cc(S(=O)(=O)[O-])ccc5F)c5ccc2[nH]5)C=C4)C=C3)cc1
REMARK SMILES IDX 18 1 17 2 16 3 1 4 2 5 3 7 4 8 5 9 6 10 7 11 15 12 8 13
REMARK SMILES IDX 14 14 9 16 13 17 10 18 12 19 11 20 19 21 20 22 21 23 22 25
REMARK SMILES IDX 23 26 24 27 85 28 25 29 84 30 26 31 27 32 28 33 78 34 29 35
REMARK SMILES IDX 83 36 77 37 79 38 30 39 82 40 76 41 75 42 31 44 63 45 43 46
REMARK SMILES IDX 62 47 44 48 47 49 61 50 80 51 45 52 46 53 60 55 81 56 48 57
REMARK SMILES IDX 32 58 33 59 41 60 34 61 40 62 42 63 39 64 35 65 36 66 37 67
REMARK SMILES IDX 38 68 64 69 65 70 73 71 66 72 72 73 74 74 71 75 67 76 68 77
REMARK SMILES IDX 69 78 70 79 49 80 50 81 58 82 51 83 57 84 59 85 56 86 52 87
REMARK SMILES IDX 53 88 54 89 55 90
REMARK H PARENT 16 6 15 15 20 24 79 43 47 54
REMARK Flexibility Score: inf
ROOT
ATOM      1  C   UNL A   1      33.176  27.943  26.426  1.00  0.00     0.042 C 
ENDROOT
BRANCH   1   2
ATOM      2  C   UNL A   1      31.653  27.940  26.409  1.00  0.00     0.117 C 
BRANCH   2   3
ATOM      3  N   UNL A   1      31.101  27.370  25.198  1.00  0.00    -0.356 N 
ATOM      4  O   UNL A   1      30.627  29.389  24.208  1.00  0.00    -0.275 OA
ATOM      5  C   UNL A   1      30.661  28.163  24.164  1.00  0.00     0.220 C 
ATOM      6  H   UNL A   1      31.040  26.391  25.111  1.00  0.00     0.163 HD
BRANCH   5   7
ATOM      7  C   UNL A   1      30.260  27.391  22.929  1.00  0.00     0.100 C 
BRANCH   7   8
ATOM      8  C   UNL A   1      31.436  26.609  22.331  1.00  0.00     0.018 C 
BRANCH   8   9
ATOM      9  C   UNL A   1      31.494  25.104  22.637  1.00  0.00     0.076 C 
BRANCH   9  10
ATOM     10  C   UNL A   1      32.798  24.654  23.210  1.00  0.00     0.107 A 
ATOM     11  N   UNL A   1      33.348  25.063  24.335  1.00  0.00    -0.233 NA
ATOM     12  N   UNL A   1      33.609  23.738  22.580  1.00  0.00    -0.342 N 
ATOM     13  C   UNL A   1      34.555  24.422  24.423  1.00  0.00     0.090 A 
ATOM     14  C   UNL A   1      34.750  23.587  23.330  1.00  0.00     0.066 A 
ATOM     15  H   UNL A   1      33.406  23.270  21.738  1.00  0.00     0.168 HD
ATOM     16  C   UNL A   1      35.540  24.519  25.413  1.00  0.00     0.051 A 
ATOM     17  C   UNL A   1      35.902  22.817  23.155  1.00  0.00     0.030 A 
ATOM     18  C   UNL A   1      36.701  23.760  25.258  1.00  0.00     0.043 A 
ATOM     19  C   UNL A   1      36.882  22.926  24.151  1.00  0.00     0.023 A 
ATOM     20  Cl  UNL A   1      37.934  23.860  26.459  1.00  0.00    -0.084 Cl
ENDBRANCH   9  10
ENDBRANCH   8   9
ENDBRANCH   7   8
ENDBRANCH   5   7
ENDBRANCH   2   3
ENDBRANCH   1   2
BRANCH   1  21
ATOM     21  C   UNL A   1      33.825  29.140  25.737  1.00  0.00     0.118 C 
BRANCH  21  22
ATOM     22  N   UNL A   1      33.376  30.421  26.258  1.00  0.00    -0.352 N 
ATOM     23  C   UNL A   1      33.893  31.195  27.269  1.00  0.00     0.251 C 
ATOM     24  H   UNL A   1      32.578  30.792  25.817  1.00  0.00     0.163 HD
ATOM     25  O   UNL A   1      33.269  32.197  27.623  1.00  0.00    -0.269 OA
BRANCH  23  26
ATOM     26  C   UNL A   1      35.158  30.831  27.951  1.00  0.00     0.039 A 
ATOM     27  C   UNL A   1      35.151  29.743  28.830  1.00  0.00     0.014 A 
ATOM     28  C   UNL A   1      36.338  31.555  27.760  1.00  0.00     0.014 A 
ATOM     29  C   UNL A   1      36.333  29.350  29.466  1.00  0.00     0.010 A 
ATOM     30  C   UNL A   1      37.532  31.114  28.334  1.00  0.00     0.010 A 
ATOM     31  C   UNL A   1      37.545  30.009  29.198  1.00  0.00    -0.014 A 
BRANCH  31  32
ATOM     32  C   UNL A   1      38.816  29.538  29.814  1.00  0.00     0.031 A 
ATOM     33  C   UNL A   1      39.263  30.062  31.155  1.00  0.00     0.074 A 
ATOM     34  C   UNL A   1      39.587  28.651  29.152  1.00  0.00     0.049 A 
ATOM     35  N   UNL A   1      40.329  29.754  31.851  1.00  0.00    -0.248 NA
ATOM     36  C   UNL A   1      38.415  31.084  31.783  1.00  0.00     0.031 C 
ATOM     37  C   UNL A   1      39.294  28.110  27.823  1.00  0.00     0.029 A 
ATOM     38  N   UNL A   1      40.766  28.042  29.503  1.00  0.00    -0.354 N 
ATOM     39  C   UNL A   1      40.281  30.545  32.994  1.00  0.00     0.074 A 
ATOM     40  C   UNL A   1      39.118  31.397  32.861  1.00  0.00     0.031 C 
ATOM     41  C   UNL A   1      40.244  27.221  27.491  1.00  0.00     0.029 A 
ATOM     42  C   UNL A   1      41.235  27.156  28.560  1.00  0.00     0.049 A 
ATOM     43  H   UNL A   1      41.233  28.223  30.351  1.00  0.00     0.167 HD
ATOM     44  C   UNL A   1      41.113  30.545  34.068  1.00  0.00     0.034 A 
ATOM     45  C   UNL A   1      42.336  26.378  28.554  1.00  0.00     0.034 A 
ATOM     46  C   UNL A   1      42.269  29.688  34.189  1.00  0.00     0.049 A 
ATOM     47  C   UNL A   1      43.249  26.402  29.754  1.00  0.00     0.074 A 
ATOM     48  C   UNL A   1      43.150  29.572  35.251  1.00  0.00     0.029 A 
ATOM     49  N   UNL A   1      42.715  28.806  33.211  1.00  0.00    -0.354 N 
ATOM     50  N   UNL A   1      43.152  27.110  30.855  1.00  0.00    -0.248 NA
ATOM     51  C   UNL A   1      44.410  25.504  29.714  1.00  0.00     0.031 C 
ATOM     52  C   UNL A   1      44.164  28.678  34.890  1.00  0.00     0.029 A 
ATOM     53  C   UNL A   1      43.873  28.167  33.635  1.00  0.00     0.049 A 
ATOM     54  H   UNL A   1      42.274  28.656  32.345  1.00  0.00     0.167 HD
ATOM     55  C   UNL A   1      44.223  26.716  31.654  1.00  0.00     0.074 A 
ATOM     56  C   UNL A   1      44.934  25.691  30.916  1.00  0.00     0.031 C 
ATOM     57  C   UNL A   1      44.588  27.159  32.885  1.00  0.00     0.034 A 
BRANCH  44  58
ATOM     58  C   UNL A   1      40.808  31.519  35.184  1.00  0.00     0.023 A 
ATOM     59  C   UNL A   1      39.745  31.309  36.080  1.00  0.00     0.031 A 
ATOM     60  C   UNL A   1      41.577  32.687  35.344  1.00  0.00     0.131 A 
ATOM     61  C   UNL A   1      39.429  32.284  37.038  1.00  0.00     0.055 A 
ATOM     62  C   UNL A   1      41.312  33.611  36.357  1.00  0.00     0.041 A 
ATOM     63  F   UNL A   1      42.591  32.958  34.508  1.00  0.00    -0.206 F 
ATOM     64  C   UNL A   1      40.223  33.421  37.202  1.00  0.00     0.022 A 
BRANCH  61  65
ATOM     65  S   UNL A   1      37.876  32.119  37.962  1.00  0.00     0.124 S 
ATOM     66  O   UNL A   1      37.515  30.730  37.683  1.00  0.00    -0.237 OA
ATOM     67  O   UNL A   1      38.289  32.410  39.329  1.00  0.00    -0.237 OA
ATOM     68  O   UNL A   1      37.003  33.117  37.346  1.00  0.00    -0.744 OA
ENDBRANCH  61  65
ENDBRANCH  44  58
BRANCH  45  69
ATOM     69  C   UNL A   1      42.641  25.507  27.382  1.00  0.00     0.023 A 
ATOM     70  C   UNL A   1      42.160  24.189  27.314  1.00  0.00     0.031 A 
ATOM     71  C   UNL A   1      43.461  25.963  26.335  1.00  0.00     0.131 A 
ATOM     72  C   UNL A   1      42.544  23.358  26.250  1.00  0.00     0.055 A 
ATOM     73  C   UNL A   1      43.793  25.151  25.249  1.00  0.00     0.041 A 
ATOM     74  F   UNL A   1      43.944  27.216  26.347  1.00  0.00    -0.206 F 
ATOM     75  C   UNL A   1      43.346  23.834  25.211  1.00  0.00     0.022 A 
BRANCH  72  76
ATOM     76  S   UNL A   1      42.057  21.611  26.293  1.00  0.00     0.124 S 
ATOM     77  O   UNL A   1      42.926  21.034  25.275  1.00  0.00    -0.237 OA
ATOM     78  O   UNL A   1      42.356  21.248  27.674  1.00  0.00    -0.237 OA
ATOM     79  O   UNL A   1      40.635  21.648  25.956  1.00  0.00    -0.744 OA
ENDBRANCH  72  76
ENDBRANCH  45  69
BRANCH  57  80
ATOM     80  C   UNL A   1      45.790  26.498  33.521  1.00  0.00     0.023 A 
ATOM     81  C   UNL A   1      45.666  25.352  34.325  1.00  0.00     0.031 A 
ATOM     82  C   UNL A   1      47.073  27.052  33.357  1.00  0.00     0.131 A 
ATOM     83  C   UNL A   1      46.786  24.849  35.004  1.00  0.00     0.055 A 
ATOM     84  C   UNL A   1      48.197  26.501  33.974  1.00  0.00     0.041 A 
ATOM     85  F   UNL A   1      47.254  28.148  32.603  1.00  0.00    -0.206 F 
ATOM     86  C   UNL A   1      48.055  25.405  34.820  1.00  0.00     0.022 A 
BRANCH  83  87
ATOM     87  S   UNL A   1      46.539  23.543  36.240  1.00  0.00     0.124 S 
ATOM     88  O   UNL A   1      47.908  23.115  36.507  1.00  0.00    -0.237 OA
ATOM     89  O   UNL A   1      45.872  24.261  37.322  1.00  0.00    -0.237 OA
ATOM     90  O   UNL A   1      45.708  22.564  35.542  1.00  0.00    -0.744 OA
ENDBRANCH  83  87
ENDBRANCH  57  80
ENDBRANCH  31  32
ENDBRANCH  23  26
ENDBRANCH  21  22
ENDBRANCH   1  21
TORSDOF 16
ENDMDL
