MODEL 1
REMARK VINA RESULT:     -13.3      0.000      0.000
REMARK SMILES Cc1c(-c2ccc(O)cc2)nc(N)c(C#N)c1-c1ccccc1OCC(=O)NCCCNC(=O)c1ccc(-c2c3nc(c(-c4cc(S(=O)(=O)[O-])ccc4F)c4ccc([nH]4)c(-c4cc(S(=O)(=O)[O-])ccc4F)c4nc(c(-c5cc(S(=O)(=O)[O-])ccc5F)c5ccc2[nH]5)C=C4)C=C3)cc1
REMARK SMILES IDX 29 1 28 2 26 3 27 4 25 6 24 7 23 8 18 9 19 10 20 11 22 12
REMARK SMILES IDX 21 13 17 14 1 15 2 16 3 17 11 18 14 19 12 20 4 21 5 22 10 23
REMARK SMILES IDX 6 24 9 25 7 26 8 27 15 29 16 30 13 31 30 34 31 35 32 36
REMARK SMILES IDX 33 37 34 39 35 40 36 41 97 42 37 43 96 44 38 45 39 46 40 47
REMARK SMILES IDX 90 48 41 49 95 50 89 51 91 52 42 53 94 54 88 55 87 56 43 58
REMARK SMILES IDX 75 59 55 60 74 61 56 62 59 63 73 64 92 65 57 66 58 67 72 69
REMARK SMILES IDX 93 70 60 71 44 72 45 73 53 74 46 75 52 76 54 77 51 78 47 79
REMARK SMILES IDX 48 80 49 81 50 82 76 83 77 84 85 85 78 86 84 87 86 88 83 89
REMARK SMILES IDX 79 90 80 91 81 92 82 93 61 94 62 95 70 96 63 97 69 98 71 99
REMARK SMILES IDX 68 100 64 101 65 102 66 103 67 104
REMARK H PARENT 28 5 8 28 13 32 13 33 32 38 91 57 59 68
REMARK Flexibility Score: inf
ROOT
ATOM      1  C   UNL A   1      31.800  30.215  26.822  1.00  0.00     0.117 C 
ENDROOT
BRANCH   1   2
ATOM      2  N   UNL A   1      33.078  29.718  27.301  1.00  0.00    -0.353 N 
ATOM      3  C   UNL A   1      33.705  28.560  26.926  1.00  0.00     0.257 C 
ATOM      4  O   UNL A   1      34.938  28.551  26.885  1.00  0.00    -0.271 OA
ATOM      5  H   UNL A   1      33.545  30.273  27.967  1.00  0.00     0.163 HD
BRANCH   3   6
ATOM      6  C   UNL A   1      32.919  27.311  26.522  1.00  0.00     0.329 C 
BRANCH   6   7
ATOM      7  O   UNL A   1      33.619  26.388  25.725  1.00  0.00    -0.483 OA
BRANCH   7   8
ATOM      8  C   UNL A   1      33.326  26.149  24.412  1.00  0.00     0.127 A 
ATOM      9  C   UNL A   1      32.678  25.048  23.804  1.00  0.00     0.026 A 
ATOM     10  C   UNL A   1      32.345  25.167  22.433  1.00  0.00     0.012 A 
ATOM     11  C   UNL A   1      32.651  26.308  21.689  1.00  0.00     0.001 A 
ATOM     12  C   UNL A   1      33.630  27.288  23.644  1.00  0.00     0.047 A 
ATOM     13  C   UNL A   1      33.304  27.370  22.294  1.00  0.00     0.004 A 
BRANCH   9  14
ATOM     14  C   UNL A   1      32.258  23.797  24.490  1.00  0.00     0.012 A 
ATOM     15  C   UNL A   1      34.268  22.596  23.554  1.00  0.00     0.047 C 
ATOM     16  C   UNL A   1      32.956  22.579  24.288  1.00  0.00    -0.015 A 
ATOM     17  C   UNL A   1      32.417  21.398  24.837  1.00  0.00     0.076 A 
ATOM     18  N   UNL A   1      31.342  21.422  25.668  1.00  0.00    -0.230 NA
ATOM     19  C   UNL A   1      31.159  23.794  25.377  1.00  0.00     0.102 A 
ATOM     20  C   UNL A   1      30.760  22.595  25.963  1.00  0.00     0.142 A 
BRANCH  17  21
ATOM     21  C   UNL A   1      32.799  20.028  24.410  1.00  0.00     0.001 A 
ATOM     22  C   UNL A   1      32.140  19.452  23.304  1.00  0.00     0.014 A 
ATOM     23  C   UNL A   1      33.850  19.291  24.982  1.00  0.00     0.014 A 
ATOM     24  C   UNL A   1      32.579  18.262  22.720  1.00  0.00     0.047 A 
ATOM     25  C   UNL A   1      34.305  18.103  24.394  1.00  0.00     0.047 A 
ATOM     26  C   UNL A   1      33.678  17.611  23.253  1.00  0.00     0.115 A 
BRANCH  26  27
ATOM     27  O   UNL A   1      34.123  16.491  22.619  1.00  0.00    -0.508 OA
ATOM     28  H   UNL A   1      34.442  15.765  23.118  1.00  0.00     0.293 HD
ENDBRANCH  26  27
ENDBRANCH  17  21
BRANCH  19  29
ATOM     29  C   UNL A   1      30.467  25.001  25.722  1.00  0.00     0.104 C 
ATOM     30  N   UNL A   1      29.892  25.958  26.055  1.00  0.00    -0.192 NA
ENDBRANCH  19  29
BRANCH  20  31
ATOM     31  N   UNL A   1      29.680  22.492  26.822  1.00  0.00    -0.383 N 
ATOM     32  H   UNL A   1      28.782  22.311  26.465  1.00  0.00     0.158 HD
ATOM     33  H   UNL A   1      29.812  22.602  27.793  1.00  0.00     0.158 HD
ENDBRANCH  20  31
ENDBRANCH   9  14
ENDBRANCH   7   8
ENDBRANCH   6   7
ENDBRANCH   3   6
ENDBRANCH   1   2
BRANCH   1  34
ATOM     34  C   UNL A   1      31.630  31.731  26.791  1.00  0.00     0.042 C 
BRANCH  34  35
ATOM     35  C   UNL A   1      32.835  32.565  27.214  1.00  0.00     0.118 C 
BRANCH  35  36
ATOM     36  N   UNL A   1      32.526  33.938  27.572  1.00  0.00    -0.352 N 
ATOM     37  C   UNL A   1      33.086  34.773  28.508  1.00  0.00     0.251 C 
ATOM     38  H   UNL A   1      31.790  34.339  27.055  1.00  0.00     0.163 HD
ATOM     39  O   UNL A   1      32.592  35.881  28.694  1.00  0.00    -0.269 OA
BRANCH  37  40
ATOM     40  C   UNL A   1      34.241  34.331  29.320  1.00  0.00     0.039 A 
ATOM     41  C   UNL A   1      33.995  33.763  30.572  1.00  0.00     0.014 A 
ATOM     42  C   UNL A   1      35.555  34.468  28.864  1.00  0.00     0.014 A 
ATOM     43  C   UNL A   1      35.055  33.245  31.319  1.00  0.00     0.010 A 
ATOM     44  C   UNL A   1      36.602  33.877  29.572  1.00  0.00     0.010 A 
ATOM     45  C   UNL A   1      36.362  33.244  30.800  1.00  0.00    -0.014 A 
BRANCH  45  46
ATOM     46  C   UNL A   1      37.461  32.546  31.522  1.00  0.00     0.031 A 
ATOM     47  C   UNL A   1      38.179  31.381  30.896  1.00  0.00     0.074 A 
ATOM     48  C   UNL A   1      37.804  32.961  32.760  1.00  0.00     0.049 A 
ATOM     49  N   UNL A   1      39.168  30.672  31.376  1.00  0.00    -0.248 NA
ATOM     50  C   UNL A   1      37.717  30.943  29.569  1.00  0.00     0.031 C 
ATOM     51  C   UNL A   1      37.159  34.057  33.488  1.00  0.00     0.029 A 
ATOM     52  N   UNL A   1      38.785  32.530  33.619  1.00  0.00    -0.354 N 
ATOM     53  C   UNL A   1      39.457  29.718  30.409  1.00  0.00     0.074 A 
ATOM     54  C   UNL A   1      38.492  29.891  29.345  1.00  0.00     0.031 C 
ATOM     55  C   UNL A   1      37.799  34.250  34.651  1.00  0.00     0.029 A 
ATOM     56  C   UNL A   1      38.865  33.263  34.783  1.00  0.00     0.049 A 
ATOM     57  H   UNL A   1      39.376  31.767  33.422  1.00  0.00     0.167 HD
ATOM     58  C   UNL A   1      40.456  28.803  30.395  1.00  0.00     0.034 A 
ATOM     59  C   UNL A   1      39.700  33.158  35.837  1.00  0.00     0.034 A 
ATOM     60  C   UNL A   1      41.417  28.643  31.455  1.00  0.00     0.049 A 
ATOM     61  C   UNL A   1      40.766  32.093  35.822  1.00  0.00     0.074 A 
ATOM     62  C   UNL A   1      42.486  27.765  31.517  1.00  0.00     0.029 A 
ATOM     63  N   UNL A   1      41.430  29.369  32.637  1.00  0.00    -0.354 N 
ATOM     64  N   UNL A   1      41.035  31.215  34.885  1.00  0.00    -0.248 NA
ATOM     65  C   UNL A   1      41.638  32.003  37.002  1.00  0.00     0.031 C 
ATOM     66  C   UNL A   1      43.096  27.907  32.764  1.00  0.00     0.029 A 
ATOM     67  C   UNL A   1      42.465  28.934  33.448  1.00  0.00     0.049 A 
ATOM     68  H   UNL A   1      40.796  30.087  32.866  1.00  0.00     0.167 HD
ATOM     69  C   UNL A   1      42.129  30.489  35.349  1.00  0.00     0.074 A 
ATOM     70  C   UNL A   1      42.468  31.029  36.649  1.00  0.00     0.031 C 
ATOM     71  C   UNL A   1      42.795  29.475  34.744  1.00  0.00     0.034 A 
BRANCH  58  72
ATOM     72  C   UNL A   1      40.567  27.900  29.194  1.00  0.00     0.023 A 
ATOM     73  C   UNL A   1      41.485  28.165  28.165  1.00  0.00     0.031 A 
ATOM     74  C   UNL A   1      39.785  26.734  29.099  1.00  0.00     0.131 A 
ATOM     75  C   UNL A   1      41.575  27.297  27.067  1.00  0.00     0.055 A 
ATOM     76  C   UNL A   1      39.925  25.840  28.037  1.00  0.00     0.041 A 
ATOM     77  F   UNL A   1      38.880  26.441  30.047  1.00  0.00    -0.206 F 
ATOM     78  C   UNL A   1      40.820  26.122  27.009  1.00  0.00     0.022 A 
BRANCH  75  79
ATOM     79  S   UNL A   1      42.639  27.765  25.676  1.00  0.00     0.124 S 
ATOM     80  O   UNL A   1      41.890  28.876  25.094  1.00  0.00    -0.237 OA
ATOM     81  O   UNL A   1      43.890  28.114  26.338  1.00  0.00    -0.237 OA
ATOM     82  O   UNL A   1      42.683  26.556  24.857  1.00  0.00    -0.744 OA
ENDBRANCH  75  79
ENDBRANCH  58  72
BRANCH  59  83
ATOM     83  C   UNL A   1      39.568  34.097  36.987  1.00  0.00     0.023 A 
ATOM     84  C   UNL A   1      39.011  33.673  38.204  1.00  0.00     0.031 A 
ATOM     85  C   UNL A   1      40.007  35.430  36.890  1.00  0.00     0.131 A 
ATOM     86  C   UNL A   1      38.890  34.579  39.270  1.00  0.00     0.055 A 
ATOM     87  C   UNL A   1      39.924  36.314  37.966  1.00  0.00     0.041 A 
ATOM     88  F   UNL A   1      40.553  35.883  35.750  1.00  0.00    -0.206 F 
ATOM     89  C   UNL A   1      39.357  35.892  39.164  1.00  0.00     0.022 A 
BRANCH  86  90
ATOM     90  S   UNL A   1      38.077  34.027  40.794  1.00  0.00     0.124 S 
ATOM     91  O   UNL A   1      37.643  35.294  41.373  1.00  0.00    -0.237 OA
ATOM     92  O   UNL A   1      37.024  33.158  40.281  1.00  0.00    -0.237 OA
ATOM     93  O   UNL A   1      39.146  33.342  41.519  1.00  0.00    -0.744 OA
ENDBRANCH  86  90
ENDBRANCH  59  83
BRANCH  71  94
ATOM     94  C   UNL A   1      43.989  28.889  35.451  1.00  0.00     0.023 A 
ATOM     95  C   UNL A   1      43.859  27.822  36.354  1.00  0.00     0.031 A 
ATOM     96  C   UNL A   1      45.282  29.343  35.136  1.00  0.00     0.131 A 
ATOM     97  C   UNL A   1      45.008  27.248  36.921  1.00  0.00     0.055 A 
ATOM     98  C   UNL A   1      46.422  28.738  35.665  1.00  0.00     0.041 A 
ATOM     99  F   UNL A   1      45.458  30.358  34.272  1.00  0.00    -0.206 F 
ATOM    100  C   UNL A   1      46.287  27.684  36.565  1.00  0.00     0.022 A 
BRANCH  97 101
ATOM    101  S   UNL A   1      44.809  25.922  38.140  1.00  0.00     0.124 S 
ATOM    102  O   UNL A   1      43.924  24.998  37.439  1.00  0.00    -0.237 OA
ATOM    103  O   UNL A   1      46.180  25.465  38.338  1.00  0.00    -0.237 OA
ATOM    104  O   UNL A   1      44.213  26.600  39.291  1.00  0.00    -0.744 OA
ENDBRANCH  97 101
ENDBRANCH  71  94
ENDBRANCH  45  46
ENDBRANCH  37  40
ENDBRANCH  35  36
ENDBRANCH  34  35
ENDBRANCH   1  34
TORSDOF 20
ENDMDL
MODEL 2
REMARK VINA RESULT:     -13.2      5.770     11.779
REMARK SMILES Cc1c(-c2ccc(O)cc2)nc(N)c(C#N)c1-c1ccccc1OCC(=O)NCCCNC(=O)c1ccc(-c2c3nc(c(-c4cc(S(=O)(=O)[O-])ccc4F)c4ccc([nH]4)c(-c4cc(S(=O)(=O)[O-])ccc4F)c4nc(c(-c5cc(S(=O)(=O)[O-])ccc5F)c5ccc2[nH]5)C=C4)C=C3)cc1
REMARK SMILES IDX 29 1 28 2 26 3 27 4 25 6 24 7 23 8 18 9 19 10 20 11 22 12
REMARK SMILES IDX 21 13 17 14 1 15 2 16 3 17 11 18 14 19 12 20 4 21 5 22 10 23
REMARK SMILES IDX 6 24 9 25 7 26 8 27 15 29 16 30 13 31 30 34 31 35 32 36
REMARK SMILES IDX 33 37 34 39 35 40 36 41 97 42 37 43 96 44 38 45 39 46 40 47
REMARK SMILES IDX 90 48 41 49 95 50 89 51 91 52 42 53 94 54 88 55 87 56 43 58
REMARK SMILES IDX 75 59 55 60 74 61 56 62 59 63 73 64 92 65 57 66 58 67 72 69
REMARK SMILES IDX 93 70 60 71 44 72 45 73 53 74 46 75 52 76 54 77 51 78 47 79
REMARK SMILES IDX 48 80 49 81 50 82 76 83 77 84 85 85 78 86 84 87 86 88 83 89
REMARK SMILES IDX 79 90 80 91 81 92 82 93 61 94 62 95 70 96 63 97 69 98 71 99
REMARK SMILES IDX 68 100 64 101 65 102 66 103 67 104
REMARK H PARENT 28 5 8 28 13 32 13 33 32 38 91 57 59 68
REMARK Flexibility Score: inf
ROOT
ATOM      1  C   UNL A   1      36.803  21.017  25.234  1.00  0.00     0.117 C 
ENDROOT
BRANCH   1   2
ATOM      2  N   UNL A   1      36.424  21.802  24.072  1.00  0.00    -0.353 N 
ATOM      3  C   UNL A   1      36.365  23.167  23.983  1.00  0.00     0.257 C 
ATOM      4  O   UNL A   1      36.647  23.694  22.904  1.00  0.00    -0.271 OA
ATOM      5  H   UNL A   1      36.183  21.299  23.261  1.00  0.00     0.163 HD
BRANCH   3   6
ATOM      6  C   UNL A   1      36.004  24.039  25.187  1.00  0.00     0.329 C 
BRANCH   6   7
ATOM      7  O   UNL A   1      34.795  24.749  25.078  1.00  0.00    -0.483 OA
BRANCH   7   8
ATOM      8  C   UNL A   1      33.602  24.288  25.558  1.00  0.00     0.127 A 
ATOM      9  C   UNL A   1      32.282  24.523  25.108  1.00  0.00     0.026 A 
ATOM     10  C   UNL A   1      31.249  23.752  25.694  1.00  0.00     0.012 A 
ATOM     11  C   UNL A   1      31.501  22.806  26.691  1.00  0.00     0.001 A 
ATOM     12  C   UNL A   1      33.834  23.334  26.567  1.00  0.00     0.047 A 
ATOM     13  C   UNL A   1      32.797  22.602  27.135  1.00  0.00     0.004 A 
BRANCH   9  14
ATOM     14  C   UNL A   1      31.884  25.465  24.028  1.00  0.00     0.012 A 
ATOM     15  C   UNL A   1      31.147  27.149  25.753  1.00  0.00     0.047 C 
ATOM     16  C   UNL A   1      31.234  26.689  24.324  1.00  0.00    -0.015 A 
ATOM     17  C   UNL A   1      30.740  27.463  23.253  1.00  0.00     0.076 A 
ATOM     18  N   UNL A   1      31.001  27.141  21.960  1.00  0.00    -0.230 NA
ATOM     19  C   UNL A   1      32.161  25.169  22.674  1.00  0.00     0.102 A 
ATOM     20  C   UNL A   1      31.729  26.047  21.684  1.00  0.00     0.142 A 
BRANCH  17  21
ATOM     21  C   UNL A   1      29.730  28.542  23.399  1.00  0.00     0.001 A 
ATOM     22  C   UNL A   1      30.161  29.829  23.783  1.00  0.00     0.014 A 
ATOM     23  C   UNL A   1      28.369  28.391  23.087  1.00  0.00     0.014 A 
ATOM     24  C   UNL A   1      29.309  30.935  23.744  1.00  0.00     0.047 A 
ATOM     25  C   UNL A   1      27.510  29.498  23.032  1.00  0.00     0.047 A 
ATOM     26  C   UNL A   1      27.996  30.766  23.340  1.00  0.00     0.115 A 
BRANCH  26  27
ATOM     27  O   UNL A   1      27.212  31.875  23.245  1.00  0.00    -0.508 OA
ATOM     28  H   UNL A   1      26.279  31.792  23.266  1.00  0.00     0.293 HD
ENDBRANCH  26  27
ENDBRANCH  17  21
BRANCH  19  29
ATOM     29  C   UNL A   1      32.910  24.007  22.295  1.00  0.00     0.104 C 
ATOM     30  N   UNL A   1      33.522  23.086  21.933  1.00  0.00    -0.192 NA
ENDBRANCH  19  29
BRANCH  20  31
ATOM     31  N   UNL A   1      31.932  25.828  20.332  1.00  0.00    -0.383 N 
ATOM     32  H   UNL A   1      32.505  25.086  20.035  1.00  0.00     0.158 HD
ATOM     33  H   UNL A   1      31.503  26.417  19.669  1.00  0.00     0.158 HD
ENDBRANCH  20  31
ENDBRANCH   9  14
ENDBRANCH   7   8
ENDBRANCH   6   7
ENDBRANCH   3   6
ENDBRANCH   1   2
BRANCH   1  34
ATOM     34  C   UNL A   1      37.996  20.082  25.061  1.00  0.00     0.042 C 
BRANCH  34  35
ATOM     35  C   UNL A   1      39.183  20.306  25.991  1.00  0.00     0.118 C 
BRANCH  35  36
ATOM     36  N   UNL A   1      40.181  19.252  25.965  1.00  0.00    -0.352 N 
ATOM     37  C   UNL A   1      41.547  19.301  26.106  1.00  0.00     0.251 C 
ATOM     38  H   UNL A   1      39.817  18.348  25.822  1.00  0.00     0.163 HD
ATOM     39  O   UNL A   1      42.201  18.272  25.957  1.00  0.00    -0.269 OA
BRANCH  37  40
ATOM     40  C   UNL A   1      42.233  20.581  26.387  1.00  0.00     0.039 A 
ATOM     41  C   UNL A   1      42.687  21.342  25.307  1.00  0.00     0.014 A 
ATOM     42  C   UNL A   1      42.431  21.037  27.692  1.00  0.00     0.014 A 
ATOM     43  C   UNL A   1      43.247  22.601  25.533  1.00  0.00     0.010 A 
ATOM     44  C   UNL A   1      42.914  22.328  27.912  1.00  0.00     0.010 A 
ATOM     45  C   UNL A   1      43.312  23.131  26.834  1.00  0.00    -0.014 A 
BRANCH  45  46
ATOM     46  C   UNL A   1      43.756  24.535  27.056  1.00  0.00     0.031 A 
ATOM     47  C   UNL A   1      42.800  25.575  27.571  1.00  0.00     0.074 A 
ATOM     48  C   UNL A   1      45.034  24.874  26.778  1.00  0.00     0.049 A 
ATOM     49  N   UNL A   1      43.024  26.836  27.838  1.00  0.00    -0.248 NA
ATOM     50  C   UNL A   1      41.408  25.153  27.799  1.00  0.00     0.031 C 
ATOM     51  C   UNL A   1      46.047  23.962  26.241  1.00  0.00     0.029 A 
ATOM     52  N   UNL A   1      45.705  26.063  26.921  1.00  0.00    -0.354 N 
ATOM     53  C   UNL A   1      41.812  27.353  28.278  1.00  0.00     0.074 A 
ATOM     54  C   UNL A   1      40.838  26.289  28.174  1.00  0.00     0.031 C 
ATOM     55  C   UNL A   1      47.221  24.607  26.160  1.00  0.00     0.029 A 
ATOM     56  C   UNL A   1      47.040  25.991  26.585  1.00  0.00     0.049 A 
ATOM     57  H   UNL A   1      45.274  26.891  27.235  1.00  0.00     0.167 HD
ATOM     58  C   UNL A   1      41.544  28.593  28.755  1.00  0.00     0.034 A 
ATOM     59  C   UNL A   1      48.010  26.927  26.617  1.00  0.00     0.034 A 
ATOM     60  C   UNL A   1      42.522  29.644  28.862  1.00  0.00     0.049 A 
ATOM     61  C   UNL A   1      47.672  28.314  27.097  1.00  0.00     0.074 A 
ATOM     62  C   UNL A   1      42.354  30.923  29.364  1.00  0.00     0.029 A 
ATOM     63  N   UNL A   1      43.847  29.545  28.461  1.00  0.00    -0.354 N 
ATOM     64  N   UNL A   1      46.522  28.776  27.530  1.00  0.00    -0.248 NA
ATOM     65  C   UNL A   1      48.757  29.307  27.093  1.00  0.00     0.031 C 
ATOM     66  C   UNL A   1      43.552  31.619  29.197  1.00  0.00     0.029 A 
ATOM     67  C   UNL A   1      44.496  30.751  28.672  1.00  0.00     0.049 A 
ATOM     68  H   UNL A   1      44.265  28.737  28.083  1.00  0.00     0.167 HD
ATOM     69  C   UNL A   1      46.754  30.102  27.881  1.00  0.00     0.074 A 
ATOM     70  C   UNL A   1      48.150  30.370  27.606  1.00  0.00     0.031 C 
ATOM     71  C   UNL A   1      45.887  31.010  28.393  1.00  0.00     0.034 A 
BRANCH  58  72
ATOM     72  C   UNL A   1      40.136  28.886  29.203  1.00  0.00     0.023 A 
ATOM     73  C   UNL A   1      39.777  28.834  30.560  1.00  0.00     0.031 A 
ATOM     74  C   UNL A   1      39.154  29.271  28.273  1.00  0.00     0.131 A 
ATOM     75  C   UNL A   1      38.461  29.127  30.946  1.00  0.00     0.055 A 
ATOM     76  C   UNL A   1      37.864  29.625  28.670  1.00  0.00     0.041 A 
ATOM     77  F   UNL A   1      39.439  29.321  26.961  1.00  0.00    -0.206 F 
ATOM     78  C   UNL A   1      37.509  29.548  30.014  1.00  0.00     0.022 A 
BRANCH  75  79
ATOM     79  S   UNL A   1      37.989  28.876  32.679  1.00  0.00     0.124 S 
ATOM     80  O   UNL A   1      36.740  29.629  32.756  1.00  0.00    -0.237 OA
ATOM     81  O   UNL A   1      37.867  27.425  32.766  1.00  0.00    -0.237 OA
ATOM     82  O   UNL A   1      39.105  29.453  33.425  1.00  0.00    -0.744 OA
ENDBRANCH  75  79
ENDBRANCH  58  72
BRANCH  59  83
ATOM     83  C   UNL A   1      49.395  26.577  26.192  1.00  0.00     0.023 A 
ATOM     84  C   UNL A   1      49.901  27.008  24.956  1.00  0.00     0.031 A 
ATOM     85  C   UNL A   1      50.238  25.815  27.022  1.00  0.00     0.131 A 
ATOM     86  C   UNL A   1      51.206  26.658  24.575  1.00  0.00     0.055 A 
ATOM     87  C   UNL A   1      51.549  25.507  26.657  1.00  0.00     0.041 A 
ATOM     88  F   UNL A   1      49.804  25.385  28.217  1.00  0.00    -0.206 F 
ATOM     89  C   UNL A   1      52.039  25.924  25.424  1.00  0.00     0.022 A 
BRANCH  86  90
ATOM     90  S   UNL A   1      51.795  27.147  22.930  1.00  0.00     0.124 S 
ATOM     91  O   UNL A   1      50.597  26.960  22.120  1.00  0.00    -0.237 OA
ATOM     92  O   UNL A   1      52.214  28.526  23.154  1.00  0.00    -0.237 OA
ATOM     93  O   UNL A   1      52.882  26.206  22.666  1.00  0.00    -0.744 OA
ENDBRANCH  86  90
ENDBRANCH  59  83
BRANCH  71  94
ATOM     94  C   UNL A   1      46.413  32.380  28.733  1.00  0.00     0.023 A 
ATOM     95  C   UNL A   1      46.286  33.459  27.845  1.00  0.00     0.031 A 
ATOM     96  C   UNL A   1      46.959  32.624  30.006  1.00  0.00     0.131 A 
ATOM     97  C   UNL A   1      46.709  34.738  28.240  1.00  0.00     0.055 A 
ATOM     98  C   UNL A   1      47.334  33.906  30.411  1.00  0.00     0.041 A 
ATOM     99  F   UNL A   1      47.096  31.625  30.894  1.00  0.00    -0.206 F 
ATOM    100  C   UNL A   1      47.210  34.971  29.524  1.00  0.00     0.022 A 
BRANCH  97 101
ATOM    101  S   UNL A   1      46.602  36.099  27.048  1.00  0.00     0.124 S 
ATOM    102  O   UNL A   1      46.333  35.388  25.802  1.00  0.00    -0.237 OA
ATOM    103  O   UNL A   1      45.501  36.897  27.576  1.00  0.00    -0.237 OA
ATOM    104  O   UNL A   1      47.917  36.732  27.129  1.00  0.00    -0.744 OA
ENDBRANCH  97 101
ENDBRANCH  71  94
ENDBRANCH  45  46
ENDBRANCH  37  40
ENDBRANCH  35  36
ENDBRANCH  34  35
ENDBRANCH   1  34
TORSDOF 20
ENDMDL
MODEL 3
REMARK VINA RESULT:     -13.1      0.541      7.446
REMARK SMILES Cc1c(-c2ccc(O)cc2)nc(N)c(C#N)c1-c1ccccc1OCC(=O)NCCCNC(=O)c1ccc(-c2c3nc(c(-c4cc(S(=O)(=O)[O-])ccc4F)c4ccc([nH]4)c(-c4cc(S(=O)(=O)[O-])ccc4F)c4nc(c(-c5cc(S(=O)(=O)[O-])ccc5F)c5ccc2[nH]5)C=C4)C=C3)cc1
REMARK SMILES IDX 29 1 28 2 26 3 27 4 25 6 24 7 23 8 18 9 19 10 20 11 22 12
REMARK SMILES IDX 21 13 17 14 1 15 2 16 3 17 11 18 14 19 12 20 4 21 5 22 10 23
REMARK SMILES IDX 6 24 9 25 7 26 8 27 15 29 16 30 13 31 30 34 31 35 32 36
REMARK SMILES IDX 33 37 34 39 35 40 36 41 97 42 37 43 96 44 38 45 39 46 40 47
REMARK SMILES IDX 90 48 41 49 95 50 89 51 91 52 42 53 94 54 88 55 87 56 43 58
REMARK SMILES IDX 75 59 55 60 74 61 56 62 59 63 73 64 92 65 57 66 58 67 72 69
REMARK SMILES IDX 93 70 60 71 44 72 45 73 53 74 46 75 52 76 54 77 51 78 47 79
REMARK SMILES IDX 48 80 49 81 50 82 76 83 77 84 85 85 78 86 84 87 86 88 83 89
REMARK SMILES IDX 79 90 80 91 81 92 82 93 61 94 62 95 70 96 63 97 69 98 71 99
REMARK SMILES IDX 68 100 64 101 65 102 66 103 67 104
REMARK H PARENT 28 5 8 28 13 32 13 33 32 38 91 57 59 68
REMARK Flexibility Score: inf
ROOT
ATOM      1  C   UNL A   1      31.873  30.042  26.962  1.00  0.00     0.117 C 
ENDROOT
BRANCH   1   2
ATOM      2  N   UNL A   1      33.172  29.573  27.411  1.00  0.00    -0.353 N 
ATOM      3  C   UNL A   1      33.825  28.440  27.004  1.00  0.00     0.257 C 
ATOM      4  O   UNL A   1      35.056  28.467  26.944  1.00  0.00    -0.271 OA
ATOM      5  H   UNL A   1      33.633  30.129  28.080  1.00  0.00     0.163 HD
BRANCH   3   6
ATOM      6  C   UNL A   1      33.067  27.177  26.590  1.00  0.00     0.329 C 
BRANCH   6   7
ATOM      7  O   UNL A   1      33.707  26.378  25.626  1.00  0.00    -0.483 OA
BRANCH   7   8
ATOM      8  C   UNL A   1      33.259  26.237  24.343  1.00  0.00     0.127 A 
ATOM      9  C   UNL A   1      32.543  25.179  23.735  1.00  0.00     0.026 A 
ATOM     10  C   UNL A   1      32.048  25.399  22.426  1.00  0.00     0.012 A 
ATOM     11  C   UNL A   1      32.263  26.596  21.741  1.00  0.00     0.001 A 
ATOM     12  C   UNL A   1      33.469  27.434  23.633  1.00  0.00     0.047 A 
ATOM     13  C   UNL A   1      32.983  27.615  22.343  1.00  0.00     0.004 A 
BRANCH   9  14
ATOM     14  C   UNL A   1      32.209  23.876  24.368  1.00  0.00     0.012 A 
ATOM     15  C   UNL A   1      34.236  22.823  23.299  1.00  0.00     0.047 C 
ATOM     16  C   UNL A   1      32.955  22.705  24.077  1.00  0.00    -0.015 A 
ATOM     17  C   UNL A   1      32.493  21.472  24.582  1.00  0.00     0.076 A 
ATOM     18  N   UNL A   1      31.451  21.402  25.451  1.00  0.00    -0.230 NA
ATOM     19  C   UNL A   1      31.145  23.774  25.292  1.00  0.00     0.102 A 
ATOM     20  C   UNL A   1      30.825  22.529  25.827  1.00  0.00     0.142 A 
BRANCH  17  21
ATOM     21  C   UNL A   1      32.922  20.146  24.070  1.00  0.00     0.001 A 
ATOM     22  C   UNL A   1      33.998  19.490  24.704  1.00  0.00     0.014 A 
ATOM     23  C   UNL A   1      32.264  19.449  23.044  1.00  0.00     0.014 A 
ATOM     24  C   UNL A   1      34.327  18.163  24.415  1.00  0.00     0.047 A 
ATOM     25  C   UNL A   1      32.578  18.113  22.758  1.00  0.00     0.047 A 
ATOM     26  C   UNL A   1      33.594  17.475  23.463  1.00  0.00     0.115 A 
BRANCH  26  27
ATOM     27  O   UNL A   1      33.895  16.163  23.255  1.00  0.00    -0.508 OA
ATOM     28  H   UNL A   1      34.655  15.930  22.760  1.00  0.00     0.293 HD
ENDBRANCH  26  27
ENDBRANCH  17  21
BRANCH  19  29
ATOM     29  C   UNL A   1      30.411  24.927  25.724  1.00  0.00     0.104 C 
ATOM     30  N   UNL A   1      29.850  25.896  26.041  1.00  0.00    -0.192 NA
ENDBRANCH  19  29
BRANCH  20  31
ATOM     31  N   UNL A   1      29.785  22.329  26.718  1.00  0.00    -0.383 N 
ATOM     32  H   UNL A   1      29.679  21.458  27.163  1.00  0.00     0.158 HD
ATOM     33  H   UNL A   1      29.151  23.060  26.905  1.00  0.00     0.158 HD
ENDBRANCH  20  31
ENDBRANCH   9  14
ENDBRANCH   7   8
ENDBRANCH   6   7
ENDBRANCH   3   6
ENDBRANCH   1   2
BRANCH   1  34
ATOM     34  C   UNL A   1      31.709  31.553  26.820  1.00  0.00     0.042 C 
BRANCH  34  35
ATOM     35  C   UNL A   1      32.902  32.413  27.224  1.00  0.00     0.118 C 
BRANCH  35  36
ATOM     36  N   UNL A   1      32.566  33.770  27.615  1.00  0.00    -0.352 N 
ATOM     37  C   UNL A   1      33.147  34.615  28.529  1.00  0.00     0.251 C 
ATOM     38  H   UNL A   1      31.789  34.150  27.143  1.00  0.00     0.163 HD
ATOM     39  O   UNL A   1      32.625  35.703  28.755  1.00  0.00    -0.269 OA
BRANCH  37  40
ATOM     40  C   UNL A   1      34.359  34.206  29.271  1.00  0.00     0.039 A 
ATOM     41  C   UNL A   1      34.202  33.453  30.438  1.00  0.00     0.014 A 
ATOM     42  C   UNL A   1      35.640  34.553  28.834  1.00  0.00     0.014 A 
ATOM     43  C   UNL A   1      35.327  32.966  31.105  1.00  0.00     0.010 A 
ATOM     44  C   UNL A   1      36.761  33.998  29.454  1.00  0.00     0.010 A 
ATOM     45  C   UNL A   1      36.616  33.184  30.587  1.00  0.00    -0.014 A 
BRANCH  45  46
ATOM     46  C   UNL A   1      37.801  32.528  31.207  1.00  0.00     0.031 A 
ATOM     47  C   UNL A   1      38.334  32.991  32.534  1.00  0.00     0.074 A 
ATOM     48  C   UNL A   1      38.408  31.513  30.555  1.00  0.00     0.049 A 
ATOM     49  N   UNL A   1      39.342  32.522  33.224  1.00  0.00    -0.248 NA
ATOM     50  C   UNL A   1      37.662  34.140  33.164  1.00  0.00     0.031 C 
ATOM     51  C   UNL A   1      38.005  30.996  29.244  1.00  0.00     0.029 A 
ATOM     52  N   UNL A   1      39.474  30.722  30.906  1.00  0.00    -0.354 N 
ATOM     53  C   UNL A   1      39.416  33.303  34.370  1.00  0.00     0.074 A 
ATOM     54  C   UNL A   1      38.398  34.324  34.251  1.00  0.00     0.031 C 
ATOM     55  C   UNL A   1      38.773  29.940  28.933  1.00  0.00     0.029 A 
ATOM     56  C   UNL A   1      39.757  29.733  29.990  1.00  0.00     0.049 A 
ATOM     57  H   UNL A   1      39.989  30.851  31.736  1.00  0.00     0.167 HD
ATOM     58  C   UNL A   1      40.238  33.163  35.438  1.00  0.00     0.034 A 
ATOM     59  C   UNL A   1      40.697  28.766  29.996  1.00  0.00     0.034 A 
ATOM     60  C   UNL A   1      41.244  32.139  35.552  1.00  0.00     0.049 A 
ATOM     61  C   UNL A   1      41.637  28.667  31.170  1.00  0.00     0.074 A 
ATOM     62  C   UNL A   1      42.103  31.896  36.609  1.00  0.00     0.029 A 
ATOM     63  N   UNL A   1      41.533  31.192  34.579  1.00  0.00    -0.354 N 
ATOM     64  N   UNL A   1      41.674  29.405  32.255  1.00  0.00    -0.248 NA
ATOM     65  C   UNL A   1      42.658  27.612  31.123  1.00  0.00     0.031 C 
ATOM     66  C   UNL A   1      42.959  30.854  36.247  1.00  0.00     0.029 A 
ATOM     67  C   UNL A   1      42.579  30.387  34.999  1.00  0.00     0.049 A 
ATOM     68  H   UNL A   1      41.063  31.105  33.718  1.00  0.00     0.167 HD
ATOM     69  C   UNL A   1      42.702  28.881  33.034  1.00  0.00     0.074 A 
ATOM     70  C   UNL A   1      43.262  27.769  32.295  1.00  0.00     0.031 C 
ATOM     71  C   UNL A   1      43.133  29.282  34.255  1.00  0.00     0.034 A 
BRANCH  58  72
ATOM     72  C   UNL A   1      40.085  34.137  36.577  1.00  0.00     0.023 A 
ATOM     73  C   UNL A   1      39.538  33.740  37.808  1.00  0.00     0.031 A 
ATOM     74  C   UNL A   1      40.537  35.463  36.451  1.00  0.00     0.131 A 
ATOM     75  C   UNL A   1      39.423  34.667  38.854  1.00  0.00     0.055 A 
ATOM     76  C   UNL A   1      40.481  36.363  37.516  1.00  0.00     0.041 A 
ATOM     77  F   UNL A   1      41.054  35.900  35.291  1.00  0.00    -0.206 F 
ATOM     78  C   UNL A   1      39.915  35.968  38.725  1.00  0.00     0.022 A 
BRANCH  75  79
ATOM     79  S   UNL A   1      38.550  34.169  40.362  1.00  0.00     0.124 S 
ATOM     80  O   UNL A   1      39.532  33.291  40.994  1.00  0.00    -0.237 OA
ATOM     81  O   UNL A   1      38.312  35.445  41.026  1.00  0.00    -0.237 OA
ATOM     82  O   UNL A   1      37.354  33.495  39.860  1.00  0.00    -0.744 OA
ENDBRANCH  75  79
ENDBRANCH  58  72
BRANCH  59  83
ATOM     83  C   UNL A   1      40.786  27.807  28.859  1.00  0.00     0.023 A 
ATOM     84  C   UNL A   1      41.754  27.966  27.855  1.00  0.00     0.031 A 
ATOM     85  C   UNL A   1      39.910  26.710  28.764  1.00  0.00     0.131 A 
ATOM     86  C   UNL A   1      41.812  27.055  26.789  1.00  0.00     0.055 A 
ATOM     87  C   UNL A   1      40.000  25.782  27.726  1.00  0.00     0.041 A 
ATOM     88  F   UNL A   1      38.971  26.509  29.702  1.00  0.00    -0.206 F 
ATOM     89  C   UNL A   1      40.953  25.955  26.726  1.00  0.00     0.022 A 
BRANCH  86  90
ATOM     90  S   UNL A   1      43.010  27.344  25.458  1.00  0.00     0.124 S 
ATOM     91  O   UNL A   1      44.141  27.896  26.194  1.00  0.00    -0.237 OA
ATOM     92  O   UNL A   1      43.189  26.003  24.912  1.00  0.00    -0.237 OA
ATOM     93  O   UNL A   1      42.318  28.283  24.578  1.00  0.00    -0.744 OA
ENDBRANCH  86  90
ENDBRANCH  59  83
BRANCH  71  94
ATOM     94  C   UNL A   1      44.244  28.503  34.907  1.00  0.00     0.023 A 
ATOM     95  C   UNL A   1      43.984  27.389  35.720  1.00  0.00     0.031 A 
ATOM     96  C   UNL A   1      45.584  28.824  34.624  1.00  0.00     0.131 A 
ATOM     97  C   UNL A   1      45.053  26.637  36.232  1.00  0.00     0.055 A 
ATOM     98  C   UNL A   1      46.641  28.046  35.097  1.00  0.00     0.041 A 
ATOM     99  F   UNL A   1      45.884  29.878  33.846  1.00  0.00    -0.206 F 
ATOM    100  C   UNL A   1      46.377  26.946  35.908  1.00  0.00     0.022 A 
BRANCH  97 101
ATOM    101  S   UNL A   1      44.691  25.249  37.340  1.00  0.00     0.124 S 
ATOM    102  O   UNL A   1      43.657  24.533  36.599  1.00  0.00    -0.237 OA
ATOM    103  O   UNL A   1      45.983  24.578  37.440  1.00  0.00    -0.237 OA
ATOM    104  O   UNL A   1      44.236  25.898  38.568  1.00  0.00    -0.744 OA
ENDBRANCH  97 101
ENDBRANCH  71  94
ENDBRANCH  45  46
ENDBRANCH  37  40
ENDBRANCH  35  36
ENDBRANCH  34  35
ENDBRANCH   1  34
TORSDOF 20
ENDMDL
