MODEL 1
REMARK VINA RESULT:     -12.0      0.000      0.000
REMARK SMILES COc1ccc(OCc2cccs2)c(C(=O)NCCCNC(=O)c2ccc(-c3c4nc(c(-c5cc(S(=O)(=O)[O-])ccc5F)c5ccc([nH]5)c(-c5cc(S(=O)(=O)[O-])ccc5F)c5nc(c(-c6cc(S(=O)(=O)[O-])ccc6F)c6ccc3[nH]6)C=C5)C=C4)cc2)c1
REMARK SMILES IDX 19 1 18 2 17 3 15 4 16 5 14 7 3 8 4 9 87 10 5 11 6 12 2 13
REMARK SMILES IDX 1 14 7 15 8 16 9 17 10 18 13 19 11 20 12 21 20 22 21 23
REMARK SMILES IDX 22 24 23 26 24 27 25 28 86 29 26 30 85 31 27 32 28 33 29 34
REMARK SMILES IDX 79 35 30 36 84 37 78 38 80 39 31 40 83 41 77 42 76 43 32 45
REMARK SMILES IDX 64 46 44 47 63 48 45 49 48 50 62 51 81 52 46 53 47 54 61 56
REMARK SMILES IDX 82 57 49 58 33 59 34 60 42 61 35 62 41 63 43 64 40 65 36 66
REMARK SMILES IDX 37 67 38 68 39 69 65 70 66 71 74 72 67 73 73 74 75 75 72 76
REMARK SMILES IDX 68 77 69 78 70 79 71 80 50 81 51 82 59 83 52 84 58 85 60 86
REMARK SMILES IDX 57 87 53 88 54 89 55 90 56 91
REMARK H PARENT 17 6 21 25 80 44 48 55
REMARK Flexibility Score: inf
ROOT
ATOM      1  C   UNL A   1      31.552  31.925  26.562  1.00  0.00     0.042 C 
ENDROOT
BRANCH   1   2
ATOM      2  C   UNL A   1      31.636  30.412  26.370  1.00  0.00     0.118 C 
BRANCH   2   3
ATOM      3  N   UNL A   1      32.050  30.129  25.005  1.00  0.00    -0.352 N 
ATOM      4  C   UNL A   1      32.061  28.970  24.271  1.00  0.00     0.255 C 
ATOM      5  O   UNL A   1      32.767  28.924  23.266  1.00  0.00    -0.269 OA
ATOM      6  H   UNL A   1      32.383  30.916  24.515  1.00  0.00     0.163 HD
BRANCH   4   7
ATOM      7  C   UNL A   1      31.221  27.805  24.622  1.00  0.00     0.085 A 
ATOM      8  C   UNL A   1      30.963  25.789  25.970  1.00  0.00     0.119 A 
ATOM      9  C   UNL A   1      29.918  25.380  25.153  1.00  0.00     0.050 A 
ATOM     10  C   UNL A   1      31.659  26.955  25.657  1.00  0.00     0.064 A 
ATOM     11  C   UNL A   1      29.487  26.206  24.116  1.00  0.00     0.051 A 
ATOM     12  C   UNL A   1      30.082  27.458  23.877  1.00  0.00     0.132 A 
BRANCH   8  13
ATOM     13  O   UNL A   1      31.284  24.955  27.006  1.00  0.00    -0.497 OA
ATOM     14  C   UNL A   1      31.294  23.571  26.658  1.00  0.00     0.278 C 
ENDBRANCH   8  13
BRANCH  12  15
ATOM     15  O   UNL A   1      29.403  28.140  22.909  1.00  0.00    -0.487 OA
BRANCH  15  16
ATOM     16  C   UNL A   1      28.112  28.721  23.090  1.00  0.00     0.276 C 
BRANCH  16  17
ATOM     17  C   UNL A   1      28.107  30.199  22.800  1.00  0.00     0.042 A 
ATOM     18  C   UNL A   1      27.995  31.272  23.665  1.00  0.00     0.019 A 
ATOM     19  S   UNL A   1      28.392  30.748  21.195  1.00  0.00    -0.145 S 
ATOM     20  C   UNL A   1      28.212  32.527  23.031  1.00  0.00     0.012 A 
ATOM     21  C   UNL A   1      28.446  32.385  21.685  1.00  0.00     0.065 A 
ENDBRANCH  16  17
ENDBRANCH  15  16
ENDBRANCH  12  15
ENDBRANCH   4   7
ENDBRANCH   2   3
ENDBRANCH   1   2
BRANCH   1  22
ATOM     22  C   UNL A   1      32.774  32.475  27.292  1.00  0.00     0.118 C 
BRANCH  22  23
ATOM     23  N   UNL A   1      32.637  33.902  27.555  1.00  0.00    -0.352 N 
ATOM     24  C   UNL A   1      33.204  34.651  28.560  1.00  0.00     0.251 C 
ATOM     25  H   UNL A   1      32.061  34.396  26.928  1.00  0.00     0.163 HD
ATOM     26  O   UNL A   1      32.760  35.763  28.812  1.00  0.00    -0.269 OA
BRANCH  24  27
ATOM     27  C   UNL A   1      34.335  34.090  29.330  1.00  0.00     0.039 A 
ATOM     28  C   UNL A   1      34.079  33.208  30.382  1.00  0.00     0.014 A 
ATOM     29  C   UNL A   1      35.649  34.439  29.006  1.00  0.00     0.014 A 
ATOM     30  C   UNL A   1      35.148  32.641  31.079  1.00  0.00     0.010 A 
ATOM     31  C   UNL A   1      36.709  33.797  29.632  1.00  0.00     0.010 A 
ATOM     32  C   UNL A   1      36.471  32.908  30.691  1.00  0.00    -0.014 A 
BRANCH  32  33
ATOM     33  C   UNL A   1      37.629  32.314  31.408  1.00  0.00     0.031 A 
ATOM     34  C   UNL A   1      38.398  31.188  30.768  1.00  0.00     0.074 A 
ATOM     35  C   UNL A   1      37.945  32.741  32.646  1.00  0.00     0.049 A 
ATOM     36  N   UNL A   1      39.371  30.465  31.258  1.00  0.00    -0.248 NA
ATOM     37  C   UNL A   1      37.985  30.796  29.412  1.00  0.00     0.031 C 
ATOM     38  C   UNL A   1      37.244  33.796  33.382  1.00  0.00     0.029 A 
ATOM     39  N   UNL A   1      38.932  32.338  33.510  1.00  0.00    -0.354 N 
ATOM     40  C   UNL A   1      39.670  29.521  30.279  1.00  0.00     0.074 A 
ATOM     41  C   UNL A   1      38.721  29.716  29.206  1.00  0.00     0.031 C 
ATOM     42  C   UNL A   1      37.844  33.978  34.569  1.00  0.00     0.029 A 
ATOM     43  C   UNL A   1      38.937  33.021  34.704  1.00  0.00     0.049 A 
ATOM     44  H   UNL A   1      39.575  31.625  33.295  1.00  0.00     0.167 HD
ATOM     45  C   UNL A   1      40.664  28.599  30.264  1.00  0.00     0.034 A 
ATOM     46  C   UNL A   1      39.730  32.884  35.786  1.00  0.00     0.034 A 
ATOM     47  C   UNL A   1      41.613  28.439  31.337  1.00  0.00     0.049 A 
ATOM     48  C   UNL A   1      40.821  31.842  35.753  1.00  0.00     0.074 A 
ATOM     49  C   UNL A   1      42.692  27.576  31.413  1.00  0.00     0.029 A 
ATOM     50  N   UNL A   1      41.595  29.158  32.526  1.00  0.00    -0.354 N 
ATOM     51  N   UNL A   1      41.120  30.987  34.800  1.00  0.00    -0.248 NA
ATOM     52  C   UNL A   1      41.687  31.755  36.934  1.00  0.00     0.031 C 
ATOM     53  C   UNL A   1      43.283  27.724  32.671  1.00  0.00     0.029 A 
ATOM     54  C   UNL A   1      42.627  28.740  33.351  1.00  0.00     0.049 A 
ATOM     55  H   UNL A   1      40.943  29.861  32.750  1.00  0.00     0.167 HD
ATOM     56  C   UNL A   1      42.235  30.289  35.255  1.00  0.00     0.074 A 
ATOM     57  C   UNL A   1      42.559  30.831  36.559  1.00  0.00     0.031 C 
ATOM     58  C   UNL A   1      42.933  29.293  34.650  1.00  0.00     0.034 A 
BRANCH  45  59
ATOM     59  C   UNL A   1      40.751  27.690  29.059  1.00  0.00     0.023 A 
ATOM     60  C   UNL A   1      41.710  27.892  28.050  1.00  0.00     0.031 A 
ATOM     61  C   UNL A   1      39.839  26.633  28.894  1.00  0.00     0.131 A 
ATOM     62  C   UNL A   1      41.678  27.110  26.885  1.00  0.00     0.055 A 
ATOM     63  C   UNL A   1      39.873  25.799  27.774  1.00  0.00     0.041 A 
ATOM     64  F   UNL A   1      38.886  26.403  29.810  1.00  0.00    -0.206 F 
ATOM     65  C   UNL A   1      40.784  26.046  26.752  1.00  0.00     0.022 A 
BRANCH  62  66
ATOM     66  S   UNL A   1      42.714  27.610  25.481  1.00  0.00     0.124 S 
ATOM     67  O   UNL A   1      42.642  26.426  24.628  1.00  0.00    -0.237 OA
ATOM     68  O   UNL A   1      42.024  28.796  24.987  1.00  0.00    -0.237 OA
ATOM     69  O   UNL A   1      44.020  27.854  26.088  1.00  0.00    -0.744 OA
ENDBRANCH  62  66
ENDBRANCH  45  59
BRANCH  46  70
ATOM     70  C   UNL A   1      39.531  33.747  36.986  1.00  0.00     0.023 A 
ATOM     71  C   UNL A   1      38.921  33.240  38.146  1.00  0.00     0.031 A 
ATOM     72  C   UNL A   1      39.908  35.102  36.980  1.00  0.00     0.131 A 
ATOM     73  C   UNL A   1      38.659  34.094  39.229  1.00  0.00     0.055 A 
ATOM     74  C   UNL A   1      39.698  35.932  38.083  1.00  0.00     0.041 A 
ATOM     75  F   UNL A   1      40.502  35.636  35.901  1.00  0.00    -0.206 F 
ATOM     76  C   UNL A   1      39.055  35.432  39.210  1.00  0.00     0.022 A 
BRANCH  73  77
ATOM     77  S   UNL A   1      37.705  33.448  40.631  1.00  0.00     0.124 S 
ATOM     78  O   UNL A   1      36.452  33.071  39.987  1.00  0.00    -0.237 OA
ATOM     79  O   UNL A   1      38.548  32.350  41.090  1.00  0.00    -0.237 OA
ATOM     80  O   UNL A   1      37.623  34.590  41.540  1.00  0.00    -0.744 OA
ENDBRANCH  73  77
ENDBRANCH  46  70
BRANCH  58  81
ATOM     81  C   UNL A   1      44.151  28.771  35.373  1.00  0.00     0.023 A 
ATOM     82  C   UNL A   1      44.075  27.704  36.284  1.00  0.00     0.031 A 
ATOM     83  C   UNL A   1      45.408  29.359  35.145  1.00  0.00     0.131 A 
ATOM     84  C   UNL A   1      45.223  27.297  36.979  1.00  0.00     0.055 A 
ATOM     85  C   UNL A   1      46.559  28.906  35.789  1.00  0.00     0.041 A 
ATOM     86  F   UNL A   1      45.539  30.384  34.287  1.00  0.00    -0.206 F 
ATOM     87  C   UNL A   1      46.468  27.878  36.724  1.00  0.00     0.022 A 
BRANCH  84  88
ATOM     88  S   UNL A   1      45.050  26.065  38.298  1.00  0.00     0.124 S 
ATOM     89  O   UNL A   1      44.267  25.025  37.641  1.00  0.00    -0.237 OA
ATOM     90  O   UNL A   1      46.439  25.729  38.594  1.00  0.00    -0.237 OA
ATOM     91  O   UNL A   1      44.351  26.792  39.357  1.00  0.00    -0.744 OA
ENDBRANCH  84  88
ENDBRANCH  58  81
ENDBRANCH  32  33
ENDBRANCH  24  27
ENDBRANCH  22  23
ENDBRANCH   1  22
TORSDOF 17
ENDMDL
MODEL 2
REMARK VINA RESULT:     -11.6      1.613      7.849
REMARK SMILES COc1ccc(OCc2cccs2)c(C(=O)NCCCNC(=O)c2ccc(-c3c4nc(c(-c5cc(S(=O)(=O)[O-])ccc5F)c5ccc([nH]5)c(-c5cc(S(=O)(=O)[O-])ccc5F)c5nc(c(-c6cc(S(=O)(=O)[O-])ccc6F)c6ccc3[nH]6)C=C5)C=C4)cc2)c1
REMARK SMILES IDX 19 1 18 2 17 3 15 4 16 5 14 7 3 8 4 9 87 10 5 11 6 12 2 13
REMARK SMILES IDX 1 14 7 15 8 16 9 17 10 18 13 19 11 20 12 21 20 22 21 23
REMARK SMILES IDX 22 24 23 26 24 27 25 28 86 29 26 30 85 31 27 32 28 33 29 34
REMARK SMILES IDX 79 35 30 36 84 37 78 38 80 39 31 40 83 41 77 42 76 43 32 45
REMARK SMILES IDX 64 46 44 47 63 48 45 49 48 50 62 51 81 52 46 53 47 54 61 56
REMARK SMILES IDX 82 57 49 58 33 59 34 60 42 61 35 62 41 63 43 64 40 65 36 66
REMARK SMILES IDX 37 67 38 68 39 69 65 70 66 71 74 72 67 73 73 74 75 75 72 76
REMARK SMILES IDX 68 77 69 78 70 79 71 80 50 81 51 82 59 83 52 84 58 85 60 86
REMARK SMILES IDX 57 87 53 88 54 89 55 90 56 91
REMARK H PARENT 17 6 21 25 80 44 48 55
REMARK Flexibility Score: inf
ROOT
ATOM      1  C   UNL A   1      31.427  32.375  26.511  1.00  0.00     0.042 C 
ENDROOT
BRANCH   1   2
ATOM      2  C   UNL A   1      31.225  30.868  26.372  1.00  0.00     0.118 C 
BRANCH   2   3
ATOM      3  N   UNL A   1      32.436  30.275  25.824  1.00  0.00    -0.352 N 
ATOM      4  C   UNL A   1      32.769  28.979  25.524  1.00  0.00     0.255 C 
ATOM      5  O   UNL A   1      33.958  28.698  25.394  1.00  0.00    -0.269 OA
ATOM      6  H   UNL A   1      33.149  30.926  25.632  1.00  0.00     0.163 HD
BRANCH   4   7
ATOM      7  C   UNL A   1      31.748  27.931  25.308  1.00  0.00     0.085 A 
ATOM      8  C   UNL A   1      30.801  25.803  26.030  1.00  0.00     0.119 A 
ATOM      9  C   UNL A   1      30.107  25.709  24.832  1.00  0.00     0.050 A 
ATOM     10  C   UNL A   1      31.675  26.869  26.231  1.00  0.00     0.064 A 
ATOM     11  C   UNL A   1      30.184  26.746  23.904  1.00  0.00     0.051 A 
ATOM     12  C   UNL A   1      30.946  27.901  24.154  1.00  0.00     0.132 A 
BRANCH   8  13
ATOM     13  O   UNL A   1      30.622  24.777  26.916  1.00  0.00    -0.497 OA
ATOM     14  C   UNL A   1      30.790  23.479  26.347  1.00  0.00     0.278 C 
ENDBRANCH   8  13
BRANCH  12  15
ATOM     15  O   UNL A   1      30.755  28.830  23.173  1.00  0.00    -0.487 OA
BRANCH  15  16
ATOM     16  C   UNL A   1      29.548  28.971  22.423  1.00  0.00     0.276 C 
BRANCH  16  17
ATOM     17  C   UNL A   1      29.002  30.374  22.483  1.00  0.00     0.042 A 
ATOM     18  C   UNL A   1      29.044  31.299  23.510  1.00  0.00     0.019 A 
ATOM     19  S   UNL A   1      28.299  31.070  21.076  1.00  0.00    -0.145 S 
ATOM     20  C   UNL A   1      28.573  32.585  23.125  1.00  0.00     0.012 A 
ATOM     21  C   UNL A   1      28.142  32.601  21.821  1.00  0.00     0.065 A 
ENDBRANCH  16  17
ENDBRANCH  15  16
ENDBRANCH  12  15
ENDBRANCH   4   7
ENDBRANCH   2   3
ENDBRANCH   1   2
BRANCH   1  22
ATOM     22  C   UNL A   1      32.771  32.713  27.149  1.00  0.00     0.118 C 
BRANCH  22  23
ATOM     23  N   UNL A   1      32.764  34.053  27.721  1.00  0.00    -0.352 N 
ATOM     24  C   UNL A   1      33.477  34.536  28.795  1.00  0.00     0.251 C 
ATOM     25  H   UNL A   1      32.170  34.701  27.278  1.00  0.00     0.163 HD
ATOM     26  O   UNL A   1      33.141  35.588  29.322  1.00  0.00    -0.269 OA
BRANCH  24  27
ATOM     27  C   UNL A   1      34.631  33.763  29.302  1.00  0.00     0.039 A 
ATOM     28  C   UNL A   1      35.926  34.175  28.983  1.00  0.00     0.014 A 
ATOM     29  C   UNL A   1      34.426  32.631  30.095  1.00  0.00     0.014 A 
ATOM     30  C   UNL A   1      37.018  33.474  29.501  1.00  0.00     0.010 A 
ATOM     31  C   UNL A   1      35.509  31.998  30.689  1.00  0.00     0.010 A 
ATOM     32  C   UNL A   1      36.819  32.398  30.382  1.00  0.00    -0.014 A 
BRANCH  32  33
ATOM     33  C   UNL A   1      37.958  31.637  30.955  1.00  0.00     0.031 A 
ATOM     34  C   UNL A   1      38.411  31.929  32.361  1.00  0.00     0.074 A 
ATOM     35  C   UNL A   1      38.619  30.740  30.195  1.00  0.00     0.049 A 
ATOM     36  N   UNL A   1      39.440  31.456  33.016  1.00  0.00    -0.248 NA
ATOM     37  C   UNL A   1      37.624  32.917  33.115  1.00  0.00     0.031 C 
ATOM     38  C   UNL A   1      38.296  30.407  28.806  1.00  0.00     0.029 A 
ATOM     39  N   UNL A   1      39.702  29.948  30.481  1.00  0.00    -0.354 N 
ATOM     40  C   UNL A   1      39.434  32.106  34.247  1.00  0.00     0.074 A 
ATOM     41  C   UNL A   1      38.349  33.060  34.213  1.00  0.00     0.031 C 
ATOM     42  C   UNL A   1      39.141  29.457  28.373  1.00  0.00     0.029 A 
ATOM     43  C   UNL A   1      40.096  29.150  29.432  1.00  0.00     0.049 A 
ATOM     44  H   UNL A   1      40.155  29.952  31.354  1.00  0.00     0.167 HD
ATOM     45  C   UNL A   1      40.240  31.902  35.319  1.00  0.00     0.034 A 
ATOM     46  C   UNL A   1      41.118  28.276  29.335  1.00  0.00     0.034 A 
ATOM     47  C   UNL A   1      41.302  30.927  35.338  1.00  0.00     0.049 A 
ATOM     48  C   UNL A   1      42.011  28.075  30.534  1.00  0.00     0.074 A 
ATOM     49  C   UNL A   1      42.149  30.595  36.379  1.00  0.00     0.029 A 
ATOM     50  N   UNL A   1      41.663  30.127  34.261  1.00  0.00    -0.354 N 
ATOM     51  N   UNL A   1      41.964  28.664  31.708  1.00  0.00    -0.248 NA
ATOM     52  C   UNL A   1      43.085  27.083  30.400  1.00  0.00     0.031 C 
ATOM     53  C   UNL A   1      43.066  29.648  35.913  1.00  0.00     0.029 A 
ATOM     54  C   UNL A   1      42.739  29.323  34.605  1.00  0.00     0.049 A 
ATOM     55  H   UNL A   1      41.222  30.132  33.381  1.00  0.00     0.167 HD
ATOM     56  C   UNL A   1      42.980  28.083  32.464  1.00  0.00     0.074 A 
ATOM     57  C   UNL A   1      43.610  27.092  31.616  1.00  0.00     0.031 C 
ATOM     58  C   UNL A   1      43.355  28.341  33.744  1.00  0.00     0.034 A 
BRANCH  45  59
ATOM     59  C   UNL A   1      40.007  32.765  36.538  1.00  0.00     0.023 A 
ATOM     60  C   UNL A   1      39.156  32.357  37.581  1.00  0.00     0.031 A 
ATOM     61  C   UNL A   1      40.611  34.030  36.643  1.00  0.00     0.131 A 
ATOM     62  C   UNL A   1      38.862  33.237  38.633  1.00  0.00     0.055 A 
ATOM     63  C   UNL A   1      40.387  34.865  37.741  1.00  0.00     0.041 A 
ATOM     64  F   UNL A   1      41.416  34.487  35.671  1.00  0.00    -0.206 F 
ATOM     65  C   UNL A   1      39.494  34.478  38.735  1.00  0.00     0.022 A 
BRANCH  62  66
ATOM     66  S   UNL A   1      37.521  32.802  39.774  1.00  0.00     0.124 S 
ATOM     67  O   UNL A   1      37.519  33.951  40.676  1.00  0.00    -0.237 OA
ATOM     68  O   UNL A   1      36.372  32.687  38.883  1.00  0.00    -0.237 OA
ATOM     69  O   UNL A   1      37.974  31.549  40.374  1.00  0.00    -0.744 OA
ENDBRANCH  62  66
ENDBRANCH  45  59
BRANCH  46  70
ATOM     70  C   UNL A   1      41.356  27.524  28.069  1.00  0.00     0.023 A 
ATOM     71  C   UNL A   1      41.051  26.156  27.974  1.00  0.00     0.031 A 
ATOM     72  C   UNL A   1      41.931  28.148  26.948  1.00  0.00     0.131 A 
ATOM     73  C   UNL A   1      41.370  25.447  26.806  1.00  0.00     0.055 A 
ATOM     74  C   UNL A   1      42.193  27.450  25.767  1.00  0.00     0.041 A 
ATOM     75  F   UNL A   1      42.236  29.455  26.981  1.00  0.00    -0.206 F 
ATOM     76  C   UNL A   1      41.927  26.087  25.697  1.00  0.00     0.022 A 
BRANCH  73  77
ATOM     77  S   UNL A   1      41.132  23.648  26.790  1.00  0.00     0.124 S 
ATOM     78  O   UNL A   1      39.709  23.540  26.490  1.00  0.00    -0.237 OA
ATOM     79  O   UNL A   1      42.046  23.231  25.733  1.00  0.00    -0.237 OA
ATOM     80  O   UNL A   1      41.519  23.242  28.140  1.00  0.00    -0.744 OA
ENDBRANCH  73  77
ENDBRANCH  46  70
BRANCH  58  81
ATOM     81  C   UNL A   1      44.463  27.492  34.318  1.00  0.00     0.023 A 
ATOM     82  C   UNL A   1      44.218  26.227  34.878  1.00  0.00     0.031 A 
ATOM     83  C   UNL A   1      45.788  27.964  34.305  1.00  0.00     0.131 A 
ATOM     84  C   UNL A   1      45.270  25.504  35.457  1.00  0.00     0.055 A 
ATOM     85  C   UNL A   1      46.842  27.211  34.821  1.00  0.00     0.041 A 
ATOM     86  F   UNL A   1      46.081  29.167  33.784  1.00  0.00    -0.206 F 
ATOM     87  C   UNL A   1      46.584  25.978  35.415  1.00  0.00     0.022 A 
BRANCH  84  88
ATOM     88  S   UNL A   1      44.886  23.978  36.359  1.00  0.00     0.124 S 
ATOM     89  O   UNL A   1      46.113  23.207  36.186  1.00  0.00    -0.237 OA
ATOM     90  O   UNL A   1      44.625  24.470  37.708  1.00  0.00    -0.237 OA
ATOM     91  O   UNL A   1      43.718  23.449  35.657  1.00  0.00    -0.744 OA
ENDBRANCH  84  88
ENDBRANCH  58  81
ENDBRANCH  32  33
ENDBRANCH  24  27
ENDBRANCH  22  23
ENDBRANCH   1  22
TORSDOF 17
ENDMDL
MODEL 3
REMARK VINA RESULT:     -11.5      4.150      9.202
REMARK SMILES COc1ccc(OCc2cccs2)c(C(=O)NCCCNC(=O)c2ccc(-c3c4nc(c(-c5cc(S(=O)(=O)[O-])ccc5F)c5ccc([nH]5)c(-c5cc(S(=O)(=O)[O-])ccc5F)c5nc(c(-c6cc(S(=O)(=O)[O-])ccc6F)c6ccc3[nH]6)C=C5)C=C4)cc2)c1
REMARK SMILES IDX 19 1 18 2 17 3 15 4 16 5 14 7 3 8 4 9 87 10 5 11 6 12 2 13
REMARK SMILES IDX 1 14 7 15 8 16 9 17 10 18 13 19 11 20 12 21 20 22 21 23
REMARK SMILES IDX 22 24 23 26 24 27 25 28 86 29 26 30 85 31 27 32 28 33 29 34
REMARK SMILES IDX 79 35 30 36 84 37 78 38 80 39 31 40 83 41 77 42 76 43 32 45
REMARK SMILES IDX 64 46 44 47 63 48 45 49 48 50 62 51 81 52 46 53 47 54 61 56
REMARK SMILES IDX 82 57 49 58 33 59 34 60 42 61 35 62 41 63 43 64 40 65 36 66
REMARK SMILES IDX 37 67 38 68 39 69 65 70 66 71 74 72 67 73 73 74 75 75 72 76
REMARK SMILES IDX 68 77 69 78 70 79 71 80 50 81 51 82 59 83 52 84 58 85 60 86
REMARK SMILES IDX 57 87 53 88 54 89 55 90 56 91
REMARK H PARENT 17 6 21 25 80 44 48 55
REMARK Flexibility Score: inf
ROOT
ATOM      1  C   UNL A   1      33.303  28.201  27.291  1.00  0.00     0.042 C 
ENDROOT
BRANCH   1   2
ATOM      2  C   UNL A   1      31.783  28.317  27.198  1.00  0.00     0.118 C 
BRANCH   2   3
ATOM      3  N   UNL A   1      31.206  26.982  27.161  1.00  0.00    -0.352 N 
ATOM      4  C   UNL A   1      30.698  26.230  26.133  1.00  0.00     0.255 C 
ATOM      5  O   UNL A   1      29.968  25.281  26.410  1.00  0.00    -0.269 OA
ATOM      6  H   UNL A   1      31.176  26.534  28.037  1.00  0.00     0.163 HD
BRANCH   4   7
ATOM      7  C   UNL A   1      31.038  26.495  24.718  1.00  0.00     0.085 A 
ATOM      8  C   UNL A   1      30.476  27.667  22.654  1.00  0.00     0.119 A 
ATOM      9  C   UNL A   1      31.341  26.838  21.952  1.00  0.00     0.050 A 
ATOM     10  C   UNL A   1      30.269  27.443  24.014  1.00  0.00     0.064 A 
ATOM     11  C   UNL A   1      32.095  25.886  22.637  1.00  0.00     0.051 A 
ATOM     12  C   UNL A   1      32.009  25.745  24.033  1.00  0.00     0.132 A 
BRANCH   8  13
ATOM     13  O   UNL A   1      29.823  28.620  21.922  1.00  0.00    -0.497 OA
ATOM     14  C   UNL A   1      28.802  29.310  22.643  1.00  0.00     0.278 C 
ENDBRANCH   8  13
BRANCH  12  15
ATOM     15  O   UNL A   1      32.937  24.854  24.488  1.00  0.00    -0.487 OA
BRANCH  15  16
ATOM     16  C   UNL A   1      34.274  25.200  24.849  1.00  0.00     0.276 C 
BRANCH  16  17
ATOM     17  C   UNL A   1      35.238  24.065  24.616  1.00  0.00     0.042 A 
ATOM     18  C   UNL A   1      35.583  23.422  23.441  1.00  0.00     0.019 A 
ATOM     19  S   UNL A   1      36.190  23.481  25.923  1.00  0.00    -0.145 S 
ATOM     20  C   UNL A   1      36.665  22.513  23.598  1.00  0.00     0.012 A 
ATOM     21  C   UNL A   1      37.096  22.453  24.901  1.00  0.00     0.065 A 
ENDBRANCH  16  17
ENDBRANCH  15  16
ENDBRANCH  12  15
ENDBRANCH   4   7
ENDBRANCH   2   3
ENDBRANCH   1   2
BRANCH   1  22
ATOM     22  C   UNL A   1      34.008  29.162  26.338  1.00  0.00     0.118 C 
BRANCH  22  23
ATOM     23  N   UNL A   1      33.839  30.546  26.760  1.00  0.00    -0.352 N 
ATOM     24  C   UNL A   1      34.492  31.226  27.763  1.00  0.00     0.251 C 
ATOM     25  H   UNL A   1      33.168  31.064  26.261  1.00  0.00     0.163 HD
ATOM     26  O   UNL A   1      34.032  32.281  28.179  1.00  0.00    -0.269 OA
BRANCH  24  27
ATOM     27  C   UNL A   1      35.734  30.660  28.330  1.00  0.00     0.039 A 
ATOM     28  C   UNL A   1      35.665  29.857  29.470  1.00  0.00     0.014 A 
ATOM     29  C   UNL A   1      36.967  30.926  27.730  1.00  0.00     0.014 A 
ATOM     30  C   UNL A   1      36.831  29.283  29.979  1.00  0.00     0.010 A 
ATOM     31  C   UNL A   1      38.109  30.274  28.176  1.00  0.00     0.010 A 
ATOM     32  C   UNL A   1      38.059  29.463  29.320  1.00  0.00    -0.014 A 
BRANCH  32  33
ATOM     33  C   UNL A   1      39.316  28.860  29.832  1.00  0.00     0.031 A 
ATOM     34  C   UNL A   1      39.981  29.455  31.046  1.00  0.00     0.074 A 
ATOM     35  C   UNL A   1      39.886  27.830  29.176  1.00  0.00     0.049 A 
ATOM     36  N   UNL A   1      41.127  29.150  31.596  1.00  0.00    -0.248 NA
ATOM     37  C   UNL A   1      39.281  30.571  31.700  1.00  0.00     0.031 C 
ATOM     38  C   UNL A   1      39.354  27.201  27.965  1.00  0.00     0.029 A 
ATOM     39  N   UNL A   1      41.040  27.134  29.428  1.00  0.00    -0.354 N 
ATOM     40  C   UNL A   1      41.294  30.050  32.645  1.00  0.00     0.074 A 
ATOM     41  C   UNL A   1      40.170  30.958  32.600  1.00  0.00     0.031 C 
ATOM     42  C   UNL A   1      40.161  26.192  27.602  1.00  0.00     0.029 A 
ATOM     43  C   UNL A   1      41.295  26.134  28.518  1.00  0.00     0.049 A 
ATOM     44  H   UNL A   1      41.632  27.333  30.189  1.00  0.00     0.167 HD
ATOM     45  C   UNL A   1      42.276  30.094  33.579  1.00  0.00     0.034 A 
ATOM     46  C   UNL A   1      42.329  25.274  28.431  1.00  0.00     0.034 A 
ATOM     47  C   UNL A   1      43.375  29.161  33.617  1.00  0.00     0.049 A 
ATOM     48  C   UNL A   1      43.419  25.350  29.472  1.00  0.00     0.074 A 
ATOM     49  C   UNL A   1      44.400  29.074  34.542  1.00  0.00     0.029 A 
ATOM     50  N   UNL A   1      43.593  28.153  32.686  1.00  0.00    -0.354 N 
ATOM     51  N   UNL A   1      43.539  26.178  30.486  1.00  0.00    -0.248 NA
ATOM     52  C   UNL A   1      44.505  24.368  29.365  1.00  0.00     0.031 C 
ATOM     53  C   UNL A   1      45.273  28.061  34.133  1.00  0.00     0.029 A 
ATOM     54  C   UNL A   1      44.750  27.457  33.000  1.00  0.00     0.049 A 
ATOM     55  H   UNL A   1      43.011  27.961  31.915  1.00  0.00     0.167 HD
ATOM     56  C   UNL A   1      44.694  25.788  31.159  1.00  0.00     0.074 A 
ATOM     57  C   UNL A   1      45.225  24.647  30.442  1.00  0.00     0.031 C 
ATOM     58  C   UNL A   1      45.264  26.321  32.270  1.00  0.00     0.034 A 
BRANCH  45  59
ATOM     59  C   UNL A   1      42.206  31.196  34.611  1.00  0.00     0.023 A 
ATOM     60  C   UNL A   1      42.815  32.447  34.398  1.00  0.00     0.031 A 
ATOM     61  C   UNL A   1      41.560  30.984  35.840  1.00  0.00     0.131 A 
ATOM     62  C   UNL A   1      42.842  33.398  35.428  1.00  0.00     0.055 A 
ATOM     63  C   UNL A   1      41.510  31.971  36.828  1.00  0.00     0.041 A 
ATOM     64  F   UNL A   1      40.979  29.805  36.114  1.00  0.00    -0.206 F 
ATOM     65  C   UNL A   1      42.169  33.181  36.632  1.00  0.00     0.022 A 
BRANCH  62  66
ATOM     66  S   UNL A   1      43.906  34.855  35.231  1.00  0.00     0.124 S 
ATOM     67  O   UNL A   1      45.224  34.297  35.524  1.00  0.00    -0.237 OA
ATOM     68  O   UNL A   1      43.667  35.234  33.843  1.00  0.00    -0.237 OA
ATOM     69  O   UNL A   1      43.397  35.790  36.230  1.00  0.00    -0.744 OA
ENDBRANCH  62  66
ENDBRANCH  45  59
BRANCH  46  70
ATOM     70  C   UNL A   1      42.391  24.270  27.330  1.00  0.00     0.023 A 
ATOM     71  C   UNL A   1      41.717  23.042  27.434  1.00  0.00     0.031 A 
ATOM     72  C   UNL A   1      43.160  24.502  26.175  1.00  0.00     0.131 A 
ATOM     73  C   UNL A   1      41.866  22.075  26.428  1.00  0.00     0.055 A 
ATOM     74  C   UNL A   1      43.257  23.559  25.151  1.00  0.00     0.041 A 
ATOM     75  F   UNL A   1      43.819  25.661  26.020  1.00  0.00    -0.206 F 
ATOM     76  C   UNL A   1      42.620  22.330  25.282  1.00  0.00     0.022 A 
BRANCH  73  77
ATOM     77  S   UNL A   1      41.131  20.436  26.686  1.00  0.00     0.124 S 
ATOM     78  O   UNL A   1      39.871  20.559  25.962  1.00  0.00    -0.237 OA
ATOM     79  O   UNL A   1      42.132  19.558  26.091  1.00  0.00    -0.237 OA
ATOM     80  O   UNL A   1      41.010  20.343  28.140  1.00  0.00    -0.744 OA
ENDBRANCH  73  77
ENDBRANCH  46  70
BRANCH  58  81
ATOM     81  C   UNL A   1      46.495  25.632  32.808  1.00  0.00     0.023 A 
ATOM     82  C   UNL A   1      47.765  25.828  32.241  1.00  0.00     0.031 A 
ATOM     83  C   UNL A   1      46.388  24.761  33.907  1.00  0.00     0.131 A 
ATOM     84  C   UNL A   1      48.867  25.116  32.735  1.00  0.00     0.055 A 
ATOM     85  C   UNL A   1      47.499  24.107  34.438  1.00  0.00     0.041 A 
ATOM     86  F   UNL A   1      45.198  24.534  34.487  1.00  0.00    -0.206 F 
ATOM     87  C   UNL A   1      48.747  24.271  33.842  1.00  0.00     0.022 A 
BRANCH  84  88
ATOM     88  S   UNL A   1      50.444  25.229  31.848  1.00  0.00     0.124 S 
ATOM     89  O   UNL A   1      50.036  25.819  30.578  1.00  0.00    -0.237 OA
ATOM     90  O   UNL A   1      51.235  26.086  32.725  1.00  0.00    -0.237 OA
ATOM     91  O   UNL A   1      50.895  23.840  31.770  1.00  0.00    -0.744 OA
ENDBRANCH  84  88
ENDBRANCH  58  81
ENDBRANCH  32  33
ENDBRANCH  24  27
ENDBRANCH  22  23
ENDBRANCH   1  22
TORSDOF 17
ENDMDL
