MODEL 1
REMARK VINA RESULT:      -9.0      0.000      0.000
REMARK SMILES O=C(/C=C/C(=O)c1ccc(F)c(Br)c1)NCCCNC(=O)c1ccc(-c2c3nc(c(-c4cc(S(=O)(=O)[O-])ccc4F)c4ccc([nH]4)c(-c4cc(S(=O)(=O)[O-])ccc4F)c4nc(c(-c5cc(S(=O)(=O)[O-])ccc5F)c5ccc2[nH]5)C=C4)C=C3)cc1
REMARK SMILES IDX 17 1 16 2 15 3 1 4 2 5 3 7 4 8 5 9 6 10 7 11 8 12 14 13 9 14
REMARK SMILES IDX 12 15 10 16 13 17 11 18 18 19 19 20 20 21 21 23 22 24 23 25
REMARK SMILES IDX 84 26 24 27 83 28 25 29 26 30 27 31 77 32 28 33 82 34 76 35
REMARK SMILES IDX 78 36 29 37 81 38 75 39 74 40 30 42 62 43 42 44 61 45 43 46
REMARK SMILES IDX 46 47 60 48 79 49 44 50 45 51 59 53 80 54 47 55 31 56 32 57
REMARK SMILES IDX 40 58 33 59 39 60 41 61 38 62 34 63 35 64 36 65 37 66 63 67
REMARK SMILES IDX 64 68 72 69 65 70 71 71 73 72 70 73 66 74 67 75 68 76 69 77
REMARK SMILES IDX 48 78 49 79 57 80 50 81 56 82 58 83 55 84 51 85 52 86 53 87
REMARK SMILES IDX 54 88
REMARK H PARENT 15 6 19 22 78 41 46 52
REMARK Flexibility Score: inf
ROOT
ATOM      1  C   UNL A   1      32.838  35.856  32.256  1.00  0.00     0.042 C 
ENDROOT
BRANCH   1   2
ATOM      2  C   UNL A   1      33.713  36.177  33.463  1.00  0.00     0.118 C 
BRANCH   2   3
ATOM      3  N   UNL A   1      34.363  34.995  34.000  1.00  0.00    -0.352 N 
ATOM      4  O   UNL A   1      36.355  35.304  32.904  1.00  0.00    -0.270 OA
ATOM      5  C   UNL A   1      35.637  34.647  33.656  1.00  0.00     0.244 C 
ATOM      6  H   UNL A   1      33.869  34.426  34.634  1.00  0.00     0.163 HD
BRANCH   5   7
ATOM      7  C   UNL A   1      36.184  33.395  34.235  1.00  0.00     0.075 C 
ATOM      8  C   UNL A   1      37.341  33.246  34.893  1.00  0.00     0.058 C 
BRANCH   8   9
ATOM      9  C   UNL A   1      37.822  31.958  35.457  1.00  0.00     0.186 C 
ATOM     10  O   UNL A   1      37.472  31.633  36.588  1.00  0.00    -0.289 OA
BRANCH   9  11
ATOM     11  C   UNL A   1      38.721  31.063  34.689  1.00  0.00     0.023 A 
ATOM     12  C   UNL A   1      40.100  31.013  34.934  1.00  0.00     0.015 A 
ATOM     13  C   UNL A   1      38.145  30.211  33.737  1.00  0.00     0.031 A 
ATOM     14  C   UNL A   1      40.907  30.150  34.189  1.00  0.00     0.041 A 
ATOM     15  C   UNL A   1      38.958  29.346  33.003  1.00  0.00     0.054 A 
ATOM     16  C   UNL A   1      40.334  29.325  33.226  1.00  0.00     0.137 A 
ATOM     17  Br  UNL A   1      38.177  28.206  31.712  1.00  0.00    -0.048 Br
ATOM     18  F   UNL A   1      41.131  28.506  32.526  1.00  0.00    -0.206 F 
ENDBRANCH   9  11
ENDBRANCH   8   9
ENDBRANCH   5   7
ENDBRANCH   2   3
ENDBRANCH   1   2
BRANCH   1  19
ATOM     19  C   UNL A   1      33.547  35.983  30.910  1.00  0.00     0.118 C 
BRANCH  19  20
ATOM     20  N   UNL A   1      32.938  35.172  29.866  1.00  0.00    -0.352 N 
ATOM     21  C   UNL A   1      33.465  34.150  29.117  1.00  0.00     0.251 C 
ATOM     22  H   UNL A   1      31.999  35.392  29.666  1.00  0.00     0.163 HD
ATOM     23  O   UNL A   1      32.811  33.711  28.173  1.00  0.00    -0.269 OA
BRANCH  21  24
ATOM     24  C   UNL A   1      34.807  33.595  29.413  1.00  0.00     0.039 A 
ATOM     25  C   UNL A   1      35.893  34.027  28.646  1.00  0.00     0.014 A 
ATOM     26  C   UNL A   1      35.001  32.632  30.407  1.00  0.00     0.014 A 
ATOM     27  C   UNL A   1      37.175  33.536  28.910  1.00  0.00     0.010 A 
ATOM     28  C   UNL A   1      36.291  32.204  30.722  1.00  0.00     0.010 A 
ATOM     29  C   UNL A   1      37.392  32.641  29.971  1.00  0.00    -0.014 A 
BRANCH  29  30
ATOM     30  C   UNL A   1      38.757  32.136  30.285  1.00  0.00     0.031 A 
ATOM     31  C   UNL A   1      39.609  32.848  31.304  1.00  0.00     0.074 A 
ATOM     32  C   UNL A   1      39.247  31.066  29.629  1.00  0.00     0.049 A 
ATOM     33  N   UNL A   1      40.841  32.602  31.672  1.00  0.00    -0.248 NA
ATOM     34  C   UNL A   1      39.004  34.008  31.975  1.00  0.00     0.031 C 
ATOM     35  C   UNL A   1      38.533  30.309  28.598  1.00  0.00     0.029 A 
ATOM     36  N   UNL A   1      40.460  30.431  29.724  1.00  0.00    -0.354 N 
ATOM     37  C   UNL A   1      41.161  33.581  32.608  1.00  0.00     0.074 A 
ATOM     38  C   UNL A   1      40.017  34.463  32.696  1.00  0.00     0.031 C 
ATOM     39  C   UNL A   1      39.310  29.297  28.178  1.00  0.00     0.029 A 
ATOM     40  C   UNL A   1      40.594  29.359  28.870  1.00  0.00     0.049 A 
ATOM     41  H   UNL A   1      41.169  30.715  30.345  1.00  0.00     0.167 HD
ATOM     42  C   UNL A   1      42.293  33.719  33.343  1.00  0.00     0.034 A 
ATOM     43  C   UNL A   1      41.635  28.528  28.659  1.00  0.00     0.034 A 
ATOM     44  C   UNL A   1      43.423  32.826  33.251  1.00  0.00     0.049 A 
ATOM     45  C   UNL A   1      42.895  28.720  29.465  1.00  0.00     0.074 A 
ATOM     46  C   UNL A   1      44.600  32.845  33.981  1.00  0.00     0.029 A 
ATOM     47  N   UNL A   1      43.524  31.755  32.371  1.00  0.00    -0.354 N 
ATOM     48  N   UNL A   1      43.165  29.625  30.378  1.00  0.00    -0.248 NA
ATOM     49  C   UNL A   1      43.988  27.769  29.220  1.00  0.00     0.031 C 
ATOM     50  C   UNL A   1      45.438  31.837  33.493  1.00  0.00     0.029 A 
ATOM     51  C   UNL A   1      44.752  31.129  32.518  1.00  0.00     0.049 A 
ATOM     52  H   UNL A   1      42.824  31.481  31.735  1.00  0.00     0.167 HD
ATOM     53  C   UNL A   1      44.444  29.326  30.842  1.00  0.00     0.074 A 
ATOM     54  C   UNL A   1      44.884  28.151  30.118  1.00  0.00     0.031 C 
ATOM     55  C   UNL A   1      45.185  29.961  31.786  1.00  0.00     0.034 A 
BRANCH  42  56
ATOM     56  C   UNL A   1      42.369  34.895  34.289  1.00  0.00     0.023 A 
ATOM     57  C   UNL A   1      42.794  36.165  33.858  1.00  0.00     0.031 A 
ATOM     58  C   UNL A   1      42.040  34.741  35.648  1.00  0.00     0.131 A 
ATOM     59  C   UNL A   1      42.958  37.204  34.787  1.00  0.00     0.055 A 
ATOM     60  C   UNL A   1      42.119  35.804  36.551  1.00  0.00     0.041 A 
ATOM     61  F   UNL A   1      41.649  33.550  36.126  1.00  0.00    -0.206 F 
ATOM     62  C   UNL A   1      42.597  37.040  36.126  1.00  0.00     0.022 A 
BRANCH  59  63
ATOM     63  S   UNL A   1      43.796  38.720  34.251  1.00  0.00     0.124 S 
ATOM     64  O   UNL A   1      44.270  39.260  35.523  1.00  0.00    -0.237 OA
ATOM     65  O   UNL A   1      44.824  38.211  33.351  1.00  0.00    -0.237 OA
ATOM     66  O   UNL A   1      42.733  39.492  33.612  1.00  0.00    -0.744 OA
ENDBRANCH  59  63
ENDBRANCH  42  56
BRANCH  43  67
ATOM     67  C   UNL A   1      41.542  27.442  27.640  1.00  0.00     0.023 A 
ATOM     68  C   UNL A   1      41.362  26.103  28.022  1.00  0.00     0.031 A 
ATOM     69  C   UNL A   1      41.685  27.721  26.268  1.00  0.00     0.131 A 
ATOM     70  C   UNL A   1      41.382  25.088  27.052  1.00  0.00     0.055 A 
ATOM     71  C   UNL A   1      41.646  26.715  25.302  1.00  0.00     0.041 A 
ATOM     72  F   UNL A   1      41.859  28.984  25.847  1.00  0.00    -0.206 F 
ATOM     73  C   UNL A   1      41.508  25.387  25.693  1.00  0.00     0.022 A 
BRANCH  70  74
ATOM     74  S   UNL A   1      41.338  23.360  27.601  1.00  0.00     0.124 S 
ATOM     75  O   UNL A   1      41.941  23.455  28.925  1.00  0.00    -0.237 OA
ATOM     76  O   UNL A   1      39.909  23.067  27.565  1.00  0.00    -0.237 OA
ATOM     77  O   UNL A   1      42.140  22.665  26.597  1.00  0.00    -0.744 OA
ENDBRANCH  70  74
ENDBRANCH  43  67
BRANCH  55  78
ATOM     78  C   UNL A   1      46.528  29.359  32.130  1.00  0.00     0.023 A 
ATOM     79  C   UNL A   1      46.676  28.396  33.143  1.00  0.00     0.031 A 
ATOM     80  C   UNL A   1      47.681  29.771  31.438  1.00  0.00     0.131 A 
ATOM     81  C   UNL A   1      47.954  27.921  33.475  1.00  0.00     0.055 A 
ATOM     82  C   UNL A   1      48.941  29.245  31.727  1.00  0.00     0.041 A 
ATOM     83  F   UNL A   1      47.602  30.690  30.463  1.00  0.00    -0.206 F 
ATOM     84  C   UNL A   1      49.085  28.325  32.760  1.00  0.00     0.022 A 
BRANCH  81  85
ATOM     85  S   UNL A   1      48.135  26.844  34.924  1.00  0.00     0.124 S 
ATOM     86  O   UNL A   1      48.733  27.747  35.901  1.00  0.00    -0.237 OA
ATOM     87  O   UNL A   1      46.757  26.442  35.188  1.00  0.00    -0.237 OA
ATOM     88  O   UNL A   1      49.011  25.774  34.449  1.00  0.00    -0.744 OA
ENDBRANCH  81  85
ENDBRANCH  55  78
ENDBRANCH  29  30
ENDBRANCH  21  24
ENDBRANCH  19  20
ENDBRANCH   1  19
TORSDOF 15
ENDMDL
MODEL 2
REMARK VINA RESULT:      -8.9      1.637      2.066
REMARK SMILES O=C(/C=C/C(=O)c1ccc(F)c(Br)c1)NCCCNC(=O)c1ccc(-c2c3nc(c(-c4cc(S(=O)(=O)[O-])ccc4F)c4ccc([nH]4)c(-c4cc(S(=O)(=O)[O-])ccc4F)c4nc(c(-c5cc(S(=O)(=O)[O-])ccc5F)c5ccc2[nH]5)C=C4)C=C3)cc1
REMARK SMILES IDX 17 1 16 2 15 3 1 4 2 5 3 7 4 8 5 9 6 10 7 11 8 12 14 13 9 14
REMARK SMILES IDX 12 15 10 16 13 17 11 18 18 19 19 20 20 21 21 23 22 24 23 25
REMARK SMILES IDX 84 26 24 27 83 28 25 29 26 30 27 31 77 32 28 33 82 34 76 35
REMARK SMILES IDX 78 36 29 37 81 38 75 39 74 40 30 42 62 43 42 44 61 45 43 46
REMARK SMILES IDX 46 47 60 48 79 49 44 50 45 51 59 53 80 54 47 55 31 56 32 57
REMARK SMILES IDX 40 58 33 59 39 60 41 61 38 62 34 63 35 64 36 65 37 66 63 67
REMARK SMILES IDX 64 68 72 69 65 70 71 71 73 72 70 73 66 74 67 75 68 76 69 77
REMARK SMILES IDX 48 78 49 79 57 80 50 81 56 82 58 83 55 84 51 85 52 86 53 87
REMARK SMILES IDX 54 88
REMARK H PARENT 15 6 19 22 78 41 46 52
REMARK Flexibility Score: inf
ROOT
ATOM      1  C   UNL A   1      32.209  35.817  31.168  1.00  0.00     0.042 C 
ENDROOT
BRANCH   1   2
ATOM      2  C   UNL A   1      32.732  36.299  32.518  1.00  0.00     0.118 C 
BRANCH   2   3
ATOM      3  N   UNL A   1      33.412  35.246  33.251  1.00  0.00    -0.352 N 
ATOM      4  O   UNL A   1      35.534  36.032  32.876  1.00  0.00    -0.270 OA
ATOM      5  C   UNL A   1      34.772  35.194  33.353  1.00  0.00     0.244 C 
ATOM      6  H   UNL A   1      32.874  34.547  33.689  1.00  0.00     0.163 HD
BRANCH   5   7
ATOM      7  C   UNL A   1      35.357  34.048  34.092  1.00  0.00     0.075 C 
ATOM      8  C   UNL A   1      36.634  33.898  34.472  1.00  0.00     0.058 C 
BRANCH   8   9
ATOM      9  C   UNL A   1      37.150  32.723  35.221  1.00  0.00     0.186 C 
ATOM     10  O   UNL A   1      37.061  32.709  36.445  1.00  0.00    -0.289 OA
BRANCH   9  11
ATOM     11  C   UNL A   1      37.776  31.573  34.525  1.00  0.00     0.023 A 
ATOM     12  C   UNL A   1      37.148  30.930  33.448  1.00  0.00     0.015 A 
ATOM     13  C   UNL A   1      39.055  31.172  34.934  1.00  0.00     0.031 A 
ATOM     14  C   UNL A   1      37.778  29.854  32.819  1.00  0.00     0.041 A 
ATOM     15  C   UNL A   1      39.680  30.101  34.294  1.00  0.00     0.054 A 
ATOM     16  C   UNL A   1      39.036  29.443  33.246  1.00  0.00     0.137 A 
ATOM     17  Br  UNL A   1      41.401  29.556  34.857  1.00  0.00    -0.048 Br
ATOM     18  F   UNL A   1      39.618  28.408  32.624  1.00  0.00    -0.206 F 
ENDBRANCH   9  11
ENDBRANCH   8   9
ENDBRANCH   5   7
ENDBRANCH   2   3
ENDBRANCH   1   2
BRANCH   1  19
ATOM     19  C   UNL A   1      33.295  35.533  30.134  1.00  0.00     0.118 C 
BRANCH  19  20
ATOM     20  N   UNL A   1      32.843  34.669  29.054  1.00  0.00    -0.352 N 
ATOM     21  C   UNL A   1      33.505  33.675  28.378  1.00  0.00     0.251 C 
ATOM     22  H   UNL A   1      31.915  34.822  28.762  1.00  0.00     0.163 HD
ATOM     23  O   UNL A   1      32.973  33.180  27.385  1.00  0.00    -0.269 OA
BRANCH  21  24
ATOM     24  C   UNL A   1      34.846  33.216  28.808  1.00  0.00     0.039 A 
ATOM     25  C   UNL A   1      34.932  32.237  29.802  1.00  0.00     0.014 A 
ATOM     26  C   UNL A   1      36.016  33.763  28.272  1.00  0.00     0.014 A 
ATOM     27  C   UNL A   1      36.183  31.771  30.219  1.00  0.00     0.010 A 
ATOM     28  C   UNL A   1      37.259  33.241  28.631  1.00  0.00     0.010 A 
ATOM     29  C   UNL A   1      37.359  32.247  29.616  1.00  0.00    -0.014 A 
BRANCH  29  30
ATOM     30  C   UNL A   1      38.695  31.735  30.025  1.00  0.00     0.031 A 
ATOM     31  C   UNL A   1      39.495  32.466  31.072  1.00  0.00     0.074 A 
ATOM     32  C   UNL A   1      39.208  30.640  29.430  1.00  0.00     0.049 A 
ATOM     33  N   UNL A   1      40.700  32.215  31.520  1.00  0.00    -0.248 NA
ATOM     34  C   UNL A   1      38.868  33.652  31.672  1.00  0.00     0.031 C 
ATOM     35  C   UNL A   1      38.547  29.861  28.381  1.00  0.00     0.029 A 
ATOM     36  N   UNL A   1      40.404  29.992  29.616  1.00  0.00    -0.354 N 
ATOM     37  C   UNL A   1      40.978  33.217  32.445  1.00  0.00     0.074 A 
ATOM     38  C   UNL A   1      39.843  34.115  32.439  1.00  0.00     0.031 C 
ATOM     39  C   UNL A   1      39.332  28.827  28.038  1.00  0.00     0.029 A 
ATOM     40  C   UNL A   1      40.574  28.894  28.803  1.00  0.00     0.049 A 
ATOM     41  H   UNL A   1      41.079  30.286  30.270  1.00  0.00     0.167 HD
ATOM     42  C   UNL A   1      42.065  33.363  33.242  1.00  0.00     0.034 A 
ATOM     43  C   UNL A   1      41.614  28.044  28.679  1.00  0.00     0.034 A 
ATOM     44  C   UNL A   1      43.186  32.453  33.245  1.00  0.00     0.049 A 
ATOM     45  C   UNL A   1      42.827  28.244  29.553  1.00  0.00     0.074 A 
ATOM     46  C   UNL A   1      44.317  32.479  34.042  1.00  0.00     0.029 A 
ATOM     47  N   UNL A   1      43.324  31.356  32.403  1.00  0.00    -0.354 N 
ATOM     48  N   UNL A   1      43.054  29.172  30.454  1.00  0.00    -0.248 NA
ATOM     49  C   UNL A   1      43.918  27.273  29.401  1.00  0.00     0.031 C 
ATOM     50  C   UNL A   1      45.169  31.447  33.634  1.00  0.00     0.029 A 
ATOM     51  C   UNL A   1      44.533  30.719  32.641  1.00  0.00     0.049 A 
ATOM     52  H   UNL A   1      42.659  31.072  31.734  1.00  0.00     0.167 HD
ATOM     53  C   UNL A   1      44.299  28.871  31.002  1.00  0.00     0.074 A 
ATOM     54  C   UNL A   1      44.764  27.670  30.339  1.00  0.00     0.031 C 
ATOM     55  C   UNL A   1      44.991  29.524  31.970  1.00  0.00     0.034 A 
BRANCH  42  56
ATOM     56  C   UNL A   1      42.102  34.565  34.157  1.00  0.00     0.023 A 
ATOM     57  C   UNL A   1      41.586  34.516  35.465  1.00  0.00     0.031 A 
ATOM     58  C   UNL A   1      42.636  35.787  33.709  1.00  0.00     0.131 A 
ATOM     59  C   UNL A   1      41.537  35.681  36.245  1.00  0.00     0.055 A 
ATOM     60  C   UNL A   1      42.666  36.922  34.524  1.00  0.00     0.041 A 
ATOM     61  F   UNL A   1      43.124  35.905  32.466  1.00  0.00    -0.206 F 
ATOM     62  C   UNL A   1      42.098  36.877  35.795  1.00  0.00     0.022 A 
BRANCH  59  63
ATOM     63  S   UNL A   1      40.589  35.647  37.792  1.00  0.00     0.124 S 
ATOM     64  O   UNL A   1      40.103  34.269  37.808  1.00  0.00    -0.237 OA
ATOM     65  O   UNL A   1      41.599  35.979  38.789  1.00  0.00    -0.237 OA
ATOM     66  O   UNL A   1      39.558  36.662  37.584  1.00  0.00    -0.744 OA
ENDBRANCH  59  63
ENDBRANCH  42  56
BRANCH  43  67
ATOM     67  C   UNL A   1      41.566  26.930  27.687  1.00  0.00     0.023 A 
ATOM     68  C   UNL A   1      41.413  25.597  28.102  1.00  0.00     0.031 A 
ATOM     69  C   UNL A   1      41.727  27.177  26.312  1.00  0.00     0.131 A 
ATOM     70  C   UNL A   1      41.476  24.558  27.160  1.00  0.00     0.055 A 
ATOM     71  C   UNL A   1      41.730  26.145  25.372  1.00  0.00     0.041 A 
ATOM     72  F   UNL A   1      41.875  28.432  25.859  1.00  0.00    -0.206 F 
ATOM     73  C   UNL A   1      41.619  24.825  25.796  1.00  0.00     0.022 A 
BRANCH  70  74
ATOM     74  S   UNL A   1      41.466  22.845  27.754  1.00  0.00     0.124 S 
ATOM     75  O   UNL A   1      40.057  22.493  27.622  1.00  0.00    -0.237 OA
ATOM     76  O   UNL A   1      42.381  22.195  26.821  1.00  0.00    -0.237 OA
ATOM     77  O   UNL A   1      41.956  22.959  29.126  1.00  0.00    -0.744 OA
ENDBRANCH  70  74
ENDBRANCH  43  67
BRANCH  55  78
ATOM     78  C   UNL A   1      46.303  28.917  32.411  1.00  0.00     0.023 A 
ATOM     79  C   UNL A   1      46.373  27.960  33.439  1.00  0.00     0.031 A 
ATOM     80  C   UNL A   1      47.504  29.315  31.798  1.00  0.00     0.131 A 
ATOM     81  C   UNL A   1      47.621  27.479  33.863  1.00  0.00     0.055 A 
ATOM     82  C   UNL A   1      48.737  28.782  32.177  1.00  0.00     0.041 A 
ATOM     83  F   UNL A   1      47.500  30.227  30.813  1.00  0.00    -0.206 F 
ATOM     84  C   UNL A   1      48.802  27.870  33.225  1.00  0.00     0.022 A 
BRANCH  81  85
ATOM     85  S   UNL A   1      47.693  26.412  35.328  1.00  0.00     0.124 S 
ATOM     86  O   UNL A   1      47.081  25.182  34.838  1.00  0.00    -0.237 OA
ATOM     87  O   UNL A   1      49.125  26.348  35.598  1.00  0.00    -0.237 OA
ATOM     88  O   UNL A   1      46.908  27.142  36.323  1.00  0.00    -0.744 OA
ENDBRANCH  81  85
ENDBRANCH  55  78
ENDBRANCH  29  30
ENDBRANCH  21  24
ENDBRANCH  19  20
ENDBRANCH   1  19
TORSDOF 15
ENDMDL
MODEL 3
REMARK VINA RESULT:      -8.8      2.809      3.848
REMARK SMILES O=C(/C=C/C(=O)c1ccc(F)c(Br)c1)NCCCNC(=O)c1ccc(-c2c3nc(c(-c4cc(S(=O)(=O)[O-])ccc4F)c4ccc([nH]4)c(-c4cc(S(=O)(=O)[O-])ccc4F)c4nc(c(-c5cc(S(=O)(=O)[O-])ccc5F)c5ccc2[nH]5)C=C4)C=C3)cc1
REMARK SMILES IDX 17 1 16 2 15 3 1 4 2 5 3 7 4 8 5 9 6 10 7 11 8 12 14 13 9 14
REMARK SMILES IDX 12 15 10 16 13 17 11 18 18 19 19 20 20 21 21 23 22 24 23 25
REMARK SMILES IDX 84 26 24 27 83 28 25 29 26 30 27 31 77 32 28 33 82 34 76 35
REMARK SMILES IDX 78 36 29 37 81 38 75 39 74 40 30 42 62 43 42 44 61 45 43 46
REMARK SMILES IDX 46 47 60 48 79 49 44 50 45 51 59 53 80 54 47 55 31 56 32 57
REMARK SMILES IDX 40 58 33 59 39 60 41 61 38 62 34 63 35 64 36 65 37 66 63 67
REMARK SMILES IDX 64 68 72 69 65 70 71 71 73 72 70 73 66 74 67 75 68 76 69 77
REMARK SMILES IDX 48 78 49 79 57 80 50 81 56 82 58 83 55 84 51 85 52 86 53 87
REMARK SMILES IDX 54 88
REMARK H PARENT 15 6 19 22 78 41 46 52
REMARK Flexibility Score: inf
ROOT
ATOM      1  C   UNL A   1      33.793  35.272  30.139  1.00  0.00     0.042 C 
ENDROOT
BRANCH   1   2
ATOM      2  C   UNL A   1      33.299  35.323  31.581  1.00  0.00     0.118 C 
BRANCH   2   3
ATOM      3  N   UNL A   1      34.342  34.985  32.532  1.00  0.00    -0.352 N 
ATOM      4  O   UNL A   1      33.618  32.844  32.925  1.00  0.00    -0.270 OA
ATOM      5  C   UNL A   1      34.402  33.766  33.142  1.00  0.00     0.244 C 
ATOM      6  H   UNL A   1      35.030  35.658  32.744  1.00  0.00     0.163 HD
BRANCH   5   7
ATOM      7  C   UNL A   1      35.490  33.548  34.129  1.00  0.00     0.075 C 
ATOM      8  C   UNL A   1      36.487  32.657  34.048  1.00  0.00     0.058 C 
BRANCH   8   9
ATOM      9  C   UNL A   1      37.552  32.501  35.073  1.00  0.00     0.186 C 
ATOM     10  O   UNL A   1      37.708  31.408  35.611  1.00  0.00    -0.289 OA
BRANCH   9  11
ATOM     11  C   UNL A   1      38.423  33.635  35.466  1.00  0.00     0.023 A 
ATOM     12  C   UNL A   1      39.142  34.377  34.518  1.00  0.00     0.015 A 
ATOM     13  C   UNL A   1      38.469  33.992  36.820  1.00  0.00     0.031 A 
ATOM     14  C   UNL A   1      39.946  35.440  34.933  1.00  0.00     0.041 A 
ATOM     15  C   UNL A   1      39.269  35.062  37.225  1.00  0.00     0.054 A 
ATOM     16  C   UNL A   1      40.009  35.774  36.282  1.00  0.00     0.137 A 
ATOM     17  Br  UNL A   1      39.336  35.533  39.055  1.00  0.00    -0.048 Br
ATOM     18  F   UNL A   1      40.788  36.800  36.653  1.00  0.00    -0.206 F 
ENDBRANCH   9  11
ENDBRANCH   8   9
ENDBRANCH   5   7
ENDBRANCH   2   3
ENDBRANCH   1   2
BRANCH   1  19
ATOM     19  C   UNL A   1      34.681  34.072  29.818  1.00  0.00     0.118 C 
BRANCH  19  20
ATOM     20  N   UNL A   1      34.077  33.155  28.863  1.00  0.00    -0.352 N 
ATOM     21  C   UNL A   1      34.556  31.982  28.336  1.00  0.00     0.251 C 
ATOM     22  H   UNL A   1      33.182  33.418  28.546  1.00  0.00     0.163 HD
ATOM     23  O   UNL A   1      33.936  31.450  27.417  1.00  0.00    -0.269 OA
BRANCH  21  24
ATOM     24  C   UNL A   1      35.810  31.372  28.835  1.00  0.00     0.039 A 
ATOM     25  C   UNL A   1      35.726  30.234  29.642  1.00  0.00     0.014 A 
ATOM     26  C   UNL A   1      37.061  31.928  28.550  1.00  0.00     0.014 A 
ATOM     27  C   UNL A   1      36.892  29.624  30.116  1.00  0.00     0.010 A 
ATOM     28  C   UNL A   1      38.224  31.274  28.957  1.00  0.00     0.010 A 
ATOM     29  C   UNL A   1      38.155  30.121  29.753  1.00  0.00    -0.014 A 
BRANCH  29  30
ATOM     30  C   UNL A   1      39.405  29.462  30.222  1.00  0.00     0.031 A 
ATOM     31  C   UNL A   1      40.118  29.981  31.444  1.00  0.00     0.074 A 
ATOM     32  C   UNL A   1      39.922  28.427  29.531  1.00  0.00     0.049 A 
ATOM     33  N   UNL A   1      41.247  29.584  31.976  1.00  0.00    -0.248 NA
ATOM     34  C   UNL A   1      39.492  31.113  32.142  1.00  0.00     0.031 C 
ATOM     35  C   UNL A   1      39.343  27.853  28.314  1.00  0.00     0.029 A 
ATOM     36  N   UNL A   1      41.050  27.676  29.745  1.00  0.00    -0.354 N 
ATOM     37  C   UNL A   1      41.472  30.425  33.062  1.00  0.00     0.074 A 
ATOM     38  C   UNL A   1      40.397  31.394  33.068  1.00  0.00     0.031 C 
ATOM     39  C   UNL A   1      40.104  26.824  27.908  1.00  0.00     0.029 A 
ATOM     40  C   UNL A   1      41.251  26.693  28.802  1.00  0.00     0.049 A 
ATOM     41  H   UNL A   1      41.660  27.827  30.503  1.00  0.00     0.167 HD
ATOM     42  C   UNL A   1      42.467  30.379  33.983  1.00  0.00     0.034 A 
ATOM     43  C   UNL A   1      42.249  25.797  28.666  1.00  0.00     0.034 A 
ATOM     44  C   UNL A   1      43.527  29.400  33.970  1.00  0.00     0.049 A 
ATOM     45  C   UNL A   1      43.363  25.785  29.683  1.00  0.00     0.074 A 
ATOM     46  C   UNL A   1      44.559  29.234  34.879  1.00  0.00     0.029 A 
ATOM     47  N   UNL A   1      43.700  28.425  32.996  1.00  0.00    -0.354 N 
ATOM     48  N   UNL A   1      43.536  26.560  30.730  1.00  0.00    -0.248 NA
ATOM     49  C   UNL A   1      44.409  24.770  29.507  1.00  0.00     0.031 C 
ATOM     50  C   UNL A   1      45.393  28.210  34.416  1.00  0.00     0.029 A 
ATOM     51  C   UNL A   1      44.836  27.676  33.265  1.00  0.00     0.049 A 
ATOM     52  H   UNL A   1      43.102  28.285  32.226  1.00  0.00     0.167 HD
ATOM     53  C   UNL A   1      44.691  26.097  31.357  1.00  0.00     0.074 A 
ATOM     54  C   UNL A   1      45.162  24.970  30.578  1.00  0.00     0.031 C 
ATOM     55  C   UNL A   1      45.302  26.557  32.479  1.00  0.00     0.034 A 
BRANCH  42  56
ATOM     56  C   UNL A   1      42.464  31.436  35.064  1.00  0.00     0.023 A 
ATOM     57  C   UNL A   1      43.163  32.648  34.915  1.00  0.00     0.031 A 
ATOM     58  C   UNL A   1      41.776  31.221  36.271  1.00  0.00     0.131 A 
ATOM     59  C   UNL A   1      43.229  33.556  35.982  1.00  0.00     0.055 A 
ATOM     60  C   UNL A   1      41.772  32.170  37.297  1.00  0.00     0.041 A 
ATOM     61  F   UNL A   1      41.109  30.077  36.483  1.00  0.00    -0.206 F 
ATOM     62  C   UNL A   1      42.516  33.339  37.162  1.00  0.00     0.022 A 
BRANCH  59  63
ATOM     63  S   UNL A   1      44.387  34.948  35.863  1.00  0.00     0.124 S 
ATOM     64  O   UNL A   1      44.657  35.227  37.272  1.00  0.00    -0.237 OA
ATOM     65  O   UNL A   1      45.491  34.376  35.103  1.00  0.00    -0.237 OA
ATOM     66  O   UNL A   1      43.616  35.977  35.168  1.00  0.00    -0.744 OA
ENDBRANCH  59  63
ENDBRANCH  42  56
BRANCH  43  67
ATOM     67  C   UNL A   1      42.255  24.839  27.522  1.00  0.00     0.023 A 
ATOM     68  C   UNL A   1      41.508  23.651  27.568  1.00  0.00     0.031 A 
ATOM     69  C   UNL A   1      43.050  25.072  26.385  1.00  0.00     0.131 A 
ATOM     70  C   UNL A   1      41.611  22.717  26.525  1.00  0.00     0.055 A 
ATOM     71  C   UNL A   1      43.103  24.167  25.323  1.00  0.00     0.041 A 
ATOM     72  F   UNL A   1      43.783  26.193  26.287  1.00  0.00    -0.206 F 
ATOM     73  C   UNL A   1      42.392  22.974  25.397  1.00  0.00     0.022 A 
BRANCH  70  74
ATOM     74  S   UNL A   1      40.783  21.113  26.710  1.00  0.00     0.124 S 
ATOM     75  O   UNL A   1      41.671  20.233  25.960  1.00  0.00    -0.237 OA
ATOM     76  O   UNL A   1      40.778  20.940  28.159  1.00  0.00    -0.237 OA
ATOM     77  O   UNL A   1      39.471  21.338  26.108  1.00  0.00    -0.744 OA
ENDBRANCH  70  74
ENDBRANCH  43  67
BRANCH  55  78
ATOM     78  C   UNL A   1      46.518  25.801  32.962  1.00  0.00     0.023 A 
ATOM     79  C   UNL A   1      47.801  26.042  32.441  1.00  0.00     0.031 A 
ATOM     80  C   UNL A   1      46.384  24.813  33.954  1.00  0.00     0.131 A 
ATOM     81  C   UNL A   1      48.888  25.264  32.869  1.00  0.00     0.055 A 
ATOM     82  C   UNL A   1      47.480  24.089  34.425  1.00  0.00     0.041 A 
ATOM     83  F   UNL A   1      45.183  24.537  34.487  1.00  0.00    -0.206 F 
ATOM     84  C   UNL A   1      48.738  24.301  33.872  1.00  0.00     0.022 A 
BRANCH  81  85
ATOM     85  S   UNL A   1      50.482  25.453  32.026  1.00  0.00     0.124 S 
ATOM     86  O   UNL A   1      50.207  26.545  31.098  1.00  0.00    -0.237 OA
ATOM     87  O   UNL A   1      51.384  25.766  33.129  1.00  0.00    -0.237 OA
ATOM     88  O   UNL A   1      50.697  24.148  31.401  1.00  0.00    -0.744 OA
ENDBRANCH  81  85
ENDBRANCH  55  78
ENDBRANCH  29  30
ENDBRANCH  21  24
ENDBRANCH  19  20
ENDBRANCH   1  19
TORSDOF 15
ENDMDL
