MODEL 1
REMARK VINA RESULT:     -11.1      0.000      0.000
REMARK SMILES COc1ccc([C@@H](C#N)CC(=O)NCCCNC(=O)c2ccc(-c3c4nc(c(-c5cc(S(=O)(=O)[O-])ccc5F)c5ccc([nH]5)c(-c5cc(S(=O)(=O)[O-])ccc5F)c5nc(c(-c6cc(S(=O)(=O)[O-])ccc6F)c6ccc3[nH]6)C=C5)C=C4)cc2)cc1
REMARK SMILES IDX 15 1 14 2 13 3 11 4 12 5 10 7 7 8 6 9 3 10 4 11 84 12 5 13
REMARK SMILES IDX 83 14 2 15 1 16 8 17 9 18 16 19 17 20 18 21 19 23 20 24
REMARK SMILES IDX 21 25 82 26 22 27 81 28 23 29 24 30 25 31 75 32 26 33 80 34
REMARK SMILES IDX 74 35 76 36 27 37 79 38 73 39 72 40 28 42 60 43 40 44 59 45
REMARK SMILES IDX 41 46 44 47 58 48 77 49 42 50 43 51 57 53 78 54 45 55 29 56
REMARK SMILES IDX 30 57 38 58 31 59 37 60 39 61 36 62 32 63 33 64 34 65 35 66
REMARK SMILES IDX 61 67 62 68 70 69 63 70 69 71 71 72 68 73 64 74 65 75 66 76
REMARK SMILES IDX 67 77 46 78 47 79 55 80 48 81 54 82 56 83 53 84 49 85 50 86
REMARK SMILES IDX 51 87 52 88
REMARK H PARENT 13 6 17 22 76 41 44 52
REMARK Flexibility Score: inf
ROOT
ATOM      1  C   UNL A   1      31.329  31.949  26.497  1.00  0.00     0.042 C 
ENDROOT
BRANCH   1   2
ATOM      2  C   UNL A   1      31.431  30.652  25.706  1.00  0.00     0.117 C 
BRANCH   2   3
ATOM      3  N   UNL A   1      31.523  29.516  26.607  1.00  0.00    -0.356 N 
ATOM      4  C   UNL A   1      31.553  28.185  26.323  1.00  0.00     0.221 C 
ATOM      5  O   UNL A   1      31.383  27.388  27.247  1.00  0.00    -0.275 OA
ATOM      6  H   UNL A   1      31.571  29.742  27.563  1.00  0.00     0.163 HD
BRANCH   4   7
ATOM      7  C   UNL A   1      31.840  27.680  24.923  1.00  0.00     0.123 C 
BRANCH   7   8
ATOM      8  C   UNL A   1      30.595  27.129  24.196  1.00  0.00     0.132 C 
BRANCH   8   9
ATOM      9  C   UNL A   1      29.841  28.181  23.389  1.00  0.00    -0.030 A 
ATOM     10  C   UNL A   1      28.465  29.986  21.734  1.00  0.00     0.118 A 
ATOM     11  C   UNL A   1      27.754  29.172  22.609  1.00  0.00     0.047 A 
ATOM     12  C   UNL A   1      29.858  29.985  21.748  1.00  0.00     0.047 A 
ATOM     13  C   UNL A   1      28.436  28.276  23.436  1.00  0.00     0.009 A 
ATOM     14  C   UNL A   1      30.544  29.090  22.577  1.00  0.00     0.009 A 
BRANCH  10  15
ATOM     15  O   UNL A   1      27.754  30.787  20.885  1.00  0.00    -0.497 OA
ATOM     16  C   UNL A   1      28.218  32.138  20.951  1.00  0.00     0.278 C 
ENDBRANCH  10  15
ENDBRANCH   8   9
BRANCH   8  17
ATOM     17  C   UNL A   1      31.007  26.015  23.311  1.00  0.00     0.071 C 
ATOM     18  N   UNL A   1      31.330  25.116  22.646  1.00  0.00    -0.198 NA
ENDBRANCH   8  17
ENDBRANCH   7   8
ENDBRANCH   4   7
ENDBRANCH   2   3
ENDBRANCH   1   2
BRANCH   1  19
ATOM     19  C   UNL A   1      32.607  32.429  27.164  1.00  0.00     0.118 C 
BRANCH  19  20
ATOM     20  N   UNL A   1      32.510  33.807  27.623  1.00  0.00    -0.352 N 
ATOM     21  C   UNL A   1      33.196  34.507  28.589  1.00  0.00     0.251 C 
ATOM     22  H   UNL A   1      31.825  34.337  27.156  1.00  0.00     0.163 HD
ATOM     23  O   UNL A   1      32.771  35.619  28.897  1.00  0.00    -0.269 OA
BRANCH  21  24
ATOM     24  C   UNL A   1      34.382  33.953  29.298  1.00  0.00     0.039 A 
ATOM     25  C   UNL A   1      34.169  32.999  30.306  1.00  0.00     0.014 A 
ATOM     26  C   UNL A   1      35.687  34.364  29.031  1.00  0.00     0.014 A 
ATOM     27  C   UNL A   1      35.251  32.416  30.979  1.00  0.00     0.010 A 
ATOM     28  C   UNL A   1      36.770  33.721  29.636  1.00  0.00     0.010 A 
ATOM     29  C   UNL A   1      36.566  32.753  30.631  1.00  0.00    -0.014 A 
BRANCH  29  30
ATOM     30  C   UNL A   1      37.733  32.182  31.355  1.00  0.00     0.031 A 
ATOM     31  C   UNL A   1      38.493  31.033  30.743  1.00  0.00     0.074 A 
ATOM     32  C   UNL A   1      38.098  32.659  32.563  1.00  0.00     0.049 A 
ATOM     33  N   UNL A   1      39.491  30.341  31.231  1.00  0.00    -0.248 NA
ATOM     34  C   UNL A   1      38.050  30.589  29.412  1.00  0.00     0.031 C 
ATOM     35  C   UNL A   1      37.446  33.763  33.267  1.00  0.00     0.029 A 
ATOM     36  N   UNL A   1      39.103  32.270  33.416  1.00  0.00    -0.354 N 
ATOM     37  C   UNL A   1      39.792  29.383  30.269  1.00  0.00     0.074 A 
ATOM     38  C   UNL A   1      38.822  29.535  29.206  1.00  0.00     0.031 C 
ATOM     39  C   UNL A   1      38.081  33.976  34.433  1.00  0.00     0.029 A 
ATOM     40  C   UNL A   1      39.152  32.994  34.585  1.00  0.00     0.049 A 
ATOM     41  H   UNL A   1      39.732  31.540  33.209  1.00  0.00     0.167 HD
ATOM     42  C   UNL A   1      40.801  28.477  30.257  1.00  0.00     0.034 A 
ATOM     43  C   UNL A   1      39.955  32.871  35.663  1.00  0.00     0.034 A 
ATOM     44  C   UNL A   1      41.761  28.330  31.324  1.00  0.00     0.049 A 
ATOM     45  C   UNL A   1      41.021  31.798  35.664  1.00  0.00     0.074 A 
ATOM     46  C   UNL A   1      42.836  27.463  31.400  1.00  0.00     0.029 A 
ATOM     47  N   UNL A   1      41.754  29.058  32.507  1.00  0.00    -0.354 N 
ATOM     48  N   UNL A   1      41.313  30.921  34.731  1.00  0.00    -0.248 NA
ATOM     49  C   UNL A   1      41.870  31.707  36.859  1.00  0.00     0.031 C 
ATOM     50  C   UNL A   1      43.420  27.600  32.662  1.00  0.00     0.029 A 
ATOM     51  C   UNL A   1      42.780  28.628  33.334  1.00  0.00     0.049 A 
ATOM     52  H   UNL A   1      41.114  29.774  32.726  1.00  0.00     0.167 HD
ATOM     53  C   UNL A   1      42.407  30.203  35.213  1.00  0.00     0.074 A 
ATOM     54  C   UNL A   1      42.726  30.758  36.512  1.00  0.00     0.031 C 
ATOM     55  C   UNL A   1      43.089  29.183  34.632  1.00  0.00     0.034 A 
BRANCH  42  56
ATOM     56  C   UNL A   1      40.891  27.554  29.064  1.00  0.00     0.023 A 
ATOM     57  C   UNL A   1      41.851  27.744  28.055  1.00  0.00     0.031 A 
ATOM     58  C   UNL A   1      39.987  26.487  28.919  1.00  0.00     0.131 A 
ATOM     59  C   UNL A   1      41.831  26.936  26.909  1.00  0.00     0.055 A 
ATOM     60  C   UNL A   1      40.035  25.626  27.820  1.00  0.00     0.041 A 
ATOM     61  F   UNL A   1      39.030  26.270  29.835  1.00  0.00    -0.206 F 
ATOM     62  C   UNL A   1      40.950  25.860  26.797  1.00  0.00     0.022 A 
BRANCH  59  63
ATOM     63  S   UNL A   1      42.856  27.423  25.494  1.00  0.00     0.124 S 
ATOM     64  O   UNL A   1      44.084  27.855  26.155  1.00  0.00    -0.237 OA
ATOM     65  O   UNL A   1      42.945  26.186  24.727  1.00  0.00    -0.237 OA
ATOM     66  O   UNL A   1      42.087  28.495  24.865  1.00  0.00    -0.744 OA
ENDBRANCH  59  63
ENDBRANCH  42  56
BRANCH  43  67
ATOM     67  C   UNL A   1      39.784  33.766  36.848  1.00  0.00     0.023 A 
ATOM     68  C   UNL A   1      39.211  33.292  38.040  1.00  0.00     0.031 A 
ATOM     69  C   UNL A   1      40.128  35.128  36.783  1.00  0.00     0.131 A 
ATOM     70  C   UNL A   1      38.947  34.182  39.094  1.00  0.00     0.055 A 
ATOM     71  C   UNL A   1      39.926  35.995  37.859  1.00  0.00     0.041 A 
ATOM     72  F   UNL A   1      40.672  35.639  35.666  1.00  0.00    -0.206 F 
ATOM     73  C   UNL A   1      39.319  35.526  39.018  1.00  0.00     0.022 A 
BRANCH  70  74
ATOM     74  S   UNL A   1      38.006  33.581  40.524  1.00  0.00     0.124 S 
ATOM     75  O   UNL A   1      38.932  32.614  41.101  1.00  0.00    -0.237 OA
ATOM     76  O   UNL A   1      37.799  34.808  41.288  1.00  0.00    -0.237 OA
ATOM     77  O   UNL A   1      36.801  33.012  39.924  1.00  0.00    -0.744 OA
ENDBRANCH  70  74
ENDBRANCH  43  67
BRANCH  55  78
ATOM     78  C   UNL A   1      44.291  28.637  35.369  1.00  0.00     0.023 A 
ATOM     79  C   UNL A   1      44.173  27.640  36.353  1.00  0.00     0.031 A 
ATOM     80  C   UNL A   1      45.579  29.123  35.076  1.00  0.00     0.131 A 
ATOM     81  C   UNL A   1      45.312  27.206  37.050  1.00  0.00     0.055 A 
ATOM     82  C   UNL A   1      46.717  28.633  35.718  1.00  0.00     0.041 A 
ATOM     83  F   UNL A   1      45.754  30.080  34.151  1.00  0.00    -0.206 F 
ATOM     84  C   UNL A   1      46.586  27.679  36.722  1.00  0.00     0.022 A 
BRANCH  81  85
ATOM     85  S   UNL A   1      45.096  26.098  38.469  1.00  0.00     0.124 S 
ATOM     86  O   UNL A   1      43.865  26.606  39.064  1.00  0.00    -0.237 OA
ATOM     87  O   UNL A   1      45.002  24.788  37.831  1.00  0.00    -0.237 OA
ATOM     88  O   UNL A   1      46.305  26.316  39.262  1.00  0.00    -0.744 OA
ENDBRANCH  81  85
ENDBRANCH  55  78
ENDBRANCH  29  30
ENDBRANCH  21  24
ENDBRANCH  19  20
ENDBRANCH   1  19
TORSDOF 17
ENDMDL
MODEL 2
REMARK VINA RESULT:     -10.7      6.095     11.071
REMARK SMILES COc1ccc([C@@H](C#N)CC(=O)NCCCNC(=O)c2ccc(-c3c4nc(c(-c5cc(S(=O)(=O)[O-])ccc5F)c5ccc([nH]5)c(-c5cc(S(=O)(=O)[O-])ccc5F)c5nc(c(-c6cc(S(=O)(=O)[O-])ccc6F)c6ccc3[nH]6)C=C5)C=C4)cc2)cc1
REMARK SMILES IDX 15 1 14 2 13 3 11 4 12 5 10 7 7 8 6 9 3 10 4 11 84 12 5 13
REMARK SMILES IDX 83 14 2 15 1 16 8 17 9 18 16 19 17 20 18 21 19 23 20 24
REMARK SMILES IDX 21 25 82 26 22 27 81 28 23 29 24 30 25 31 75 32 26 33 80 34
REMARK SMILES IDX 74 35 76 36 27 37 79 38 73 39 72 40 28 42 60 43 40 44 59 45
REMARK SMILES IDX 41 46 44 47 58 48 77 49 42 50 43 51 57 53 78 54 45 55 29 56
REMARK SMILES IDX 30 57 38 58 31 59 37 60 39 61 36 62 32 63 33 64 34 65 35 66
REMARK SMILES IDX 61 67 62 68 70 69 63 70 69 71 71 72 68 73 64 74 65 75 66 76
REMARK SMILES IDX 67 77 46 78 47 79 55 80 48 81 54 82 56 83 53 84 49 85 50 86
REMARK SMILES IDX 51 87 52 88
REMARK H PARENT 13 6 17 22 76 41 44 52
REMARK Flexibility Score: inf
ROOT
ATOM      1  C   UNL A   1      35.567  22.165  24.490  1.00  0.00     0.042 C 
ENDROOT
BRANCH   1   2
ATOM      2  C   UNL A   1      35.061  21.511  25.769  1.00  0.00     0.117 C 
BRANCH   2   3
ATOM      3  N   UNL A   1      33.914  20.667  25.485  1.00  0.00    -0.356 N 
ATOM      4  C   UNL A   1      32.603  21.006  25.333  1.00  0.00     0.221 C 
ATOM      5  O   UNL A   1      31.763  20.105  25.343  1.00  0.00    -0.275 OA
ATOM      6  H   UNL A   1      34.112  19.708  25.389  1.00  0.00     0.163 HD
BRANCH   4   7
ATOM      7  C   UNL A   1      32.180  22.442  25.101  1.00  0.00     0.123 C 
BRANCH   7   8
ATOM      8  C   UNL A   1      32.094  23.279  26.394  1.00  0.00     0.132 C 
BRANCH   8   9
ATOM      9  C   UNL A   1      32.461  24.747  26.199  1.00  0.00    -0.030 A 
ATOM     10  C   UNL A   1      33.089  27.426  25.633  1.00  0.00     0.118 A 
ATOM     11  C   UNL A   1      31.860  27.110  26.203  1.00  0.00     0.047 A 
ATOM     12  C   UNL A   1      34.049  26.436  25.439  1.00  0.00     0.047 A 
ATOM     13  C   UNL A   1      31.548  25.779  26.488  1.00  0.00     0.009 A 
ATOM     14  C   UNL A   1      33.739  25.101  25.727  1.00  0.00     0.009 A 
BRANCH  10  15
ATOM     15  O   UNL A   1      33.320  28.730  25.294  1.00  0.00    -0.497 OA
ATOM     16  C   UNL A   1      32.106  29.485  25.312  1.00  0.00     0.278 C 
ENDBRANCH  10  15
ENDBRANCH   8   9
BRANCH   8  17
ATOM     17  C   UNL A   1      30.725  23.172  26.949  1.00  0.00     0.071 C 
ATOM     18  N   UNL A   1      29.637  23.082  27.350  1.00  0.00    -0.198 NA
ENDBRANCH   8  17
ENDBRANCH   7   8
ENDBRANCH   4   7
ENDBRANCH   2   3
ENDBRANCH   1   2
BRANCH   1  19
ATOM     19  C   UNL A   1      37.016  21.892  24.125  1.00  0.00     0.118 C 
BRANCH  19  20
ATOM     20  N   UNL A   1      37.626  20.889  24.985  1.00  0.00    -0.352 N 
ATOM     21  C   UNL A   1      38.682  20.948  25.865  1.00  0.00     0.251 C 
ATOM     22  H   UNL A   1      37.206  20.001  24.924  1.00  0.00     0.163 HD
ATOM     23  O   UNL A   1      39.105  19.887  26.321  1.00  0.00    -0.269 OA
BRANCH  21  24
ATOM     24  C   UNL A   1      39.353  22.225  26.236  1.00  0.00     0.039 A 
ATOM     25  C   UNL A   1      40.619  22.160  26.840  1.00  0.00     0.014 A 
ATOM     26  C   UNL A   1      38.768  23.475  26.042  1.00  0.00     0.014 A 
ATOM     27  C   UNL A   1      41.312  23.331  27.174  1.00  0.00     0.010 A 
ATOM     28  C   UNL A   1      39.492  24.643  26.291  1.00  0.00     0.010 A 
ATOM     29  C   UNL A   1      40.765  24.586  26.877  1.00  0.00    -0.014 A 
BRANCH  29  30
ATOM     30  C   UNL A   1      41.459  25.847  27.257  1.00  0.00     0.031 A 
ATOM     31  C   UNL A   1      40.729  26.870  28.088  1.00  0.00     0.074 A 
ATOM     32  C   UNL A   1      42.717  26.096  26.840  1.00  0.00     0.049 A 
ATOM     33  N   UNL A   1      41.115  28.061  28.470  1.00  0.00    -0.248 NA
ATOM     34  C   UNL A   1      39.371  26.512  28.525  1.00  0.00     0.031 C 
ATOM     35  C   UNL A   1      43.533  25.192  26.030  1.00  0.00     0.029 A 
ATOM     36  N   UNL A   1      43.529  27.188  27.036  1.00  0.00    -0.354 N 
ATOM     37  C   UNL A   1      40.049  28.592  29.189  1.00  0.00     0.074 A 
ATOM     38  C   UNL A   1      38.976  27.624  29.124  1.00  0.00     0.031 C 
ATOM     39  C   UNL A   1      44.734  25.757  25.816  1.00  0.00     0.029 A 
ATOM     40  C   UNL A   1      44.760  27.083  26.429  1.00  0.00     0.049 A 
ATOM     41  H   UNL A   1      43.255  27.974  27.563  1.00  0.00     0.167 HD
ATOM     42  C   UNL A   1      39.979  29.765  29.867  1.00  0.00     0.034 A 
ATOM     43  C   UNL A   1      45.784  27.958  26.361  1.00  0.00     0.034 A 
ATOM     44  C   UNL A   1      41.055  30.724  29.922  1.00  0.00     0.049 A 
ATOM     45  C   UNL A   1      45.652  29.296  27.054  1.00  0.00     0.074 A 
ATOM     46  C   UNL A   1      41.096  31.930  30.601  1.00  0.00     0.029 A 
ATOM     47  N   UNL A   1      42.271  30.597  29.265  1.00  0.00    -0.354 N 
ATOM     48  N   UNL A   1      44.649  29.769  27.757  1.00  0.00    -0.248 NA
ATOM     49  C   UNL A   1      46.795  30.213  26.950  1.00  0.00     0.031 C 
ATOM     50  C   UNL A   1      42.296  32.571  30.279  1.00  0.00     0.029 A 
ATOM     51  C   UNL A   1      43.051  31.721  29.488  1.00  0.00     0.049 A 
ATOM     52  H   UNL A   1      42.540  29.822  28.719  1.00  0.00     0.167 HD
ATOM     53  C   UNL A   1      45.060  31.020  28.214  1.00  0.00     0.074 A 
ATOM     54  C   UNL A   1      46.404  31.221  27.715  1.00  0.00     0.031 C 
ATOM     55  C   UNL A   1      44.390  31.918  28.981  1.00  0.00     0.034 A 
BRANCH  42  56
ATOM     56  C   UNL A   1      38.681  30.082  30.571  1.00  0.00     0.023 A 
ATOM     57  C   UNL A   1      37.636  30.763  29.923  1.00  0.00     0.031 A 
ATOM     58  C   UNL A   1      38.496  29.724  31.919  1.00  0.00     0.131 A 
ATOM     59  C   UNL A   1      36.493  31.138  30.642  1.00  0.00     0.055 A 
ATOM     60  C   UNL A   1      37.314  30.016  32.602  1.00  0.00     0.041 A 
ATOM     61  F   UNL A   1      39.467  29.096  32.600  1.00  0.00    -0.206 F 
ATOM     62  C   UNL A   1      36.310  30.744  31.969  1.00  0.00     0.022 A 
BRANCH  59  63
ATOM     63  S   UNL A   1      35.330  32.297  29.870  1.00  0.00     0.124 S 
ATOM     64  O   UNL A   1      36.222  33.377  29.457  1.00  0.00    -0.237 OA
ATOM     65  O   UNL A   1      34.754  31.497  28.795  1.00  0.00    -0.237 OA
ATOM     66  O   UNL A   1      34.414  32.638  30.956  1.00  0.00    -0.744 OA
ENDBRANCH  59  63
ENDBRANCH  42  56
BRANCH  43  67
ATOM     67  C   UNL A   1      47.024  27.625  25.594  1.00  0.00     0.023 A 
ATOM     68  C   UNL A   1      47.153  27.962  24.237  1.00  0.00     0.031 A 
ATOM     69  C   UNL A   1      48.070  26.900  26.192  1.00  0.00     0.131 A 
ATOM     70  C   UNL A   1      48.272  27.528  23.510  1.00  0.00     0.055 A 
ATOM     71  C   UNL A   1      49.214  26.529  25.481  1.00  0.00     0.041 A 
ATOM     72  F   UNL A   1      47.998  26.542  27.484  1.00  0.00    -0.206 F 
ATOM     73  C   UNL A   1      49.313  26.831  24.128  1.00  0.00     0.022 A 
BRANCH  70  74
ATOM     74  S   UNL A   1      48.298  27.791  21.714  1.00  0.00     0.124 S 
ATOM     75  O   UNL A   1      48.540  26.440  21.223  1.00  0.00    -0.237 OA
ATOM     76  O   UNL A   1      46.967  28.336  21.468  1.00  0.00    -0.237 OA
ATOM     77  O   UNL A   1      49.400  28.732  21.524  1.00  0.00    -0.744 OA
ENDBRANCH  70  74
ENDBRANCH  43  67
BRANCH  55  78
ATOM     78  C   UNL A   1      45.122  33.178  29.382  1.00  0.00     0.023 A 
ATOM     79  C   UNL A   1      45.040  34.362  28.627  1.00  0.00     0.031 A 
ATOM     80  C   UNL A   1      45.914  33.194  30.546  1.00  0.00     0.131 A 
ATOM     81  C   UNL A   1      45.783  35.489  29.010  1.00  0.00     0.055 A 
ATOM     82  C   UNL A   1      46.590  34.341  30.963  1.00  0.00     0.041 A 
ATOM     83  F   UNL A   1      46.037  32.093  31.304  1.00  0.00    -0.206 F 
ATOM     84  C   UNL A   1      46.539  35.493  30.186  1.00  0.00     0.022 A 
BRANCH  81  85
ATOM     85  S   UNL A   1      45.842  36.915  27.891  1.00  0.00     0.124 S 
ATOM     86  O   UNL A   1      44.479  37.426  27.982  1.00  0.00    -0.237 OA
ATOM     87  O   UNL A   1      46.877  37.746  28.498  1.00  0.00    -0.237 OA
ATOM     88  O   UNL A   1      46.199  36.324  26.602  1.00  0.00    -0.744 OA
ENDBRANCH  81  85
ENDBRANCH  55  78
ENDBRANCH  29  30
ENDBRANCH  21  24
ENDBRANCH  19  20
ENDBRANCH   1  19
TORSDOF 17
ENDMDL
MODEL 3
REMARK VINA RESULT:     -10.7      3.205      8.790
REMARK SMILES COc1ccc([C@@H](C#N)CC(=O)NCCCNC(=O)c2ccc(-c3c4nc(c(-c5cc(S(=O)(=O)[O-])ccc5F)c5ccc([nH]5)c(-c5cc(S(=O)(=O)[O-])ccc5F)c5nc(c(-c6cc(S(=O)(=O)[O-])ccc6F)c6ccc3[nH]6)C=C5)C=C4)cc2)cc1
REMARK SMILES IDX 15 1 14 2 13 3 11 4 12 5 10 7 7 8 6 9 3 10 4 11 84 12 5 13
REMARK SMILES IDX 83 14 2 15 1 16 8 17 9 18 16 19 17 20 18 21 19 23 20 24
REMARK SMILES IDX 21 25 82 26 22 27 81 28 23 29 24 30 25 31 75 32 26 33 80 34
REMARK SMILES IDX 74 35 76 36 27 37 79 38 73 39 72 40 28 42 60 43 40 44 59 45
REMARK SMILES IDX 41 46 44 47 58 48 77 49 42 50 43 51 57 53 78 54 45 55 29 56
REMARK SMILES IDX 30 57 38 58 31 59 37 60 39 61 36 62 32 63 33 64 34 65 35 66
REMARK SMILES IDX 61 67 62 68 70 69 63 70 69 71 71 72 68 73 64 74 65 75 66 76
REMARK SMILES IDX 67 77 46 78 47 79 55 80 48 81 54 82 56 83 53 84 49 85 50 86
REMARK SMILES IDX 51 87 52 88
REMARK H PARENT 13 6 17 22 76 41 44 52
REMARK Flexibility Score: inf
ROOT
ATOM      1  C   UNL A   1      32.954  27.855  26.870  1.00  0.00     0.042 C 
ENDROOT
BRANCH   1   2
ATOM      2  C   UNL A   1      32.205  26.675  26.266  1.00  0.00     0.117 C 
BRANCH   2   3
ATOM      3  N   UNL A   1      33.122  25.583  25.988  1.00  0.00    -0.356 N 
ATOM      4  C   UNL A   1      33.638  25.165  24.799  1.00  0.00     0.221 C 
ATOM      5  O   UNL A   1      34.199  24.069  24.761  1.00  0.00    -0.275 OA
ATOM      6  H   UNL A   1      33.413  25.070  26.775  1.00  0.00     0.163 HD
BRANCH   4   7
ATOM      7  C   UNL A   1      33.580  26.037  23.562  1.00  0.00     0.123 C 
BRANCH   7   8
ATOM      8  C   UNL A   1      32.317  25.814  22.704  1.00  0.00     0.132 C 
BRANCH   8   9
ATOM      9  C   UNL A   1      31.311  26.957  22.786  1.00  0.00    -0.030 A 
ATOM     10  C   UNL A   1      29.505  29.079  23.146  1.00  0.00     0.118 A 
ATOM     11  C   UNL A   1      30.759  29.325  22.598  1.00  0.00     0.047 A 
ATOM     12  C   UNL A   1      29.101  27.773  23.419  1.00  0.00     0.047 A 
ATOM     13  C   UNL A   1      31.657  28.271  22.415  1.00  0.00     0.009 A 
ATOM     14  C   UNL A   1      29.998  26.716  23.235  1.00  0.00     0.009 A 
BRANCH  10  15
ATOM     15  O   UNL A   1      28.689  30.149  23.384  1.00  0.00    -0.497 OA
ATOM     16  C   UNL A   1      27.753  30.325  22.317  1.00  0.00     0.278 C 
ENDBRANCH  10  15
ENDBRANCH   8   9
BRANCH   8  17
ATOM     17  C   UNL A   1      32.721  25.598  21.296  1.00  0.00     0.071 C 
ATOM     18  N   UNL A   1      33.027  25.465  20.181  1.00  0.00    -0.198 NA
ENDBRANCH   8  17
ENDBRANCH   7   8
ENDBRANCH   4   7
ENDBRANCH   2   3
ENDBRANCH   1   2
BRANCH   1  19
ATOM     19  C   UNL A   1      33.532  28.857  25.886  1.00  0.00     0.118 C 
BRANCH  19  20
ATOM     20  N   UNL A   1      33.501  30.220  26.396  1.00  0.00    -0.352 N 
ATOM     21  C   UNL A   1      34.280  30.877  27.320  1.00  0.00     0.251 C 
ATOM     22  H   UNL A   1      32.787  30.775  26.008  1.00  0.00     0.163 HD
ATOM     23  O   UNL A   1      33.903  31.984  27.701  1.00  0.00    -0.269 OA
BRANCH  21  24
ATOM     24  C   UNL A   1      35.513  30.281  27.905  1.00  0.00     0.039 A 
ATOM     25  C   UNL A   1      36.681  30.272  27.126  1.00  0.00     0.014 A 
ATOM     26  C   UNL A   1      35.551  29.705  29.174  1.00  0.00     0.014 A 
ATOM     27  C   UNL A   1      37.879  29.760  27.641  1.00  0.00     0.010 A 
ATOM     28  C   UNL A   1      36.762  29.276  29.722  1.00  0.00     0.010 A 
ATOM     29  C   UNL A   1      37.937  29.281  28.956  1.00  0.00    -0.014 A 
BRANCH  29  30
ATOM     30  C   UNL A   1      39.185  28.693  29.517  1.00  0.00     0.031 A 
ATOM     31  C   UNL A   1      39.780  29.282  30.770  1.00  0.00     0.074 A 
ATOM     32  C   UNL A   1      39.802  27.665  28.900  1.00  0.00     0.049 A 
ATOM     33  N   UNL A   1      40.893  28.974  31.387  1.00  0.00    -0.248 NA
ATOM     34  C   UNL A   1      39.033  30.383  31.397  1.00  0.00     0.031 C 
ATOM     35  C   UNL A   1      39.332  27.006  27.681  1.00  0.00     0.029 A 
ATOM     36  N   UNL A   1      40.961  26.996  29.211  1.00  0.00    -0.354 N 
ATOM     37  C   UNL A   1      40.978  29.842  32.470  1.00  0.00     0.074 A 
ATOM     38  C   UNL A   1      39.844  30.737  32.380  1.00  0.00     0.031 C 
ATOM     39  C   UNL A   1      40.184  26.017  27.361  1.00  0.00     0.029 A 
ATOM     40  C   UNL A   1      41.287  26.000  28.320  1.00  0.00     0.049 A 
ATOM     41  H   UNL A   1      41.510  27.211  30.001  1.00  0.00     0.167 HD
ATOM     42  C   UNL A   1      41.899  29.875  33.465  1.00  0.00     0.034 A 
ATOM     43  C   UNL A   1      42.356  25.178  28.270  1.00  0.00     0.034 A 
ATOM     44  C   UNL A   1      43.027  28.980  33.543  1.00  0.00     0.049 A 
ATOM     45  C   UNL A   1      43.415  25.288  29.345  1.00  0.00     0.074 A 
ATOM     46  C   UNL A   1      44.003  28.911  34.521  1.00  0.00     0.029 A 
ATOM     47  N   UNL A   1      43.340  28.009  32.601  1.00  0.00    -0.354 N 
ATOM     48  N   UNL A   1      43.462  26.094  30.381  1.00  0.00    -0.248 NA
ATOM     49  C   UNL A   1      44.558  24.371  29.246  1.00  0.00     0.031 C 
ATOM     50  C   UNL A   1      44.953  27.967  34.125  1.00  0.00     0.029 A 
ATOM     51  C   UNL A   1      44.517  27.367  32.954  1.00  0.00     0.049 A 
ATOM     52  H   UNL A   1      42.806  27.806  31.799  1.00  0.00     0.167 HD
ATOM     53  C   UNL A   1      44.619  25.749  31.078  1.00  0.00     0.074 A 
ATOM     54  C   UNL A   1      45.231  24.657  30.350  1.00  0.00     0.031 C 
ATOM     55  C   UNL A   1      45.126  26.282  32.219  1.00  0.00     0.034 A 
BRANCH  42  56
ATOM     56  C   UNL A   1      41.734  30.936  34.527  1.00  0.00     0.023 A 
ATOM     57  C   UNL A   1      40.642  30.932  35.412  1.00  0.00     0.031 A 
ATOM     58  C   UNL A   1      42.667  31.982  34.640  1.00  0.00     0.131 A 
ATOM     59  C   UNL A   1      40.464  31.995  36.310  1.00  0.00     0.055 A 
ATOM     60  C   UNL A   1      42.536  32.986  35.601  1.00  0.00     0.041 A 
ATOM     61  F   UNL A   1      43.717  32.056  33.806  1.00  0.00    -0.206 F 
ATOM     62  C   UNL A   1      41.419  33.006  36.432  1.00  0.00     0.022 A 
BRANCH  59  63
ATOM     63  S   UNL A   1      38.883  32.125  37.189  1.00  0.00     0.124 S 
ATOM     64  O   UNL A   1      38.237  33.220  36.471  1.00  0.00    -0.237 OA
ATOM     65  O   UNL A   1      38.302  30.802  36.993  1.00  0.00    -0.237 OA
ATOM     66  O   UNL A   1      39.279  32.439  38.561  1.00  0.00    -0.744 OA
ENDBRANCH  59  63
ENDBRANCH  42  56
BRANCH  43  67
ATOM     67  C   UNL A   1      42.507  24.188  27.160  1.00  0.00     0.023 A 
ATOM     68  C   UNL A   1      41.895  22.926  27.224  1.00  0.00     0.031 A 
ATOM     69  C   UNL A   1      43.325  24.465  26.050  1.00  0.00     0.131 A 
ATOM     70  C   UNL A   1      42.154  21.969  26.229  1.00  0.00     0.055 A 
ATOM     71  C   UNL A   1      43.525  23.534  25.028  1.00  0.00     0.041 A 
ATOM     72  F   UNL A   1      43.943  25.652  25.940  1.00  0.00    -0.206 F 
ATOM     73  C   UNL A   1      42.949  22.273  25.122  1.00  0.00     0.022 A 
BRANCH  70  74
ATOM     74  S   UNL A   1      41.526  20.282  26.459  1.00  0.00     0.124 S 
ATOM     75  O   UNL A   1      41.902  20.015  27.842  1.00  0.00    -0.237 OA
ATOM     76  O   UNL A   1      40.100  20.451  26.202  1.00  0.00    -0.237 OA
ATOM     77  O   UNL A   1      42.253  19.509  25.453  1.00  0.00    -0.744 OA
ENDBRANCH  70  74
ENDBRANCH  43  67
BRANCH  55  78
ATOM     78  C   UNL A   1      46.376  25.652  32.790  1.00  0.00     0.023 A 
ATOM     79  C   UNL A   1      46.324  24.566  33.682  1.00  0.00     0.031 A 
ATOM     80  C   UNL A   1      47.643  26.148  32.431  1.00  0.00     0.131 A 
ATOM     81  C   UNL A   1      47.511  24.052  34.229  1.00  0.00     0.055 A 
ATOM     82  C   UNL A   1      48.822  25.584  32.919  1.00  0.00     0.041 A 
ATOM     83  F   UNL A   1      47.757  27.188  31.589  1.00  0.00    -0.206 F 
ATOM     84  C   UNL A   1      48.760  24.539  33.835  1.00  0.00     0.022 A 
BRANCH  81  85
ATOM     85  S   UNL A   1      47.397  22.815  35.550  1.00  0.00     0.124 S 
ATOM     86  O   UNL A   1      47.017  23.632  36.697  1.00  0.00    -0.237 OA
ATOM     87  O   UNL A   1      46.369  21.911  35.042  1.00  0.00    -0.237 OA
ATOM     88  O   UNL A   1      48.744  22.251  35.609  1.00  0.00    -0.744 OA
ENDBRANCH  81  85
ENDBRANCH  55  78
ENDBRANCH  29  30
ENDBRANCH  21  24
ENDBRANCH  19  20
ENDBRANCH   1  19
TORSDOF 17
ENDMDL
