MODEL 1
REMARK VINA RESULT:     -13.3      0.000      0.000
REMARK SMILES O=C(NCCCNC(=O)[C@H]1C[C@](O)(c2ccc(Cl)cc2)[C@@H](c2ccc(Cl)cc2)O1)c1ccc(-c2c3nc(c(-c4cc(S(=O)(=O)[O-])ccc4F)c4ccc([nH]4)c(-c4cc(S(=O)(=O)[O-])ccc4F)c4nc(c(-c5cc(S(=O)(=O)[O-])ccc5F)c5ccc2[nH]5)C=C4)C=C3)cc1
REMARK SMILES IDX 4 1 3 2 1 3 2 4 30 6 31 7 92 8 32 9 91 10 33 11 34 12 35 13
REMARK SMILES IDX 85 14 36 15 90 16 84 17 86 18 37 19 89 20 83 21 82 22 38 24
REMARK SMILES IDX 70 25 50 26 69 27 51 28 54 29 68 30 87 31 52 32 53 33 67 35
REMARK SMILES IDX 88 36 55 37 39 38 40 39 48 40 41 41 47 42 49 43 46 44 42 45
REMARK SMILES IDX 43 46 44 47 45 48 71 49 72 50 80 51 73 52 79 53 81 54 78 55
REMARK SMILES IDX 74 56 75 57 76 58 77 59 56 60 57 61 65 62 58 63 64 64 66 65
REMARK SMILES IDX 63 66 59 67 60 68 61 69 62 70 5 71 6 72 7 73 8 74 9 76 10 77
REMARK SMILES IDX 11 78 29 79 12 80 21 81 14 82 15 83 20 84 16 85 19 86 17 87
REMARK SMILES IDX 18 88 13 89 22 91 23 92 28 93 24 94 27 95 25 96 26 97
REMARK H PARENT 3 5 86 23 54 34 7 75 13 90
REMARK Flexibility Score: inf
ROOT
ATOM      1  C   UNL A   1      37.124  21.638  24.595  1.00  0.00     0.118 C 
ENDROOT
BRANCH   1   2
ATOM      2  N   UNL A   1      37.943  20.549  25.113  1.00  0.00    -0.352 N 
ATOM      3  O   UNL A   1      39.738  19.508  25.970  1.00  0.00    -0.269 OA
ATOM      4  C   UNL A   1      39.155  20.567  25.760  1.00  0.00     0.251 C 
ATOM      5  H   UNL A   1      37.564  19.651  24.976  1.00  0.00     0.163 HD
BRANCH   4   6
ATOM      6  C   UNL A   1      39.768  21.845  26.184  1.00  0.00     0.039 A 
ATOM      7  C   UNL A   1      39.007  23.009  26.300  1.00  0.00     0.014 A 
ATOM      8  C   UNL A   1      41.127  21.864  26.516  1.00  0.00     0.014 A 
ATOM      9  C   UNL A   1      39.627  24.219  26.604  1.00  0.00     0.010 A 
ATOM     10  C   UNL A   1      41.730  23.062  26.905  1.00  0.00     0.010 A 
ATOM     11  C   UNL A   1      40.992  24.256  26.926  1.00  0.00    -0.014 A 
BRANCH  11  12
ATOM     12  C   UNL A   1      41.629  25.535  27.332  1.00  0.00     0.031 A 
ATOM     13  C   UNL A   1      40.873  26.545  28.148  1.00  0.00     0.074 A 
ATOM     14  C   UNL A   1      42.889  25.795  26.933  1.00  0.00     0.049 A 
ATOM     15  N   UNL A   1      41.229  27.751  28.510  1.00  0.00    -0.248 NA
ATOM     16  C   UNL A   1      39.534  26.150  28.602  1.00  0.00     0.031 C 
ATOM     17  C   UNL A   1      43.722  24.888  26.141  1.00  0.00     0.029 A 
ATOM     18  N   UNL A   1      43.684  26.897  27.123  1.00  0.00    -0.354 N 
ATOM     19  C   UNL A   1      40.150  28.271  29.217  1.00  0.00     0.074 A 
ATOM     20  C   UNL A   1      39.116  27.257  29.197  1.00  0.00     0.031 C 
ATOM     21  C   UNL A   1      44.910  25.466  25.917  1.00  0.00     0.029 A 
ATOM     22  C   UNL A   1      44.897  26.812  26.479  1.00  0.00     0.049 A 
ATOM     23  H   UNL A   1      43.414  27.672  27.666  1.00  0.00     0.167 HD
ATOM     24  C   UNL A   1      40.041  29.478  29.829  1.00  0.00     0.034 A 
ATOM     25  C   UNL A   1      45.870  27.728  26.310  1.00  0.00     0.034 A 
ATOM     26  C   UNL A   1      41.087  30.476  29.819  1.00  0.00     0.049 A 
ATOM     27  C   UNL A   1      45.704  29.088  26.929  1.00  0.00     0.074 A 
ATOM     28  C   UNL A   1      41.103  31.714  30.438  1.00  0.00     0.029 A 
ATOM     29  N   UNL A   1      42.293  30.362  29.135  1.00  0.00    -0.354 N 
ATOM     30  N   UNL A   1      44.691  29.560  27.619  1.00  0.00    -0.248 NA
ATOM     31  C   UNL A   1      46.809  30.038  26.755  1.00  0.00     0.031 C 
ATOM     32  C   UNL A   1      42.270  32.382  30.053  1.00  0.00     0.029 A 
ATOM     33  C   UNL A   1      43.036  31.525  29.278  1.00  0.00     0.049 A 
ATOM     34  H   UNL A   1      42.578  29.571  28.623  1.00  0.00     0.167 HD
ATOM     35  C   UNL A   1      45.048  30.853  27.985  1.00  0.00     0.074 A 
ATOM     36  C   UNL A   1      46.371  31.086  27.440  1.00  0.00     0.031 C 
ATOM     37  C   UNL A   1      44.351  31.756  28.720  1.00  0.00     0.034 A 
BRANCH  24  38
ATOM     38  C   UNL A   1      38.723  29.802  30.496  1.00  0.00     0.023 A 
ATOM     39  C   UNL A   1      37.699  30.494  29.824  1.00  0.00     0.031 A 
ATOM     40  C   UNL A   1      38.506  29.466  31.845  1.00  0.00     0.131 A 
ATOM     41  C   UNL A   1      36.561  30.920  30.527  1.00  0.00     0.055 A 
ATOM     42  C   UNL A   1      37.325  29.803  32.511  1.00  0.00     0.041 A 
ATOM     43  F   UNL A   1      39.449  28.822  32.550  1.00  0.00    -0.206 F 
ATOM     44  C   UNL A   1      36.354  30.555  31.858  1.00  0.00     0.022 A 
BRANCH  41  45
ATOM     45  S   UNL A   1      35.457  32.122  29.732  1.00  0.00     0.124 S 
ATOM     46  O   UNL A   1      36.384  33.199  29.394  1.00  0.00    -0.237 OA
ATOM     47  O   UNL A   1      34.922  31.364  28.608  1.00  0.00    -0.237 OA
ATOM     48  O   UNL A   1      34.493  32.449  30.781  1.00  0.00    -0.744 OA
ENDBRANCH  41  45
ENDBRANCH  24  38
BRANCH  25  49
ATOM     49  C   UNL A   1      47.051  27.391  25.466  1.00  0.00     0.023 A 
ATOM     50  C   UNL A   1      47.120  27.770  24.118  1.00  0.00     0.031 A 
ATOM     51  C   UNL A   1      48.146  26.700  26.017  1.00  0.00     0.131 A 
ATOM     52  C   UNL A   1      48.256  27.441  23.360  1.00  0.00     0.055 A 
ATOM     53  C   UNL A   1      49.294  26.422  25.275  1.00  0.00     0.041 A 
ATOM     54  F   UNL A   1      48.131  26.320  27.305  1.00  0.00    -0.206 F 
ATOM     55  C   UNL A   1      49.349  26.788  23.934  1.00  0.00     0.022 A 
BRANCH  52  56
ATOM     56  S   UNL A   1      48.265  27.837  21.590  1.00  0.00     0.124 S 
ATOM     57  O   UNL A   1      46.916  28.356  21.396  1.00  0.00    -0.237 OA
ATOM     58  O   UNL A   1      49.348  28.811  21.503  1.00  0.00    -0.237 OA
ATOM     59  O   UNL A   1      48.537  26.549  20.956  1.00  0.00    -0.744 OA
ENDBRANCH  52  56
ENDBRANCH  25  49
BRANCH  37  60
ATOM     60  C   UNL A   1      45.027  33.068  29.035  1.00  0.00     0.023 A 
ATOM     61  C   UNL A   1      44.895  34.198  28.210  1.00  0.00     0.031 A 
ATOM     62  C   UNL A   1      45.789  33.193  30.213  1.00  0.00     0.131 A 
ATOM     63  C   UNL A   1      45.538  35.397  28.561  1.00  0.00     0.055 A 
ATOM     64  C   UNL A   1      46.378  34.401  30.584  1.00  0.00     0.041 A 
ATOM     65  F   UNL A   1      45.954  32.142  31.032  1.00  0.00    -0.206 F 
ATOM     66  C   UNL A   1      46.260  35.510  29.753  1.00  0.00     0.022 A 
BRANCH  63  67
ATOM     67  S   UNL A   1      45.471  36.797  27.411  1.00  0.00     0.124 S 
ATOM     68  O   UNL A   1      44.040  36.904  27.146  1.00  0.00    -0.237 OA
ATOM     69  O   UNL A   1      46.058  37.879  28.198  1.00  0.00    -0.237 OA
ATOM     70  O   UNL A   1      46.279  36.350  26.277  1.00  0.00    -0.744 OA
ENDBRANCH  63  67
ENDBRANCH  37  60
ENDBRANCH  11  12
ENDBRANCH   4   6
ENDBRANCH   1   2
BRANCH   1  71
ATOM     71  C   UNL A   1      35.724  21.685  25.198  1.00  0.00     0.042 C 
BRANCH  71  72
ATOM     72  C   UNL A   1      35.401  22.941  25.994  1.00  0.00     0.117 C 
BRANCH  72  73
ATOM     73  N   UNL A   1      34.695  22.690  27.232  1.00  0.00    -0.354 N 
ATOM     74  C   UNL A   1      33.385  22.912  27.535  1.00  0.00     0.249 C 
ATOM     75  H   UNL A   1      35.236  22.306  27.959  1.00  0.00     0.163 HD
ATOM     76  O   UNL A   1      32.922  22.272  28.483  1.00  0.00    -0.272 OA
BRANCH  74  77
ATOM     77  C   UNL A   1      32.552  23.931  26.723  1.00  0.00     0.211 C 
ATOM     78  C   UNL A   1      33.388  24.642  25.663  1.00  0.00     0.085 C 
ATOM     79  O   UNL A   1      31.458  23.272  26.071  1.00  0.00    -0.357 OA
ATOM     80  C   UNL A   1      32.595  24.544  24.364  1.00  0.00     0.123 C 
ATOM     81  C   UNL A   1      31.626  23.358  24.640  1.00  0.00     0.186 C 
BRANCH  80  82
ATOM     82  C   UNL A   1      31.971  25.909  24.020  1.00  0.00    -0.013 A 
ATOM     83  C   UNL A   1      30.568  25.983  23.861  1.00  0.00     0.008 A 
ATOM     84  C   UNL A   1      32.699  27.101  23.870  1.00  0.00     0.008 A 
ATOM     85  C   UNL A   1      29.922  27.190  23.581  1.00  0.00     0.021 A 
ATOM     86  C   UNL A   1      32.050  28.315  23.604  1.00  0.00     0.021 A 
ATOM     87  C   UNL A   1      30.667  28.355  23.462  1.00  0.00     0.041 A 
ATOM     88  Cl  UNL A   1      29.878  29.848  23.139  1.00  0.00    -0.084 Cl
ENDBRANCH  80  82
BRANCH  80  89
ATOM     89  O   UNL A   1      33.501  24.254  23.288  1.00  0.00    -0.382 OA
ATOM     90  H   UNL A   1      34.268  24.847  23.342  1.00  0.00     0.212 HD
ENDBRANCH  80  89
BRANCH  81  91
ATOM     91  C   UNL A   1      31.968  21.973  24.100  1.00  0.00    -0.016 A 
ATOM     92  C   UNL A   1      32.297  20.896  24.935  1.00  0.00     0.008 A 
ATOM     93  C   UNL A   1      31.895  21.732  22.715  1.00  0.00     0.008 A 
ATOM     94  C   UNL A   1      32.481  19.609  24.420  1.00  0.00     0.021 A 
ATOM     95  C   UNL A   1      32.105  20.450  22.194  1.00  0.00     0.021 A 
ATOM     96  C   UNL A   1      32.379  19.390  23.051  1.00  0.00     0.041 A 
ATOM     97  Cl  UNL A   1      32.591  17.804  22.419  1.00  0.00    -0.084 Cl
ENDBRANCH  81  91
ENDBRANCH  74  77
ENDBRANCH  72  73
ENDBRANCH  71  72
ENDBRANCH   1  71
TORSDOF 16
ENDMDL
MODEL 2
REMARK VINA RESULT:     -13.3      5.174     10.521
REMARK SMILES O=C(NCCCNC(=O)[C@H]1C[C@](O)(c2ccc(Cl)cc2)[C@@H](c2ccc(Cl)cc2)O1)c1ccc(-c2c3nc(c(-c4cc(S(=O)(=O)[O-])ccc4F)c4ccc([nH]4)c(-c4cc(S(=O)(=O)[O-])ccc4F)c4nc(c(-c5cc(S(=O)(=O)[O-])ccc5F)c5ccc2[nH]5)C=C4)C=C3)cc1
REMARK SMILES IDX 4 1 3 2 1 3 2 4 30 6 31 7 92 8 32 9 91 10 33 11 34 12 35 13
REMARK SMILES IDX 85 14 36 15 90 16 84 17 86 18 37 19 89 20 83 21 82 22 38 24
REMARK SMILES IDX 70 25 50 26 69 27 51 28 54 29 68 30 87 31 52 32 53 33 67 35
REMARK SMILES IDX 88 36 55 37 39 38 40 39 48 40 41 41 47 42 49 43 46 44 42 45
REMARK SMILES IDX 43 46 44 47 45 48 71 49 72 50 80 51 73 52 79 53 81 54 78 55
REMARK SMILES IDX 74 56 75 57 76 58 77 59 56 60 57 61 65 62 58 63 64 64 66 65
REMARK SMILES IDX 63 66 59 67 60 68 61 69 62 70 5 71 6 72 7 73 8 74 9 76 10 77
REMARK SMILES IDX 11 78 29 79 12 80 21 81 14 82 15 83 20 84 16 85 19 86 17 87
REMARK SMILES IDX 18 88 13 89 22 91 23 92 28 93 24 94 27 95 25 96 26 97
REMARK H PARENT 3 5 86 23 54 34 7 75 13 90
REMARK Flexibility Score: inf
ROOT
ATOM      1  C   UNL A   1      32.034  30.285  26.753  1.00  0.00     0.118 C 
ENDROOT
BRANCH   1   2
ATOM      2  N   UNL A   1      32.034  31.742  26.770  1.00  0.00    -0.352 N 
ATOM      3  O   UNL A   1      32.597  33.826  27.387  1.00  0.00    -0.269 OA
ATOM      4  C   UNL A   1      32.884  32.633  27.381  1.00  0.00     0.251 C 
ATOM      5  H   UNL A   1      31.304  32.157  26.258  1.00  0.00     0.163 HD
BRANCH   4   6
ATOM      6  C   UNL A   1      34.120  32.166  28.046  1.00  0.00     0.039 A 
ATOM      7  C   UNL A   1      34.315  30.817  28.347  1.00  0.00     0.014 A 
ATOM      8  C   UNL A   1      35.124  33.096  28.334  1.00  0.00     0.014 A 
ATOM      9  C   UNL A   1      35.442  30.418  29.062  1.00  0.00     0.010 A 
ATOM     10  C   UNL A   1      36.294  32.680  28.975  1.00  0.00     0.010 A 
ATOM     11  C   UNL A   1      36.451  31.342  29.368  1.00  0.00    -0.014 A 
BRANCH  11  12
ATOM     12  C   UNL A   1      37.690  30.894  30.057  1.00  0.00     0.031 A 
ATOM     13  C   UNL A   1      38.639  29.943  29.386  1.00  0.00     0.074 A 
ATOM     14  C   UNL A   1      37.938  31.329  31.307  1.00  0.00     0.049 A 
ATOM     15  N   UNL A   1      39.713  29.369  29.866  1.00  0.00    -0.248 NA
ATOM     16  C   UNL A   1      38.331  29.579  27.998  1.00  0.00     0.031 C 
ATOM     17  C   UNL A   1      37.089  32.257  32.057  1.00  0.00     0.029 A 
ATOM     18  N   UNL A   1      38.963  31.041  32.173  1.00  0.00    -0.354 N 
ATOM     19  C   UNL A   1      40.199  28.556  28.847  1.00  0.00     0.074 A 
ATOM     20  C   UNL A   1      39.276  28.688  27.739  1.00  0.00     0.031 C 
ATOM     21  C   UNL A   1      37.628  32.467  33.266  1.00  0.00     0.029 A 
ATOM     22  C   UNL A   1      38.815  31.630  33.408  1.00  0.00     0.049 A 
ATOM     23  H   UNL A   1      39.728  30.470  31.935  1.00  0.00     0.167 HD
ATOM     24  C   UNL A   1      41.313  27.781  28.842  1.00  0.00     0.034 A 
ATOM     25  C   UNL A   1      39.518  31.476  34.547  1.00  0.00     0.034 A 
ATOM     26  C   UNL A   1      42.208  27.658  29.971  1.00  0.00     0.049 A 
ATOM     27  C   UNL A   1      40.707  30.555  34.548  1.00  0.00     0.074 A 
ATOM     28  C   UNL A   1      43.385  26.937  30.064  1.00  0.00     0.029 A 
ATOM     29  N   UNL A   1      42.011  28.252  31.214  1.00  0.00    -0.354 N 
ATOM     30  N   UNL A   1      41.173  29.813  33.571  1.00  0.00    -0.248 NA
ATOM     31  C   UNL A   1      41.468  30.454  35.799  1.00  0.00     0.031 C 
ATOM     32  C   UNL A   1      43.847  27.017  31.382  1.00  0.00     0.029 A 
ATOM     33  C   UNL A   1      43.018  27.874  32.090  1.00  0.00     0.049 A 
ATOM     34  H   UNL A   1      41.264  28.853  31.439  1.00  0.00     0.167 HD
ATOM     35  C   UNL A   1      42.299  29.175  34.081  1.00  0.00     0.074 A 
ATOM     36  C   UNL A   1      42.442  29.623  35.452  1.00  0.00     0.031 C 
ATOM     37  C   UNL A   1      43.147  28.314  33.462  1.00  0.00     0.034 A 
BRANCH  24  38
ATOM     38  C   UNL A   1      41.582  26.959  27.600  1.00  0.00     0.023 A 
ATOM     39  C   UNL A   1      41.235  25.598  27.520  1.00  0.00     0.031 A 
ATOM     40  C   UNL A   1      42.246  27.529  26.499  1.00  0.00     0.131 A 
ATOM     41  C   UNL A   1      41.648  24.832  26.418  1.00  0.00     0.055 A 
ATOM     42  C   UNL A   1      42.563  26.785  25.360  1.00  0.00     0.041 A 
ATOM     43  F   UNL A   1      42.621  28.818  26.517  1.00  0.00    -0.206 F 
ATOM     44  C   UNL A   1      42.286  25.422  25.325  1.00  0.00     0.022 A 
BRANCH  41  45
ATOM     45  S   UNL A   1      41.519  23.025  26.527  1.00  0.00     0.124 S 
ATOM     46  O   UNL A   1      42.143  22.760  27.821  1.00  0.00    -0.237 OA
ATOM     47  O   UNL A   1      40.078  22.808  26.458  1.00  0.00    -0.237 OA
ATOM     48  O   UNL A   1      42.279  22.555  25.371  1.00  0.00    -0.744 OA
ENDBRANCH  41  45
ENDBRANCH  24  38
BRANCH  25  49
ATOM     49  C   UNL A   1      39.065  32.171  35.784  1.00  0.00     0.023 A 
ATOM     50  C   UNL A   1      38.309  31.509  36.762  1.00  0.00     0.031 A 
ATOM     51  C   UNL A   1      39.413  33.516  36.013  1.00  0.00     0.131 A 
ATOM     52  C   UNL A   1      37.911  32.199  37.918  1.00  0.00     0.055 A 
ATOM     53  C   UNL A   1      39.059  34.181  37.187  1.00  0.00     0.041 A 
ATOM     54  F   UNL A   1      40.140  34.193  35.110  1.00  0.00    -0.206 F 
ATOM     55  C   UNL A   1      38.296  33.522  38.146  1.00  0.00     0.022 A 
BRANCH  52  56
ATOM     56  S   UNL A   1      36.832  31.354  39.107  1.00  0.00     0.124 S 
ATOM     57  O   UNL A   1      36.645  30.057  38.466  1.00  0.00    -0.237 OA
ATOM     58  O   UNL A   1      37.648  31.362  40.316  1.00  0.00    -0.237 OA
ATOM     59  O   UNL A   1      35.645  32.205  39.153  1.00  0.00    -0.744 OA
ENDBRANCH  52  56
ENDBRANCH  25  49
BRANCH  37  60
ATOM     60  C   UNL A   1      44.347  27.837  34.243  1.00  0.00     0.023 A 
ATOM     61  C   UNL A   1      44.317  26.674  35.031  1.00  0.00     0.031 A 
ATOM     62  C   UNL A   1      45.559  28.550  34.159  1.00  0.00     0.131 A 
ATOM     63  C   UNL A   1      45.470  26.272  35.726  1.00  0.00     0.055 A 
ATOM     64  C   UNL A   1      46.715  28.114  34.806  1.00  0.00     0.041 A 
ATOM     65  F   UNL A   1      45.641  29.672  33.426  1.00  0.00    -0.206 F 
ATOM     66  C   UNL A   1      46.673  26.973  35.600  1.00  0.00     0.022 A 
BRANCH  63  67
ATOM     67  S   UNL A   1      45.367  24.851  36.848  1.00  0.00     0.124 S 
ATOM     68  O   UNL A   1      44.815  25.458  38.055  1.00  0.00    -0.237 OA
ATOM     69  O   UNL A   1      44.481  23.943  36.126  1.00  0.00    -0.237 OA
ATOM     70  O   UNL A   1      46.754  24.402  36.961  1.00  0.00    -0.744 OA
ENDBRANCH  63  67
ENDBRANCH  37  60
ENDBRANCH  11  12
ENDBRANCH   4   6
ENDBRANCH   1   2
BRANCH   1  71
ATOM     71  C   UNL A   1      32.139  29.694  25.351  1.00  0.00     0.042 C 
BRANCH  71  72
ATOM     72  C   UNL A   1      33.181  28.597  25.185  1.00  0.00     0.117 C 
BRANCH  72  73
ATOM     73  N   UNL A   1      34.016  28.751  24.012  1.00  0.00    -0.354 N 
ATOM     74  C   UNL A   1      34.071  27.982  22.889  1.00  0.00     0.249 C 
ATOM     75  H   UNL A   1      34.633  29.518  24.029  1.00  0.00     0.163 HD
ATOM     76  O   UNL A   1      34.550  28.511  21.882  1.00  0.00    -0.272 OA
BRANCH  74  77
ATOM     77  C   UNL A   1      33.565  26.521  22.911  1.00  0.00     0.211 C 
ATOM     78  C   UNL A   1      33.202  26.059  24.319  1.00  0.00     0.085 C 
ATOM     79  O   UNL A   1      32.407  26.384  22.076  1.00  0.00    -0.357 OA
ATOM     80  C   UNL A   1      31.814  25.433  24.213  1.00  0.00     0.123 C 
ATOM     81  C   UNL A   1      31.266  26.032  22.886  1.00  0.00     0.186 C 
BRANCH  80  82
ATOM     82  C   UNL A   1      31.917  23.900  24.315  1.00  0.00    -0.013 A 
ATOM     83  C   UNL A   1      32.331  23.179  23.171  1.00  0.00     0.008 A 
ATOM     84  C   UNL A   1      31.644  23.160  25.477  1.00  0.00     0.008 A 
ATOM     85  C   UNL A   1      32.481  21.790  23.190  1.00  0.00     0.021 A 
ATOM     86  C   UNL A   1      31.809  21.768  25.502  1.00  0.00     0.021 A 
ATOM     87  C   UNL A   1      32.226  21.090  24.362  1.00  0.00     0.041 A 
ATOM     88  Cl  UNL A   1      32.430  19.382  24.401  1.00  0.00    -0.084 Cl
ENDBRANCH  80  82
BRANCH  80  89
ATOM     89  O   UNL A   1      31.034  25.841  25.347  1.00  0.00    -0.382 OA
ATOM     90  H   UNL A   1      31.163  25.211  26.073  1.00  0.00     0.212 HD
ENDBRANCH  80  89
BRANCH  81  91
ATOM     91  C   UNL A   1      30.315  27.223  22.941  1.00  0.00    -0.016 A 
ATOM     92  C   UNL A   1      30.637  28.474  22.396  1.00  0.00     0.008 A 
ATOM     93  C   UNL A   1      29.034  27.062  23.502  1.00  0.00     0.008 A 
ATOM     94  C   UNL A   1      29.697  29.508  22.349  1.00  0.00     0.021 A 
ATOM     95  C   UNL A   1      28.100  28.104  23.480  1.00  0.00     0.021 A 
ATOM     96  C   UNL A   1      28.430  29.318  22.887  1.00  0.00     0.041 A 
ATOM     97  Cl  UNL A   1      27.270  30.586  22.816  1.00  0.00    -0.084 Cl
ENDBRANCH  81  91
ENDBRANCH  74  77
ENDBRANCH  72  73
ENDBRANCH  71  72
ENDBRANCH   1  71
TORSDOF 16
ENDMDL
MODEL 3
REMARK VINA RESULT:     -13.2      5.963     10.873
REMARK SMILES O=C(NCCCNC(=O)[C@H]1C[C@](O)(c2ccc(Cl)cc2)[C@@H](c2ccc(Cl)cc2)O1)c1ccc(-c2c3nc(c(-c4cc(S(=O)(=O)[O-])ccc4F)c4ccc([nH]4)c(-c4cc(S(=O)(=O)[O-])ccc4F)c4nc(c(-c5cc(S(=O)(=O)[O-])ccc5F)c5ccc2[nH]5)C=C4)C=C3)cc1
REMARK SMILES IDX 4 1 3 2 1 3 2 4 30 6 31 7 92 8 32 9 91 10 33 11 34 12 35 13
REMARK SMILES IDX 85 14 36 15 90 16 84 17 86 18 37 19 89 20 83 21 82 22 38 24
REMARK SMILES IDX 70 25 50 26 69 27 51 28 54 29 68 30 87 31 52 32 53 33 67 35
REMARK SMILES IDX 88 36 55 37 39 38 40 39 48 40 41 41 47 42 49 43 46 44 42 45
REMARK SMILES IDX 43 46 44 47 45 48 71 49 72 50 80 51 73 52 79 53 81 54 78 55
REMARK SMILES IDX 74 56 75 57 76 58 77 59 56 60 57 61 65 62 58 63 64 64 66 65
REMARK SMILES IDX 63 66 59 67 60 68 61 69 62 70 5 71 6 72 7 73 8 74 9 76 10 77
REMARK SMILES IDX 11 78 29 79 12 80 21 81 14 82 15 83 20 84 16 85 19 86 17 87
REMARK SMILES IDX 18 88 13 89 22 91 23 92 28 93 24 94 27 95 25 96 26 97
REMARK H PARENT 3 5 86 23 54 34 7 75 13 90
REMARK Flexibility Score: inf
ROOT
ATOM      1  C   UNL A   1      33.219  33.066  27.134  1.00  0.00     0.118 C 
ENDROOT
BRANCH   1   2
ATOM      2  N   UNL A   1      32.824  34.202  27.958  1.00  0.00    -0.352 N 
ATOM      3  O   UNL A   1      32.695  35.531  29.762  1.00  0.00    -0.269 OA
ATOM      4  C   UNL A   1      33.287  34.629  29.179  1.00  0.00     0.251 C 
ATOM      5  H   UNL A   1      32.107  34.755  27.575  1.00  0.00     0.163 HD
BRANCH   4   6
ATOM      6  C   UNL A   1      34.473  34.000  29.802  1.00  0.00     0.039 A 
ATOM      7  C   UNL A   1      34.340  33.065  30.830  1.00  0.00     0.014 A 
ATOM      8  C   UNL A   1      35.743  34.323  29.313  1.00  0.00     0.014 A 
ATOM      9  C   UNL A   1      35.473  32.563  31.466  1.00  0.00     0.010 A 
ATOM     10  C   UNL A   1      36.877  33.752  29.895  1.00  0.00     0.010 A 
ATOM     11  C   UNL A   1      36.753  32.887  30.995  1.00  0.00    -0.014 A 
BRANCH  11  12
ATOM     12  C   UNL A   1      37.956  32.282  31.623  1.00  0.00     0.031 A 
ATOM     13  C   UNL A   1      38.691  31.159  30.950  1.00  0.00     0.074 A 
ATOM     14  C   UNL A   1      38.364  32.734  32.825  1.00  0.00     0.049 A 
ATOM     15  N   UNL A   1      39.696  30.446  31.390  1.00  0.00    -0.248 NA
ATOM     16  C   UNL A   1      38.224  30.780  29.610  1.00  0.00     0.031 C 
ATOM     17  C   UNL A   1      37.730  33.821  33.573  1.00  0.00     0.029 A 
ATOM     18  N   UNL A   1      39.395  32.329  33.636  1.00  0.00    -0.354 N 
ATOM     19  C   UNL A   1      39.970  29.516  30.392  1.00  0.00     0.074 A 
ATOM     20  C   UNL A   1      38.997  29.738  29.343  1.00  0.00     0.031 C 
ATOM     21  C   UNL A   1      38.386  34.002  34.727  1.00  0.00     0.029 A 
ATOM     22  C   UNL A   1      39.435  32.994  34.840  1.00  0.00     0.049 A 
ATOM     23  H   UNL A   1      40.041  31.632  33.382  1.00  0.00     0.167 HD
ATOM     24  C   UNL A   1      40.946  28.573  30.359  1.00  0.00     0.034 A 
ATOM     25  C   UNL A   1      40.192  32.787  35.935  1.00  0.00     0.034 A 
ATOM     26  C   UNL A   1      41.895  28.366  31.429  1.00  0.00     0.049 A 
ATOM     27  C   UNL A   1      41.219  31.689  35.912  1.00  0.00     0.074 A 
ATOM     28  C   UNL A   1      42.949  27.471  31.486  1.00  0.00     0.029 A 
ATOM     29  N   UNL A   1      41.889  29.045  32.644  1.00  0.00    -0.354 N 
ATOM     30  N   UNL A   1      41.488  30.834  34.953  1.00  0.00    -0.248 NA
ATOM     31  C   UNL A   1      42.049  31.530  37.112  1.00  0.00     0.031 C 
ATOM     32  C   UNL A   1      43.517  27.542  32.763  1.00  0.00     0.029 A 
ATOM     33  C   UNL A   1      42.888  28.554  33.471  1.00  0.00     0.049 A 
ATOM     34  H   UNL A   1      41.264  29.767  32.882  1.00  0.00     0.167 HD
ATOM     35  C   UNL A   1      42.537  30.051  35.423  1.00  0.00     0.074 A 
ATOM     36  C   UNL A   1      42.852  30.538  36.751  1.00  0.00     0.031 C 
ATOM     37  C   UNL A   1      43.189  29.036  34.802  1.00  0.00     0.034 A 
BRANCH  24  38
ATOM     38  C   UNL A   1      40.987  27.658  29.154  1.00  0.00     0.023 A 
ATOM     39  C   UNL A   1      41.930  27.827  28.124  1.00  0.00     0.031 A 
ATOM     40  C   UNL A   1      40.033  26.636  29.003  1.00  0.00     0.131 A 
ATOM     41  C   UNL A   1      41.830  27.065  26.949  1.00  0.00     0.055 A 
ATOM     42  C   UNL A   1      40.003  25.812  27.876  1.00  0.00     0.041 A 
ATOM     43  F   UNL A   1      39.093  26.433  29.940  1.00  0.00    -0.206 F 
ATOM     44  C   UNL A   1      40.890  26.039  26.829  1.00  0.00     0.022 A 
BRANCH  41  45
ATOM     45  S   UNL A   1      42.813  27.568  25.509  1.00  0.00     0.124 S 
ATOM     46  O   UNL A   1      42.726  26.382  24.660  1.00  0.00    -0.237 OA
ATOM     47  O   UNL A   1      42.097  28.747  25.034  1.00  0.00    -0.237 OA
ATOM     48  O   UNL A   1      44.139  27.825  26.070  1.00  0.00    -0.744 OA
ENDBRANCH  41  45
ENDBRANCH  24  38
BRANCH  25  49
ATOM     49  C   UNL A   1      39.948  33.606  37.155  1.00  0.00     0.023 A 
ATOM     50  C   UNL A   1      40.709  34.751  37.433  1.00  0.00     0.031 A 
ATOM     51  C   UNL A   1      38.919  33.261  38.051  1.00  0.00     0.131 A 
ATOM     52  C   UNL A   1      40.440  35.501  38.589  1.00  0.00     0.055 A 
ATOM     53  C   UNL A   1      38.621  34.039  39.170  1.00  0.00     0.041 A 
ATOM     54  F   UNL A   1      38.158  32.178  37.826  1.00  0.00    -0.206 F 
ATOM     55  C   UNL A   1      39.390  35.164  39.448  1.00  0.00     0.022 A 
BRANCH  52  56
ATOM     56  S   UNL A   1      41.519  36.904  38.987  1.00  0.00     0.124 S 
ATOM     57  O   UNL A   1      40.546  37.946  39.298  1.00  0.00    -0.237 OA
ATOM     58  O   UNL A   1      42.288  36.385  40.113  1.00  0.00    -0.237 OA
ATOM     59  O   UNL A   1      42.280  37.107  37.756  1.00  0.00    -0.744 OA
ENDBRANCH  52  56
ENDBRANCH  25  49
BRANCH  37  60
ATOM     60  C   UNL A   1      44.357  28.412  35.527  1.00  0.00     0.023 A 
ATOM     61  C   UNL A   1      44.190  27.415  36.503  1.00  0.00     0.031 A 
ATOM     62  C   UNL A   1      45.669  28.805  35.199  1.00  0.00     0.131 A 
ATOM     63  C   UNL A   1      45.316  26.863  37.136  1.00  0.00     0.055 A 
ATOM     64  C   UNL A   1      46.784  28.213  35.791  1.00  0.00     0.041 A 
ATOM     65  F   UNL A   1      45.885  29.759  34.280  1.00  0.00    -0.206 F 
ATOM     66  C   UNL A   1      46.611  27.240  36.770  1.00  0.00     0.022 A 
BRANCH  63  67
ATOM     67  S   UNL A   1      45.070  25.682  38.491  1.00  0.00     0.124 S 
ATOM     68  O   UNL A   1      44.136  26.400  39.352  1.00  0.00    -0.237 OA
ATOM     69  O   UNL A   1      44.532  24.515  37.798  1.00  0.00    -0.237 OA
ATOM     70  O   UNL A   1      46.413  25.508  39.043  1.00  0.00    -0.744 OA
ENDBRANCH  63  67
ENDBRANCH  37  60
ENDBRANCH  11  12
ENDBRANCH   4   6
ENDBRANCH   1   2
BRANCH   1  71
ATOM     71  C   UNL A   1      33.493  31.799  27.938  1.00  0.00     0.042 C 
BRANCH  71  72
ATOM     72  C   UNL A   1      33.414  30.500  27.149  1.00  0.00     0.117 C 
BRANCH  72  73
ATOM     73  N   UNL A   1      32.193  29.752  27.365  1.00  0.00    -0.354 N 
ATOM     74  C   UNL A   1      31.993  28.405  27.332  1.00  0.00     0.249 C 
ATOM     75  H   UNL A   1      31.395  30.293  27.562  1.00  0.00     0.163 HD
ATOM     76  O   UNL A   1      30.996  27.982  27.923  1.00  0.00    -0.272 OA
BRANCH  74  77
ATOM     77  C   UNL A   1      32.975  27.483  26.573  1.00  0.00     0.211 C 
ATOM     78  C   UNL A   1      32.427  26.068  26.412  1.00  0.00     0.085 C 
ATOM     79  O   UNL A   1      33.249  28.014  25.270  1.00  0.00    -0.357 OA
ATOM     80  C   UNL A   1      32.600  25.714  24.938  1.00  0.00     0.123 C 
ATOM     81  C   UNL A   1      32.751  27.108  24.264  1.00  0.00     0.186 C 
BRANCH  80  82
ATOM     82  C   UNL A   1      33.755  24.711  24.767  1.00  0.00    -0.013 A 
ATOM     83  C   UNL A   1      34.003  24.188  23.477  1.00  0.00     0.008 A 
ATOM     84  C   UNL A   1      34.601  24.287  25.805  1.00  0.00     0.008 A 
ATOM     85  C   UNL A   1      35.052  23.298  23.231  1.00  0.00     0.021 A 
ATOM     86  C   UNL A   1      35.663  23.407  25.558  1.00  0.00     0.021 A 
ATOM     87  C   UNL A   1      35.885  22.917  24.275  1.00  0.00     0.041 A 
ATOM     88  Cl  UNL A   1      37.193  21.840  23.978  1.00  0.00    -0.084 Cl
ENDBRANCH  80  82
BRANCH  80  89
ATOM     89  O   UNL A   1      31.424  25.026  24.485  1.00  0.00    -0.382 OA
ATOM     90  H   UNL A   1      30.904  24.736  25.251  1.00  0.00     0.212 HD
ENDBRANCH  80  89
BRANCH  81  91
ATOM     91  C   UNL A   1      31.541  27.744  23.585  1.00  0.00    -0.016 A 
ATOM     92  C   UNL A   1      30.226  27.337  23.847  1.00  0.00     0.008 A 
ATOM     93  C   UNL A   1      31.731  28.826  22.704  1.00  0.00     0.008 A 
ATOM     94  C   UNL A   1      29.134  28.023  23.306  1.00  0.00     0.021 A 
ATOM     95  C   UNL A   1      30.640  29.498  22.141  1.00  0.00     0.021 A 
ATOM     96  C   UNL A   1      29.345  29.104  22.459  1.00  0.00     0.041 A 
ATOM     97  Cl  UNL A   1      28.001  29.956  21.806  1.00  0.00    -0.084 Cl
ENDBRANCH  81  91
ENDBRANCH  74  77
ENDBRANCH  72  73
ENDBRANCH  71  72
ENDBRANCH   1  71
TORSDOF 16
ENDMDL
