MODEL 1
REMARK VINA RESULT:     -11.1      0.000      0.000
REMARK SMILES C[C@@H](SCCC(=O)NCCCNC(=O)c1ccc(-c2c3nc(c(-c4cc(S(=O)(=O)[O-])ccc4F)c4ccc([nH]4)c(-c4cc(S(=O)(=O)[O-])ccc4F)c4nc(c(-c5cc(S(=O)(=O)[O-])ccc5F)c5ccc2[nH]5)C=C4)C=C3)cc1)C(=O)Nc1ccc(C(N)=O)cc1
REMARK SMILES IDX 6 1 7 2 8 3 5 5 4 6 3 7 2 8 1 9 78 10 79 11 80 12 81 14
REMARK SMILES IDX 82 15 89 16 83 17 88 18 84 19 85 20 86 21 87 22 9 25 10 26
REMARK SMILES IDX 11 27 12 28 13 29 14 31 15 32 16 33 77 34 17 35 76 36 18 37
REMARK SMILES IDX 19 38 20 39 70 40 21 41 75 42 69 43 71 44 22 45 74 46 68 47
REMARK SMILES IDX 67 48 23 50 55 51 35 52 54 53 36 54 39 55 53 56 72 57 37 58
REMARK SMILES IDX 38 59 52 61 73 62 40 63 24 64 25 65 33 66 26 67 32 68 34 69
REMARK SMILES IDX 31 70 27 71 28 72 29 73 30 74 56 75 57 76 65 77 58 78 64 79
REMARK SMILES IDX 66 80 63 81 59 82 60 83 61 84 62 85 41 86 42 87 50 88 43 89
REMARK SMILES IDX 49 90 51 91 48 92 44 93 45 94 46 95 47 96
REMARK H PARENT 8 4 80 13 86 23 86 24 12 30 71 49 39 60
REMARK Flexibility Score: inf
ROOT
ATOM      1  C   UNL A   1      33.648  25.939  23.179  1.00  0.00     0.220 C 
ATOM      2  O   UNL A   1      33.960  26.102  21.997  1.00  0.00    -0.275 OA
ATOM      3  N   UNL A   1      32.654  26.720  23.681  1.00  0.00    -0.356 N 
ATOM      4  H   UNL A   1      32.338  27.416  23.062  1.00  0.00     0.163 HD
ENDROOT
BRANCH   1   5
ATOM      5  C   UNL A   1      34.350  24.903  24.029  1.00  0.00     0.111 C 
BRANCH   5   6
ATOM      6  C   UNL A   1      34.649  23.624  23.245  1.00  0.00     0.080 C 
BRANCH   6   7
ATOM      7  S   UNL A   1      36.413  23.113  23.267  1.00  0.00    -0.148 SA
BRANCH   7   8
ATOM      8  C   UNL A   1      36.678  22.807  25.052  1.00  0.00     0.133 C 
ATOM      9  C   UNL A   1      37.757  23.666  25.691  1.00  0.00     0.030 C 
BRANCH   8  10
ATOM     10  C   UNL A   1      36.702  21.293  25.369  1.00  0.00     0.237 C 
ATOM     11  O   UNL A   1      37.703  20.758  25.857  1.00  0.00    -0.273 OA
ATOM     12  N   UNL A   1      35.629  20.473  25.139  1.00  0.00    -0.325 N 
ATOM     13  H   UNL A   1      35.747  19.623  24.655  1.00  0.00     0.169 HD
BRANCH  12  14
ATOM     14  C   UNL A   1      34.367  20.853  25.596  1.00  0.00     0.041 A 
ATOM     15  C   UNL A   1      34.294  21.546  26.803  1.00  0.00     0.027 A 
ATOM     16  C   UNL A   1      33.246  20.665  24.798  1.00  0.00     0.027 A 
ATOM     17  C   UNL A   1      33.113  22.195  27.142  1.00  0.00     0.016 A 
ATOM     18  C   UNL A   1      32.071  21.331  25.124  1.00  0.00     0.016 A 
ATOM     19  C   UNL A   1      32.013  22.122  26.278  1.00  0.00     0.039 A 
BRANCH  19  20
ATOM     20  C   UNL A   1      30.807  22.945  26.506  1.00  0.00     0.248 C 
ATOM     21  N   UNL A   1      30.279  23.588  25.430  1.00  0.00    -0.366 N 
ATOM     22  O   UNL A   1      30.300  23.041  27.625  1.00  0.00    -0.270 OA
ATOM     23  H   UNL A   1      30.701  23.496  24.545  1.00  0.00     0.159 HD
ATOM     24  H   UNL A   1      29.474  24.144  25.535  1.00  0.00     0.159 HD
ENDBRANCH  19  20
ENDBRANCH  12  14
ENDBRANCH   8  10
ENDBRANCH   7   8
ENDBRANCH   6   7
ENDBRANCH   5   6
ENDBRANCH   1   5
BRANCH   3  25
ATOM     25  C   UNL A   1      31.973  26.713  24.963  1.00  0.00     0.117 C 
BRANCH  25  26
ATOM     26  C   UNL A   1      31.786  28.088  25.624  1.00  0.00     0.042 C 
BRANCH  26  27
ATOM     27  C   UNL A   1      32.535  29.278  24.982  1.00  0.00     0.118 C 
BRANCH  27  28
ATOM     28  N   UNL A   1      32.273  30.516  25.697  1.00  0.00    -0.352 N 
ATOM     29  C   UNL A   1      32.841  31.170  26.760  1.00  0.00     0.251 C 
ATOM     30  H   UNL A   1      31.499  31.001  25.331  1.00  0.00     0.163 HD
ATOM     31  O   UNL A   1      32.151  32.068  27.255  1.00  0.00    -0.269 OA
BRANCH  29  32
ATOM     32  C   UNL A   1      34.194  30.934  27.349  1.00  0.00     0.039 A 
ATOM     33  C   UNL A   1      34.444  29.632  27.817  1.00  0.00     0.014 A 
ATOM     34  C   UNL A   1      35.121  31.929  27.674  1.00  0.00     0.014 A 
ATOM     35  C   UNL A   1      35.572  29.330  28.598  1.00  0.00     0.010 A 
ATOM     36  C   UNL A   1      36.279  31.616  28.438  1.00  0.00     0.010 A 
ATOM     37  C   UNL A   1      36.518  30.312  28.922  1.00  0.00    -0.014 A 
BRANCH  37  38
ATOM     38  C   UNL A   1      37.729  29.939  29.737  1.00  0.00     0.031 A 
ATOM     39  C   UNL A   1      38.785  28.981  29.219  1.00  0.00     0.074 A 
ATOM     40  C   UNL A   1      37.930  30.507  30.948  1.00  0.00     0.049 A 
ATOM     41  N   UNL A   1      39.892  28.576  29.797  1.00  0.00    -0.248 NA
ATOM     42  C   UNL A   1      38.571  28.413  27.882  1.00  0.00     0.031 C 
ATOM     43  C   UNL A   1      37.039  31.482  31.577  1.00  0.00     0.029 A 
ATOM     44  N   UNL A   1      38.949  30.357  31.865  1.00  0.00    -0.354 N 
ATOM     45  C   UNL A   1      40.506  27.701  28.903  1.00  0.00     0.074 A 
ATOM     46  C   UNL A   1      39.627  27.618  27.752  1.00  0.00     0.031 C 
ATOM     47  C   UNL A   1      37.551  31.848  32.763  1.00  0.00     0.029 A 
ATOM     48  C   UNL A   1      38.782  31.101  33.013  1.00  0.00     0.049 A 
ATOM     49  H   UNL A   1      39.726  29.772  31.713  1.00  0.00     0.167 HD
ATOM     50  C   UNL A   1      41.688  27.038  29.017  1.00  0.00     0.034 A 
ATOM     51  C   UNL A   1      39.510  31.173  34.149  1.00  0.00     0.034 A 
ATOM     52  C   UNL A   1      42.581  27.124  30.155  1.00  0.00     0.049 A 
ATOM     53  C   UNL A   1      40.777  30.358  34.284  1.00  0.00     0.074 A 
ATOM     54  C   UNL A   1      43.821  26.524  30.320  1.00  0.00     0.029 A 
ATOM     55  N   UNL A   1      42.335  27.834  31.321  1.00  0.00    -0.354 N 
ATOM     56  N   UNL A   1      41.347  29.564  33.409  1.00  0.00    -0.248 NA
ATOM     57  C   UNL A   1      41.500  30.455  35.562  1.00  0.00     0.031 C 
ATOM     58  C   UNL A   1      44.281  26.796  31.614  1.00  0.00     0.029 A 
ATOM     59  C   UNL A   1      43.374  27.642  32.226  1.00  0.00     0.049 A 
ATOM     60  H   UNL A   1      41.541  28.391  31.486  1.00  0.00     0.167 HD
ATOM     61  C   UNL A   1      42.510  29.099  34.022  1.00  0.00     0.074 A 
ATOM     62  C   UNL A   1      42.572  29.714  35.328  1.00  0.00     0.031 C 
ATOM     63  C   UNL A   1      43.442  28.238  33.540  1.00  0.00     0.034 A 
BRANCH  50  64
ATOM     64  C   UNL A   1      42.093  26.105  27.896  1.00  0.00     0.023 A 
ATOM     65  C   UNL A   1      41.709  24.753  27.873  1.00  0.00     0.031 A 
ATOM     66  C   UNL A   1      42.828  26.598  26.801  1.00  0.00     0.131 A 
ATOM     67  C   UNL A   1      42.098  23.934  26.799  1.00  0.00     0.055 A 
ATOM     68  C   UNL A   1      43.152  25.796  25.705  1.00  0.00     0.041 A 
ATOM     69  F   UNL A   1      43.231  27.879  26.771  1.00  0.00    -0.206 F 
ATOM     70  C   UNL A   1      42.794  24.452  25.705  1.00  0.00     0.022 A 
BRANCH  67  71
ATOM     71  S   UNL A   1      41.769  22.153  26.899  1.00  0.00     0.124 S 
ATOM     72  O   UNL A   1      40.838  21.961  25.791  1.00  0.00    -0.237 OA
ATOM     73  O   UNL A   1      43.097  21.577  26.727  1.00  0.00    -0.237 OA
ATOM     74  O   UNL A   1      41.185  21.986  28.228  1.00  0.00    -0.744 OA
ENDBRANCH  67  71
ENDBRANCH  50  64
BRANCH  51  75
ATOM     75  C   UNL A   1      39.044  32.009  35.299  1.00  0.00     0.023 A 
ATOM     76  C   UNL A   1      38.507  31.422  36.457  1.00  0.00     0.031 A 
ATOM     77  C   UNL A   1      39.040  33.413  35.212  1.00  0.00     0.131 A 
ATOM     78  C   UNL A   1      37.930  32.232  37.448  1.00  0.00     0.055 A 
ATOM     79  C   UNL A   1      38.527  34.216  36.233  1.00  0.00     0.041 A 
ATOM     80  F   UNL A   1      39.535  34.031  34.129  1.00  0.00    -0.206 F 
ATOM     81  C   UNL A   1      37.951  33.624  37.352  1.00  0.00     0.022 A 
BRANCH  78  82
ATOM     82  S   UNL A   1      37.031  31.435  38.809  1.00  0.00     0.124 S 
ATOM     83  O   UNL A   1      35.819  32.242  38.875  1.00  0.00    -0.237 OA
ATOM     84  O   UNL A   1      36.872  30.074  38.308  1.00  0.00    -0.237 OA
ATOM     85  O   UNL A   1      37.940  31.578  39.944  1.00  0.00    -0.744 OA
ENDBRANCH  78  82
ENDBRANCH  51  75
BRANCH  63  86
ATOM     86  C   UNL A   1      44.639  27.942  34.419  1.00  0.00     0.023 A 
ATOM     87  C   UNL A   1      44.636  26.889  35.352  1.00  0.00     0.031 A 
ATOM     88  C   UNL A   1      45.796  28.741  34.338  1.00  0.00     0.131 A 
ATOM     89  C   UNL A   1      45.736  26.699  36.204  1.00  0.00     0.055 A 
ATOM     90  C   UNL A   1      46.913  28.508  35.145  1.00  0.00     0.041 A 
ATOM     91  F   UNL A   1      45.860  29.765  33.472  1.00  0.00    -0.206 F 
ATOM     92  C   UNL A   1      46.881  27.492  36.094  1.00  0.00     0.022 A 
BRANCH  89  93
ATOM     93  S   UNL A   1      45.614  25.465  37.529  1.00  0.00     0.124 S 
ATOM     94  O   UNL A   1      46.823  24.674  37.321  1.00  0.00    -0.237 OA
ATOM     95  O   UNL A   1      45.594  26.295  38.728  1.00  0.00    -0.237 OA
ATOM     96  O   UNL A   1      44.361  24.770  37.237  1.00  0.00    -0.744 OA
ENDBRANCH  89  93
ENDBRANCH  63  86
ENDBRANCH  37  38
ENDBRANCH  29  32
ENDBRANCH  27  28
ENDBRANCH  26  27
ENDBRANCH  25  26
ENDBRANCH   3  25
TORSDOF 19
ENDMDL
MODEL 2
REMARK VINA RESULT:     -10.9      5.030      7.689
REMARK SMILES C[C@@H](SCCC(=O)NCCCNC(=O)c1ccc(-c2c3nc(c(-c4cc(S(=O)(=O)[O-])ccc4F)c4ccc([nH]4)c(-c4cc(S(=O)(=O)[O-])ccc4F)c4nc(c(-c5cc(S(=O)(=O)[O-])ccc5F)c5ccc2[nH]5)C=C4)C=C3)cc1)C(=O)Nc1ccc(C(N)=O)cc1
REMARK SMILES IDX 6 1 7 2 8 3 5 5 4 6 3 7 2 8 1 9 78 10 79 11 80 12 81 14
REMARK SMILES IDX 82 15 89 16 83 17 88 18 84 19 85 20 86 21 87 22 9 25 10 26
REMARK SMILES IDX 11 27 12 28 13 29 14 31 15 32 16 33 77 34 17 35 76 36 18 37
REMARK SMILES IDX 19 38 20 39 70 40 21 41 75 42 69 43 71 44 22 45 74 46 68 47
REMARK SMILES IDX 67 48 23 50 55 51 35 52 54 53 36 54 39 55 53 56 72 57 37 58
REMARK SMILES IDX 38 59 52 61 73 62 40 63 24 64 25 65 33 66 26 67 32 68 34 69
REMARK SMILES IDX 31 70 27 71 28 72 29 73 30 74 56 75 57 76 65 77 58 78 64 79
REMARK SMILES IDX 66 80 63 81 59 82 60 83 61 84 62 85 41 86 42 87 50 88 43 89
REMARK SMILES IDX 49 90 51 91 48 92 44 93 45 94 46 95 47 96
REMARK H PARENT 8 4 80 13 86 23 86 24 12 30 71 49 39 60
REMARK Flexibility Score: inf
ROOT
ATOM      1  C   UNL A   1      32.774  22.035  23.579  1.00  0.00     0.220 C 
ATOM      2  O   UNL A   1      31.976  21.800  22.669  1.00  0.00    -0.275 OA
ATOM      3  N   UNL A   1      33.235  20.978  24.300  1.00  0.00    -0.356 N 
ATOM      4  H   UNL A   1      32.804  20.122  24.079  1.00  0.00     0.163 HD
ENDROOT
BRANCH   1   5
ATOM      5  C   UNL A   1      33.222  23.450  23.869  1.00  0.00     0.111 C 
BRANCH   5   6
ATOM      6  C   UNL A   1      33.289  24.303  22.600  1.00  0.00     0.080 C 
BRANCH   6   7
ATOM      7  S   UNL A   1      31.753  25.241  22.232  1.00  0.00    -0.148 SA
BRANCH   7   8
ATOM      8  C   UNL A   1      32.350  26.968  22.339  1.00  0.00     0.133 C 
ATOM      9  C   UNL A   1      33.729  27.126  22.958  1.00  0.00     0.030 C 
BRANCH   8  10
ATOM     10  C   UNL A   1      31.239  27.921  22.837  1.00  0.00     0.237 C 
ATOM     11  O   UNL A   1      30.493  28.504  22.041  1.00  0.00    -0.273 OA
ATOM     12  N   UNL A   1      31.014  28.165  24.166  1.00  0.00    -0.325 N 
ATOM     13  H   UNL A   1      30.934  29.089  24.495  1.00  0.00     0.169 HD
BRANCH  12  14
ATOM     14  C   UNL A   1      30.902  27.091  25.049  1.00  0.00     0.041 A 
ATOM     15  C   UNL A   1      29.767  26.287  24.954  1.00  0.00     0.027 A 
ATOM     16  C   UNL A   1      31.956  26.762  25.892  1.00  0.00     0.027 A 
ATOM     17  C   UNL A   1      29.753  25.055  25.596  1.00  0.00     0.016 A 
ATOM     18  C   UNL A   1      31.953  25.521  26.517  1.00  0.00     0.016 A 
ATOM     19  C   UNL A   1      30.868  24.654  26.343  1.00  0.00     0.039 A 
BRANCH  19  20
ATOM     20  C   UNL A   1      30.971  23.282  26.884  1.00  0.00     0.248 C 
ATOM     21  N   UNL A   1      29.976  22.411  26.567  1.00  0.00    -0.366 N 
ATOM     22  O   UNL A   1      31.922  22.943  27.590  1.00  0.00    -0.270 OA
ATOM     23  H   UNL A   1      29.226  22.705  26.001  1.00  0.00     0.159 HD
ATOM     24  H   UNL A   1      30.005  21.486  26.902  1.00  0.00     0.159 HD
ENDBRANCH  19  20
ENDBRANCH  12  14
ENDBRANCH   8  10
ENDBRANCH   7   8
ENDBRANCH   6   7
ENDBRANCH   5   6
ENDBRANCH   1   5
BRANCH   3  25
ATOM     25  C   UNL A   1      34.246  20.882  25.338  1.00  0.00     0.117 C 
BRANCH  25  26
ATOM     26  C   UNL A   1      35.522  20.117  24.955  1.00  0.00     0.042 C 
BRANCH  26  27
ATOM     27  C   UNL A   1      36.848  20.910  24.989  1.00  0.00     0.118 C 
BRANCH  27  28
ATOM     28  N   UNL A   1      37.966  20.057  25.359  1.00  0.00    -0.352 N 
ATOM     29  C   UNL A   1      39.228  20.260  25.855  1.00  0.00     0.251 C 
ATOM     30  H   UNL A   1      37.769  19.103  25.220  1.00  0.00     0.163 HD
ATOM     31  O   UNL A   1      39.988  19.289  25.772  1.00  0.00    -0.269 OA
BRANCH  29  32
ATOM     32  C   UNL A   1      39.759  21.500  26.498  1.00  0.00     0.039 A 
ATOM     33  C   UNL A   1      39.350  22.717  25.924  1.00  0.00     0.014 A 
ATOM     34  C   UNL A   1      40.781  21.544  27.451  1.00  0.00     0.014 A 
ATOM     35  C   UNL A   1      39.948  23.938  26.274  1.00  0.00     0.010 A 
ATOM     36  C   UNL A   1      41.365  22.785  27.827  1.00  0.00     0.010 A 
ATOM     37  C   UNL A   1      40.966  24.002  27.236  1.00  0.00    -0.014 A 
BRANCH  37  38
ATOM     38  C   UNL A   1      41.560  25.337  27.602  1.00  0.00     0.031 A 
ATOM     39  C   UNL A   1      42.971  25.727  27.204  1.00  0.00     0.074 A 
ATOM     40  C   UNL A   1      40.812  26.253  28.257  1.00  0.00     0.049 A 
ATOM     41  N   UNL A   1      43.617  26.848  27.432  1.00  0.00    -0.248 NA
ATOM     42  C   UNL A   1      43.750  24.737  26.452  1.00  0.00     0.031 C 
ATOM     43  C   UNL A   1      39.423  26.060  28.675  1.00  0.00     0.029 A 
ATOM     44  N   UNL A   1      41.105  27.533  28.681  1.00  0.00    -0.354 N 
ATOM     45  C   UNL A   1      44.879  26.699  26.860  1.00  0.00     0.074 A 
ATOM     46  C   UNL A   1      44.911  25.362  26.297  1.00  0.00     0.031 C 
ATOM     47  C   UNL A   1      38.984  27.175  29.281  1.00  0.00     0.029 A 
ATOM     48  C   UNL A   1      40.069  28.152  29.346  1.00  0.00     0.049 A 
ATOM     49  H   UNL A   1      41.975  27.965  28.521  1.00  0.00     0.167 HD
ATOM     50  C   UNL A   1      45.909  27.585  26.797  1.00  0.00     0.034 A 
ATOM     51  C   UNL A   1      39.989  29.354  29.960  1.00  0.00     0.034 A 
ATOM     52  C   UNL A   1      45.883  28.927  27.343  1.00  0.00     0.049 A 
ATOM     53  C   UNL A   1      41.180  30.285  29.950  1.00  0.00     0.074 A 
ATOM     54  C   UNL A   1      46.868  29.901  27.272  1.00  0.00     0.029 A 
ATOM     55  N   UNL A   1      44.840  29.483  28.069  1.00  0.00    -0.354 N 
ATOM     56  N   UNL A   1      42.348  30.129  29.374  1.00  0.00    -0.248 NA
ATOM     57  C   UNL A   1      41.035  31.561  30.669  1.00  0.00     0.031 C 
ATOM     58  C   UNL A   1      46.460  31.006  28.027  1.00  0.00     0.029 A 
ATOM     59  C   UNL A   1      45.181  30.762  28.494  1.00  0.00     0.049 A 
ATOM     60  H   UNL A   1      43.984  29.036  28.258  1.00  0.00     0.167 HD
ATOM     61  C   UNL A   1      43.059  31.299  29.635  1.00  0.00     0.074 A 
ATOM     62  C   UNL A   1      42.185  32.160  30.399  1.00  0.00     0.031 C 
ATOM     63  C   UNL A   1      44.325  31.628  29.270  1.00  0.00     0.034 A 
BRANCH  50  64
ATOM     64  C   UNL A   1      47.199  27.133  26.147  1.00  0.00     0.023 A 
ATOM     65  C   UNL A   1      48.197  26.450  26.861  1.00  0.00     0.031 A 
ATOM     66  C   UNL A   1      47.402  27.341  24.768  1.00  0.00     0.131 A 
ATOM     67  C   UNL A   1      49.369  26.037  26.204  1.00  0.00     0.055 A 
ATOM     68  C   UNL A   1      48.537  26.868  24.108  1.00  0.00     0.041 A 
ATOM     69  F   UNL A   1      46.487  27.996  24.035  1.00  0.00    -0.206 F 
ATOM     70  C   UNL A   1      49.534  26.220  24.829  1.00  0.00     0.022 A 
BRANCH  67  71
ATOM     71  S   UNL A   1      50.725  25.347  27.192  1.00  0.00     0.124 S 
ATOM     72  O   UNL A   1      50.062  24.236  27.869  1.00  0.00    -0.237 OA
ATOM     73  O   UNL A   1      51.705  24.985  26.176  1.00  0.00    -0.237 OA
ATOM     74  O   UNL A   1      51.111  26.455  28.065  1.00  0.00    -0.744 OA
ENDBRANCH  67  71
ENDBRANCH  50  64
BRANCH  51  75
ATOM     75  C   UNL A   1      38.750  29.747  30.701  1.00  0.00     0.023 A 
ATOM     76  C   UNL A   1      37.843  30.676  30.164  1.00  0.00     0.031 A 
ATOM     77  C   UNL A   1      38.509  29.271  32.003  1.00  0.00     0.131 A 
ATOM     78  C   UNL A   1      36.779  31.147  30.949  1.00  0.00     0.055 A 
ATOM     79  C   UNL A   1      37.409  29.692  32.753  1.00  0.00     0.041 A 
ATOM     80  F   UNL A   1      39.343  28.386  32.571  1.00  0.00    -0.206 F 
ATOM     81  C   UNL A   1      36.546  30.650  32.232  1.00  0.00     0.022 A 
BRANCH  78  82
ATOM     82  S   UNL A   1      35.773  32.520  30.318  1.00  0.00     0.124 S 
ATOM     83  O   UNL A   1      35.791  32.263  28.883  1.00  0.00    -0.237 OA
ATOM     84  O   UNL A   1      34.501  32.298  30.996  1.00  0.00    -0.237 OA
ATOM     85  O   UNL A   1      36.510  33.706  30.750  1.00  0.00    -0.744 OA
ENDBRANCH  78  82
ENDBRANCH  51  75
BRANCH  63  86
ATOM     86  C   UNL A   1      44.828  33.002  29.660  1.00  0.00     0.023 A 
ATOM     87  C   UNL A   1      44.657  34.121  28.824  1.00  0.00     0.031 A 
ATOM     88  C   UNL A   1      45.509  33.191  30.877  1.00  0.00     0.131 A 
ATOM     89  C   UNL A   1      45.210  35.361  29.186  1.00  0.00     0.055 A 
ATOM     90  C   UNL A   1      46.003  34.441  31.261  1.00  0.00     0.041 A 
ATOM     91  F   UNL A   1      45.710  32.162  31.716  1.00  0.00    -0.206 F 
ATOM     92  C   UNL A   1      45.867  35.531  30.407  1.00  0.00     0.022 A 
BRANCH  89  93
ATOM     93  S   UNL A   1      45.148  36.728  27.994  1.00  0.00     0.124 S 
ATOM     94  O   UNL A   1      46.102  36.291  26.980  1.00  0.00    -0.237 OA
ATOM     95  O   UNL A   1      43.745  36.728  27.593  1.00  0.00    -0.237 OA
ATOM     96  O   UNL A   1      45.566  37.888  28.780  1.00  0.00    -0.744 OA
ENDBRANCH  89  93
ENDBRANCH  63  86
ENDBRANCH  37  38
ENDBRANCH  29  32
ENDBRANCH  27  28
ENDBRANCH  26  27
ENDBRANCH  25  26
ENDBRANCH   3  25
TORSDOF 19
ENDMDL
MODEL 3
REMARK VINA RESULT:     -10.7      3.135      8.739
REMARK SMILES C[C@@H](SCCC(=O)NCCCNC(=O)c1ccc(-c2c3nc(c(-c4cc(S(=O)(=O)[O-])ccc4F)c4ccc([nH]4)c(-c4cc(S(=O)(=O)[O-])ccc4F)c4nc(c(-c5cc(S(=O)(=O)[O-])ccc5F)c5ccc2[nH]5)C=C4)C=C3)cc1)C(=O)Nc1ccc(C(N)=O)cc1
REMARK SMILES IDX 6 1 7 2 8 3 5 5 4 6 3 7 2 8 1 9 78 10 79 11 80 12 81 14
REMARK SMILES IDX 82 15 89 16 83 17 88 18 84 19 85 20 86 21 87 22 9 25 10 26
REMARK SMILES IDX 11 27 12 28 13 29 14 31 15 32 16 33 77 34 17 35 76 36 18 37
REMARK SMILES IDX 19 38 20 39 70 40 21 41 75 42 69 43 71 44 22 45 74 46 68 47
REMARK SMILES IDX 67 48 23 50 55 51 35 52 54 53 36 54 39 55 53 56 72 57 37 58
REMARK SMILES IDX 38 59 52 61 73 62 40 63 24 64 25 65 33 66 26 67 32 68 34 69
REMARK SMILES IDX 31 70 27 71 28 72 29 73 30 74 56 75 57 76 65 77 58 78 64 79
REMARK SMILES IDX 66 80 63 81 59 82 60 83 61 84 62 85 41 86 42 87 50 88 43 89
REMARK SMILES IDX 49 90 51 91 48 92 44 93 45 94 46 95 47 96
REMARK H PARENT 8 4 80 13 86 23 86 24 12 30 71 49 39 60
REMARK Flexibility Score: inf
ROOT
ATOM      1  C   UNL A   1      34.006  29.407  27.027  1.00  0.00     0.220 C 
ATOM      2  O   UNL A   1      34.980  29.283  27.772  1.00  0.00    -0.275 OA
ATOM      3  N   UNL A   1      32.930  30.089  27.504  1.00  0.00    -0.356 N 
ATOM      4  H   UNL A   1      33.003  30.342  28.452  1.00  0.00     0.163 HD
ENDROOT
BRANCH   1   5
ATOM      5  C   UNL A   1      34.019  28.821  25.632  1.00  0.00     0.111 C 
BRANCH   5   6
ATOM      6  C   UNL A   1      33.910  27.295  25.649  1.00  0.00     0.080 C 
BRANCH   6   7
ATOM      7  S   UNL A   1      32.847  26.594  24.325  1.00  0.00    -0.148 SA
BRANCH   7   8
ATOM      8  C   UNL A   1      31.185  27.129  24.875  1.00  0.00     0.133 C 
ATOM      9  C   UNL A   1      30.973  27.096  26.380  1.00  0.00     0.030 C 
BRANCH   8  10
ATOM     10  C   UNL A   1      30.073  26.518  23.991  1.00  0.00     0.237 C 
ATOM     11  O   UNL A   1      29.486  25.483  24.326  1.00  0.00    -0.273 OA
ATOM     12  N   UNL A   1      29.673  27.084  22.810  1.00  0.00    -0.325 N 
ATOM     13  H   UNL A   1      29.601  26.536  21.995  1.00  0.00     0.169 HD
BRANCH  12  14
ATOM     14  C   UNL A   1      29.370  28.445  22.771  1.00  0.00     0.041 A 
ATOM     15  C   UNL A   1      30.347  29.315  22.289  1.00  0.00     0.027 A 
ATOM     16  C   UNL A   1      28.088  28.888  23.070  1.00  0.00     0.027 A 
ATOM     17  C   UNL A   1      29.991  30.616  21.956  1.00  0.00     0.016 A 
ATOM     18  C   UNL A   1      27.724  30.181  22.717  1.00  0.00     0.016 A 
ATOM     19  C   UNL A   1      28.666  31.036  22.130  1.00  0.00     0.039 A 
BRANCH  19  20
ATOM     20  C   UNL A   1      28.205  32.343  21.617  1.00  0.00     0.248 C 
ATOM     21  N   UNL A   1      27.637  32.362  20.381  1.00  0.00    -0.366 N 
ATOM     22  O   UNL A   1      28.328  33.371  22.284  1.00  0.00    -0.270 OA
ATOM     23  H   UNL A   1      27.550  31.527  19.867  1.00  0.00     0.159 HD
ATOM     24  H   UNL A   1      27.312  33.210  20.002  1.00  0.00     0.159 HD
ENDBRANCH  19  20
ENDBRANCH  12  14
ENDBRANCH   8  10
ENDBRANCH   7   8
ENDBRANCH   6   7
ENDBRANCH   5   6
ENDBRANCH   1   5
BRANCH   3  25
ATOM     25  C   UNL A   1      31.693  30.511  26.871  1.00  0.00     0.117 C 
BRANCH  25  26
ATOM     26  C   UNL A   1      31.266  31.961  27.147  1.00  0.00     0.042 C 
BRANCH  26  27
ATOM     27  C   UNL A   1      32.144  33.076  26.533  1.00  0.00     0.118 C 
BRANCH  27  28
ATOM     28  N   UNL A   1      32.331  34.175  27.464  1.00  0.00    -0.352 N 
ATOM     29  C   UNL A   1      33.167  34.429  28.521  1.00  0.00     0.251 C 
ATOM     30  H   UNL A   1      31.706  34.916  27.296  1.00  0.00     0.163 HD
ATOM     31  O   UNL A   1      32.826  35.370  29.247  1.00  0.00    -0.269 OA
BRANCH  29  32
ATOM     32  C   UNL A   1      34.437  33.720  28.860  1.00  0.00     0.039 A 
ATOM     33  C   UNL A   1      34.306  32.562  29.647  1.00  0.00     0.014 A 
ATOM     34  C   UNL A   1      35.726  34.225  28.661  1.00  0.00     0.014 A 
ATOM     35  C   UNL A   1      35.418  31.933  30.231  1.00  0.00     0.010 A 
ATOM     36  C   UNL A   1      36.854  33.570  29.227  1.00  0.00     0.010 A 
ATOM     37  C   UNL A   1      36.718  32.419  30.031  1.00  0.00    -0.014 A 
BRANCH  37  38
ATOM     38  C   UNL A   1      37.885  31.698  30.652  1.00  0.00     0.031 A 
ATOM     39  C   UNL A   1      38.356  31.992  32.064  1.00  0.00     0.074 A 
ATOM     40  C   UNL A   1      38.513  30.713  29.969  1.00  0.00     0.049 A 
ATOM     41  N   UNL A   1      39.336  31.441  32.743  1.00  0.00    -0.248 NA
ATOM     42  C   UNL A   1      37.630  33.030  32.806  1.00  0.00     0.031 C 
ATOM     43  C   UNL A   1      38.160  30.271  28.620  1.00  0.00     0.029 A 
ATOM     44  N   UNL A   1      39.571  29.899  30.313  1.00  0.00    -0.354 N 
ATOM     45  C   UNL A   1      39.353  32.067  33.988  1.00  0.00     0.074 A 
ATOM     46  C   UNL A   1      38.296  33.060  33.955  1.00  0.00     0.031 C 
ATOM     47  C   UNL A   1      38.974  29.267  28.256  1.00  0.00     0.029 A 
ATOM     48  C   UNL A   1      39.944  29.019  29.320  1.00  0.00     0.049 A 
ATOM     49  H   UNL A   1      40.019  29.942  31.189  1.00  0.00     0.167 HD
ATOM     50  C   UNL A   1      40.159  31.836  35.059  1.00  0.00     0.034 A 
ATOM     51  C   UNL A   1      40.956  28.126  29.248  1.00  0.00     0.034 A 
ATOM     52  C   UNL A   1      41.207  30.838  35.110  1.00  0.00     0.049 A 
ATOM     53  C   UNL A   1      41.891  27.951  30.424  1.00  0.00     0.074 A 
ATOM     54  C   UNL A   1      42.030  30.510  36.178  1.00  0.00     0.029 A 
ATOM     55  N   UNL A   1      41.595  30.022  34.057  1.00  0.00    -0.354 N 
ATOM     56  N   UNL A   1      41.862  28.534  31.598  1.00  0.00    -0.248 NA
ATOM     57  C   UNL A   1      42.992  26.988  30.263  1.00  0.00     0.031 C 
ATOM     58  C   UNL A   1      42.967  29.564  35.747  1.00  0.00     0.029 A 
ATOM     59  C   UNL A   1      42.674  29.231  34.436  1.00  0.00     0.049 A 
ATOM     60  H   UNL A   1      41.169  30.004  33.170  1.00  0.00     0.167 HD
ATOM     61  C   UNL A   1      42.920  27.984  32.321  1.00  0.00     0.074 A 
ATOM     62  C   UNL A   1      43.552  27.008  31.463  1.00  0.00     0.031 C 
ATOM     63  C   UNL A   1      43.326  28.264  33.586  1.00  0.00     0.034 A 
BRANCH  50  64
ATOM     64  C   UNL A   1      39.983  32.709  36.284  1.00  0.00     0.023 A 
ATOM     65  C   UNL A   1      40.729  33.884  36.478  1.00  0.00     0.031 A 
ATOM     66  C   UNL A   1      39.005  32.386  37.244  1.00  0.00     0.131 A 
ATOM     67  C   UNL A   1      40.514  34.668  37.625  1.00  0.00     0.055 A 
ATOM     68  C   UNL A   1      38.748  33.205  38.345  1.00  0.00     0.041 A 
ATOM     69  F   UNL A   1      38.266  31.271  37.117  1.00  0.00    -0.206 F 
ATOM     70  C   UNL A   1      39.513  34.350  38.546  1.00  0.00     0.022 A 
BRANCH  67  71
ATOM     71  S   UNL A   1      41.633  36.058  37.952  1.00  0.00     0.124 S 
ATOM     72  O   UNL A   1      42.511  35.497  38.976  1.00  0.00    -0.237 OA
ATOM     73  O   UNL A   1      42.239  36.289  36.647  1.00  0.00    -0.237 OA
ATOM     74  O   UNL A   1      40.739  37.114  38.421  1.00  0.00    -0.744 OA
ENDBRANCH  67  71
ENDBRANCH  50  64
BRANCH  51  75
ATOM     75  C   UNL A   1      41.196  27.348  27.992  1.00  0.00     0.023 A 
ATOM     76  C   UNL A   1      40.891  25.979  27.913  1.00  0.00     0.031 A 
ATOM     77  C   UNL A   1      41.825  27.946  26.886  1.00  0.00     0.131 A 
ATOM     78  C   UNL A   1      41.276  25.242  26.782  1.00  0.00     0.055 A 
ATOM     79  C   UNL A   1      42.143  27.222  25.735  1.00  0.00     0.041 A 
ATOM     80  F   UNL A   1      42.145  29.250  26.905  1.00  0.00    -0.206 F 
ATOM     81  C   UNL A   1      41.884  25.857  25.686  1.00  0.00     0.022 A 
BRANCH  78  82
ATOM     82  S   UNL A   1      41.089  23.437  26.814  1.00  0.00     0.124 S 
ATOM     83  O   UNL A   1      41.988  23.027  25.742  1.00  0.00    -0.237 OA
ATOM     84  O   UNL A   1      41.516  23.114  28.171  1.00  0.00    -0.237 OA
ATOM     85  O   UNL A   1      39.666  23.240  26.546  1.00  0.00    -0.744 OA
ENDBRANCH  78  82
ENDBRANCH  51  75
BRANCH  63  86
ATOM     86  C   UNL A   1      44.491  27.469  34.136  1.00  0.00     0.023 A 
ATOM     87  C   UNL A   1      44.309  26.235  34.788  1.00  0.00     0.031 A 
ATOM     88  C   UNL A   1      45.805  27.964  34.027  1.00  0.00     0.131 A 
ATOM     89  C   UNL A   1      45.408  25.569  35.355  1.00  0.00     0.055 A 
ATOM     90  C   UNL A   1      46.902  27.266  34.538  1.00  0.00     0.041 A 
ATOM     91  F   UNL A   1      46.045  29.138  33.422  1.00  0.00    -0.206 F 
ATOM     92  C   UNL A   1      46.706  26.069  35.219  1.00  0.00     0.022 A 
BRANCH  89  93
ATOM     93  S   UNL A   1      45.110  24.088  36.361  1.00  0.00     0.124 S 
ATOM     94  O   UNL A   1      44.122  23.371  35.562  1.00  0.00    -0.237 OA
ATOM     95  O   UNL A   1      46.436  23.484  36.428  1.00  0.00    -0.237 OA
ATOM     96  O   UNL A   1      44.612  24.627  37.626  1.00  0.00    -0.744 OA
ENDBRANCH  89  93
ENDBRANCH  63  86
ENDBRANCH  37  38
ENDBRANCH  29  32
ENDBRANCH  27  28
ENDBRANCH  26  27
ENDBRANCH  25  26
ENDBRANCH   3  25
TORSDOF 19
ENDMDL
