MODEL 1
REMARK VINA RESULT:     -10.9      0.000      0.000
REMARK SMILES C[C@@H](CSc1nc(C(F)(F)F)ccc1C#N)C(=O)NCCCNC(=O)c1ccc(-c2c3nc(c(-c4cc(S(=O)(=O)[O-])ccc4F)c4ccc([nH]4)c(-c4cc(S(=O)(=O)[O-])ccc4F)c4nc(c(-c5cc(S(=O)(=O)[O-])ccc5F)c5ccc2[nH]5)C=C4)C=C3)cc1
REMARK SMILES IDX 20 1 19 2 17 3 18 4 2 6 1 7 3 8 4 9 5 10 6 11 14 12 7 13
REMARK SMILES IDX 13 14 12 15 15 16 16 17 8 18 9 19 10 20 11 21 21 22 22 23
REMARK SMILES IDX 23 24 24 25 25 27 26 28 27 29 88 30 28 31 87 32 29 33 30 34
REMARK SMILES IDX 31 35 81 36 32 37 86 38 80 39 82 40 33 41 85 42 79 43 78 44
REMARK SMILES IDX 34 46 66 47 46 48 65 49 47 50 50 51 64 52 83 53 48 54 49 55
REMARK SMILES IDX 63 57 84 58 51 59 35 60 36 61 44 62 37 63 43 64 45 65 42 66
REMARK SMILES IDX 38 67 39 68 40 69 41 70 67 71 68 72 76 73 69 74 75 75 77 76
REMARK SMILES IDX 74 77 70 78 71 79 72 80 73 81 52 82 53 83 61 84 54 85 60 86
REMARK SMILES IDX 62 87 59 88 55 89 56 90 57 91 58 92
REMARK H PARENT 19 5 23 26 82 45 50 56
REMARK Flexibility Score: inf
ROOT
ATOM      1  C   UNL A   1      31.909  28.630  23.426  1.00  0.00     0.117 C 
ENDROOT
BRANCH   1   2
ATOM      2  N   UNL A   1      31.077  29.139  22.369  1.00  0.00    -0.356 N 
ATOM      3  C   UNL A   1      29.718  29.128  22.296  1.00  0.00     0.223 C 
ATOM      4  O   UNL A   1      29.196  29.795  21.398  1.00  0.00    -0.275 OA
ATOM      5  H   UNL A   1      31.549  29.544  21.606  1.00  0.00     0.163 HD
BRANCH   3   6
ATOM      6  C   UNL A   1      28.847  28.288  23.237  1.00  0.00     0.085 C 
ATOM      7  C   UNL A   1      27.362  28.606  23.112  1.00  0.00     0.019 C 
BRANCH   6   8
ATOM      8  C   UNL A   1      29.237  26.807  23.450  1.00  0.00     0.089 C 
BRANCH   8   9
ATOM      9  S   UNL A   1      29.543  25.956  25.058  1.00  0.00    -0.104 SA
BRANCH   9  10
ATOM     10  C   UNL A   1      31.299  25.588  25.051  1.00  0.00     0.115 A 
ATOM     11  N   UNL A   1      31.725  24.689  24.134  1.00  0.00    -0.236 NA
ATOM     12  C   UNL A   1      32.183  26.255  25.908  1.00  0.00     0.084 A 
ATOM     13  C   UNL A   1      33.072  24.472  24.002  1.00  0.00     0.145 A 
ATOM     14  C   UNL A   1      33.556  26.070  25.726  1.00  0.00     0.024 A 
ATOM     15  C   UNL A   1      34.007  25.178  24.758  1.00  0.00     0.035 A 
BRANCH  12  16
ATOM     16  C   UNL A   1      31.736  27.163  26.920  1.00  0.00     0.102 C 
ATOM     17  N   UNL A   1      31.375  27.883  27.755  1.00  0.00    -0.192 NA
ENDBRANCH  12  16
BRANCH  13  18
ATOM     18  C   UNL A   1      33.549  23.426  23.000  1.00  0.00     0.433 C 
ATOM     19  F   UNL A   1      33.079  23.652  21.740  1.00  0.00    -0.165 F 
ATOM     20  F   UNL A   1      34.907  23.372  22.893  1.00  0.00    -0.165 F 
ATOM     21  F   UNL A   1      33.157  22.157  23.314  1.00  0.00    -0.165 F 
ENDBRANCH  13  18
ENDBRANCH   9  10
ENDBRANCH   8   9
ENDBRANCH   6   8
ENDBRANCH   3   6
ENDBRANCH   1   2
BRANCH   1  22
ATOM     22  C   UNL A   1      33.381  28.954  23.302  1.00  0.00     0.042 C 
BRANCH  22  23
ATOM     23  C   UNL A   1      34.011  29.400  24.604  1.00  0.00     0.118 C 
BRANCH  23  24
ATOM     24  N   UNL A   1      33.136  30.262  25.394  1.00  0.00    -0.352 N 
ATOM     25  C   UNL A   1      33.245  30.779  26.662  1.00  0.00     0.251 C 
ATOM     26  H   UNL A   1      32.310  30.522  24.928  1.00  0.00     0.163 HD
ATOM     27  O   UNL A   1      32.291  31.394  27.135  1.00  0.00    -0.269 OA
BRANCH  25  28
ATOM     28  C   UNL A   1      34.470  30.598  27.470  1.00  0.00     0.039 A 
ATOM     29  C   UNL A   1      35.347  31.675  27.631  1.00  0.00     0.014 A 
ATOM     30  C   UNL A   1      34.793  29.362  28.023  1.00  0.00     0.014 A 
ATOM     31  C   UNL A   1      36.516  31.516  28.384  1.00  0.00     0.010 A 
ATOM     32  C   UNL A   1      35.873  29.243  28.888  1.00  0.00     0.010 A 
ATOM     33  C   UNL A   1      36.772  30.305  29.043  1.00  0.00    -0.014 A 
BRANCH  33  34
ATOM     34  C   UNL A   1      38.015  30.075  29.826  1.00  0.00     0.031 A 
ATOM     35  C   UNL A   1      39.067  29.140  29.282  1.00  0.00     0.074 A 
ATOM     36  C   UNL A   1      38.165  30.639  31.041  1.00  0.00     0.049 A 
ATOM     37  N   UNL A   1      40.152  28.687  29.853  1.00  0.00    -0.248 NA
ATOM     38  C   UNL A   1      38.837  28.603  27.929  1.00  0.00     0.031 C 
ATOM     39  C   UNL A   1      37.200  31.532  31.686  1.00  0.00     0.029 A 
ATOM     40  N   UNL A   1      39.182  30.536  31.954  1.00  0.00    -0.354 N 
ATOM     41  C   UNL A   1      40.713  27.792  28.945  1.00  0.00     0.074 A 
ATOM     42  C   UNL A   1      39.803  27.705  27.826  1.00  0.00     0.031 C 
ATOM     43  C   UNL A   1      37.689  31.922  32.874  1.00  0.00     0.029 A 
ATOM     44  C   UNL A   1      38.972  31.265  33.102  1.00  0.00     0.049 A 
ATOM     45  H   UNL A   1      39.989  29.992  31.803  1.00  0.00     0.167 HD
ATOM     46  C   UNL A   1      41.895  27.133  29.021  1.00  0.00     0.034 A 
ATOM     47  C   UNL A   1      39.723  31.378  34.215  1.00  0.00     0.034 A 
ATOM     48  C   UNL A   1      42.804  27.264  30.130  1.00  0.00     0.049 A 
ATOM     49  C   UNL A   1      41.029  30.626  34.285  1.00  0.00     0.074 A 
ATOM     50  C   UNL A   1      44.053  26.692  30.295  1.00  0.00     0.029 A 
ATOM     51  N   UNL A   1      42.562  28.025  31.269  1.00  0.00    -0.354 N 
ATOM     52  N   UNL A   1      41.565  29.815  33.400  1.00  0.00    -0.248 NA
ATOM     53  C   UNL A   1      41.838  30.816  35.494  1.00  0.00     0.031 C 
ATOM     54  C   UNL A   1      44.533  27.046  31.560  1.00  0.00     0.029 A 
ATOM     55  C   UNL A   1      43.626  27.912  32.150  1.00  0.00     0.049 A 
ATOM     56  H   UNL A   1      41.754  28.563  31.426  1.00  0.00     0.167 HD
ATOM     57  C   UNL A   1      42.793  29.431  33.934  1.00  0.00     0.074 A 
ATOM     58  C   UNL A   1      42.921  30.110  35.206  1.00  0.00     0.031 C 
ATOM     59  C   UNL A   1      43.733  28.597  33.418  1.00  0.00     0.034 A 
BRANCH  46  60
ATOM     60  C   UNL A   1      42.251  26.204  27.882  1.00  0.00     0.023 A 
ATOM     61  C   UNL A   1      41.814  24.868  27.849  1.00  0.00     0.031 A 
ATOM     62  C   UNL A   1      43.071  26.649  26.830  1.00  0.00     0.131 A 
ATOM     63  C   UNL A   1      42.268  24.003  26.842  1.00  0.00     0.055 A 
ATOM     64  C   UNL A   1      43.443  25.808  25.778  1.00  0.00     0.041 A 
ATOM     65  F   UNL A   1      43.543  27.906  26.814  1.00  0.00    -0.206 F 
ATOM     66  C   UNL A   1      43.056  24.471  25.790  1.00  0.00     0.022 A 
BRANCH  63  67
ATOM     67  S   UNL A   1      41.951  22.227  27.021  1.00  0.00     0.124 S 
ATOM     68  O   UNL A   1      42.374  21.721  25.717  1.00  0.00    -0.237 OA
ATOM     69  O   UNL A   1      42.797  21.867  28.152  1.00  0.00    -0.237 OA
ATOM     70  O   UNL A   1      40.512  22.158  27.270  1.00  0.00    -0.744 OA
ENDBRANCH  63  67
ENDBRANCH  46  60
BRANCH  47  71
ATOM     71  C   UNL A   1      39.270  32.231  35.351  1.00  0.00     0.023 A 
ATOM     72  C   UNL A   1      39.698  33.563  35.470  1.00  0.00     0.031 A 
ATOM     73  C   UNL A   1      38.435  31.718  36.361  1.00  0.00     0.131 A 
ATOM     74  C   UNL A   1      39.338  34.319  36.597  1.00  0.00     0.055 A 
ATOM     75  C   UNL A   1      38.031  32.491  37.450  1.00  0.00     0.041 A 
ATOM     76  F   UNL A   1      37.989  30.453  36.295  1.00  0.00    -0.206 F 
ATOM     77  C   UNL A   1      38.496  33.796  37.580  1.00  0.00     0.022 A 
BRANCH  74  78
ATOM     78  S   UNL A   1      40.068  35.965  36.807  1.00  0.00     0.124 S 
ATOM     79  O   UNL A   1      41.477  35.641  37.002  1.00  0.00    -0.237 OA
ATOM     80  O   UNL A   1      39.726  36.610  35.545  1.00  0.00    -0.237 OA
ATOM     81  O   UNL A   1      39.380  36.494  37.983  1.00  0.00    -0.744 OA
ENDBRANCH  74  78
ENDBRANCH  47  71
BRANCH  59  82
ATOM     82  C   UNL A   1      45.007  28.426  34.208  1.00  0.00     0.023 A 
ATOM     83  C   UNL A   1      45.158  27.407  35.164  1.00  0.00     0.031 A 
ATOM     84  C   UNL A   1      46.086  29.305  34.004  1.00  0.00     0.131 A 
ATOM     85  C   UNL A   1      46.334  27.331  35.925  1.00  0.00     0.055 A 
ATOM     86  C   UNL A   1      47.281  29.180  34.713  1.00  0.00     0.041 A 
ATOM     87  F   UNL A   1      45.998  30.298  33.106  1.00  0.00    -0.206 F 
ATOM     88  C   UNL A   1      47.405  28.198  35.691  1.00  0.00     0.022 A 
BRANCH  85  89
ATOM     89  S   UNL A   1      46.404  26.152  37.300  1.00  0.00     0.124 S 
ATOM     90  O   UNL A   1      46.036  26.991  38.436  1.00  0.00    -0.237 OA
ATOM     91  O   UNL A   1      45.421  25.150  36.903  1.00  0.00    -0.237 OA
ATOM     92  O   UNL A   1      47.792  25.696  37.290  1.00  0.00    -0.744 OA
ENDBRANCH  85  89
ENDBRANCH  59  82
ENDBRANCH  33  34
ENDBRANCH  25  28
ENDBRANCH  23  24
ENDBRANCH  22  23
ENDBRANCH   1  22
TORSDOF 18
ENDMDL
MODEL 2
REMARK VINA RESULT:     -10.9      5.269      7.559
REMARK SMILES C[C@@H](CSc1nc(C(F)(F)F)ccc1C#N)C(=O)NCCCNC(=O)c1ccc(-c2c3nc(c(-c4cc(S(=O)(=O)[O-])ccc4F)c4ccc([nH]4)c(-c4cc(S(=O)(=O)[O-])ccc4F)c4nc(c(-c5cc(S(=O)(=O)[O-])ccc5F)c5ccc2[nH]5)C=C4)C=C3)cc1
REMARK SMILES IDX 20 1 19 2 17 3 18 4 2 6 1 7 3 8 4 9 5 10 6 11 14 12 7 13
REMARK SMILES IDX 13 14 12 15 15 16 16 17 8 18 9 19 10 20 11 21 21 22 22 23
REMARK SMILES IDX 23 24 24 25 25 27 26 28 27 29 88 30 28 31 87 32 29 33 30 34
REMARK SMILES IDX 31 35 81 36 32 37 86 38 80 39 82 40 33 41 85 42 79 43 78 44
REMARK SMILES IDX 34 46 66 47 46 48 65 49 47 50 50 51 64 52 83 53 48 54 49 55
REMARK SMILES IDX 63 57 84 58 51 59 35 60 36 61 44 62 37 63 43 64 45 65 42 66
REMARK SMILES IDX 38 67 39 68 40 69 41 70 67 71 68 72 76 73 69 74 75 75 77 76
REMARK SMILES IDX 74 77 70 78 71 79 72 80 73 81 52 82 53 83 61 84 54 85 60 86
REMARK SMILES IDX 62 87 59 88 55 89 56 90 57 91 58 92
REMARK H PARENT 19 5 23 26 82 45 50 56
REMARK Flexibility Score: inf
ROOT
ATOM      1  C   UNL A   1      35.615  23.579  23.933  1.00  0.00     0.117 C 
ENDROOT
BRANCH   1   2
ATOM      2  N   UNL A   1      34.898  24.192  25.018  1.00  0.00    -0.356 N 
ATOM      3  C   UNL A   1      33.620  23.949  25.418  1.00  0.00     0.223 C 
ATOM      4  O   UNL A   1      33.262  24.436  26.494  1.00  0.00    -0.275 OA
ATOM      5  H   UNL A   1      35.391  24.870  25.533  1.00  0.00     0.163 HD
BRANCH   3   6
ATOM      6  C   UNL A   1      32.623  23.157  24.563  1.00  0.00     0.085 C 
ATOM      7  C   UNL A   1      32.806  21.649  24.684  1.00  0.00     0.019 C 
BRANCH   6   8
ATOM      8  C   UNL A   1      31.174  23.688  24.467  1.00  0.00     0.089 C 
BRANCH   8   9
ATOM      9  S   UNL A   1      30.597  25.197  23.576  1.00  0.00    -0.104 SA
BRANCH   9  10
ATOM     10  C   UNL A   1      31.727  26.490  24.094  1.00  0.00     0.115 A 
ATOM     11  N   UNL A   1      31.483  27.061  25.297  1.00  0.00    -0.236 NA
ATOM     12  C   UNL A   1      32.840  26.835  23.317  1.00  0.00     0.084 A 
ATOM     13  C   UNL A   1      32.390  27.961  25.794  1.00  0.00     0.145 A 
ATOM     14  C   UNL A   1      33.787  27.709  23.859  1.00  0.00     0.024 A 
ATOM     15  C   UNL A   1      33.566  28.270  25.113  1.00  0.00     0.035 A 
BRANCH  12  16
ATOM     16  C   UNL A   1      33.073  26.281  22.019  1.00  0.00     0.102 C 
ATOM     17  N   UNL A   1      33.278  25.820  20.974  1.00  0.00    -0.192 NA
ENDBRANCH  12  16
BRANCH  13  18
ATOM     18  C   UNL A   1      32.092  28.637  27.128  1.00  0.00     0.433 C 
ATOM     19  F   UNL A   1      31.027  28.081  27.773  1.00  0.00    -0.165 F 
ATOM     20  F   UNL A   1      33.137  28.576  28.001  1.00  0.00    -0.165 F 
ATOM     21  F   UNL A   1      31.794  29.964  27.008  1.00  0.00    -0.165 F 
ENDBRANCH  13  18
ENDBRANCH   9  10
ENDBRANCH   8   9
ENDBRANCH   6   8
ENDBRANCH   3   6
ENDBRANCH   1   2
BRANCH   1  22
ATOM     22  C   UNL A   1      36.494  22.410  24.320  1.00  0.00     0.042 C 
BRANCH  22  23
ATOM     23  C   UNL A   1      36.827  22.371  25.797  1.00  0.00     0.118 C 
BRANCH  23  24
ATOM     24  N   UNL A   1      37.991  21.543  26.096  1.00  0.00    -0.352 N 
ATOM     25  C   UNL A   1      39.267  21.850  26.502  1.00  0.00     0.251 C 
ATOM     26  H   UNL A   1      37.831  20.578  25.986  1.00  0.00     0.163 HD
ATOM     27  O   UNL A   1      40.101  20.949  26.573  1.00  0.00    -0.269 OA
BRANCH  25  28
ATOM     28  C   UNL A   1      39.660  23.236  26.838  1.00  0.00     0.039 A 
ATOM     29  C   UNL A   1      39.337  24.271  25.954  1.00  0.00     0.014 A 
ATOM     30  C   UNL A   1      40.395  23.520  27.986  1.00  0.00     0.014 A 
ATOM     31  C   UNL A   1      39.712  25.585  26.252  1.00  0.00     0.010 A 
ATOM     32  C   UNL A   1      40.638  24.836  28.353  1.00  0.00     0.010 A 
ATOM     33  C   UNL A   1      40.340  25.881  27.470  1.00  0.00    -0.014 A 
BRANCH  33  34
ATOM     34  C   UNL A   1      40.788  27.255  27.819  1.00  0.00     0.031 A 
ATOM     35  C   UNL A   1      42.229  27.642  27.589  1.00  0.00     0.074 A 
ATOM     36  C   UNL A   1      39.934  28.119  28.401  1.00  0.00     0.049 A 
ATOM     37  N   UNL A   1      42.865  28.727  27.945  1.00  0.00    -0.248 NA
ATOM     38  C   UNL A   1      43.079  26.649  26.909  1.00  0.00     0.031 C 
ATOM     39  C   UNL A   1      38.528  27.846  28.706  1.00  0.00     0.029 A 
ATOM     40  N   UNL A   1      40.126  29.401  28.851  1.00  0.00    -0.354 N 
ATOM     41  C   UNL A   1      44.190  28.532  27.563  1.00  0.00     0.074 A 
ATOM     42  C   UNL A   1      44.279  27.193  27.026  1.00  0.00     0.031 C 
ATOM     43  C   UNL A   1      37.978  28.939  29.259  1.00  0.00     0.029 A 
ATOM     44  C   UNL A   1      39.002  29.969  29.402  1.00  0.00     0.049 A 
ATOM     45  H   UNL A   1      40.990  29.871  28.784  1.00  0.00     0.167 HD
ATOM     46  C   UNL A   1      45.228  29.401  27.620  1.00  0.00     0.034 A 
ATOM     47  C   UNL A   1      38.822  31.179  29.969  1.00  0.00     0.034 A 
ATOM     48  C   UNL A   1      45.108  30.745  28.125  1.00  0.00     0.049 A 
ATOM     49  C   UNL A   1      39.994  32.127  30.033  1.00  0.00     0.074 A 
ATOM     50  C   UNL A   1      46.072  31.735  28.182  1.00  0.00     0.029 A 
ATOM     51  N   UNL A   1      43.946  31.290  28.661  1.00  0.00    -0.354 N 
ATOM     52  N   UNL A   1      41.231  31.942  29.631  1.00  0.00    -0.248 NA
ATOM     53  C   UNL A   1      39.741  33.451  30.614  1.00  0.00     0.031 C 
ATOM     54  C   UNL A   1      45.517  32.851  28.817  1.00  0.00     0.029 A 
ATOM     55  C   UNL A   1      44.181  32.591  29.076  1.00  0.00     0.049 A 
ATOM     56  H   UNL A   1      43.085  30.820  28.736  1.00  0.00     0.167 HD
ATOM     57  C   UNL A   1      41.892  33.143  29.876  1.00  0.00     0.074 A 
ATOM     58  C   UNL A   1      40.913  34.045  30.447  1.00  0.00     0.031 C 
ATOM     59  C   UNL A   1      43.189  33.475  29.646  1.00  0.00     0.034 A 
BRANCH  46  60
ATOM     60  C   UNL A   1      46.576  28.911  27.141  1.00  0.00     0.023 A 
ATOM     61  C   UNL A   1      46.833  28.654  25.783  1.00  0.00     0.031 A 
ATOM     62  C   UNL A   1      47.611  28.661  28.061  1.00  0.00     0.131 A 
ATOM     63  C   UNL A   1      48.053  28.082  25.393  1.00  0.00     0.055 A 
ATOM     64  C   UNL A   1      48.858  28.181  27.654  1.00  0.00     0.041 A 
ATOM     65  F   UNL A   1      47.424  28.863  29.374  1.00  0.00    -0.206 F 
ATOM     66  C   UNL A   1      49.079  27.870  26.316  1.00  0.00     0.022 A 
BRANCH  63  67
ATOM     67  S   UNL A   1      48.215  27.465  23.695  1.00  0.00     0.124 S 
ATOM     68  O   UNL A   1      47.974  26.036  23.878  1.00  0.00    -0.237 OA
ATOM     69  O   UNL A   1      47.174  28.204  22.991  1.00  0.00    -0.237 OA
ATOM     70  O   UNL A   1      49.586  27.817  23.332  1.00  0.00    -0.744 OA
ENDBRANCH  63  67
ENDBRANCH  46  60
BRANCH  47  71
ATOM     71  C   UNL A   1      37.491  31.568  30.517  1.00  0.00     0.023 A 
ATOM     72  C   UNL A   1      36.554  32.248  29.723  1.00  0.00     0.031 A 
ATOM     73  C   UNL A   1      37.149  31.305  31.856  1.00  0.00     0.131 A 
ATOM     74  C   UNL A   1      35.346  32.691  30.286  1.00  0.00     0.055 A 
ATOM     75  C   UNL A   1      35.922  31.695  32.396  1.00  0.00     0.041 A 
ATOM     76  F   UNL A   1      38.003  30.651  32.659  1.00  0.00    -0.206 F 
ATOM     77  C   UNL A   1      35.018  32.406  31.613  1.00  0.00     0.022 A 
BRANCH  74  78
ATOM     78  S   UNL A   1      34.251  33.731  29.283  1.00  0.00     0.124 S 
ATOM     79  O   UNL A   1      33.662  32.753  28.376  1.00  0.00    -0.237 OA
ATOM     80  O   UNL A   1      33.358  34.290  30.293  1.00  0.00    -0.237 OA
ATOM     81  O   UNL A   1      35.165  34.688  28.663  1.00  0.00    -0.744 OA
ENDBRANCH  74  78
ENDBRANCH  47  71
BRANCH  59  82
ATOM     82  C   UNL A   1      43.602  34.892  29.958  1.00  0.00     0.023 A 
ATOM     83  C   UNL A   1      43.491  35.924  29.012  1.00  0.00     0.031 A 
ATOM     84  C   UNL A   1      44.124  35.211  31.226  1.00  0.00     0.131 A 
ATOM     85  C   UNL A   1      43.955  37.211  29.324  1.00  0.00     0.055 A 
ATOM     86  C   UNL A   1      44.516  36.508  31.555  1.00  0.00     0.041 A 
ATOM     87  F   UNL A   1      44.255  34.264  32.168  1.00  0.00    -0.206 F 
ATOM     88  C   UNL A   1      44.447  37.515  30.596  1.00  0.00     0.022 A 
BRANCH  85  89
ATOM     89  S   UNL A   1      44.007  38.458  28.009  1.00  0.00     0.124 S 
ATOM     90  O   UNL A   1      45.440  38.699  27.876  1.00  0.00    -0.237 OA
ATOM     91  O   UNL A   1      43.371  37.765  26.895  1.00  0.00    -0.237 OA
ATOM     92  O   UNL A   1      43.240  39.573  28.563  1.00  0.00    -0.744 OA
ENDBRANCH  85  89
ENDBRANCH  59  82
ENDBRANCH  33  34
ENDBRANCH  25  28
ENDBRANCH  23  24
ENDBRANCH  22  23
ENDBRANCH   1  22
TORSDOF 18
ENDMDL
MODEL 3
REMARK VINA RESULT:     -10.8      2.435      3.262
REMARK SMILES C[C@@H](CSc1nc(C(F)(F)F)ccc1C#N)C(=O)NCCCNC(=O)c1ccc(-c2c3nc(c(-c4cc(S(=O)(=O)[O-])ccc4F)c4ccc([nH]4)c(-c4cc(S(=O)(=O)[O-])ccc4F)c4nc(c(-c5cc(S(=O)(=O)[O-])ccc5F)c5ccc2[nH]5)C=C4)C=C3)cc1
REMARK SMILES IDX 20 1 19 2 17 3 18 4 2 6 1 7 3 8 4 9 5 10 6 11 14 12 7 13
REMARK SMILES IDX 13 14 12 15 15 16 16 17 8 18 9 19 10 20 11 21 21 22 22 23
REMARK SMILES IDX 23 24 24 25 25 27 26 28 27 29 88 30 28 31 87 32 29 33 30 34
REMARK SMILES IDX 31 35 81 36 32 37 86 38 80 39 82 40 33 41 85 42 79 43 78 44
REMARK SMILES IDX 34 46 66 47 46 48 65 49 47 50 50 51 64 52 83 53 48 54 49 55
REMARK SMILES IDX 63 57 84 58 51 59 35 60 36 61 44 62 37 63 43 64 45 65 42 66
REMARK SMILES IDX 38 67 39 68 40 69 41 70 67 71 68 72 76 73 69 74 75 75 77 76
REMARK SMILES IDX 74 77 70 78 71 79 72 80 73 81 52 82 53 83 61 84 54 85 60 86
REMARK SMILES IDX 62 87 59 88 55 89 56 90 57 91 58 92
REMARK H PARENT 19 5 23 26 82 45 50 56
REMARK Flexibility Score: inf
ROOT
ATOM      1  C   UNL A   1      31.705  30.113  26.259  1.00  0.00     0.117 C 
ENDROOT
BRANCH   1   2
ATOM      2  N   UNL A   1      32.376  29.784  25.031  1.00  0.00    -0.356 N 
ATOM      3  C   UNL A   1      31.946  28.957  24.039  1.00  0.00     0.223 C 
ATOM      4  O   UNL A   1      32.581  28.968  22.980  1.00  0.00    -0.275 OA
ATOM      5  H   UNL A   1      33.253  30.208  24.892  1.00  0.00     0.163 HD
BRANCH   3   6
ATOM      6  C   UNL A   1      30.763  27.998  24.217  1.00  0.00     0.085 C 
ATOM      7  C   UNL A   1      29.743  28.100  23.089  1.00  0.00     0.019 C 
BRANCH   6   8
ATOM      8  C   UNL A   1      31.056  26.589  24.780  1.00  0.00     0.089 C 
BRANCH   8   9
ATOM      9  S   UNL A   1      30.864  24.977  23.905  1.00  0.00    -0.104 SA
BRANCH   9  10
ATOM     10  C   UNL A   1      32.444  24.153  24.118  1.00  0.00     0.115 A 
ATOM     11  N   UNL A   1      32.534  23.272  25.141  1.00  0.00    -0.236 NA
ATOM     12  C   UNL A   1      33.500  24.368  23.224  1.00  0.00     0.084 A 
ATOM     13  C   UNL A   1      33.675  22.522  25.265  1.00  0.00     0.145 A 
ATOM     14  C   UNL A   1      34.635  23.558  23.325  1.00  0.00     0.024 A 
ATOM     15  C   UNL A   1      34.720  22.620  24.349  1.00  0.00     0.035 A 
BRANCH  12  16
ATOM     16  C   UNL A   1      33.436  25.341  22.176  1.00  0.00     0.102 C 
ATOM     17  N   UNL A   1      33.364  26.133  21.332  1.00  0.00    -0.192 NA
ENDBRANCH  12  16
BRANCH  13  18
ATOM     18  C   UNL A   1      33.794  21.562  26.444  1.00  0.00     0.433 C 
ATOM     19  F   UNL A   1      35.080  21.409  26.870  1.00  0.00    -0.165 F 
ATOM     20  F   UNL A   1      33.080  21.964  27.533  1.00  0.00    -0.165 F 
ATOM     21  F   UNL A   1      33.351  20.302  26.162  1.00  0.00    -0.165 F 
ENDBRANCH  13  18
ENDBRANCH   9  10
ENDBRANCH   8   9
ENDBRANCH   6   8
ENDBRANCH   3   6
ENDBRANCH   1   2
BRANCH   1  22
ATOM     22  C   UNL A   1      31.566  31.592  26.542  1.00  0.00     0.042 C 
BRANCH  22  23
ATOM     23  C   UNL A   1      32.849  32.235  27.025  1.00  0.00     0.118 C 
BRANCH  23  24
ATOM     24  N   UNL A   1      32.654  33.597  27.515  1.00  0.00    -0.352 N 
ATOM     25  C   UNL A   1      33.263  34.318  28.513  1.00  0.00     0.251 C 
ATOM     26  H   UNL A   1      31.951  34.093  27.039  1.00  0.00     0.163 HD
ATOM     27  O   UNL A   1      32.819  35.428  28.798  1.00  0.00    -0.269 OA
BRANCH  25  28
ATOM     28  C   UNL A   1      34.424  33.783  29.256  1.00  0.00     0.039 A 
ATOM     29  C   UNL A   1      35.701  34.284  28.983  1.00  0.00     0.014 A 
ATOM     30  C   UNL A   1      34.276  32.752  30.180  1.00  0.00     0.014 A 
ATOM     31  C   UNL A   1      36.810  33.780  29.671  1.00  0.00     0.010 A 
ATOM     32  C   UNL A   1      35.351  32.355  30.964  1.00  0.00     0.010 A 
ATOM     33  C   UNL A   1      36.639  32.832  30.689  1.00  0.00    -0.014 A 
BRANCH  33  34
ATOM     34  C   UNL A   1      37.787  32.240  31.425  1.00  0.00     0.031 A 
ATOM     35  C   UNL A   1      38.593  31.142  30.776  1.00  0.00     0.074 A 
ATOM     36  C   UNL A   1      38.057  32.632  32.686  1.00  0.00     0.049 A 
ATOM     37  N   UNL A   1      39.538  30.394  31.283  1.00  0.00    -0.248 NA
ATOM     38  C   UNL A   1      38.253  30.809  29.381  1.00  0.00     0.031 C 
ATOM     39  C   UNL A   1      37.326  33.659  33.430  1.00  0.00     0.029 A 
ATOM     40  N   UNL A   1      39.016  32.204  33.568  1.00  0.00    -0.354 N 
ATOM     41  C   UNL A   1      39.879  29.486  30.283  1.00  0.00     0.074 A 
ATOM     42  C   UNL A   1      38.981  29.725  29.176  1.00  0.00     0.031 C 
ATOM     43  C   UNL A   1      37.885  33.805  34.642  1.00  0.00     0.029 A 
ATOM     44  C   UNL A   1      38.975  32.846  34.784  1.00  0.00     0.049 A 
ATOM     45  H   UNL A   1      39.673  31.503  33.351  1.00  0.00     0.167 HD
ATOM     46  C   UNL A   1      40.871  28.563  30.275  1.00  0.00     0.034 A 
ATOM     47  C   UNL A   1      39.724  32.670  35.891  1.00  0.00     0.034 A 
ATOM     48  C   UNL A   1      41.779  28.368  31.377  1.00  0.00     0.049 A 
ATOM     49  C   UNL A   1      40.817  31.629  35.865  1.00  0.00     0.074 A 
ATOM     50  C   UNL A   1      42.857  27.506  31.465  1.00  0.00     0.029 A 
ATOM     51  N   UNL A   1      41.715  29.049  32.587  1.00  0.00    -0.354 N 
ATOM     52  N   UNL A   1      41.152  30.806  34.898  1.00  0.00    -0.248 NA
ATOM     53  C   UNL A   1      41.639  31.505  37.074  1.00  0.00     0.031 C 
ATOM     54  C   UNL A   1      43.399  27.612  32.750  1.00  0.00     0.029 A 
ATOM     55  C   UNL A   1      42.717  28.604  33.436  1.00  0.00     0.049 A 
ATOM     56  H   UNL A   1      41.055  29.745  32.809  1.00  0.00     0.167 HD
ATOM     57  C   UNL A   1      42.252  30.094  35.371  1.00  0.00     0.074 A 
ATOM     58  C   UNL A   1      42.527  30.596  36.702  1.00  0.00     0.031 C 
ATOM     59  C   UNL A   1      42.974  29.117  34.762  1.00  0.00     0.034 A 
BRANCH  46  60
ATOM     60  C   UNL A   1      41.007  27.693  29.046  1.00  0.00     0.023 A 
ATOM     61  C   UNL A   1      42.003  27.922  28.080  1.00  0.00     0.031 A 
ATOM     62  C   UNL A   1      40.102  26.641  28.815  1.00  0.00     0.131 A 
ATOM     63  C   UNL A   1      42.018  27.174  26.893  1.00  0.00     0.055 A 
ATOM     64  C   UNL A   1      40.182  25.837  27.675  1.00  0.00     0.041 A 
ATOM     65  F   UNL A   1      39.113  26.385  29.686  1.00  0.00    -0.206 F 
ATOM     66  C   UNL A   1      41.132  26.113  26.697  1.00  0.00     0.022 A 
BRANCH  63  67
ATOM     67  S   UNL A   1      43.101  27.716  25.544  1.00  0.00     0.124 S 
ATOM     68  O   UNL A   1      44.045  28.577  26.253  1.00  0.00    -0.237 OA
ATOM     69  O   UNL A   1      43.636  26.456  25.043  1.00  0.00    -0.237 OA
ATOM     70  O   UNL A   1      42.194  28.414  24.635  1.00  0.00    -0.744 OA
ENDBRANCH  63  67
ENDBRANCH  46  60
BRANCH  47  71
ATOM     71  C   UNL A   1      39.477  33.490  37.112  1.00  0.00     0.023 A 
ATOM     72  C   UNL A   1      40.172  34.691  37.327  1.00  0.00     0.031 A 
ATOM     73  C   UNL A   1      38.573  33.067  38.103  1.00  0.00     0.131 A 
ATOM     74  C   UNL A   1      39.995  35.398  38.528  1.00  0.00     0.055 A 
ATOM     75  C   UNL A   1      38.357  33.804  39.268  1.00  0.00     0.041 A 
ATOM     76  F   UNL A   1      37.876  31.931  37.946  1.00  0.00    -0.206 F 
ATOM     77  C   UNL A   1      39.082  34.970  39.493  1.00  0.00     0.022 A 
BRANCH  74  78
ATOM     78  S   UNL A   1      41.051  36.836  38.851  1.00  0.00     0.124 S 
ATOM     79  O   UNL A   1      40.063  37.885  39.071  1.00  0.00    -0.237 OA
ATOM     80  O   UNL A   1      41.800  36.402  40.025  1.00  0.00    -0.237 OA
ATOM     81  O   UNL A   1      41.837  36.963  37.625  1.00  0.00    -0.744 OA
ENDBRANCH  74  78
ENDBRANCH  47  71
BRANCH  59  82
ATOM     82  C   UNL A   1      44.166  28.575  35.511  1.00  0.00     0.023 A 
ATOM     83  C   UNL A   1      44.046  27.533  36.446  1.00  0.00     0.031 A 
ATOM     84  C   UNL A   1      45.444  29.119  35.288  1.00  0.00     0.131 A 
ATOM     85  C   UNL A   1      45.171  27.111  37.169  1.00  0.00     0.055 A 
ATOM     86  C   UNL A   1      46.572  28.645  35.958  1.00  0.00     0.041 A 
ATOM     87  F   UNL A   1      45.618  30.118  34.408  1.00  0.00    -0.206 F 
ATOM     88  C   UNL A   1      46.437  27.646  36.917  1.00  0.00     0.022 A 
BRANCH  85  89
ATOM     89  S   UNL A   1      44.938  25.928  38.524  1.00  0.00     0.124 S 
ATOM     90  O   UNL A   1      44.507  24.731  37.810  1.00  0.00    -0.237 OA
ATOM     91  O   UNL A   1      46.269  25.870  39.120  1.00  0.00    -0.237 OA
ATOM     92  O   UNL A   1      43.914  26.557  39.356  1.00  0.00    -0.744 OA
ENDBRANCH  85  89
ENDBRANCH  59  82
ENDBRANCH  33  34
ENDBRANCH  25  28
ENDBRANCH  23  24
ENDBRANCH  22  23
ENDBRANCH   1  22
TORSDOF 18
ENDMDL
