MODEL 1
REMARK VINA RESULT:     -12.4      0.000      0.000
REMARK SMILES Cc1ccc(NC(=O)N[C@@H](C(=O)NCCCNC(=O)c2ccc(-c3c4nc(c(-c5cc(S(=O)(=O)[O-])ccc5F)c5ccc([nH]5)c(-c5cc(S(=O)(=O)[O-])ccc5F)c5nc(c(-c6cc(S(=O)(=O)[O-])ccc6F)c6ccc3[nH]6)C=C5)C=C4)cc2)C(C)C)cc1
REMARK SMILES IDX 15 1 14 2 13 3 11 4 12 5 10 7 9 8 6 9 7 10 8 12 5 14 1 15
REMARK SMILES IDX 2 16 3 17 87 18 4 19 86 20 83 21 84 22 85 23 16 24 17 25
REMARK SMILES IDX 18 26 19 28 20 29 21 30 82 31 22 32 81 33 23 34 24 35 25 36
REMARK SMILES IDX 75 37 26 38 80 39 74 40 76 41 27 42 79 43 73 44 72 45 28 47
REMARK SMILES IDX 60 48 40 49 59 50 41 51 44 52 58 53 77 54 42 55 43 56 57 58
REMARK SMILES IDX 78 59 45 60 29 61 30 62 38 63 31 64 37 65 39 66 36 67 32 68
REMARK SMILES IDX 33 69 34 70 35 71 61 72 62 73 70 74 63 75 69 76 71 77 68 78
REMARK SMILES IDX 64 79 65 80 66 81 67 82 46 83 47 84 55 85 48 86 54 87 56 88
REMARK SMILES IDX 53 89 49 90 50 91 51 92 52 93
REMARK H PARENT 13 6 6 11 9 13 17 27 76 46 44 57
REMARK Flexibility Score: inf
ROOT
ATOM      1  C   UNL A   1      33.250  30.506  26.601  1.00  0.00     0.042 C 
ENDROOT
BRANCH   1   2
ATOM      2  C   UNL A   1      32.501  29.336  25.981  1.00  0.00     0.117 C 
BRANCH   2   3
ATOM      3  N   UNL A   1      31.881  29.658  24.695  1.00  0.00    -0.354 N 
ATOM      4  C   UNL A   1      31.582  28.878  23.607  1.00  0.00     0.242 C 
ATOM      5  O   UNL A   1      30.961  29.415  22.684  1.00  0.00    -0.273 OA
ATOM      6  H   UNL A   1      31.633  30.604  24.592  1.00  0.00     0.163 HD
BRANCH   4   7
ATOM      7  C   UNL A   1      31.910  27.356  23.581  1.00  0.00     0.175 C 
BRANCH   7   8
ATOM      8  N   UNL A   1      32.391  27.007  22.255  1.00  0.00    -0.326 N 
ATOM      9  N   UNL A   1      33.397  24.835  22.362  1.00  0.00    -0.308 N 
ATOM     10  C   UNL A   1      33.022  25.957  21.732  1.00  0.00     0.319 C 
ATOM     11  H   UNL A   1      33.655  24.155  21.698  1.00  0.00     0.171 HD
ATOM     12  O   UNL A   1      33.209  25.997  20.508  1.00  0.00    -0.248 OA
ATOM     13  H   UNL A   1      32.209  27.709  21.590  1.00  0.00     0.166 HD
BRANCH   9  14
ATOM     14  C   UNL A   1      33.546  24.308  23.661  1.00  0.00     0.042 A 
ATOM     15  C   UNL A   1      33.437  22.707  27.681  1.00  0.00     0.044 C 
ATOM     16  C   UNL A   1      33.518  23.179  26.265  1.00  0.00    -0.051 A 
ATOM     17  C   UNL A   1      34.483  24.110  25.903  1.00  0.00     0.005 A 
ATOM     18  C   UNL A   1      32.614  22.746  25.293  1.00  0.00     0.005 A 
ATOM     19  C   UNL A   1      34.510  24.635  24.610  1.00  0.00     0.026 A 
ATOM     20  C   UNL A   1      32.642  23.294  24.004  1.00  0.00     0.026 A 
ENDBRANCH   9  14
ENDBRANCH   7   8
BRANCH   7  21
ATOM     21  C   UNL A   1      30.719  26.469  24.050  1.00  0.00     0.015 C 
ATOM     22  C   UNL A   1      30.694  26.242  25.566  1.00  0.00     0.010 C 
ATOM     23  C   UNL A   1      29.392  27.136  23.645  1.00  0.00     0.010 C 
ENDBRANCH   7  21
ENDBRANCH   4   7
ENDBRANCH   2   3
ENDBRANCH   1   2
BRANCH   1  24
ATOM     24  C   UNL A   1      33.933  30.105  27.895  1.00  0.00     0.118 C 
BRANCH  24  25
ATOM     25  N   UNL A   1      34.771  31.135  28.501  1.00  0.00    -0.352 N 
ATOM     26  C   UNL A   1      35.984  30.986  29.150  1.00  0.00     0.251 C 
ATOM     27  H   UNL A   1      34.429  32.057  28.441  1.00  0.00     0.163 HD
ATOM     28  O   UNL A   1      36.524  31.923  29.734  1.00  0.00    -0.269 OA
BRANCH  26  29
ATOM     29  C   UNL A   1      36.713  29.703  28.994  1.00  0.00     0.039 A 
ATOM     30  C   UNL A   1      37.112  29.057  30.170  1.00  0.00     0.014 A 
ATOM     31  C   UNL A   1      37.264  29.343  27.769  1.00  0.00     0.014 A 
ATOM     32  C   UNL A   1      38.246  28.252  30.150  1.00  0.00     0.010 A 
ATOM     33  C   UNL A   1      38.458  28.651  27.769  1.00  0.00     0.010 A 
ATOM     34  C   UNL A   1      38.981  28.158  28.968  1.00  0.00    -0.014 A 
BRANCH  34  35
ATOM     35  C   UNL A   1      40.357  27.679  28.931  1.00  0.00     0.031 A 
ATOM     36  C   UNL A   1      40.659  26.305  28.496  1.00  0.00     0.074 A 
ATOM     37  C   UNL A   1      41.376  28.495  29.281  1.00  0.00     0.049 A 
ATOM     38  N   UNL A   1      41.637  25.597  28.953  1.00  0.00    -0.248 NA
ATOM     39  C   UNL A   1      39.844  25.601  27.515  1.00  0.00     0.031 C 
ATOM     40  C   UNL A   1      42.806  28.247  29.125  1.00  0.00     0.029 A 
ATOM     41  N   UNL A   1      41.309  29.633  30.078  1.00  0.00    -0.354 N 
ATOM     42  C   UNL A   1      41.768  24.502  28.130  1.00  0.00     0.074 A 
ATOM     43  C   UNL A   1      40.582  24.508  27.305  1.00  0.00     0.031 C 
ATOM     44  C   UNL A   1      43.477  29.020  29.991  1.00  0.00     0.029 A 
ATOM     45  C   UNL A   1      42.500  29.704  30.818  1.00  0.00     0.049 A 
ATOM     46  H   UNL A   1      40.561  30.273  30.116  1.00  0.00     0.167 HD
ATOM     47  C   UNL A   1      42.938  23.801  28.115  1.00  0.00     0.034 A 
ATOM     48  C   UNL A   1      42.475  29.706  32.183  1.00  0.00     0.034 A 
ATOM     49  C   UNL A   1      43.915  24.354  29.054  1.00  0.00     0.049 A 
ATOM     50  C   UNL A   1      43.177  28.514  32.796  1.00  0.00     0.074 A 
ATOM     51  C   UNL A   1      45.019  25.172  28.876  1.00  0.00     0.029 A 
ATOM     52  N   UNL A   1      43.668  24.324  30.422  1.00  0.00    -0.354 N 
ATOM     53  N   UNL A   1      43.532  27.451  32.128  1.00  0.00    -0.248 NA
ATOM     54  C   UNL A   1      43.512  28.415  34.213  1.00  0.00     0.031 C 
ATOM     55  C   UNL A   1      45.401  25.679  30.143  1.00  0.00     0.029 A 
ATOM     56  C   UNL A   1      44.549  25.150  31.096  1.00  0.00     0.049 A 
ATOM     57  H   UNL A   1      42.961  23.788  30.852  1.00  0.00     0.167 HD
ATOM     58  C   UNL A   1      44.088  26.530  32.982  1.00  0.00     0.074 A 
ATOM     59  C   UNL A   1      44.083  27.198  34.271  1.00  0.00     0.031 C 
ATOM     60  C   UNL A   1      44.486  25.294  32.546  1.00  0.00     0.034 A 
BRANCH  47  61
ATOM     61  C   UNL A   1      43.306  22.846  26.998  1.00  0.00     0.023 A 
ATOM     62  C   UNL A   1      42.785  21.536  27.006  1.00  0.00     0.031 A 
ATOM     63  C   UNL A   1      44.189  23.135  25.940  1.00  0.00     0.131 A 
ATOM     64  C   UNL A   1      43.233  20.561  26.097  1.00  0.00     0.055 A 
ATOM     65  C   UNL A   1      44.690  22.151  25.077  1.00  0.00     0.041 A 
ATOM     66  F   UNL A   1      44.565  24.393  25.665  1.00  0.00    -0.206 F 
ATOM     67  C   UNL A   1      44.226  20.848  25.165  1.00  0.00     0.022 A 
BRANCH  64  68
ATOM     68  S   UNL A   1      42.486  18.910  26.141  1.00  0.00     0.124 S 
ATOM     69  O   UNL A   1      43.332  18.160  25.219  1.00  0.00    -0.237 OA
ATOM     70  O   UNL A   1      42.598  18.559  27.553  1.00  0.00    -0.237 OA
ATOM     71  O   UNL A   1      41.119  19.144  25.674  1.00  0.00    -0.744 OA
ENDBRANCH  64  68
ENDBRANCH  47  61
BRANCH  48  72
ATOM     72  C   UNL A   1      41.275  30.400  32.735  1.00  0.00     0.023 A 
ATOM     73  C   UNL A   1      41.176  31.790  32.490  1.00  0.00     0.031 A 
ATOM     74  C   UNL A   1      40.107  29.712  33.082  1.00  0.00     0.131 A 
ATOM     75  C   UNL A   1      39.920  32.406  32.404  1.00  0.00     0.055 A 
ATOM     76  C   UNL A   1      38.860  30.352  33.078  1.00  0.00     0.041 A 
ATOM     77  F   UNL A   1      40.131  28.388  33.299  1.00  0.00    -0.206 F 
ATOM     78  C   UNL A   1      38.757  31.690  32.687  1.00  0.00     0.022 A 
BRANCH  75  79
ATOM     79  S   UNL A   1      39.804  34.056  31.641  1.00  0.00     0.124 S 
ATOM     80  O   UNL A   1      41.062  34.669  32.050  1.00  0.00    -0.237 OA
ATOM     81  O   UNL A   1      39.678  33.757  30.215  1.00  0.00    -0.237 OA
ATOM     82  O   UNL A   1      38.595  34.622  32.234  1.00  0.00    -0.744 OA
ENDBRANCH  75  79
ENDBRANCH  48  72
BRANCH  60  83
ATOM     83  C   UNL A   1      44.939  24.138  33.419  1.00  0.00     0.023 A 
ATOM     84  C   UNL A   1      46.263  23.959  33.847  1.00  0.00     0.031 A 
ATOM     85  C   UNL A   1      44.009  23.189  33.913  1.00  0.00     0.131 A 
ATOM     86  C   UNL A   1      46.634  22.852  34.635  1.00  0.00     0.055 A 
ATOM     87  C   UNL A   1      44.364  22.137  34.763  1.00  0.00     0.041 A 
ATOM     88  F   UNL A   1      42.705  23.244  33.599  1.00  0.00    -0.206 F 
ATOM     89  C   UNL A   1      45.689  21.950  35.115  1.00  0.00     0.022 A 
BRANCH  86  90
ATOM     90  S   UNL A   1      48.396  22.580  34.958  1.00  0.00     0.124 S 
ATOM     91  O   UNL A   1      48.463  22.724  36.410  1.00  0.00    -0.237 OA
ATOM     92  O   UNL A   1      48.604  21.229  34.446  1.00  0.00    -0.237 OA
ATOM     93  O   UNL A   1      49.055  23.640  34.198  1.00  0.00    -0.744 OA
ENDBRANCH  86  90
ENDBRANCH  60  83
ENDBRANCH  34  35
ENDBRANCH  26  29
ENDBRANCH  24  25
ENDBRANCH   1  24
TORSDOF 16
ENDMDL
MODEL 2
REMARK VINA RESULT:     -12.3      1.882      2.289
REMARK SMILES Cc1ccc(NC(=O)N[C@@H](C(=O)NCCCNC(=O)c2ccc(-c3c4nc(c(-c5cc(S(=O)(=O)[O-])ccc5F)c5ccc([nH]5)c(-c5cc(S(=O)(=O)[O-])ccc5F)c5nc(c(-c6cc(S(=O)(=O)[O-])ccc6F)c6ccc3[nH]6)C=C5)C=C4)cc2)C(C)C)cc1
REMARK SMILES IDX 15 1 14 2 13 3 11 4 12 5 10 7 9 8 6 9 7 10 8 12 5 14 1 15
REMARK SMILES IDX 2 16 3 17 87 18 4 19 86 20 83 21 84 22 85 23 16 24 17 25
REMARK SMILES IDX 18 26 19 28 20 29 21 30 82 31 22 32 81 33 23 34 24 35 25 36
REMARK SMILES IDX 75 37 26 38 80 39 74 40 76 41 27 42 79 43 73 44 72 45 28 47
REMARK SMILES IDX 60 48 40 49 59 50 41 51 44 52 58 53 77 54 42 55 43 56 57 58
REMARK SMILES IDX 78 59 45 60 29 61 30 62 38 63 31 64 37 65 39 66 36 67 32 68
REMARK SMILES IDX 33 69 34 70 35 71 61 72 62 73 70 74 63 75 69 76 71 77 68 78
REMARK SMILES IDX 64 79 65 80 66 81 67 82 46 83 47 84 55 85 48 86 54 87 56 88
REMARK SMILES IDX 53 89 49 90 50 91 51 92 52 93
REMARK H PARENT 13 6 6 11 9 13 17 27 76 46 44 57
REMARK Flexibility Score: inf
ROOT
ATOM      1  C   UNL A   1      33.446  30.108  26.162  1.00  0.00     0.042 C 
ENDROOT
BRANCH   1   2
ATOM      2  C   UNL A   1      32.326  29.208  25.661  1.00  0.00     0.117 C 
BRANCH   2   3
ATOM      3  N   UNL A   1      31.822  29.586  24.341  1.00  0.00    -0.354 N 
ATOM      4  C   UNL A   1      31.513  28.836  23.234  1.00  0.00     0.242 C 
ATOM      5  O   UNL A   1      31.008  29.430  22.276  1.00  0.00    -0.273 OA
ATOM      6  H   UNL A   1      31.678  30.552  24.225  1.00  0.00     0.163 HD
BRANCH   4   7
ATOM      7  C   UNL A   1      31.685  27.289  23.225  1.00  0.00     0.175 C 
BRANCH   7   8
ATOM      8  N   UNL A   1      32.180  26.884  21.920  1.00  0.00    -0.326 N 
ATOM      9  N   UNL A   1      33.154  24.705  22.122  1.00  0.00    -0.308 N 
ATOM     10  C   UNL A   1      32.804  25.807  21.445  1.00  0.00     0.319 C 
ATOM     11  H   UNL A   1      33.412  23.997  21.487  1.00  0.00     0.171 HD
ATOM     12  O   UNL A   1      33.009  25.799  20.223  1.00  0.00    -0.248 OA
ATOM     13  H   UNL A   1      32.018  27.564  21.227  1.00  0.00     0.166 HD
BRANCH   9  14
ATOM     14  C   UNL A   1      33.277  24.224  23.441  1.00  0.00     0.042 A 
ATOM     15  C   UNL A   1      34.212  22.809  27.424  1.00  0.00     0.044 C 
ATOM     16  C   UNL A   1      33.838  23.368  26.088  1.00  0.00    -0.051 A 
ATOM     17  C   UNL A   1      32.851  22.747  25.334  1.00  0.00     0.005 A 
ATOM     18  C   UNL A   1      34.488  24.478  25.548  1.00  0.00     0.005 A 
ATOM     19  C   UNL A   1      32.559  23.196  24.045  1.00  0.00     0.026 A 
ATOM     20  C   UNL A   1      34.196  24.908  24.247  1.00  0.00     0.026 A 
ENDBRANCH   9  14
ENDBRANCH   7   8
BRANCH   7  21
ATOM     21  C   UNL A   1      30.393  26.531  23.647  1.00  0.00     0.015 C 
ATOM     22  C   UNL A   1      30.425  26.045  25.102  1.00  0.00     0.010 C 
ATOM     23  C   UNL A   1      29.175  27.457  23.481  1.00  0.00     0.010 C 
ENDBRANCH   7  21
ENDBRANCH   4   7
ENDBRANCH   2   3
ENDBRANCH   1   2
BRANCH   1  24
ATOM     24  C   UNL A   1      33.444  30.205  27.677  1.00  0.00     0.118 C 
BRANCH  24  25
ATOM     25  N   UNL A   1      34.266  31.277  28.231  1.00  0.00    -0.352 N 
ATOM     26  C   UNL A   1      35.532  31.192  28.785  1.00  0.00     0.251 C 
ATOM     27  H   UNL A   1      33.868  32.177  28.209  1.00  0.00     0.163 HD
ATOM     28  O   UNL A   1      36.060  32.153  29.339  1.00  0.00    -0.269 OA
BRANCH  26  29
ATOM     29  C   UNL A   1      36.317  29.955  28.558  1.00  0.00     0.039 A 
ATOM     30  C   UNL A   1      36.842  29.323  29.692  1.00  0.00     0.014 A 
ATOM     31  C   UNL A   1      36.793  29.637  27.291  1.00  0.00     0.014 A 
ATOM     32  C   UNL A   1      38.015  28.585  29.577  1.00  0.00     0.010 A 
ATOM     33  C   UNL A   1      38.021  29.015  27.191  1.00  0.00     0.010 A 
ATOM     34  C   UNL A   1      38.662  28.544  28.342  1.00  0.00    -0.014 A 
BRANCH  34  35
ATOM     35  C   UNL A   1      40.056  28.145  28.194  1.00  0.00     0.031 A 
ATOM     36  C   UNL A   1      40.409  26.736  27.950  1.00  0.00     0.074 A 
ATOM     37  C   UNL A   1      41.042  29.066  28.264  1.00  0.00     0.049 A 
ATOM     38  N   UNL A   1      41.489  26.174  28.377  1.00  0.00    -0.248 NA
ATOM     39  C   UNL A   1      39.535  25.829  27.218  1.00  0.00     0.031 C 
ATOM     40  C   UNL A   1      42.456  28.877  27.955  1.00  0.00     0.029 A 
ATOM     41  N   UNL A   1      40.986  30.318  28.867  1.00  0.00    -0.354 N 
ATOM     42  C   UNL A   1      41.603  24.964  27.733  1.00  0.00     0.074 A 
ATOM     43  C   UNL A   1      40.326  24.761  27.089  1.00  0.00     0.031 C 
ATOM     44  C   UNL A   1      43.168  29.824  28.584  1.00  0.00     0.029 A 
ATOM     45  C   UNL A   1      42.251  30.582  29.416  1.00  0.00     0.049 A 
ATOM     46  H   UNL A   1      40.200  30.911  28.904  1.00  0.00     0.167 HD
ATOM     47  C   UNL A   1      42.814  24.338  27.671  1.00  0.00     0.034 A 
ATOM     48  C   UNL A   1      42.398  30.817  30.752  1.00  0.00     0.034 A 
ATOM     49  C   UNL A   1      43.854  25.099  28.365  1.00  0.00     0.049 A 
ATOM     50  C   UNL A   1      43.263  29.790  31.449  1.00  0.00     0.074 A 
ATOM     51  C   UNL A   1      44.859  25.937  27.907  1.00  0.00     0.029 A 
ATOM     52  N   UNL A   1      43.784  25.290  29.741  1.00  0.00    -0.354 N 
ATOM     53  N   UNL A   1      43.616  28.650  30.920  1.00  0.00    -0.248 NA
ATOM     54  C   UNL A   1      43.780  29.954  32.803  1.00  0.00     0.031 C 
ATOM     55  C   UNL A   1      45.355  26.675  29.010  1.00  0.00     0.029 A 
ATOM     56  C   UNL A   1      44.674  26.269  30.144  1.00  0.00     0.049 A 
ATOM     57  H   UNL A   1      43.182  24.796  30.345  1.00  0.00     0.167 HD
ATOM     58  C   UNL A   1      44.346  27.922  31.827  1.00  0.00     0.074 A 
ATOM     59  C   UNL A   1      44.449  28.800  32.979  1.00  0.00     0.031 C 
ATOM     60  C   UNL A   1      44.782  26.655  31.547  1.00  0.00     0.034 A 
BRANCH  47  61
ATOM     61  C   UNL A   1      43.114  23.230  26.684  1.00  0.00     0.023 A 
ATOM     62  C   UNL A   1      42.553  21.951  26.886  1.00  0.00     0.031 A 
ATOM     63  C   UNL A   1      43.968  23.342  25.570  1.00  0.00     0.131 A 
ATOM     64  C   UNL A   1      42.940  20.847  26.105  1.00  0.00     0.055 A 
ATOM     65  C   UNL A   1      44.408  22.233  24.835  1.00  0.00     0.041 A 
ATOM     66  F   UNL A   1      44.372  24.537  25.115  1.00  0.00    -0.206 F 
ATOM     67  C   UNL A   1      43.907  20.971  25.113  1.00  0.00     0.022 A 
BRANCH  64  68
ATOM     68  S   UNL A   1      42.144  19.245  26.396  1.00  0.00     0.124 S 
ATOM     69  O   UNL A   1      43.017  18.327  25.673  1.00  0.00    -0.237 OA
ATOM     70  O   UNL A   1      42.169  19.149  27.853  1.00  0.00    -0.237 OA
ATOM     71  O   UNL A   1      40.812  19.417  25.816  1.00  0.00    -0.744 OA
ENDBRANCH  64  68
ENDBRANCH  47  61
BRANCH  48  72
ATOM     72  C   UNL A   1      41.225  31.525  31.344  1.00  0.00     0.023 A 
ATOM     73  C   UNL A   1      40.136  30.720  31.752  1.00  0.00     0.031 A 
ATOM     74  C   UNL A   1      41.322  32.815  31.879  1.00  0.00     0.131 A 
ATOM     75  C   UNL A   1      39.306  31.131  32.804  1.00  0.00     0.055 A 
ATOM     76  C   UNL A   1      40.437  33.256  32.872  1.00  0.00     0.041 A 
ATOM     77  F   UNL A   1      42.347  33.616  31.552  1.00  0.00    -0.206 F 
ATOM     78  C   UNL A   1      39.457  32.395  33.375  1.00  0.00     0.022 A 
BRANCH  75  79
ATOM     79  S   UNL A   1      38.230  29.899  33.605  1.00  0.00     0.124 S 
ATOM     80  O   UNL A   1      36.924  30.225  33.043  1.00  0.00    -0.237 OA
ATOM     81  O   UNL A   1      38.804  28.625  33.175  1.00  0.00    -0.237 OA
ATOM     82  O   UNL A   1      38.399  30.173  35.030  1.00  0.00    -0.744 OA
ENDBRANCH  75  79
ENDBRANCH  48  72
BRANCH  60  83
ATOM     83  C   UNL A   1      45.432  25.694  32.525  1.00  0.00     0.023 A 
ATOM     84  C   UNL A   1      44.726  24.716  33.241  1.00  0.00     0.031 A 
ATOM     85  C   UNL A   1      46.836  25.693  32.723  1.00  0.00     0.131 A 
ATOM     86  C   UNL A   1      45.376  23.866  34.157  1.00  0.00     0.055 A 
ATOM     87  C   UNL A   1      47.491  24.794  33.571  1.00  0.00     0.041 A 
ATOM     88  F   UNL A   1      47.641  26.562  32.093  1.00  0.00    -0.206 F 
ATOM     89  C   UNL A   1      46.758  23.883  34.312  1.00  0.00     0.022 A 
BRANCH  86  90
ATOM     90  S   UNL A   1      44.358  22.786  35.197  1.00  0.00     0.124 S 
ATOM     91  O   UNL A   1      44.537  21.489  34.549  1.00  0.00    -0.237 OA
ATOM     92  O   UNL A   1      44.984  22.931  36.507  1.00  0.00    -0.237 OA
ATOM     93  O   UNL A   1      43.018  23.356  35.082  1.00  0.00    -0.744 OA
ENDBRANCH  86  90
ENDBRANCH  60  83
ENDBRANCH  34  35
ENDBRANCH  26  29
ENDBRANCH  24  25
ENDBRANCH   1  24
TORSDOF 16
ENDMDL
MODEL 3
REMARK VINA RESULT:     -12.3      4.369     10.673
REMARK SMILES Cc1ccc(NC(=O)N[C@@H](C(=O)NCCCNC(=O)c2ccc(-c3c4nc(c(-c5cc(S(=O)(=O)[O-])ccc5F)c5ccc([nH]5)c(-c5cc(S(=O)(=O)[O-])ccc5F)c5nc(c(-c6cc(S(=O)(=O)[O-])ccc6F)c6ccc3[nH]6)C=C5)C=C4)cc2)C(C)C)cc1
REMARK SMILES IDX 15 1 14 2 13 3 11 4 12 5 10 7 9 8 6 9 7 10 8 12 5 14 1 15
REMARK SMILES IDX 2 16 3 17 87 18 4 19 86 20 83 21 84 22 85 23 16 24 17 25
REMARK SMILES IDX 18 26 19 28 20 29 21 30 82 31 22 32 81 33 23 34 24 35 25 36
REMARK SMILES IDX 75 37 26 38 80 39 74 40 76 41 27 42 79 43 73 44 72 45 28 47
REMARK SMILES IDX 60 48 40 49 59 50 41 51 44 52 58 53 77 54 42 55 43 56 57 58
REMARK SMILES IDX 78 59 45 60 29 61 30 62 38 63 31 64 37 65 39 66 36 67 32 68
REMARK SMILES IDX 33 69 34 70 35 71 61 72 62 73 70 74 63 75 69 76 71 77 68 78
REMARK SMILES IDX 64 79 65 80 66 81 67 82 46 83 47 84 55 85 48 86 54 87 56 88
REMARK SMILES IDX 53 89 49 90 50 91 51 92 52 93
REMARK H PARENT 13 6 6 11 9 13 17 27 76 46 44 57
REMARK Flexibility Score: inf
ROOT
ATOM      1  C   UNL A   1      37.711  23.758  25.311  1.00  0.00     0.042 C 
ENDROOT
BRANCH   1   2
ATOM      2  C   UNL A   1      36.194  23.701  25.404  1.00  0.00     0.117 C 
BRANCH   2   3
ATOM      3  N   UNL A   1      35.708  22.806  26.454  1.00  0.00    -0.354 N 
ATOM      4  C   UNL A   1      34.468  22.270  26.693  1.00  0.00     0.242 C 
ATOM      5  O   UNL A   1      34.376  21.456  27.618  1.00  0.00    -0.273 OA
ATOM      6  H   UNL A   1      36.394  22.539  27.107  1.00  0.00     0.163 HD
BRANCH   4   7
ATOM      7  C   UNL A   1      33.252  22.586  25.773  1.00  0.00     0.175 C 
BRANCH   7   8
ATOM      8  N   UNL A   1      32.039  22.538  26.572  1.00  0.00    -0.326 N 
ATOM      9  N   UNL A   1      30.946  24.664  26.415  1.00  0.00    -0.308 N 
ATOM     10  C   UNL A   1      31.068  23.404  26.855  1.00  0.00     0.319 C 
ATOM     11  H   UNL A   1      30.040  24.996  26.615  1.00  0.00     0.171 HD
ATOM     12  O   UNL A   1      30.135  22.960  27.539  1.00  0.00    -0.248 OA
ATOM     13  H   UNL A   1      31.906  21.665  27.004  1.00  0.00     0.166 HD
BRANCH   9  14
ATOM     14  C   UNL A   1      31.685  25.671  25.762  1.00  0.00     0.042 A 
ATOM     15  C   UNL A   1      33.932  28.430  23.298  1.00  0.00     0.044 C 
ATOM     16  C   UNL A   1      33.090  27.546  24.161  1.00  0.00    -0.051 A 
ATOM     17  C   UNL A   1      33.454  27.325  25.483  1.00  0.00     0.005 A 
ATOM     18  C   UNL A   1      31.964  26.889  23.662  1.00  0.00     0.005 A 
ATOM     19  C   UNL A   1      32.736  26.426  26.273  1.00  0.00     0.026 A 
ATOM     20  C   UNL A   1      31.263  25.977  24.461  1.00  0.00     0.026 A 
ENDBRANCH   9  14
ENDBRANCH   7   8
BRANCH   7  21
ATOM     21  C   UNL A   1      33.189  21.673  24.515  1.00  0.00     0.015 C 
ATOM     22  C   UNL A   1      32.691  20.254  24.821  1.00  0.00     0.010 C 
ATOM     23  C   UNL A   1      32.242  22.296  23.474  1.00  0.00     0.010 C 
ENDBRANCH   7  21
ENDBRANCH   4   7
ENDBRANCH   2   3
ENDBRANCH   1   2
BRANCH   1  24
ATOM     24  C   UNL A   1      38.366  23.104  26.514  1.00  0.00     0.118 C 
BRANCH  24  25
ATOM     25  N   UNL A   1      39.817  23.246  26.585  1.00  0.00    -0.352 N 
ATOM     26  C   UNL A   1      40.560  24.398  26.776  1.00  0.00     0.251 C 
ATOM     27  H   UNL A   1      40.335  22.415  26.485  1.00  0.00     0.163 HD
ATOM     28  O   UNL A   1      41.785  24.400  26.682  1.00  0.00    -0.269 OA
BRANCH  26  29
ATOM     29  C   UNL A   1      39.861  25.615  27.257  1.00  0.00     0.039 A 
ATOM     30  C   UNL A   1      40.115  26.805  26.565  1.00  0.00     0.014 A 
ATOM     31  C   UNL A   1      39.268  25.644  28.515  1.00  0.00     0.014 A 
ATOM     32  C   UNL A   1      40.027  28.016  27.243  1.00  0.00     0.010 A 
ATOM     33  C   UNL A   1      39.302  26.826  29.225  1.00  0.00     0.010 A 
ATOM     34  C   UNL A   1      39.740  28.002  28.607  1.00  0.00    -0.014 A 
BRANCH  34  35
ATOM     35  C   UNL A   1      40.000  29.139  29.480  1.00  0.00     0.031 A 
ATOM     36  C   UNL A   1      38.965  30.162  29.704  1.00  0.00     0.074 A 
ATOM     37  C   UNL A   1      41.191  29.262  30.108  1.00  0.00     0.049 A 
ATOM     38  N   UNL A   1      39.212  31.412  29.912  1.00  0.00    -0.248 NA
ATOM     39  C   UNL A   1      37.542  29.850  29.678  1.00  0.00     0.031 C 
ATOM     40  C   UNL A   1      41.550  30.220  31.149  1.00  0.00     0.029 A 
ATOM     41  N   UNL A   1      42.400  28.678  29.745  1.00  0.00    -0.354 N 
ATOM     42  C   UNL A   1      38.043  31.993  30.346  1.00  0.00     0.074 A 
ATOM     43  C   UNL A   1      37.019  31.002  30.104  1.00  0.00     0.031 C 
ATOM     44  C   UNL A   1      42.885  30.357  31.170  1.00  0.00     0.029 A 
ATOM     45  C   UNL A   1      43.423  29.585  30.065  1.00  0.00     0.049 A 
ATOM     46  H   UNL A   1      42.517  27.789  29.337  1.00  0.00     0.167 HD
ATOM     47  C   UNL A   1      38.083  33.181  31.016  1.00  0.00     0.034 A 
ATOM     48  C   UNL A   1      44.264  30.057  29.100  1.00  0.00     0.034 A 
ATOM     49  C   UNL A   1      39.451  33.682  31.151  1.00  0.00     0.049 A 
ATOM     50  C   UNL A   1      44.174  31.555  28.908  1.00  0.00     0.074 A 
ATOM     51  C   UNL A   1      40.350  33.665  32.205  1.00  0.00     0.029 A 
ATOM     52  N   UNL A   1      40.178  34.050  30.023  1.00  0.00    -0.354 N 
ATOM     53  N   UNL A   1      43.219  32.300  29.396  1.00  0.00    -0.248 NA
ATOM     54  C   UNL A   1      45.138  32.330  28.134  1.00  0.00     0.031 C 
ATOM     55  C   UNL A   1      41.636  33.970  31.693  1.00  0.00     0.029 A 
ATOM     56  C   UNL A   1      41.517  34.201  30.334  1.00  0.00     0.049 A 
ATOM     57  H   UNL A   1      39.792  34.183  29.127  1.00  0.00     0.167 HD
ATOM     58  C   UNL A   1      43.392  33.601  28.993  1.00  0.00     0.074 A 
ATOM     59  C   UNL A   1      44.629  33.572  28.233  1.00  0.00     0.031 C 
ATOM     60  C   UNL A   1      42.488  34.578  29.312  1.00  0.00     0.034 A 
BRANCH  47  61
ATOM     61  C   UNL A   1      36.924  33.692  31.847  1.00  0.00     0.023 A 
ATOM     62  C   UNL A   1      35.779  34.201  31.201  1.00  0.00     0.031 A 
ATOM     63  C   UNL A   1      36.898  33.756  33.253  1.00  0.00     0.131 A 
ATOM     64  C   UNL A   1      34.757  34.849  31.917  1.00  0.00     0.055 A 
ATOM     65  C   UNL A   1      35.918  34.460  33.965  1.00  0.00     0.041 A 
ATOM     66  F   UNL A   1      37.795  33.094  34.001  1.00  0.00    -0.206 F 
ATOM     67  C   UNL A   1      34.846  35.029  33.294  1.00  0.00     0.022 A 
BRANCH  64  68
ATOM     68  S   UNL A   1      33.295  35.440  31.022  1.00  0.00     0.124 S 
ATOM     69  O   UNL A   1      33.280  34.577  29.846  1.00  0.00    -0.237 OA
ATOM     70  O   UNL A   1      32.230  35.224  31.996  1.00  0.00    -0.237 OA
ATOM     71  O   UNL A   1      33.607  36.844  30.754  1.00  0.00    -0.744 OA
ENDBRANCH  64  68
ENDBRANCH  47  61
BRANCH  48  72
ATOM     72  C   UNL A   1      44.541  29.049  28.035  1.00  0.00     0.023 A 
ATOM     73  C   UNL A   1      45.368  27.958  28.392  1.00  0.00     0.031 A 
ATOM     74  C   UNL A   1      43.725  28.911  26.907  1.00  0.00     0.131 A 
ATOM     75  C   UNL A   1      45.220  26.719  27.754  1.00  0.00     0.055 A 
ATOM     76  C   UNL A   1      43.642  27.693  26.217  1.00  0.00     0.041 A 
ATOM     77  F   UNL A   1      42.898  29.899  26.534  1.00  0.00    -0.206 F 
ATOM     78  C   UNL A   1      44.350  26.577  26.672  1.00  0.00     0.022 A 
BRANCH  75  79
ATOM     79  S   UNL A   1      45.947  25.241  28.532  1.00  0.00     0.124 S 
ATOM     80  O   UNL A   1      45.122  24.172  27.981  1.00  0.00    -0.237 OA
ATOM     81  O   UNL A   1      47.335  25.271  28.073  1.00  0.00    -0.237 OA
ATOM     82  O   UNL A   1      45.791  25.496  29.962  1.00  0.00    -0.744 OA
ENDBRANCH  75  79
ENDBRANCH  48  72
BRANCH  60  83
ATOM     83  C   UNL A   1      42.476  35.999  28.777  1.00  0.00     0.023 A 
ATOM     84  C   UNL A   1      43.083  37.082  29.430  1.00  0.00     0.031 A 
ATOM     85  C   UNL A   1      41.888  36.300  27.522  1.00  0.00     0.131 A 
ATOM     86  C   UNL A   1      43.018  38.386  28.900  1.00  0.00     0.055 A 
ATOM     87  C   UNL A   1      41.895  37.579  26.959  1.00  0.00     0.041 A 
ATOM     88  F   UNL A   1      41.283  35.360  26.779  1.00  0.00    -0.206 F 
ATOM     89  C   UNL A   1      42.447  38.639  27.657  1.00  0.00     0.022 A 
BRANCH  86  90
ATOM     90  S   UNL A   1      43.637  39.755  29.914  1.00  0.00     0.124 S 
ATOM     91  O   UNL A   1      42.428  40.549  30.117  1.00  0.00    -0.237 OA
ATOM     92  O   UNL A   1      44.147  39.065  31.095  1.00  0.00    -0.237 OA
ATOM     93  O   UNL A   1      44.654  40.378  29.070  1.00  0.00    -0.744 OA
ENDBRANCH  86  90
ENDBRANCH  60  83
ENDBRANCH  34  35
ENDBRANCH  26  29
ENDBRANCH  24  25
ENDBRANCH   1  24
TORSDOF 16
ENDMDL
