MODEL 1
REMARK VINA RESULT:     -12.3      0.000      0.000
REMARK SMILES C[C@H](C1CC1)n1c(SCC(=O)NCCCNC(=O)c2ccc(-c3c4nc(c(-c5cc(S(=O)(=O)[O-])ccc5F)c5ccc([nH]5)c(-c5cc(S(=O)(=O)[O-])ccc5F)c5nc(c(-c6cc(S(=O)(=O)[O-])ccc6F)c6ccc3[nH]6)C=C5)C=C4)cc2)nc2cc(Cl)c(Cl)cc21
REMARK SMILES IDX 13 1 12 2 10 3 11 4 9 6 8 7 7 8 6 9 90 10 82 11 83 12 89 13
REMARK SMILES IDX 84 14 87 15 85 16 88 17 86 18 2 19 1 20 3 21 4 22 5 23 14 24
REMARK SMILES IDX 15 25 16 26 17 27 18 29 19 30 20 31 81 32 21 33 80 34 22 35
REMARK SMILES IDX 23 36 24 37 74 38 25 39 79 40 73 41 75 42 26 43 78 44 72 45
REMARK SMILES IDX 71 46 27 48 59 49 39 50 58 51 40 52 43 53 57 54 76 55 41 56
REMARK SMILES IDX 42 57 56 59 77 60 44 61 28 62 29 63 37 64 30 65 36 66 38 67
REMARK SMILES IDX 35 68 31 69 32 70 33 71 34 72 60 73 61 74 69 75 62 76 68 77
REMARK SMILES IDX 70 78 67 79 63 80 64 81 65 82 66 83 45 84 46 85 54 86 47 87
REMARK SMILES IDX 53 88 55 89 52 90 48 91 49 92 50 93 51 94
REMARK H PARENT 12 5 16 28 75 47 43 58
REMARK Flexibility Score: inf
ROOT
ATOM      1  C   UNL A   1      34.791  21.468  25.538  1.00  0.00     0.117 C 
ENDROOT
BRANCH   1   2
ATOM      2  N   UNL A   1      33.817  21.267  24.485  1.00  0.00    -0.355 N 
ATOM      3  C   UNL A   1      32.937  22.160  23.965  1.00  0.00     0.230 C 
ATOM      4  O   UNL A   1      32.619  21.985  22.783  1.00  0.00    -0.274 OA
ATOM      5  H   UNL A   1      33.789  20.364  24.095  1.00  0.00     0.163 HD
BRANCH   3   6
ATOM      6  C   UNL A   1      32.433  23.375  24.714  1.00  0.00     0.178 C 
BRANCH   6   7
ATOM      7  S   UNL A   1      33.325  24.898  24.618  1.00  0.00    -0.078 SA
BRANCH   7   8
ATOM      8  C   UNL A   1      32.524  26.410  24.397  1.00  0.00     0.169 A 
ATOM      9  N   UNL A   1      32.348  27.566  25.138  1.00  0.00    -0.316 N 
ATOM     10  C   UNL A   1      31.431  28.366  24.427  1.00  0.00     0.071 A 
ATOM     11  N   UNL A   1      31.749  26.438  23.326  1.00  0.00    -0.222 NA
ATOM     12  C   UNL A   1      31.045  27.597  23.345  1.00  0.00     0.091 A 
ATOM     13  C   UNL A   1      30.882  29.640  24.655  1.00  0.00     0.050 A 
ATOM     14  C   UNL A   1      30.048  28.052  22.470  1.00  0.00     0.052 A 
ATOM     15  C   UNL A   1      29.900  30.100  23.766  1.00  0.00     0.061 A 
ATOM     16  C   UNL A   1      29.475  29.310  22.694  1.00  0.00     0.061 A 
ATOM     17  Cl  UNL A   1      29.241  31.672  24.076  1.00  0.00    -0.083 Cl
ATOM     18  Cl  UNL A   1      28.233  29.829  21.607  1.00  0.00    -0.083 Cl
BRANCH   9  19
ATOM     19  C   UNL A   1      32.800  28.028  26.452  1.00  0.00     0.090 C 
ATOM     20  C   UNL A   1      31.770  28.175  27.542  1.00  0.00     0.032 C 
BRANCH  19  21
ATOM     21  C   UNL A   1      33.815  29.145  26.342  1.00  0.00     0.012 C 
ATOM     22  C   UNL A   1      33.980  30.199  27.406  1.00  0.00     0.006 C 
ATOM     23  C   UNL A   1      35.084  29.208  27.161  1.00  0.00     0.006 C 
ENDBRANCH  19  21
ENDBRANCH   9  19
ENDBRANCH   7   8
ENDBRANCH   6   7
ENDBRANCH   3   6
ENDBRANCH   1   2
BRANCH   1  24
ATOM     24  C   UNL A   1      36.224  21.158  25.122  1.00  0.00     0.042 C 
BRANCH  24  25
ATOM     25  C   UNL A   1      37.261  22.249  25.397  1.00  0.00     0.118 C 
BRANCH  25  26
ATOM     26  N   UNL A   1      38.605  21.797  25.708  1.00  0.00    -0.352 N 
ATOM     27  C   UNL A   1      39.646  22.256  26.469  1.00  0.00     0.251 C 
ATOM     28  H   UNL A   1      38.821  20.947  25.261  1.00  0.00     0.163 HD
ATOM     29  O   UNL A   1      40.573  21.453  26.620  1.00  0.00    -0.269 OA
BRANCH  27  30
ATOM     30  C   UNL A   1      39.772  23.618  27.055  1.00  0.00     0.039 A 
ATOM     31  C   UNL A   1      38.889  24.675  26.853  1.00  0.00     0.014 A 
ATOM     32  C   UNL A   1      40.916  23.850  27.849  1.00  0.00     0.014 A 
ATOM     33  C   UNL A   1      39.185  25.946  27.351  1.00  0.00     0.010 A 
ATOM     34  C   UNL A   1      41.204  25.111  28.369  1.00  0.00     0.010 A 
ATOM     35  C   UNL A   1      40.356  26.175  28.088  1.00  0.00    -0.014 A 
BRANCH  35  36
ATOM     36  C   UNL A   1      40.563  27.514  28.651  1.00  0.00     0.031 A 
ATOM     37  C   UNL A   1      41.748  28.240  28.116  1.00  0.00     0.074 A 
ATOM     38  C   UNL A   1      39.738  28.156  29.503  1.00  0.00     0.049 A 
ATOM     39  N   UNL A   1      42.833  28.558  28.743  1.00  0.00    -0.248 NA
ATOM     40  C   UNL A   1      41.771  28.546  26.680  1.00  0.00     0.031 C 
ATOM     41  C   UNL A   1      38.381  27.783  29.903  1.00  0.00     0.029 A 
ATOM     42  N   UNL A   1      39.923  29.361  30.124  1.00  0.00    -0.354 N 
ATOM     43  C   UNL A   1      43.610  29.276  27.833  1.00  0.00     0.074 A 
ATOM     44  C   UNL A   1      42.976  29.102  26.549  1.00  0.00     0.031 C 
ATOM     45  C   UNL A   1      37.789  28.840  30.506  1.00  0.00     0.029 A 
ATOM     46  C   UNL A   1      38.767  29.906  30.666  1.00  0.00     0.049 A 
ATOM     47  H   UNL A   1      40.800  29.802  30.181  1.00  0.00     0.167 HD
ATOM     48  C   UNL A   1      44.606  30.116  28.240  1.00  0.00     0.034 A 
ATOM     49  C   UNL A   1      38.601  31.167  31.141  1.00  0.00     0.034 A 
ATOM     50  C   UNL A   1      44.964  29.878  29.614  1.00  0.00     0.049 A 
ATOM     51  C   UNL A   1      39.931  31.733  31.462  1.00  0.00     0.074 A 
ATOM     52  C   UNL A   1      45.422  28.787  30.326  1.00  0.00     0.029 A 
ATOM     53  N   UNL A   1      44.536  30.781  30.557  1.00  0.00    -0.354 N 
ATOM     54  N   UNL A   1      40.669  31.355  32.467  1.00  0.00    -0.248 NA
ATOM     55  C   UNL A   1      40.628  32.461  30.414  1.00  0.00     0.031 C 
ATOM     56  C   UNL A   1      44.789  28.885  31.597  1.00  0.00     0.029 A 
ATOM     57  C   UNL A   1      44.033  30.058  31.606  1.00  0.00     0.049 A 
ATOM     58  H   UNL A   1      44.583  31.762  30.492  1.00  0.00     0.167 HD
ATOM     59  C   UNL A   1      41.958  31.357  31.960  1.00  0.00     0.074 A 
ATOM     60  C   UNL A   1      41.886  32.163  30.742  1.00  0.00     0.031 C 
ATOM     61  C   UNL A   1      42.898  30.473  32.405  1.00  0.00     0.034 A 
BRANCH  48  62
ATOM     62  C   UNL A   1      45.023  31.369  27.501  1.00  0.00     0.023 A 
ATOM     63  C   UNL A   1      44.214  32.517  27.422  1.00  0.00     0.031 A 
ATOM     64  C   UNL A   1      46.353  31.530  27.053  1.00  0.00     0.131 A 
ATOM     65  C   UNL A   1      44.706  33.735  26.936  1.00  0.00     0.055 A 
ATOM     66  C   UNL A   1      46.865  32.765  26.632  1.00  0.00     0.041 A 
ATOM     67  F   UNL A   1      47.220  30.505  27.073  1.00  0.00    -0.206 F 
ATOM     68  C   UNL A   1      46.039  33.879  26.575  1.00  0.00     0.022 A 
BRANCH  65  69
ATOM     69  S   UNL A   1      43.600  35.165  26.787  1.00  0.00     0.124 S 
ATOM     70  O   UNL A   1      44.544  36.281  26.866  1.00  0.00    -0.237 OA
ATOM     71  O   UNL A   1      43.003  34.939  25.470  1.00  0.00    -0.237 OA
ATOM     72  O   UNL A   1      42.693  35.018  27.912  1.00  0.00    -0.744 OA
ENDBRANCH  65  69
ENDBRANCH  48  62
BRANCH  49  73
ATOM     73  C   UNL A   1      37.427  32.047  30.923  1.00  0.00     0.023 A 
ATOM     74  C   UNL A   1      36.751  32.591  32.029  1.00  0.00     0.031 A 
ATOM     75  C   UNL A   1      36.769  32.092  29.680  1.00  0.00     0.131 A 
ATOM     76  C   UNL A   1      35.448  33.088  31.896  1.00  0.00     0.055 A 
ATOM     77  C   UNL A   1      35.472  32.604  29.545  1.00  0.00     0.041 A 
ATOM     78  F   UNL A   1      37.340  31.566  28.585  1.00  0.00    -0.206 F 
ATOM     79  C   UNL A   1      34.799  33.091  30.662  1.00  0.00     0.022 A 
BRANCH  76  80
ATOM     80  S   UNL A   1      34.550  33.660  33.363  1.00  0.00     0.124 S 
ATOM     81  O   UNL A   1      33.227  33.071  33.170  1.00  0.00    -0.237 OA
ATOM     82  O   UNL A   1      35.344  33.084  34.441  1.00  0.00    -0.237 OA
ATOM     83  O   UNL A   1      34.597  35.115  33.244  1.00  0.00    -0.744 OA
ENDBRANCH  76  80
ENDBRANCH  49  73
BRANCH  61  84
ATOM     84  C   UNL A   1      42.634  29.659  33.653  1.00  0.00     0.023 A 
ATOM     85  C   UNL A   1      43.426  29.947  34.780  1.00  0.00     0.031 A 
ATOM     86  C   UNL A   1      41.831  28.503  33.704  1.00  0.00     0.131 A 
ATOM     87  C   UNL A   1      43.442  29.081  35.878  1.00  0.00     0.055 A 
ATOM     88  C   UNL A   1      41.790  27.683  34.836  1.00  0.00     0.041 A 
ATOM     89  F   UNL A   1      41.136  28.077  32.640  1.00  0.00    -0.206 F 
ATOM     90  C   UNL A   1      42.612  27.958  35.923  1.00  0.00     0.022 A 
BRANCH  87  91
ATOM     91  S   UNL A   1      44.664  29.299  37.197  1.00  0.00     0.124 S 
ATOM     92  O   UNL A   1      45.926  29.192  36.469  1.00  0.00    -0.237 OA
ATOM     93  O   UNL A   1      44.343  30.634  37.701  1.00  0.00    -0.237 OA
ATOM     94  O   UNL A   1      44.384  28.208  38.125  1.00  0.00    -0.744 OA
ENDBRANCH  87  91
ENDBRANCH  61  84
ENDBRANCH  35  36
ENDBRANCH  27  30
ENDBRANCH  25  26
ENDBRANCH  24  25
ENDBRANCH   1  24
TORSDOF 17
ENDMDL
MODEL 2
REMARK VINA RESULT:     -12.0      3.737      9.253
REMARK SMILES C[C@H](C1CC1)n1c(SCC(=O)NCCCNC(=O)c2ccc(-c3c4nc(c(-c5cc(S(=O)(=O)[O-])ccc5F)c5ccc([nH]5)c(-c5cc(S(=O)(=O)[O-])ccc5F)c5nc(c(-c6cc(S(=O)(=O)[O-])ccc6F)c6ccc3[nH]6)C=C5)C=C4)cc2)nc2cc(Cl)c(Cl)cc21
REMARK SMILES IDX 13 1 12 2 10 3 11 4 9 6 8 7 7 8 6 9 90 10 82 11 83 12 89 13
REMARK SMILES IDX 84 14 87 15 85 16 88 17 86 18 2 19 1 20 3 21 4 22 5 23 14 24
REMARK SMILES IDX 15 25 16 26 17 27 18 29 19 30 20 31 81 32 21 33 80 34 22 35
REMARK SMILES IDX 23 36 24 37 74 38 25 39 79 40 73 41 75 42 26 43 78 44 72 45
REMARK SMILES IDX 71 46 27 48 59 49 39 50 58 51 40 52 43 53 57 54 76 55 41 56
REMARK SMILES IDX 42 57 56 59 77 60 44 61 28 62 29 63 37 64 30 65 36 66 38 67
REMARK SMILES IDX 35 68 31 69 32 70 33 71 34 72 60 73 61 74 69 75 62 76 68 77
REMARK SMILES IDX 70 78 67 79 63 80 64 81 65 82 66 83 45 84 46 85 54 86 47 87
REMARK SMILES IDX 53 88 55 89 52 90 48 91 49 92 50 93 51 94
REMARK H PARENT 12 5 16 28 75 47 43 58
REMARK Flexibility Score: inf
ROOT
ATOM      1  C   UNL A   1      31.400  27.870  26.055  1.00  0.00     0.117 C 
ENDROOT
BRANCH   1   2
ATOM      2  N   UNL A   1      31.176  26.690  26.866  1.00  0.00    -0.355 N 
ATOM      3  C   UNL A   1      30.925  25.420  26.460  1.00  0.00     0.230 C 
ATOM      4  O   UNL A   1      31.307  24.521  27.218  1.00  0.00    -0.274 OA
ATOM      5  H   UNL A   1      31.213  26.828  27.840  1.00  0.00     0.163 HD
BRANCH   3   6
ATOM      6  C   UNL A   1      30.314  25.073  25.120  1.00  0.00     0.178 C 
BRANCH   6   7
ATOM      7  S   UNL A   1      31.364  24.715  23.743  1.00  0.00    -0.078 SA
BRANCH   7   8
ATOM      8  C   UNL A   1      32.902  23.959  23.944  1.00  0.00     0.169 A 
ATOM      9  N   UNL A   1      33.410  22.678  23.819  1.00  0.00    -0.316 N 
ATOM     10  C   UNL A   1      34.734  22.720  24.301  1.00  0.00     0.071 A 
ATOM     11  N   UNL A   1      33.802  24.750  24.505  1.00  0.00    -0.222 NA
ATOM     12  C   UNL A   1      34.907  24.009  24.768  1.00  0.00     0.091 A 
ATOM     13  C   UNL A   1      35.752  21.757  24.412  1.00  0.00     0.050 A 
ATOM     14  C   UNL A   1      36.095  24.376  25.418  1.00  0.00     0.052 A 
ATOM     15  C   UNL A   1      36.946  22.133  25.043  1.00  0.00     0.061 A 
ATOM     16  C   UNL A   1      37.112  23.423  25.556  1.00  0.00     0.061 A 
ATOM     17  Cl  UNL A   1      38.179  20.923  25.166  1.00  0.00    -0.083 Cl
ATOM     18  Cl  UNL A   1      38.553  23.904  26.382  1.00  0.00    -0.083 Cl
BRANCH   9  19
ATOM     19  C   UNL A   1      32.854  21.381  23.428  1.00  0.00     0.090 C 
ATOM     20  C   UNL A   1      32.035  21.314  22.165  1.00  0.00     0.032 C 
BRANCH  19  21
ATOM     21  C   UNL A   1      32.309  20.616  24.615  1.00  0.00     0.012 C 
ATOM     22  C   UNL A   1      32.369  19.114  24.709  1.00  0.00     0.006 C 
ATOM     23  C   UNL A   1      33.180  19.953  25.657  1.00  0.00     0.006 C 
ENDBRANCH  19  21
ENDBRANCH   9  19
ENDBRANCH   7   8
ENDBRANCH   6   7
ENDBRANCH   3   6
ENDBRANCH   1   2
BRANCH   1  24
ATOM     24  C   UNL A   1      31.826  29.097  26.852  1.00  0.00     0.042 C 
BRANCH  24  25
ATOM     25  C   UNL A   1      33.282  29.537  26.692  1.00  0.00     0.118 C 
BRANCH  25  26
ATOM     26  N   UNL A   1      33.645  30.799  27.311  1.00  0.00    -0.352 N 
ATOM     27  C   UNL A   1      34.797  31.366  27.788  1.00  0.00     0.251 C 
ATOM     28  H   UNL A   1      32.870  31.396  27.414  1.00  0.00     0.163 HD
ATOM     29  O   UNL A   1      34.707  32.565  28.070  1.00  0.00    -0.269 OA
BRANCH  27  30
ATOM     30  C   UNL A   1      36.083  30.662  28.041  1.00  0.00     0.039 A 
ATOM     31  C   UNL A   1      36.359  29.333  27.727  1.00  0.00     0.014 A 
ATOM     32  C   UNL A   1      37.084  31.411  28.695  1.00  0.00     0.014 A 
ATOM     33  C   UNL A   1      37.559  28.748  28.134  1.00  0.00     0.010 A 
ATOM     34  C   UNL A   1      38.294  30.837  29.083  1.00  0.00     0.010 A 
ATOM     35  C   UNL A   1      38.520  29.489  28.837  1.00  0.00    -0.014 A 
BRANCH  35  36
ATOM     36  C   UNL A   1      39.792  28.834  29.161  1.00  0.00     0.031 A 
ATOM     37  C   UNL A   1      40.170  28.883  30.600  1.00  0.00     0.074 A 
ATOM     38  C   UNL A   1      40.563  28.127  28.309  1.00  0.00     0.049 A 
ATOM     39  N   UNL A   1      41.153  29.527  31.141  1.00  0.00    -0.248 NA
ATOM     40  C   UNL A   1      39.277  28.228  31.565  1.00  0.00     0.031 C 
ATOM     41  C   UNL A   1      40.239  27.676  26.956  1.00  0.00     0.029 A 
ATOM     42  N   UNL A   1      41.794  27.573  28.534  1.00  0.00    -0.354 N 
ATOM     43  C   UNL A   1      41.123  29.209  32.499  1.00  0.00     0.074 A 
ATOM     44  C   UNL A   1      39.866  28.537  32.720  1.00  0.00     0.031 C 
ATOM     45  C   UNL A   1      41.138  26.739  26.574  1.00  0.00     0.029 A 
ATOM     46  C   UNL A   1      42.176  26.632  27.588  1.00  0.00     0.049 A 
ATOM     47  H   UNL A   1      42.358  27.819  29.301  1.00  0.00     0.167 HD
ATOM     48  C   UNL A   1      42.221  29.354  33.298  1.00  0.00     0.034 A 
ATOM     49  C   UNL A   1      43.225  25.773  27.664  1.00  0.00     0.034 A 
ATOM     50  C   UNL A   1      43.221  30.179  32.671  1.00  0.00     0.049 A 
ATOM     51  C   UNL A   1      44.196  26.296  28.652  1.00  0.00     0.074 A 
ATOM     52  C   UNL A   1      43.251  31.469  32.182  1.00  0.00     0.029 A 
ATOM     53  N   UNL A   1      44.333  29.561  32.152  1.00  0.00    -0.354 N 
ATOM     54  N   UNL A   1      44.950  27.341  28.461  1.00  0.00    -0.248 NA
ATOM     55  C   UNL A   1      44.045  25.878  30.036  1.00  0.00     0.031 C 
ATOM     56  C   UNL A   1      44.075  31.404  31.023  1.00  0.00     0.029 A 
ATOM     57  C   UNL A   1      44.546  30.094  30.909  1.00  0.00     0.049 A 
ATOM     58  H   UNL A   1      44.875  28.866  32.591  1.00  0.00     0.167 HD
ATOM     59  C   UNL A   1      44.955  27.983  29.689  1.00  0.00     0.074 A 
ATOM     60  C   UNL A   1      44.492  26.978  30.644  1.00  0.00     0.031 C 
ATOM     61  C   UNL A   1      45.051  29.342  29.780  1.00  0.00     0.034 A 
BRANCH  48  62
ATOM     62  C   UNL A   1      42.526  28.483  34.498  1.00  0.00     0.023 A 
ATOM     63  C   UNL A   1      42.686  27.089  34.410  1.00  0.00     0.031 A 
ATOM     64  C   UNL A   1      42.901  29.064  35.729  1.00  0.00     0.131 A 
ATOM     65  C   UNL A   1      43.190  26.335  35.478  1.00  0.00     0.055 A 
ATOM     66  C   UNL A   1      43.471  28.321  36.773  1.00  0.00     0.041 A 
ATOM     67  F   UNL A   1      42.790  30.385  35.936  1.00  0.00    -0.206 F 
ATOM     68  C   UNL A   1      43.622  26.947  36.648  1.00  0.00     0.022 A 
BRANCH  65  69
ATOM     69  S   UNL A   1      43.308  24.531  35.339  1.00  0.00     0.124 S 
ATOM     70  O   UNL A   1      41.898  24.137  35.366  1.00  0.00    -0.237 OA
ATOM     71  O   UNL A   1      43.978  24.380  34.046  1.00  0.00    -0.237 OA
ATOM     72  O   UNL A   1      44.098  24.146  36.495  1.00  0.00    -0.744 OA
ENDBRANCH  65  69
ENDBRANCH  48  62
BRANCH  49  73
ATOM     73  C   UNL A   1      43.228  24.344  27.270  1.00  0.00     0.023 A 
ATOM     74  C   UNL A   1      44.208  23.869  26.381  1.00  0.00     0.031 A 
ATOM     75  C   UNL A   1      42.104  23.524  27.488  1.00  0.00     0.131 A 
ATOM     76  C   UNL A   1      44.024  22.662  25.693  1.00  0.00     0.055 A 
ATOM     77  C   UNL A   1      41.930  22.309  26.812  1.00  0.00     0.041 A 
ATOM     78  F   UNL A   1      41.114  23.924  28.301  1.00  0.00    -0.206 F 
ATOM     79  C   UNL A   1      42.887  21.881  25.897  1.00  0.00     0.022 A 
BRANCH  76  80
ATOM     80  S   UNL A   1      45.239  22.140  24.454  1.00  0.00     0.124 S 
ATOM     81  O   UNL A   1      45.545  23.393  23.768  1.00  0.00    -0.237 OA
ATOM     82  O   UNL A   1      46.306  21.605  25.291  1.00  0.00    -0.237 OA
ATOM     83  O   UNL A   1      44.508  21.163  23.651  1.00  0.00    -0.744 OA
ENDBRANCH  76  80
ENDBRANCH  49  73
BRANCH  61  84
ATOM     84  C   UNL A   1      45.432  30.152  28.560  1.00  0.00     0.023 A 
ATOM     85  C   UNL A   1      46.747  30.651  28.514  1.00  0.00     0.031 A 
ATOM     86  C   UNL A   1      44.523  30.630  27.596  1.00  0.00     0.131 A 
ATOM     87  C   UNL A   1      47.107  31.621  27.572  1.00  0.00     0.055 A 
ATOM     88  C   UNL A   1      44.908  31.542  26.607  1.00  0.00     0.041 A 
ATOM     89  F   UNL A   1      43.222  30.311  27.632  1.00  0.00    -0.206 F 
ATOM     90  C   UNL A   1      46.200  32.058  26.603  1.00  0.00     0.022 A 
BRANCH  87  91
ATOM     91  S   UNL A   1      48.706  32.464  27.692  1.00  0.00     0.124 S 
ATOM     92  O   UNL A   1      49.264  31.892  28.915  1.00  0.00    -0.237 OA
ATOM     93  O   UNL A   1      49.366  32.057  26.453  1.00  0.00    -0.237 OA
ATOM     94  O   UNL A   1      48.356  33.879  27.767  1.00  0.00    -0.744 OA
ENDBRANCH  87  91
ENDBRANCH  61  84
ENDBRANCH  35  36
ENDBRANCH  27  30
ENDBRANCH  25  26
ENDBRANCH  24  25
ENDBRANCH   1  24
TORSDOF 17
ENDMDL
MODEL 3
REMARK VINA RESULT:     -11.9      3.807      9.071
REMARK SMILES C[C@H](C1CC1)n1c(SCC(=O)NCCCNC(=O)c2ccc(-c3c4nc(c(-c5cc(S(=O)(=O)[O-])ccc5F)c5ccc([nH]5)c(-c5cc(S(=O)(=O)[O-])ccc5F)c5nc(c(-c6cc(S(=O)(=O)[O-])ccc6F)c6ccc3[nH]6)C=C5)C=C4)cc2)nc2cc(Cl)c(Cl)cc21
REMARK SMILES IDX 13 1 12 2 10 3 11 4 9 6 8 7 7 8 6 9 90 10 82 11 83 12 89 13
REMARK SMILES IDX 84 14 87 15 85 16 88 17 86 18 2 19 1 20 3 21 4 22 5 23 14 24
REMARK SMILES IDX 15 25 16 26 17 27 18 29 19 30 20 31 81 32 21 33 80 34 22 35
REMARK SMILES IDX 23 36 24 37 74 38 25 39 79 40 73 41 75 42 26 43 78 44 72 45
REMARK SMILES IDX 71 46 27 48 59 49 39 50 58 51 40 52 43 53 57 54 76 55 41 56
REMARK SMILES IDX 42 57 56 59 77 60 44 61 28 62 29 63 37 64 30 65 36 66 38 67
REMARK SMILES IDX 35 68 31 69 32 70 33 71 34 72 60 73 61 74 69 75 62 76 68 77
REMARK SMILES IDX 70 78 67 79 63 80 64 81 65 82 66 83 45 84 46 85 54 86 47 87
REMARK SMILES IDX 53 88 55 89 52 90 48 91 49 92 50 93 51 94
REMARK H PARENT 12 5 16 28 75 47 43 58
REMARK Flexibility Score: inf
ROOT
ATOM      1  C   UNL A   1      31.832  29.700  25.029  1.00  0.00     0.117 C 
ENDROOT
BRANCH   1   2
ATOM      2  N   UNL A   1      33.109  29.615  24.351  1.00  0.00    -0.355 N 
ATOM      3  C   UNL A   1      33.602  28.598  23.599  1.00  0.00     0.230 C 
ATOM      4  O   UNL A   1      34.392  28.917  22.702  1.00  0.00    -0.274 OA
ATOM      5  H   UNL A   1      33.697  30.399  24.446  1.00  0.00     0.163 HD
BRANCH   3   6
ATOM      6  C   UNL A   1      33.159  27.158  23.742  1.00  0.00     0.178 C 
BRANCH   6   7
ATOM      7  S   UNL A   1      33.848  26.151  25.022  1.00  0.00    -0.078 SA
BRANCH   7   8
ATOM      8  C   UNL A   1      34.110  24.458  24.807  1.00  0.00     0.169 A 
ATOM      9  N   UNL A   1      33.321  23.321  24.775  1.00  0.00    -0.316 N 
ATOM     10  C   UNL A   1      34.201  22.221  24.728  1.00  0.00     0.071 A 
ATOM     11  N   UNL A   1      35.389  24.121  24.830  1.00  0.00    -0.222 NA
ATOM     12  C   UNL A   1      35.467  22.768  24.825  1.00  0.00     0.091 A 
ATOM     13  C   UNL A   1      34.006  20.831  24.661  1.00  0.00     0.050 A 
ATOM     14  C   UNL A   1      36.594  21.938  24.913  1.00  0.00     0.052 A 
ATOM     15  C   UNL A   1      35.137  20.004  24.728  1.00  0.00     0.061 A 
ATOM     16  C   UNL A   1      36.417  20.550  24.869  1.00  0.00     0.061 A 
ATOM     17  Cl  UNL A   1      34.862  18.296  24.646  1.00  0.00    -0.083 Cl
ATOM     18  Cl  UNL A   1      37.826  19.557  25.002  1.00  0.00    -0.083 Cl
BRANCH   9  19
ATOM     19  C   UNL A   1      31.885  23.058  24.886  1.00  0.00     0.090 C 
ATOM     20  C   UNL A   1      30.999  23.470  23.739  1.00  0.00     0.032 C 
BRANCH  19  21
ATOM     21  C   UNL A   1      31.359  23.358  26.273  1.00  0.00     0.012 C 
ATOM     22  C   UNL A   1      30.148  24.222  26.512  1.00  0.00     0.006 C 
ATOM     23  C   UNL A   1      30.094  22.756  26.839  1.00  0.00     0.006 C 
ENDBRANCH  19  21
ENDBRANCH   9  19
ENDBRANCH   7   8
ENDBRANCH   6   7
ENDBRANCH   3   6
ENDBRANCH   1   2
BRANCH   1  24
ATOM     24  C   UNL A   1      31.862  30.540  26.300  1.00  0.00     0.042 C 
BRANCH  24  25
ATOM     25  C   UNL A   1      33.066  30.335  27.221  1.00  0.00     0.118 C 
BRANCH  25  26
ATOM     26  N   UNL A   1      33.496  31.490  27.987  1.00  0.00    -0.352 N 
ATOM     27  C   UNL A   1      34.686  31.964  28.470  1.00  0.00     0.251 C 
ATOM     28  H   UNL A   1      32.743  32.082  28.216  1.00  0.00     0.163 HD
ATOM     29  O   UNL A   1      34.645  33.113  28.920  1.00  0.00    -0.269 OA
BRANCH  27  30
ATOM     30  C   UNL A   1      35.966  31.207  28.548  1.00  0.00     0.039 A 
ATOM     31  C   UNL A   1      36.139  29.865  28.217  1.00  0.00     0.014 A 
ATOM     32  C   UNL A   1      37.080  31.919  29.041  1.00  0.00     0.014 A 
ATOM     33  C   UNL A   1      37.360  29.233  28.458  1.00  0.00     0.010 A 
ATOM     34  C   UNL A   1      38.308  31.297  29.262  1.00  0.00     0.010 A 
ATOM     35  C   UNL A   1      38.441  29.938  29.006  1.00  0.00    -0.014 A 
BRANCH  35  36
ATOM     36  C   UNL A   1      39.718  29.233  29.155  1.00  0.00     0.031 A 
ATOM     37  C   UNL A   1      40.059  28.848  30.553  1.00  0.00     0.074 A 
ATOM     38  C   UNL A   1      40.525  28.826  28.153  1.00  0.00     0.049 A 
ATOM     39  N   UNL A   1      41.014  29.311  31.292  1.00  0.00    -0.248 NA
ATOM     40  C   UNL A   1      39.157  27.921  31.247  1.00  0.00     0.031 C 
ATOM     41  C   UNL A   1      40.244  28.801  26.718  1.00  0.00     0.029 A 
ATOM     42  N   UNL A   1      41.761  28.245  28.237  1.00  0.00    -0.354 N 
ATOM     43  C   UNL A   1      40.957  28.597  32.489  1.00  0.00     0.074 A 
ATOM     44  C   UNL A   1      39.710  27.874  32.459  1.00  0.00     0.031 C 
ATOM     45  C   UNL A   1      41.172  28.035  26.097  1.00  0.00     0.029 A 
ATOM     46  C   UNL A   1      42.187  27.640  27.063  1.00  0.00     0.049 A 
ATOM     47  H   UNL A   1      42.301  28.256  29.059  1.00  0.00     0.167 HD
ATOM     48  C   UNL A   1      42.031  28.508  33.328  1.00  0.00     0.034 A 
ATOM     49  C   UNL A   1      43.252  26.812  26.908  1.00  0.00     0.034 A 
ATOM     50  C   UNL A   1      43.029  29.496  33.009  1.00  0.00     0.049 A 
ATOM     51  C   UNL A   1      44.187  27.024  28.036  1.00  0.00     0.074 A 
ATOM     52  C   UNL A   1      43.044  30.874  32.933  1.00  0.00     0.029 A 
ATOM     53  N   UNL A   1      44.167  29.078  32.361  1.00  0.00    -0.354 N 
ATOM     54  N   UNL A   1      44.923  28.086  28.193  1.00  0.00    -0.248 NA
ATOM     55  C   UNL A   1      44.009  26.204  29.225  1.00  0.00     0.031 C 
ATOM     56  C   UNL A   1      43.898  31.173  31.834  1.00  0.00     0.029 A 
ATOM     57  C   UNL A   1      44.399  29.965  31.344  1.00  0.00     0.049 A 
ATOM     58  H   UNL A   1      44.712  28.290  32.586  1.00  0.00     0.167 HD
ATOM     59  C   UNL A   1      44.883  28.327  29.557  1.00  0.00     0.074 A 
ATOM     60  C   UNL A   1      44.418  27.075  30.149  1.00  0.00     0.031 C 
ATOM     61  C   UNL A   1      44.948  29.596  30.057  1.00  0.00     0.034 A 
BRANCH  48  62
ATOM     62  C   UNL A   1      42.325  27.319  34.217  1.00  0.00     0.023 A 
ATOM     63  C   UNL A   1      43.114  26.231  33.804  1.00  0.00     0.031 A 
ATOM     64  C   UNL A   1      42.014  27.358  35.594  1.00  0.00     0.131 A 
ATOM     65  C   UNL A   1      43.561  25.258  34.707  1.00  0.00     0.055 A 
ATOM     66  C   UNL A   1      42.519  26.425  36.510  1.00  0.00     0.041 A 
ATOM     67  F   UNL A   1      41.264  28.346  36.108  1.00  0.00    -0.206 F 
ATOM     68  C   UNL A   1      43.302  25.368  36.067  1.00  0.00     0.022 A 
BRANCH  65  69
ATOM     69  S   UNL A   1      44.515  23.835  34.110  1.00  0.00     0.124 S 
ATOM     70  O   UNL A   1      45.123  23.344  35.347  1.00  0.00    -0.237 OA
ATOM     71  O   UNL A   1      43.460  22.990  33.549  1.00  0.00    -0.237 OA
ATOM     72  O   UNL A   1      45.427  24.414  33.139  1.00  0.00    -0.744 OA
ENDBRANCH  65  69
ENDBRANCH  48  62
BRANCH  49  73
ATOM     73  C   UNL A   1      43.294  25.568  26.101  1.00  0.00     0.023 A 
ATOM     74  C   UNL A   1      42.450  24.494  26.433  1.00  0.00     0.031 A 
ATOM     75  C   UNL A   1      44.367  25.298  25.230  1.00  0.00     0.131 A 
ATOM     76  C   UNL A   1      42.721  23.202  25.968  1.00  0.00     0.055 A 
ATOM     77  C   UNL A   1      44.627  24.008  24.752  1.00  0.00     0.041 A 
ATOM     78  F   UNL A   1      45.231  26.267  24.891  1.00  0.00    -0.206 F 
ATOM     79  C   UNL A   1      43.810  22.948  25.134  1.00  0.00     0.022 A 
BRANCH  76  80
ATOM     80  S   UNL A   1      41.695  21.813  26.520  1.00  0.00     0.124 S 
ATOM     81  O   UNL A   1      42.001  21.745  27.947  1.00  0.00    -0.237 OA
ATOM     82  O   UNL A   1      40.355  22.283  26.186  1.00  0.00    -0.237 OA
ATOM     83  O   UNL A   1      42.191  20.688  25.731  1.00  0.00    -0.744 OA
ENDBRANCH  76  80
ENDBRANCH  49  73
BRANCH  61  84
ATOM     84  C   UNL A   1      45.342  30.742  29.151  1.00  0.00     0.023 A 
ATOM     85  C   UNL A   1      46.638  31.266  29.315  1.00  0.00     0.031 A 
ATOM     86  C   UNL A   1      44.451  31.461  28.330  1.00  0.00     0.131 A 
ATOM     87  C   UNL A   1      46.994  32.482  28.721  1.00  0.00     0.055 A 
ATOM     88  C   UNL A   1      44.837  32.635  27.674  1.00  0.00     0.041 A 
ATOM     89  F   UNL A   1      43.163  31.112  28.208  1.00  0.00    -0.206 F 
ATOM     90  C   UNL A   1      46.107  33.162  27.883  1.00  0.00     0.022 A 
BRANCH  87  91
ATOM     91  S   UNL A   1      48.553  33.292  29.160  1.00  0.00     0.124 S 
ATOM     92  O   UNL A   1      48.805  34.130  27.991  1.00  0.00    -0.237 OA
ATOM     93  O   UNL A   1      48.196  34.012  30.381  1.00  0.00    -0.237 OA
ATOM     94  O   UNL A   1      49.486  32.185  29.349  1.00  0.00    -0.744 OA
ENDBRANCH  87  91
ENDBRANCH  61  84
ENDBRANCH  35  36
ENDBRANCH  27  30
ENDBRANCH  25  26
ENDBRANCH  24  25
ENDBRANCH   1  24
TORSDOF 17
ENDMDL
