MODEL 1
REMARK VINA RESULT:     -12.0      0.000      0.000
REMARK SMILES CCOc1ccc(-c2cc(Cl)cc3c2O[C@H](C(F)(F)F)C(C(=O)NCCCNC(=O)c2ccc(-c4c5nc(c(-c6cc(S(=O)(=O)[O-])ccc6F)c6ccc([nH]6)c(-c6cc(S(=O)(=O)[O-])ccc6F)c6nc(c(-c7cc(S(=O)(=O)[O-])ccc7F)c7ccc4[nH]7)C=C6)C=C5)cc2)=C3)cc1
REMARK SMILES IDX 26 1 25 2 24 3 22 4 23 5 21 7 8 8 9 9 14 10 10 11 13 12
REMARK SMILES IDX 15 13 11 14 12 15 94 16 16 17 7 18 4 19 5 20 96 21 6 22
REMARK SMILES IDX 95 23 3 24 2 25 1 26 17 27 18 28 19 29 20 30 27 31 28 32
REMARK SMILES IDX 29 33 30 35 31 36 32 37 93 38 33 39 92 40 34 41 35 42 36 43
REMARK SMILES IDX 86 44 37 45 91 46 85 47 87 48 38 49 90 50 84 51 83 52 39 54
REMARK SMILES IDX 71 55 51 56 70 57 52 58 55 59 69 60 88 61 53 62 54 63 68 65
REMARK SMILES IDX 89 66 56 67 40 68 41 69 49 70 42 71 48 72 50 73 47 74 43 75
REMARK SMILES IDX 44 76 45 77 46 78 72 79 73 80 81 81 74 82 80 83 82 84 79 85
REMARK SMILES IDX 75 86 76 87 77 88 78 89 57 90 58 91 66 92 59 93 65 94 67 95
REMARK SMILES IDX 64 96 60 97 61 98 62 99 63 100
REMARK H PARENT 24 6 28 34 87 53 55 64
REMARK Flexibility Score: inf
ROOT
ATOM      1  C   UNL A   1      31.699  32.997  26.334  1.00  0.00     0.042 C 
ENDROOT
BRANCH   1   2
ATOM      2  C   UNL A   1      30.857  31.744  26.585  1.00  0.00     0.118 C 
BRANCH   2   3
ATOM      3  N   UNL A   1      31.139  30.743  25.575  1.00  0.00    -0.352 N 
ATOM      4  C   UNL A   1      32.299  30.061  25.412  1.00  0.00     0.251 C 
ATOM      5  O   UNL A   1      32.729  29.841  24.286  1.00  0.00    -0.270 OA
ATOM      6  H   UNL A   1      30.413  30.539  24.942  1.00  0.00     0.163 HD
BRANCH   4   7
ATOM      7  C   UNL A   1      32.919  29.477  26.638  1.00  0.00     0.067 C 
ATOM      8  C   UNL A   1      33.365  25.626  25.388  1.00  0.00     0.026 A 
ATOM      9  C   UNL A   1      32.156  25.232  24.762  1.00  0.00     0.033 A 
ATOM     10  C   UNL A   1      33.323  26.816  26.136  1.00  0.00     0.135 A 
ATOM     11  C   UNL A   1      30.946  25.879  25.004  1.00  0.00     0.042 A 
ATOM     12  C   UNL A   1      32.070  27.390  26.461  1.00  0.00     0.019 A 
ATOM     13  O   UNL A   1      34.465  27.485  26.551  1.00  0.00    -0.475 OA
ATOM     14  Cl  UNL A   1      29.521  25.345  24.204  1.00  0.00    -0.084 Cl
ATOM     15  C   UNL A   1      30.882  26.921  25.910  1.00  0.00     0.032 A 
ATOM     16  C   UNL A   1      32.074  28.633  27.265  1.00  0.00     0.025 C 
ATOM     17  C   UNL A   1      34.344  28.969  26.446  1.00  0.00     0.314 C 
BRANCH   8  18
ATOM     18  C   UNL A   1      34.453  24.617  25.370  1.00  0.00    -0.014 A 
ATOM     19  C   UNL A   1      35.752  22.130  24.991  1.00  0.00     0.119 A 
ATOM     20  C   UNL A   1      35.815  23.107  24.002  1.00  0.00     0.047 A 
ATOM     21  C   UNL A   1      35.159  22.431  26.212  1.00  0.00     0.047 A 
ATOM     22  C   UNL A   1      35.179  24.342  24.192  1.00  0.00     0.013 A 
ATOM     23  C   UNL A   1      34.520  23.665  26.402  1.00  0.00     0.013 A 
BRANCH  19  24
ATOM     24  O   UNL A   1      36.358  20.928  24.748  1.00  0.00    -0.494 OA
BRANCH  24  25
ATOM     25  C   UNL A   1      37.742  20.877  25.126  1.00  0.00     0.226 C 
ATOM     26  C   UNL A   1      38.274  19.453  25.088  1.00  0.00     0.049 C 
ENDBRANCH  24  25
ENDBRANCH  19  24
ENDBRANCH   8  18
BRANCH  17  27
ATOM     27  C   UNL A   1      35.263  29.687  27.459  1.00  0.00     0.429 C 
ATOM     28  F   UNL A   1      36.531  29.824  27.006  1.00  0.00    -0.167 F 
ATOM     29  F   UNL A   1      34.798  30.925  27.752  1.00  0.00    -0.167 F 
ATOM     30  F   UNL A   1      35.352  29.025  28.642  1.00  0.00    -0.167 F 
ENDBRANCH  17  27
ENDBRANCH   4   7
ENDBRANCH   2   3
ENDBRANCH   1   2
BRANCH   1  31
ATOM     31  C   UNL A   1      32.755  33.278  27.401  1.00  0.00     0.118 C 
BRANCH  31  32
ATOM     32  N   UNL A   1      32.605  34.584  28.022  1.00  0.00    -0.352 N 
ATOM     33  C   UNL A   1      33.286  35.113  29.092  1.00  0.00     0.251 C 
ATOM     34  H   UNL A   1      31.924  35.170  27.620  1.00  0.00     0.163 HD
ATOM     35  O   UNL A   1      32.920  36.177  29.583  1.00  0.00    -0.269 OA
BRANCH  33  36
ATOM     36  C   UNL A   1      34.432  34.375  29.665  1.00  0.00     0.039 A 
ATOM     37  C   UNL A   1      35.709  34.591  29.142  1.00  0.00     0.014 A 
ATOM     38  C   UNL A   1      34.249  33.493  30.734  1.00  0.00     0.014 A 
ATOM     39  C   UNL A   1      36.813  33.977  29.740  1.00  0.00     0.010 A 
ATOM     40  C   UNL A   1      35.356  32.947  31.376  1.00  0.00     0.010 A 
ATOM     41  C   UNL A   1      36.651  33.182  30.887  1.00  0.00    -0.014 A 
BRANCH  41  42
ATOM     42  C   UNL A   1      37.816  32.574  31.584  1.00  0.00     0.031 A 
ATOM     43  C   UNL A   1      38.545  31.418  30.954  1.00  0.00     0.074 A 
ATOM     44  C   UNL A   1      38.168  33.008  32.812  1.00  0.00     0.049 A 
ATOM     45  N   UNL A   1      39.498  30.670  31.447  1.00  0.00    -0.248 NA
ATOM     46  C   UNL A   1      38.116  31.033  29.601  1.00  0.00     0.031 C 
ATOM     47  C   UNL A   1      37.517  34.098  33.543  1.00  0.00     0.029 A 
ATOM     48  N   UNL A   1      39.151  32.578  33.668  1.00  0.00    -0.354 N 
ATOM     49  C   UNL A   1      39.767  29.712  30.475  1.00  0.00     0.074 A 
ATOM     50  C   UNL A   1      38.830  29.937  29.394  1.00  0.00     0.031 C 
ATOM     51  C   UNL A   1      38.132  34.263  34.726  1.00  0.00     0.029 A 
ATOM     52  C   UNL A   1      39.184  33.262  34.863  1.00  0.00     0.049 A 
ATOM     53  H   UNL A   1      39.773  31.847  33.449  1.00  0.00     0.167 HD
ATOM     54  C   UNL A   1      40.722  28.748  30.472  1.00  0.00     0.034 A 
ATOM     55  C   UNL A   1      39.961  33.089  35.951  1.00  0.00     0.034 A 
ATOM     56  C   UNL A   1      41.660  28.550  31.550  1.00  0.00     0.049 A 
ATOM     57  C   UNL A   1      41.001  31.995  35.937  1.00  0.00     0.074 A 
ATOM     58  C   UNL A   1      42.702  27.643  31.631  1.00  0.00     0.029 A 
ATOM     59  N   UNL A   1      41.668  29.267  32.741  1.00  0.00    -0.354 N 
ATOM     60  N   UNL A   1      41.270  31.123  34.992  1.00  0.00    -0.248 NA
ATOM     61  C   UNL A   1      41.845  31.869  37.132  1.00  0.00     0.031 C 
ATOM     62  C   UNL A   1      43.293  27.763  32.893  1.00  0.00     0.029 A 
ATOM     63  C   UNL A   1      42.675  28.801  33.572  1.00  0.00     0.049 A 
ATOM     64  H   UNL A   1      41.048  29.998  32.963  1.00  0.00     0.167 HD
ATOM     65  C   UNL A   1      42.339  30.367  35.468  1.00  0.00     0.074 A 
ATOM     66  C   UNL A   1      42.670  30.896  36.776  1.00  0.00     0.031 C 
ATOM     67  C   UNL A   1      42.990  29.333  34.878  1.00  0.00     0.034 A 
BRANCH  54  68
ATOM     68  C   UNL A   1      40.775  27.826  29.276  1.00  0.00     0.023 A 
ATOM     69  C   UNL A   1      41.705  28.013  28.238  1.00  0.00     0.031 A 
ATOM     70  C   UNL A   1      39.861  26.765  29.152  1.00  0.00     0.131 A 
ATOM     71  C   UNL A   1      41.644  27.213  27.088  1.00  0.00     0.055 A 
ATOM     72  C   UNL A   1      39.863  25.915  28.044  1.00  0.00     0.041 A 
ATOM     73  F   UNL A   1      38.934  26.545  30.099  1.00  0.00    -0.206 F 
ATOM     74  C   UNL A   1      40.747  26.148  26.994  1.00  0.00     0.022 A 
BRANCH  71  75
ATOM     75  S   UNL A   1      42.645  27.687  25.651  1.00  0.00     0.124 S 
ATOM     76  O   UNL A   1      43.940  27.957  26.272  1.00  0.00    -0.237 OA
ATOM     77  O   UNL A   1      42.575  26.497  24.812  1.00  0.00    -0.237 OA
ATOM     78  O   UNL A   1      41.957  28.864  25.126  1.00  0.00    -0.744 OA
ENDBRANCH  71  75
ENDBRANCH  54  68
BRANCH  55  79
ATOM     79  C   UNL A   1      39.786  33.956  37.153  1.00  0.00     0.023 A 
ATOM     80  C   UNL A   1      39.128  33.480  38.297  1.00  0.00     0.031 A 
ATOM     81  C   UNL A   1      40.237  35.289  37.158  1.00  0.00     0.131 A 
ATOM     82  C   UNL A   1      38.892  34.343  39.380  1.00  0.00     0.055 A 
ATOM     83  C   UNL A   1      40.049  36.127  38.259  1.00  0.00     0.041 A 
ATOM     84  F   UNL A   1      40.876  35.794  36.091  1.00  0.00    -0.206 F 
ATOM     85  C   UNL A   1      39.361  35.659  39.374  1.00  0.00     0.022 A 
BRANCH  82  86
ATOM     86  S   UNL A   1      37.885  33.744  40.765  1.00  0.00     0.124 S 
ATOM     87  O   UNL A   1      37.560  34.987  41.454  1.00  0.00    -0.237 OA
ATOM     88  O   UNL A   1      36.782  33.085  40.073  1.00  0.00    -0.237 OA
ATOM     89  O   UNL A   1      38.791  32.849  41.482  1.00  0.00    -0.744 OA
ENDBRANCH  82  86
ENDBRANCH  55  79
BRANCH  67  90
ATOM     90  C   UNL A   1      44.161  28.741  35.625  1.00  0.00     0.023 A 
ATOM     91  C   UNL A   1      44.006  27.671  36.523  1.00  0.00     0.031 A 
ATOM     92  C   UNL A   1      45.453  29.266  35.438  1.00  0.00     0.131 A 
ATOM     93  C   UNL A   1      45.112  27.197  37.243  1.00  0.00     0.055 A 
ATOM     94  C   UNL A   1      46.561  28.748  36.110  1.00  0.00     0.041 A 
ATOM     95  F   UNL A   1      45.660  30.290  34.596  1.00  0.00    -0.206 F 
ATOM     96  C   UNL A   1      46.393  27.716  37.028  1.00  0.00     0.022 A 
BRANCH  93  97
ATOM     97  S   UNL A   1      44.844  25.953  38.535  1.00  0.00     0.124 S 
ATOM     98  O   UNL A   1      46.209  25.635  38.938  1.00  0.00    -0.237 OA
ATOM     99  O   UNL A   1      44.045  26.684  39.512  1.00  0.00    -0.237 OA
ATOM    100  O   UNL A   1      44.137  24.879  37.837  1.00  0.00    -0.744 OA
ENDBRANCH  93  97
ENDBRANCH  67  90
ENDBRANCH  41  42
ENDBRANCH  33  36
ENDBRANCH  31  32
ENDBRANCH   1  31
TORSDOF 17
ENDMDL
MODEL 2
REMARK VINA RESULT:     -11.9      2.913      3.830
REMARK SMILES CCOc1ccc(-c2cc(Cl)cc3c2O[C@H](C(F)(F)F)C(C(=O)NCCCNC(=O)c2ccc(-c4c5nc(c(-c6cc(S(=O)(=O)[O-])ccc6F)c6ccc([nH]6)c(-c6cc(S(=O)(=O)[O-])ccc6F)c6nc(c(-c7cc(S(=O)(=O)[O-])ccc7F)c7ccc4[nH]7)C=C6)C=C5)cc2)=C3)cc1
REMARK SMILES IDX 26 1 25 2 24 3 22 4 23 5 21 7 8 8 9 9 14 10 10 11 13 12
REMARK SMILES IDX 15 13 11 14 12 15 94 16 16 17 7 18 4 19 5 20 96 21 6 22
REMARK SMILES IDX 95 23 3 24 2 25 1 26 17 27 18 28 19 29 20 30 27 31 28 32
REMARK SMILES IDX 29 33 30 35 31 36 32 37 93 38 33 39 92 40 34 41 35 42 36 43
REMARK SMILES IDX 86 44 37 45 91 46 85 47 87 48 38 49 90 50 84 51 83 52 39 54
REMARK SMILES IDX 71 55 51 56 70 57 52 58 55 59 69 60 88 61 53 62 54 63 68 65
REMARK SMILES IDX 89 66 56 67 40 68 41 69 49 70 42 71 48 72 50 73 47 74 43 75
REMARK SMILES IDX 44 76 45 77 46 78 72 79 73 80 81 81 74 82 80 83 82 84 79 85
REMARK SMILES IDX 75 86 76 87 77 88 78 89 57 90 58 91 66 92 59 93 65 94 67 95
REMARK SMILES IDX 64 96 60 97 61 98 62 99 63 100
REMARK H PARENT 24 6 28 34 87 53 55 64
REMARK Flexibility Score: inf
ROOT
ATOM      1  C   UNL A   1      31.845  29.765  25.303  1.00  0.00     0.042 C 
ENDROOT
BRANCH   1   2
ATOM      2  C   UNL A   1      33.078  29.233  24.570  1.00  0.00     0.118 C 
BRANCH   2   3
ATOM      3  N   UNL A   1      33.619  28.086  25.271  1.00  0.00    -0.352 N 
ATOM      4  C   UNL A   1      33.026  26.876  25.423  1.00  0.00     0.251 C 
ATOM      5  O   UNL A   1      33.111  26.280  26.491  1.00  0.00    -0.270 OA
ATOM      6  H   UNL A   1      34.507  28.197  25.680  1.00  0.00     0.163 HD
BRANCH   4   7
ATOM      7  C   UNL A   1      32.417  26.262  24.206  1.00  0.00     0.067 C 
ATOM      8  C   UNL A   1      33.580  22.398  24.755  1.00  0.00     0.026 A 
ATOM      9  C   UNL A   1      34.949  22.406  25.123  1.00  0.00     0.033 A 
ATOM     10  C   UNL A   1      33.061  23.602  24.247  1.00  0.00     0.135 A 
ATOM     11  C   UNL A   1      35.789  23.483  24.844  1.00  0.00     0.042 A 
ATOM     12  C   UNL A   1      33.950  24.637  23.867  1.00  0.00     0.019 A 
ATOM     13  O   UNL A   1      31.701  23.844  24.128  1.00  0.00    -0.475 OA
ATOM     14  Cl  UNL A   1      37.439  23.421  25.325  1.00  0.00    -0.084 Cl
ATOM     15  C   UNL A   1      35.310  24.579  24.151  1.00  0.00     0.032 A 
ATOM     16  C   UNL A   1      33.360  25.880  23.321  1.00  0.00     0.025 C 
ATOM     17  C   UNL A   1      31.322  25.241  24.493  1.00  0.00     0.314 C 
BRANCH   8  18
ATOM     18  C   UNL A   1      32.932  21.063  24.733  1.00  0.00    -0.014 A 
ATOM     19  C   UNL A   1      32.642  18.266  24.399  1.00  0.00     0.119 A 
ATOM     20  C   UNL A   1      32.895  18.795  25.661  1.00  0.00     0.047 A 
ATOM     21  C   UNL A   1      32.405  19.127  23.332  1.00  0.00     0.047 A 
ATOM     22  C   UNL A   1      33.032  20.180  25.828  1.00  0.00     0.013 A 
ATOM     23  C   UNL A   1      32.544  20.512  23.499  1.00  0.00     0.013 A 
BRANCH  19  24
ATOM     24  O   UNL A   1      32.550  16.907  24.276  1.00  0.00    -0.494 OA
BRANCH  24  25
ATOM     25  C   UNL A   1      33.808  16.247  24.059  1.00  0.00     0.226 C 
ATOM     26  C   UNL A   1      34.452  15.842  25.375  1.00  0.00     0.049 C 
ENDBRANCH  24  25
ENDBRANCH  19  24
ENDBRANCH   8  18
BRANCH  17  27
ATOM     27  C   UNL A   1      30.031  25.686  23.771  1.00  0.00     0.429 C 
ATOM     28  F   UNL A   1      29.488  24.701  23.019  1.00  0.00    -0.167 F 
ATOM     29  F   UNL A   1      29.088  26.092  24.655  1.00  0.00    -0.167 F 
ATOM     30  F   UNL A   1      30.239  26.735  22.932  1.00  0.00    -0.167 F 
ENDBRANCH  17  27
ENDBRANCH   4   7
ENDBRANCH   2   3
ENDBRANCH   1   2
BRANCH   1  31
ATOM     31  C   UNL A   1      32.122  30.306  26.704  1.00  0.00     0.118 C 
BRANCH  31  32
ATOM     32  N   UNL A   1      32.013  31.754  26.788  1.00  0.00    -0.352 N 
ATOM     33  C   UNL A   1      32.846  32.646  27.420  1.00  0.00     0.251 C 
ATOM     34  H   UNL A   1      31.236  32.148  26.330  1.00  0.00     0.163 HD
ATOM     35  O   UNL A   1      32.513  33.824  27.522  1.00  0.00    -0.269 OA
BRANCH  33  36
ATOM     36  C   UNL A   1      34.118  32.170  28.003  1.00  0.00     0.039 A 
ATOM     37  C   UNL A   1      35.139  33.090  28.247  1.00  0.00     0.014 A 
ATOM     38  C   UNL A   1      34.290  30.823  28.332  1.00  0.00     0.014 A 
ATOM     39  C   UNL A   1      36.307  32.670  28.891  1.00  0.00     0.010 A 
ATOM     40  C   UNL A   1      35.418  30.425  29.043  1.00  0.00     0.010 A 
ATOM     41  C   UNL A   1      36.440  31.343  29.330  1.00  0.00    -0.014 A 
BRANCH  41  42
ATOM     42  C   UNL A   1      37.642  30.887  30.079  1.00  0.00     0.031 A 
ATOM     43  C   UNL A   1      38.616  29.942  29.427  1.00  0.00     0.074 A 
ATOM     44  C   UNL A   1      37.817  31.259  31.364  1.00  0.00     0.049 A 
ATOM     45  N   UNL A   1      39.651  29.331  29.942  1.00  0.00    -0.248 NA
ATOM     46  C   UNL A   1      38.366  29.617  28.015  1.00  0.00     0.031 C 
ATOM     47  C   UNL A   1      36.925  32.143  32.118  1.00  0.00     0.029 A 
ATOM     48  N   UNL A   1      38.796  30.930  32.268  1.00  0.00    -0.354 N 
ATOM     49  C   UNL A   1      40.163  28.531  28.925  1.00  0.00     0.074 A 
ATOM     50  C   UNL A   1      39.283  28.689  27.786  1.00  0.00     0.031 C 
ATOM     51  C   UNL A   1      37.410  32.301  33.360  1.00  0.00     0.029 A 
ATOM     52  C   UNL A   1      38.615  31.492  33.511  1.00  0.00     0.049 A 
ATOM     53  H   UNL A   1      39.557  30.344  32.048  1.00  0.00     0.167 HD
ATOM     54  C   UNL A   1      41.276  27.756  28.932  1.00  0.00     0.034 A 
ATOM     55  C   UNL A   1      39.328  31.357  34.647  1.00  0.00     0.034 A 
ATOM     56  C   UNL A   1      42.152  27.625  30.070  1.00  0.00     0.049 A 
ATOM     57  C   UNL A   1      40.549  30.470  34.640  1.00  0.00     0.074 A 
ATOM     58  C   UNL A   1      43.334  26.912  30.171  1.00  0.00     0.029 A 
ATOM     59  N   UNL A   1      41.940  28.216  31.310  1.00  0.00    -0.354 N 
ATOM     60  N   UNL A   1      41.043  29.753  33.657  1.00  0.00    -0.248 NA
ATOM     61  C   UNL A   1      41.311  30.383  35.892  1.00  0.00     0.031 C 
ATOM     62  C   UNL A   1      43.798  27.016  31.487  1.00  0.00     0.029 A 
ATOM     63  C   UNL A   1      42.951  27.860  32.188  1.00  0.00     0.049 A 
ATOM     64  H   UNL A   1      41.181  28.803  31.533  1.00  0.00     0.167 HD
ATOM     65  C   UNL A   1      42.194  29.156  34.165  1.00  0.00     0.074 A 
ATOM     66  C   UNL A   1      42.325  29.609  35.535  1.00  0.00     0.031 C 
ATOM     67  C   UNL A   1      43.066  28.313  33.556  1.00  0.00     0.034 A 
BRANCH  54  68
ATOM     68  C   UNL A   1      41.585  26.974  27.676  1.00  0.00     0.023 A 
ATOM     69  C   UNL A   1      41.389  25.584  27.602  1.00  0.00     0.031 A 
ATOM     70  C   UNL A   1      42.116  27.621  26.546  1.00  0.00     0.131 A 
ATOM     71  C   UNL A   1      41.803  24.876  26.465  1.00  0.00     0.055 A 
ATOM     72  C   UNL A   1      42.443  26.922  25.381  1.00  0.00     0.041 A 
ATOM     73  F   UNL A   1      42.346  28.944  26.559  1.00  0.00    -0.206 F 
ATOM     74  C   UNL A   1      42.303  25.538  25.342  1.00  0.00     0.022 A 
BRANCH  71  75
ATOM     75  S   UNL A   1      41.825  23.063  26.536  1.00  0.00     0.124 S 
ATOM     76  O   UNL A   1      42.406  22.725  25.238  1.00  0.00    -0.237 OA
ATOM     77  O   UNL A   1      42.666  22.804  27.699  1.00  0.00    -0.237 OA
ATOM     78  O   UNL A   1      40.417  22.708  26.692  1.00  0.00    -0.744 OA
ENDBRANCH  71  75
ENDBRANCH  54  68
BRANCH  55  79
ATOM     79  C   UNL A   1      38.909  32.062  35.894  1.00  0.00     0.023 A 
ATOM     80  C   UNL A   1      38.175  31.398  36.888  1.00  0.00     0.031 A 
ATOM     81  C   UNL A   1      39.199  33.426  36.089  1.00  0.00     0.131 A 
ATOM     82  C   UNL A   1      37.710  32.106  38.008  1.00  0.00     0.055 A 
ATOM     83  C   UNL A   1      38.783  34.112  37.232  1.00  0.00     0.041 A 
ATOM     84  F   UNL A   1      39.902  34.109  35.172  1.00  0.00    -0.206 F 
ATOM     85  C   UNL A   1      38.022  33.455  38.193  1.00  0.00     0.022 A 
BRANCH  82  86
ATOM     86  S   UNL A   1      36.617  31.257  39.181  1.00  0.00     0.124 S 
ATOM     87  O   UNL A   1      36.421  29.969  38.525  1.00  0.00    -0.237 OA
ATOM     88  O   UNL A   1      37.428  31.244  40.395  1.00  0.00    -0.237 OA
ATOM     89  O   UNL A   1      35.438  32.119  39.231  1.00  0.00    -0.744 OA
ENDBRANCH  82  86
ENDBRANCH  55  79
BRANCH  67  90
ATOM     90  C   UNL A   1      44.267  27.869  34.355  1.00  0.00     0.023 A 
ATOM     91  C   UNL A   1      44.269  26.670  35.089  1.00  0.00     0.031 A 
ATOM     92  C   UNL A   1      45.425  28.667  34.388  1.00  0.00     0.131 A 
ATOM     93  C   UNL A   1      45.385  26.331  35.869  1.00  0.00     0.055 A 
ATOM     94  C   UNL A   1      46.555  28.293  35.115  1.00  0.00     0.041 A 
ATOM     95  F   UNL A   1      45.477  29.824  33.709  1.00  0.00    -0.206 F 
ATOM     96  C   UNL A   1      46.536  27.125  35.871  1.00  0.00     0.022 A 
BRANCH  93  97
ATOM     97  S   UNL A   1      45.281  24.883  36.956  1.00  0.00     0.124 S 
ATOM     98  O   UNL A   1      44.365  24.017  36.221  1.00  0.00    -0.237 OA
ATOM     99  O   UNL A   1      46.668  24.437  37.017  1.00  0.00    -0.237 OA
ATOM    100  O   UNL A   1      44.750  25.428  38.205  1.00  0.00    -0.744 OA
ENDBRANCH  93  97
ENDBRANCH  67  90
ENDBRANCH  41  42
ENDBRANCH  33  36
ENDBRANCH  31  32
ENDBRANCH   1  31
TORSDOF 17
ENDMDL
MODEL 3
REMARK VINA RESULT:     -11.8      3.306      8.396
REMARK SMILES CCOc1ccc(-c2cc(Cl)cc3c2O[C@H](C(F)(F)F)C(C(=O)NCCCNC(=O)c2ccc(-c4c5nc(c(-c6cc(S(=O)(=O)[O-])ccc6F)c6ccc([nH]6)c(-c6cc(S(=O)(=O)[O-])ccc6F)c6nc(c(-c7cc(S(=O)(=O)[O-])ccc7F)c7ccc4[nH]7)C=C6)C=C5)cc2)=C3)cc1
REMARK SMILES IDX 26 1 25 2 24 3 22 4 23 5 21 7 8 8 9 9 14 10 10 11 13 12
REMARK SMILES IDX 15 13 11 14 12 15 94 16 16 17 7 18 4 19 5 20 96 21 6 22
REMARK SMILES IDX 95 23 3 24 2 25 1 26 17 27 18 28 19 29 20 30 27 31 28 32
REMARK SMILES IDX 29 33 30 35 31 36 32 37 93 38 33 39 92 40 34 41 35 42 36 43
REMARK SMILES IDX 86 44 37 45 91 46 85 47 87 48 38 49 90 50 84 51 83 52 39 54
REMARK SMILES IDX 71 55 51 56 70 57 52 58 55 59 69 60 88 61 53 62 54 63 68 65
REMARK SMILES IDX 89 66 56 67 40 68 41 69 49 70 42 71 48 72 50 73 47 74 43 75
REMARK SMILES IDX 44 76 45 77 46 78 72 79 73 80 81 81 74 82 80 83 82 84 79 85
REMARK SMILES IDX 75 86 76 87 77 88 78 89 57 90 58 91 66 92 59 93 65 94 67 95
REMARK SMILES IDX 64 96 60 97 61 98 62 99 63 100
REMARK H PARENT 24 6 28 34 87 53 55 64
REMARK Flexibility Score: inf
ROOT
ATOM      1  C   UNL A   1      32.302  29.701  25.531  1.00  0.00     0.042 C 
ENDROOT
BRANCH   1   2
ATOM      2  C   UNL A   1      33.293  28.971  24.622  1.00  0.00     0.118 C 
BRANCH   2   3
ATOM      3  N   UNL A   1      33.824  27.805  25.298  1.00  0.00    -0.352 N 
ATOM      4  C   UNL A   1      33.231  26.589  25.405  1.00  0.00     0.251 C 
ATOM      5  O   UNL A   1      33.299  25.963  26.456  1.00  0.00    -0.270 OA
ATOM      6  H   UNL A   1      34.705  27.905  25.726  1.00  0.00     0.163 HD
BRANCH   4   7
ATOM      7  C   UNL A   1      32.645  26.011  24.160  1.00  0.00     0.067 C 
ATOM      8  C   UNL A   1      33.692  22.110  24.681  1.00  0.00     0.026 A 
ATOM      9  C   UNL A   1      35.049  22.077  25.090  1.00  0.00     0.033 A 
ATOM     10  C   UNL A   1      33.220  23.334  24.177  1.00  0.00     0.135 A 
ATOM     11  C   UNL A   1      35.924  23.135  24.855  1.00  0.00     0.042 A 
ATOM     12  C   UNL A   1      34.146  24.352  23.842  1.00  0.00     0.019 A 
ATOM     13  O   UNL A   1      31.871  23.614  24.020  1.00  0.00    -0.475 OA
ATOM     14  Cl  UNL A   1      37.556  23.024  25.385  1.00  0.00    -0.084 Cl
ATOM     15  C   UNL A   1      35.495  24.254  24.166  1.00  0.00     0.032 A 
ATOM     16  C   UNL A   1      33.605  25.619  23.298  1.00  0.00     0.025 C 
ATOM     17  C   UNL A   1      31.516  25.014  24.397  1.00  0.00     0.314 C 
BRANCH   8  18
ATOM     18  C   UNL A   1      33.012  20.793  24.616  1.00  0.00    -0.014 A 
ATOM     19  C   UNL A   1      32.647  18.020  24.174  1.00  0.00     0.119 A 
ATOM     20  C   UNL A   1      32.938  18.489  25.451  1.00  0.00     0.047 A 
ATOM     21  C   UNL A   1      32.410  18.930  23.149  1.00  0.00     0.047 A 
ATOM     22  C   UNL A   1      33.111  19.863  25.672  1.00  0.00     0.013 A 
ATOM     23  C   UNL A   1      32.587  20.303  23.369  1.00  0.00     0.013 A 
BRANCH  19  24
ATOM     24  O   UNL A   1      32.520  16.669  23.997  1.00  0.00    -0.494 OA
BRANCH  24  25
ATOM     25  C   UNL A   1      33.297  15.878  24.910  1.00  0.00     0.226 C 
ATOM     26  C   UNL A   1      32.434  14.845  25.618  1.00  0.00     0.049 C 
ENDBRANCH  24  25
ENDBRANCH  19  24
ENDBRANCH   8  18
BRANCH  17  27
ATOM     27  C   UNL A   1      30.260  25.504  23.642  1.00  0.00     0.429 C 
ATOM     28  F   UNL A   1      29.627  24.507  22.981  1.00  0.00    -0.167 F 
ATOM     29  F   UNL A   1      29.364  26.063  24.491  1.00  0.00    -0.167 F 
ATOM     30  F   UNL A   1      30.547  26.454  22.714  1.00  0.00    -0.167 F 
ENDBRANCH  17  27
ENDBRANCH   4   7
ENDBRANCH   2   3
ENDBRANCH   1   2
BRANCH   1  31
ATOM     31  C   UNL A   1      32.872  30.122  26.885  1.00  0.00     0.118 C 
BRANCH  31  32
ATOM     32  N   UNL A   1      32.944  31.565  27.049  1.00  0.00    -0.352 N 
ATOM     33  C   UNL A   1      33.911  32.313  27.677  1.00  0.00     0.251 C 
ATOM     34  H   UNL A   1      32.199  32.075  26.657  1.00  0.00     0.163 HD
ATOM     35  O   UNL A   1      33.730  33.514  27.859  1.00  0.00    -0.269 OA
BRANCH  33  36
ATOM     36  C   UNL A   1      35.144  31.656  28.161  1.00  0.00     0.039 A 
ATOM     37  C   UNL A   1      36.334  32.384  28.191  1.00  0.00     0.014 A 
ATOM     38  C   UNL A   1      35.116  30.332  28.608  1.00  0.00     0.014 A 
ATOM     39  C   UNL A   1      37.483  31.807  28.740  1.00  0.00     0.010 A 
ATOM     40  C   UNL A   1      36.239  29.789  29.225  1.00  0.00     0.010 A 
ATOM     41  C   UNL A   1      37.435  30.519  29.299  1.00  0.00    -0.014 A 
BRANCH  41  42
ATOM     42  C   UNL A   1      38.624  29.908  29.952  1.00  0.00     0.031 A 
ATOM     43  C   UNL A   1      39.051  30.378  31.317  1.00  0.00     0.074 A 
ATOM     44  C   UNL A   1      39.361  28.993  29.290  1.00  0.00     0.049 A 
ATOM     45  N   UNL A   1      40.120  30.068  32.004  1.00  0.00    -0.248 NA
ATOM     46  C   UNL A   1      38.171  31.353  31.978  1.00  0.00     0.031 C 
ATOM     47  C   UNL A   1      39.070  28.482  27.948  1.00  0.00     0.029 A 
ATOM     48  N   UNL A   1      40.512  28.337  29.649  1.00  0.00    -0.354 N 
ATOM     49  C   UNL A   1      40.054  30.827  33.168  1.00  0.00     0.074 A 
ATOM     50  C   UNL A   1      38.873  31.658  33.060  1.00  0.00     0.031 C 
ATOM     51  C   UNL A   1      40.005  27.580  27.608  1.00  0.00     0.029 A 
ATOM     52  C   UNL A   1      40.990  27.484  28.680  1.00  0.00     0.049 A 
ATOM     53  H   UNL A   1      40.956  28.467  30.518  1.00  0.00     0.167 HD
ATOM     54  C   UNL A   1      40.887  30.816  34.239  1.00  0.00     0.034 A 
ATOM     55  C   UNL A   1      42.104  26.725  28.652  1.00  0.00     0.034 A 
ATOM     56  C   UNL A   1      42.050  29.968  34.338  1.00  0.00     0.049 A 
ATOM     57  C   UNL A   1      43.030  26.746  29.843  1.00  0.00     0.074 A 
ATOM     58  C   UNL A   1      42.932  29.835  35.396  1.00  0.00     0.029 A 
ATOM     59  N   UNL A   1      42.498  29.111  33.340  1.00  0.00    -0.354 N 
ATOM     60  N   UNL A   1      42.932  27.440  30.954  1.00  0.00    -0.248 NA
ATOM     61  C   UNL A   1      44.212  25.878  29.779  1.00  0.00     0.031 C 
ATOM     62  C   UNL A   1      43.948  28.953  35.013  1.00  0.00     0.029 A 
ATOM     63  C   UNL A   1      43.658  28.471  33.746  1.00  0.00     0.049 A 
ATOM     64  H   UNL A   1      42.055  28.978  32.470  1.00  0.00     0.167 HD
ATOM     65  C   UNL A   1      44.022  27.062  31.735  1.00  0.00     0.074 A 
ATOM     66  C   UNL A   1      44.754  26.073  30.971  1.00  0.00     0.031 C 
ATOM     67  C   UNL A   1      44.384  27.491  32.970  1.00  0.00     0.034 A 
BRANCH  54  68
ATOM     68  C   UNL A   1      40.577  31.770  35.370  1.00  0.00     0.023 A 
ATOM     69  C   UNL A   1      39.489  31.561  36.237  1.00  0.00     0.031 A 
ATOM     70  C   UNL A   1      41.357  32.923  35.565  1.00  0.00     0.131 A 
ATOM     71  C   UNL A   1      39.159  32.530  37.195  1.00  0.00     0.055 A 
ATOM     72  C   UNL A   1      41.078  33.840  36.581  1.00  0.00     0.041 A 
ATOM     73  F   UNL A   1      42.398  33.190  34.759  1.00  0.00    -0.206 F 
ATOM     74  C   UNL A   1      39.962  33.655  37.392  1.00  0.00     0.022 A 
BRANCH  71  75
ATOM     75  S   UNL A   1      37.578  32.376  38.071  1.00  0.00     0.124 S 
ATOM     76  O   UNL A   1      37.402  30.926  38.107  1.00  0.00    -0.237 OA
ATOM     77  O   UNL A   1      37.863  33.016  39.350  1.00  0.00    -0.237 OA
ATOM     78  O   UNL A   1      36.638  33.090  37.211  1.00  0.00    -0.744 OA
ENDBRANCH  71  75
ENDBRANCH  54  68
BRANCH  55  79
ATOM     79  C   UNL A   1      42.422  25.889  27.458  1.00  0.00     0.023 A 
ATOM     80  C   UNL A   1      42.021  24.547  27.387  1.00  0.00     0.031 A 
ATOM     81  C   UNL A   1      43.171  26.410  26.386  1.00  0.00     0.131 A 
ATOM     82  C   UNL A   1      42.412  23.754  26.296  1.00  0.00     0.055 A 
ATOM     83  C   UNL A   1      43.510  25.633  25.276  1.00  0.00     0.041 A 
ATOM     84  F   UNL A   1      43.576  27.690  26.399  1.00  0.00    -0.206 F 
ATOM     85  C   UNL A   1      43.142  24.292  25.234  1.00  0.00     0.022 A 
BRANCH  82  86
ATOM     86  S   UNL A   1      42.027  21.981  26.327  1.00  0.00     0.124 S 
ATOM     87  O   UNL A   1      42.406  21.619  27.687  1.00  0.00    -0.237 OA
ATOM     88  O   UNL A   1      40.596  21.978  26.036  1.00  0.00    -0.237 OA
ATOM     89  O   UNL A   1      42.876  21.431  25.272  1.00  0.00    -0.744 OA
ENDBRANCH  82  86
ENDBRANCH  55  79
BRANCH  67  90
ATOM     90  C   UNL A   1      45.601  26.849  33.592  1.00  0.00     0.023 A 
ATOM     91  C   UNL A   1      45.507  25.695  34.388  1.00  0.00     0.031 A 
ATOM     92  C   UNL A   1      46.874  27.412  33.389  1.00  0.00     0.131 A 
ATOM     93  C   UNL A   1      46.657  25.172  34.997  1.00  0.00     0.055 A 
ATOM     94  C   UNL A   1      48.023  26.850  33.946  1.00  0.00     0.041 A 
ATOM     95  F   UNL A   1      47.023  28.516  32.641  1.00  0.00    -0.206 F 
ATOM     96  C   UNL A   1      47.918  25.730  34.766  1.00  0.00     0.022 A 
BRANCH  93  97
ATOM     97  S   UNL A   1      46.475  23.803  36.174  1.00  0.00     0.124 S 
ATOM     98  O   UNL A   1      45.362  23.055  35.599  1.00  0.00    -0.237 OA
ATOM     99  O   UNL A   1      47.780  23.156  36.106  1.00  0.00    -0.237 OA
ATOM    100  O   UNL A   1      46.181  24.475  37.439  1.00  0.00    -0.744 OA
ENDBRANCH  93  97
ENDBRANCH  67  90
ENDBRANCH  41  42
ENDBRANCH  33  36
ENDBRANCH  31  32
ENDBRANCH   1  31
TORSDOF 17
ENDMDL
