MODEL 1
REMARK VINA RESULT:     -12.0      0.000      0.000
REMARK SMILES O=C(NCCCNC(=O)[C@@H]1C=C[C@@H]([NH+]2CC3(CC3)C2)C1)c1ccc(-c2c3nc(c(-c4cc(S(=O)(=O)[O-])ccc4F)c4ccc([nH]4)c(-c4cc(S(=O)(=O)[O-])ccc4F)c4nc(c(-c5cc(S(=O)(=O)[O-])ccc5F)c5ccc2[nH]5)C=C4)C=C3)cc1
REMARK SMILES IDX 4 1 3 2 1 3 2 4 21 6 22 7 83 8 23 9 82 10 24 11 25 12 26 13
REMARK SMILES IDX 76 14 27 15 81 16 75 17 77 18 28 19 80 20 74 21 73 22 29 24
REMARK SMILES IDX 61 25 41 26 60 27 42 28 45 29 59 30 78 31 43 32 44 33 58 35
REMARK SMILES IDX 79 36 46 37 30 38 31 39 39 40 32 41 38 42 40 43 37 44 33 45
REMARK SMILES IDX 34 46 35 47 36 48 62 49 63 50 71 51 64 52 70 53 72 54 69 55
REMARK SMILES IDX 65 56 66 57 67 58 68 59 47 60 48 61 56 62 49 63 55 64 57 65
REMARK SMILES IDX 54 66 50 67 51 68 52 69 53 70 5 71 6 72 7 73 8 74 9 76 10 77
REMARK SMILES IDX 11 78 20 79 12 80 13 81 14 82 15 83 19 84 16 86 17 87 18 88
REMARK H PARENT 3 5 77 23 45 34 7 75 14 85
REMARK Flexibility Score: inf
ROOT
ATOM      1  C   UNL A   1      32.683  32.230  27.229  1.00  0.00     0.118 C 
ENDROOT
BRANCH   1   2
ATOM      2  N   UNL A   1      32.486  33.644  27.529  1.00  0.00    -0.352 N 
ATOM      3  O   UNL A   1      32.630  35.541  28.727  1.00  0.00    -0.269 OA
ATOM      4  C   UNL A   1      33.091  34.428  28.477  1.00  0.00     0.251 C 
ATOM      5  H   UNL A   1      31.821  34.102  26.967  1.00  0.00     0.163 HD
BRANCH   4   6
ATOM      6  C   UNL A   1      34.287  33.937  29.192  1.00  0.00     0.039 A 
ATOM      7  C   UNL A   1      34.153  33.045  30.261  1.00  0.00     0.014 A 
ATOM      8  C   UNL A   1      35.557  34.332  28.763  1.00  0.00     0.014 A 
ATOM      9  C   UNL A   1      35.274  32.645  30.976  1.00  0.00     0.010 A 
ATOM     10  C   UNL A   1      36.692  33.852  29.424  1.00  0.00     0.010 A 
ATOM     11  C   UNL A   1      36.557  33.009  30.538  1.00  0.00    -0.014 A 
BRANCH  11  12
ATOM     12  C   UNL A   1      37.739  32.381  31.178  1.00  0.00     0.031 A 
ATOM     13  C   UNL A   1      38.470  31.245  30.522  1.00  0.00     0.074 A 
ATOM     14  C   UNL A   1      38.135  32.857  32.376  1.00  0.00     0.049 A 
ATOM     15  N   UNL A   1      39.492  30.564  30.970  1.00  0.00    -0.248 NA
ATOM     16  C   UNL A   1      37.993  30.814  29.199  1.00  0.00     0.031 C 
ATOM     17  C   UNL A   1      37.485  33.958  33.098  1.00  0.00     0.029 A 
ATOM     18  N   UNL A   1      39.166  32.488  33.201  1.00  0.00    -0.354 N 
ATOM     19  C   UNL A   1      39.770  29.607  30.000  1.00  0.00     0.074 A 
ATOM     20  C   UNL A   1      38.799  29.791  28.941  1.00  0.00     0.031 C 
ATOM     21  C   UNL A   1      38.146  34.188  34.240  1.00  0.00     0.029 A 
ATOM     22  C   UNL A   1      39.208  33.201  34.379  1.00  0.00     0.049 A 
ATOM     23  H   UNL A   1      39.814  31.784  32.973  1.00  0.00     0.167 HD
ATOM     24  C   UNL A   1      40.746  28.667  30.006  1.00  0.00     0.034 A 
ATOM     25  C   UNL A   1      39.978  33.045  35.472  1.00  0.00     0.034 A 
ATOM     26  C   UNL A   1      41.707  28.516  31.072  1.00  0.00     0.049 A 
ATOM     27  C   UNL A   1      41.009  31.949  35.469  1.00  0.00     0.074 A 
ATOM     28  C   UNL A   1      42.787  27.652  31.139  1.00  0.00     0.029 A 
ATOM     29  N   UNL A   1      41.692  29.222  32.269  1.00  0.00    -0.354 N 
ATOM     30  N   UNL A   1      41.302  31.099  34.511  1.00  0.00    -0.248 NA
ATOM     31  C   UNL A   1      41.809  31.785  36.687  1.00  0.00     0.031 C 
ATOM     32  C   UNL A   1      43.366  27.769  32.406  1.00  0.00     0.029 A 
ATOM     33  C   UNL A   1      42.703  28.768  33.102  1.00  0.00     0.049 A 
ATOM     34  H   UNL A   1      41.056  29.940  32.492  1.00  0.00     0.167 HD
ATOM     35  C   UNL A   1      42.332  30.309  35.012  1.00  0.00     0.074 A 
ATOM     36  C   UNL A   1      42.629  30.804  36.339  1.00  0.00     0.031 C 
ATOM     37  C   UNL A   1      42.971  29.262  34.430  1.00  0.00     0.034 A 
BRANCH  24  38
ATOM     38  C   UNL A   1      40.802  27.686  28.861  1.00  0.00     0.023 A 
ATOM     39  C   UNL A   1      41.743  27.795  27.824  1.00  0.00     0.031 A 
ATOM     40  C   UNL A   1      39.923  26.587  28.841  1.00  0.00     0.131 A 
ATOM     41  C   UNL A   1      41.761  26.841  26.794  1.00  0.00     0.055 A 
ATOM     42  C   UNL A   1      39.988  25.607  27.850  1.00  0.00     0.041 A 
ATOM     43  F   UNL A   1      38.990  26.444  29.796  1.00  0.00    -0.206 F 
ATOM     44  C   UNL A   1      40.908  25.733  26.815  1.00  0.00     0.022 A 
BRANCH  41  45
ATOM     45  S   UNL A   1      42.859  27.108  25.375  1.00  0.00     0.124 S 
ATOM     46  O   UNL A   1      44.135  27.377  26.034  1.00  0.00    -0.237 OA
ATOM     47  O   UNL A   1      42.765  25.840  24.660  1.00  0.00    -0.237 OA
ATOM     48  O   UNL A   1      42.266  28.255  24.691  1.00  0.00    -0.744 OA
ENDBRANCH  41  45
ENDBRANCH  24  38
BRANCH  25  49
ATOM     49  C   UNL A   1      39.754  33.885  36.683  1.00  0.00     0.023 A 
ATOM     50  C   UNL A   1      39.189  33.346  37.848  1.00  0.00     0.031 A 
ATOM     51  C   UNL A   1      40.043  35.265  36.671  1.00  0.00     0.131 A 
ATOM     52  C   UNL A   1      38.872  34.187  38.925  1.00  0.00     0.055 A 
ATOM     53  C   UNL A   1      39.793  36.083  37.772  1.00  0.00     0.041 A 
ATOM     54  F   UNL A   1      40.580  35.837  35.581  1.00  0.00    -0.206 F 
ATOM     55  C   UNL A   1      39.185  35.548  38.903  1.00  0.00     0.022 A 
BRANCH  52  56
ATOM     56  S   UNL A   1      37.917  33.500  40.304  1.00  0.00     0.124 S 
ATOM     57  O   UNL A   1      36.721  33.015  39.624  1.00  0.00    -0.237 OA
ATOM     58  O   UNL A   1      38.823  32.478  40.818  1.00  0.00    -0.237 OA
ATOM     59  O   UNL A   1      37.713  34.650  41.182  1.00  0.00    -0.744 OA
ENDBRANCH  52  56
ENDBRANCH  25  49
BRANCH  37  60
ATOM     60  C   UNL A   1      44.065  28.605  35.231  1.00  0.00     0.023 A 
ATOM     61  C   UNL A   1      43.798  27.523  36.088  1.00  0.00     0.031 A 
ATOM     62  C   UNL A   1      45.389  29.068  35.140  1.00  0.00     0.131 A 
ATOM     63  C   UNL A   1      44.832  26.970  36.856  1.00  0.00     0.055 A 
ATOM     64  C   UNL A   1      46.425  28.473  35.860  1.00  0.00     0.041 A 
ATOM     65  F   UNL A   1      45.698  30.103  34.341  1.00  0.00    -0.206 F 
ATOM     66  C   UNL A   1      46.148  27.425  36.732  1.00  0.00     0.022 A 
BRANCH  63  67
ATOM     67  S   UNL A   1      44.422  25.696  38.080  1.00  0.00     0.124 S 
ATOM     68  O   UNL A   1      44.050  26.500  39.239  1.00  0.00    -0.237 OA
ATOM     69  O   UNL A   1      43.333  24.974  37.429  1.00  0.00    -0.237 OA
ATOM     70  O   UNL A   1      45.666  24.943  38.221  1.00  0.00    -0.744 OA
ENDBRANCH  63  67
ENDBRANCH  37  60
ENDBRANCH  11  12
ENDBRANCH   4   6
ENDBRANCH   1   2
BRANCH   1  71
ATOM     71  C   UNL A   1      31.495  31.626  26.491  1.00  0.00     0.042 C 
BRANCH  71  72
ATOM     72  C   UNL A   1      31.817  30.295  25.826  1.00  0.00     0.117 C 
BRANCH  72  73
ATOM     73  N   UNL A   1      31.096  30.134  24.577  1.00  0.00    -0.356 N 
ATOM     74  C   UNL A   1      30.932  29.026  23.798  1.00  0.00     0.227 C 
ATOM     75  H   UNL A   1      30.657  30.948  24.240  1.00  0.00     0.163 HD
ATOM     76  O   UNL A   1      30.350  29.162  22.721  1.00  0.00    -0.274 OA
BRANCH  74  77
ATOM     77  C   UNL A   1      31.465  27.682  24.288  1.00  0.00     0.107 C 
ATOM     78  C   UNL A   1      31.935  26.823  23.159  1.00  0.00    -0.012 C 
ATOM     79  C   UNL A   1      30.349  26.855  24.942  1.00  0.00     0.087 C 
ATOM     80  C   UNL A   1      31.353  25.619  23.170  1.00  0.00     0.033 C 
ATOM     81  C   UNL A   1      30.353  25.462  24.278  1.00  0.00     0.208 C 
BRANCH  81  82
ATOM     82  N   UNL A   1      30.613  24.261  25.079  1.00  0.00    -0.328 N 
ATOM     83  C   UNL A   1      31.782  23.479  24.657  1.00  0.00     0.275 C 
ATOM     84  C   UNL A   1      31.239  24.587  26.367  1.00  0.00     0.275 C 
ATOM     85  H   UNL A   1      29.697  23.814  25.041  1.00  0.00     0.348 HD
ATOM     86  C   UNL A   1      32.496  24.016  25.839  1.00  0.00     0.068 C 
ATOM     87  C   UNL A   1      33.850  24.661  25.856  1.00  0.00     0.020 C 
ATOM     88  C   UNL A   1      33.609  23.382  26.608  1.00  0.00     0.020 C 
ENDBRANCH  81  82
ENDBRANCH  74  77
ENDBRANCH  72  73
ENDBRANCH  71  72
ENDBRANCH   1  71
TORSDOF 14
ENDMDL
MODEL 2
REMARK VINA RESULT:     -11.8      1.467      1.685
REMARK SMILES O=C(NCCCNC(=O)[C@@H]1C=C[C@@H]([NH+]2CC3(CC3)C2)C1)c1ccc(-c2c3nc(c(-c4cc(S(=O)(=O)[O-])ccc4F)c4ccc([nH]4)c(-c4cc(S(=O)(=O)[O-])ccc4F)c4nc(c(-c5cc(S(=O)(=O)[O-])ccc5F)c5ccc2[nH]5)C=C4)C=C3)cc1
REMARK SMILES IDX 4 1 3 2 1 3 2 4 21 6 22 7 83 8 23 9 82 10 24 11 25 12 26 13
REMARK SMILES IDX 76 14 27 15 81 16 75 17 77 18 28 19 80 20 74 21 73 22 29 24
REMARK SMILES IDX 61 25 41 26 60 27 42 28 45 29 59 30 78 31 43 32 44 33 58 35
REMARK SMILES IDX 79 36 46 37 30 38 31 39 39 40 32 41 38 42 40 43 37 44 33 45
REMARK SMILES IDX 34 46 35 47 36 48 62 49 63 50 71 51 64 52 70 53 72 54 69 55
REMARK SMILES IDX 65 56 66 57 67 58 68 59 47 60 48 61 56 62 49 63 55 64 57 65
REMARK SMILES IDX 54 66 50 67 51 68 52 69 53 70 5 71 6 72 7 73 8 74 9 76 10 77
REMARK SMILES IDX 11 78 20 79 12 80 13 81 14 82 15 83 19 84 16 86 17 87 18 88
REMARK H PARENT 3 5 77 23 45 34 7 75 14 85
REMARK Flexibility Score: inf
ROOT
ATOM      1  C   UNL A   1      32.691  32.393  27.258  1.00  0.00     0.118 C 
ENDROOT
BRANCH   1   2
ATOM      2  N   UNL A   1      32.492  33.800  27.587  1.00  0.00    -0.352 N 
ATOM      3  O   UNL A   1      32.631  35.673  28.824  1.00  0.00    -0.269 OA
ATOM      4  C   UNL A   1      33.095  34.566  28.551  1.00  0.00     0.251 C 
ATOM      5  H   UNL A   1      31.825  34.269  27.034  1.00  0.00     0.163 HD
BRANCH   4   6
ATOM      6  C   UNL A   1      34.292  34.064  29.256  1.00  0.00     0.039 A 
ATOM      7  C   UNL A   1      34.155  33.238  30.376  1.00  0.00     0.014 A 
ATOM      8  C   UNL A   1      35.562  34.379  28.767  1.00  0.00     0.014 A 
ATOM      9  C   UNL A   1      35.282  32.829  31.078  1.00  0.00     0.010 A 
ATOM     10  C   UNL A   1      36.697  33.887  29.420  1.00  0.00     0.010 A 
ATOM     11  C   UNL A   1      36.563  33.113  30.583  1.00  0.00    -0.014 A 
BRANCH  11  12
ATOM     12  C   UNL A   1      37.739  32.470  31.220  1.00  0.00     0.031 A 
ATOM     13  C   UNL A   1      38.462  31.333  30.557  1.00  0.00     0.074 A 
ATOM     14  C   UNL A   1      38.136  32.933  32.423  1.00  0.00     0.049 A 
ATOM     15  N   UNL A   1      39.477  30.640  31.002  1.00  0.00    -0.248 NA
ATOM     16  C   UNL A   1      37.984  30.916  29.230  1.00  0.00     0.031 C 
ATOM     17  C   UNL A   1      37.493  34.033  33.152  1.00  0.00     0.029 A 
ATOM     18  N   UNL A   1      39.161  32.549  33.248  1.00  0.00    -0.354 N 
ATOM     19  C   UNL A   1      39.749  29.688  30.025  1.00  0.00     0.074 A 
ATOM     20  C   UNL A   1      38.783  29.888  28.965  1.00  0.00     0.031 C 
ATOM     21  C   UNL A   1      38.153  34.249  34.298  1.00  0.00     0.029 A 
ATOM     22  C   UNL A   1      39.206  33.252  34.431  1.00  0.00     0.049 A 
ATOM     23  H   UNL A   1      39.804  31.841  33.016  1.00  0.00     0.167 HD
ATOM     24  C   UNL A   1      40.717  28.739  30.027  1.00  0.00     0.034 A 
ATOM     25  C   UNL A   1      39.971  33.081  35.525  1.00  0.00     0.034 A 
ATOM     26  C   UNL A   1      41.674  28.572  31.094  1.00  0.00     0.049 A 
ATOM     27  C   UNL A   1      40.994  31.976  35.515  1.00  0.00     0.074 A 
ATOM     28  C   UNL A   1      42.747  27.698  31.157  1.00  0.00     0.029 A 
ATOM     29  N   UNL A   1      41.662  29.269  32.296  1.00  0.00    -0.354 N 
ATOM     30  N   UNL A   1      41.282  31.131  34.552  1.00  0.00    -0.248 NA
ATOM     31  C   UNL A   1      41.790  31.796  36.735  1.00  0.00     0.031 C 
ATOM     32  C   UNL A   1      43.323  27.801  32.426  1.00  0.00     0.029 A 
ATOM     33  C   UNL A   1      42.667  28.800  33.128  1.00  0.00     0.049 A 
ATOM     34  H   UNL A   1      41.032  29.991  32.523  1.00  0.00     0.167 HD
ATOM     35  C   UNL A   1      42.304  30.329  35.049  1.00  0.00     0.074 A 
ATOM     36  C   UNL A   1      42.602  30.811  36.381  1.00  0.00     0.031 C 
ATOM     37  C   UNL A   1      42.935  29.281  34.461  1.00  0.00     0.034 A 
BRANCH  24  38
ATOM     38  C   UNL A   1      40.768  27.768  28.874  1.00  0.00     0.023 A 
ATOM     39  C   UNL A   1      41.712  27.877  27.840  1.00  0.00     0.031 A 
ATOM     40  C   UNL A   1      39.880  26.676  28.843  1.00  0.00     0.131 A 
ATOM     41  C   UNL A   1      41.725  26.931  26.803  1.00  0.00     0.055 A 
ATOM     42  C   UNL A   1      39.939  25.704  27.845  1.00  0.00     0.041 A 
ATOM     43  F   UNL A   1      38.943  26.533  29.795  1.00  0.00    -0.206 F 
ATOM     44  C   UNL A   1      40.863  25.830  26.812  1.00  0.00     0.022 A 
BRANCH  41  45
ATOM     45  S   UNL A   1      42.829  27.200  25.388  1.00  0.00     0.124 S 
ATOM     46  O   UNL A   1      44.090  27.520  26.053  1.00  0.00    -0.237 OA
ATOM     47  O   UNL A   1      42.778  25.915  24.699  1.00  0.00    -0.237 OA
ATOM     48  O   UNL A   1      42.209  28.315  24.675  1.00  0.00    -0.744 OA
ENDBRANCH  41  45
ENDBRANCH  24  38
BRANCH  25  49
ATOM     49  C   UNL A   1      39.752  33.913  36.742  1.00  0.00     0.023 A 
ATOM     50  C   UNL A   1      40.605  34.981  37.057  1.00  0.00     0.031 A 
ATOM     51  C   UNL A   1      38.718  33.609  37.650  1.00  0.00     0.131 A 
ATOM     52  C   UNL A   1      40.452  35.663  38.273  1.00  0.00     0.055 A 
ATOM     53  C   UNL A   1      38.524  34.339  38.823  1.00  0.00     0.041 A 
ATOM     54  F   UNL A   1      37.872  32.595  37.404  1.00  0.00    -0.206 F 
ATOM     55  C   UNL A   1      39.407  35.362  39.150  1.00  0.00     0.022 A 
BRANCH  52  56
ATOM     56  S   UNL A   1      41.723  36.862  38.756  1.00  0.00     0.124 S 
ATOM     57  O   UNL A   1      42.441  36.132  39.794  1.00  0.00    -0.237 OA
ATOM     58  O   UNL A   1      42.439  37.064  37.500  1.00  0.00    -0.237 OA
ATOM     59  O   UNL A   1      40.948  38.010  39.221  1.00  0.00    -0.744 OA
ENDBRANCH  52  56
ENDBRANCH  25  49
BRANCH  37  60
ATOM     60  C   UNL A   1      44.022  28.608  35.259  1.00  0.00     0.023 A 
ATOM     61  C   UNL A   1      43.741  27.533  36.120  1.00  0.00     0.031 A 
ATOM     62  C   UNL A   1      45.353  29.049  35.162  1.00  0.00     0.131 A 
ATOM     63  C   UNL A   1      44.769  26.966  36.886  1.00  0.00     0.055 A 
ATOM     64  C   UNL A   1      46.382  28.440  35.880  1.00  0.00     0.041 A 
ATOM     65  F   UNL A   1      45.676  30.077  34.359  1.00  0.00    -0.206 F 
ATOM     66  C   UNL A   1      46.091  27.399  36.756  1.00  0.00     0.022 A 
BRANCH  63  67
ATOM     67  S   UNL A   1      44.343  25.701  38.115  1.00  0.00     0.124 S 
ATOM     68  O   UNL A   1      43.959  26.514  39.263  1.00  0.00    -0.237 OA
ATOM     69  O   UNL A   1      43.260  24.977  37.456  1.00  0.00    -0.237 OA
ATOM     70  O   UNL A   1      45.585  24.947  38.275  1.00  0.00    -0.744 OA
ENDBRANCH  63  67
ENDBRANCH  37  60
ENDBRANCH  11  12
ENDBRANCH   4   6
ENDBRANCH   1   2
BRANCH   1  71
ATOM     71  C   UNL A   1      31.470  31.778  26.586  1.00  0.00     0.042 C 
BRANCH  71  72
ATOM     72  C   UNL A   1      31.776  30.471  25.870  1.00  0.00     0.117 C 
BRANCH  72  73
ATOM     73  N   UNL A   1      30.903  30.271  24.728  1.00  0.00    -0.356 N 
ATOM     74  C   UNL A   1      30.884  29.264  23.808  1.00  0.00     0.227 C 
ATOM     75  H   UNL A   1      30.220  30.967  24.597  1.00  0.00     0.163 HD
ATOM     76  O   UNL A   1      30.100  29.364  22.862  1.00  0.00    -0.274 OA
BRANCH  74  77
ATOM     77  C   UNL A   1      31.817  28.069  23.987  1.00  0.00     0.107 C 
ATOM     78  C   UNL A   1      33.046  28.190  23.145  1.00  0.00    -0.012 C 
ATOM     79  C   UNL A   1      31.155  26.776  23.490  1.00  0.00     0.087 C 
ATOM     80  C   UNL A   1      33.229  27.117  22.368  1.00  0.00     0.033 C 
ATOM     81  C   UNL A   1      32.135  26.100  22.509  1.00  0.00     0.208 C 
BRANCH  81  82
ATOM     82  N   UNL A   1      32.669  24.764  22.801  1.00  0.00    -0.328 N 
ATOM     83  C   UNL A   1      34.105  24.727  23.111  1.00  0.00     0.275 C 
ATOM     84  C   UNL A   1      32.319  24.319  24.156  1.00  0.00     0.275 C 
ATOM     85  H   UNL A   1      32.342  24.253  21.982  1.00  0.00     0.348 HD
ATOM     86  C   UNL A   1      33.734  24.525  24.530  1.00  0.00     0.068 C 
ATOM     87  C   UNL A   1      34.246  25.294  25.712  1.00  0.00     0.020 C 
ATOM     88  C   UNL A   1      34.514  23.820  25.593  1.00  0.00     0.020 C 
ENDBRANCH  81  82
ENDBRANCH  74  77
ENDBRANCH  72  73
ENDBRANCH  71  72
ENDBRANCH   1  71
TORSDOF 14
ENDMDL
MODEL 3
REMARK VINA RESULT:     -11.7      6.084     11.680
REMARK SMILES O=C(NCCCNC(=O)[C@@H]1C=C[C@@H]([NH+]2CC3(CC3)C2)C1)c1ccc(-c2c3nc(c(-c4cc(S(=O)(=O)[O-])ccc4F)c4ccc([nH]4)c(-c4cc(S(=O)(=O)[O-])ccc4F)c4nc(c(-c5cc(S(=O)(=O)[O-])ccc5F)c5ccc2[nH]5)C=C4)C=C3)cc1
REMARK SMILES IDX 4 1 3 2 1 3 2 4 21 6 22 7 83 8 23 9 82 10 24 11 25 12 26 13
REMARK SMILES IDX 76 14 27 15 81 16 75 17 77 18 28 19 80 20 74 21 73 22 29 24
REMARK SMILES IDX 61 25 41 26 60 27 42 28 45 29 59 30 78 31 43 32 44 33 58 35
REMARK SMILES IDX 79 36 46 37 30 38 31 39 39 40 32 41 38 42 40 43 37 44 33 45
REMARK SMILES IDX 34 46 35 47 36 48 62 49 63 50 71 51 64 52 70 53 72 54 69 55
REMARK SMILES IDX 65 56 66 57 67 58 68 59 47 60 48 61 56 62 49 63 55 64 57 65
REMARK SMILES IDX 54 66 50 67 51 68 52 69 53 70 5 71 6 72 7 73 8 74 9 76 10 77
REMARK SMILES IDX 11 78 20 79 12 80 13 81 14 82 15 83 19 84 16 86 17 87 18 88
REMARK H PARENT 3 5 77 23 45 34 7 75 14 85
REMARK Flexibility Score: inf
ROOT
ATOM      1  C   UNL A   1      39.035  20.480  25.788  1.00  0.00     0.118 C 
ENDROOT
BRANCH   1   2
ATOM      2  N   UNL A   1      40.043  19.438  25.946  1.00  0.00    -0.352 N 
ATOM      3  O   UNL A   1      42.111  18.558  26.016  1.00  0.00    -0.269 OA
ATOM      4  C   UNL A   1      41.397  19.554  26.129  1.00  0.00     0.251 C 
ATOM      5  H   UNL A   1      39.700  18.516  25.919  1.00  0.00     0.163 HD
BRANCH   4   6
ATOM      6  C   UNL A   1      41.992  20.865  26.457  1.00  0.00     0.039 A 
ATOM      7  C   UNL A   1      42.243  21.799  25.447  1.00  0.00     0.014 A 
ATOM      8  C   UNL A   1      42.256  21.187  27.791  1.00  0.00     0.014 A 
ATOM      9  C   UNL A   1      42.870  22.999  25.752  1.00  0.00     0.010 A 
ATOM     10  C   UNL A   1      42.799  22.436  28.108  1.00  0.00     0.010 A 
ATOM     11  C   UNL A   1      43.114  23.348  27.089  1.00  0.00    -0.014 A 
BRANCH  11  12
ATOM     12  C   UNL A   1      43.567  24.727  27.402  1.00  0.00     0.031 A 
ATOM     13  C   UNL A   1      42.613  25.763  27.923  1.00  0.00     0.074 A 
ATOM     14  C   UNL A   1      44.865  25.026  27.193  1.00  0.00     0.049 A 
ATOM     15  N   UNL A   1      42.844  27.019  28.203  1.00  0.00    -0.248 NA
ATOM     16  C   UNL A   1      41.223  25.340  28.155  1.00  0.00     0.031 C 
ATOM     17  C   UNL A   1      45.872  24.086  26.684  1.00  0.00     0.029 A 
ATOM     18  N   UNL A   1      45.568  26.188  27.378  1.00  0.00    -0.354 N 
ATOM     19  C   UNL A   1      41.628  27.547  28.622  1.00  0.00     0.074 A 
ATOM     20  C   UNL A   1      40.658  26.475  28.550  1.00  0.00     0.031 C 
ATOM     21  C   UNL A   1      47.060  24.702  26.621  1.00  0.00     0.029 A 
ATOM     22  C   UNL A   1      46.888  26.098  26.997  1.00  0.00     0.049 A 
ATOM     23  H   UNL A   1      45.167  27.008  27.747  1.00  0.00     0.167 HD
ATOM     24  C   UNL A   1      41.360  28.813  29.025  1.00  0.00     0.034 A 
ATOM     25  C   UNL A   1      47.843  27.043  26.909  1.00  0.00     0.034 A 
ATOM     26  C   UNL A   1      42.352  29.859  29.098  1.00  0.00     0.049 A 
ATOM     27  C   UNL A   1      47.491  28.453  27.305  1.00  0.00     0.074 A 
ATOM     28  C   UNL A   1      42.204  31.152  29.571  1.00  0.00     0.029 A 
ATOM     29  N   UNL A   1      43.666  29.746  28.662  1.00  0.00    -0.354 N 
ATOM     30  N   UNL A   1      46.352  28.917  27.766  1.00  0.00    -0.248 NA
ATOM     31  C   UNL A   1      48.544  29.464  27.167  1.00  0.00     0.031 C 
ATOM     32  C   UNL A   1      43.396  31.844  29.338  1.00  0.00     0.029 A 
ATOM     33  C   UNL A   1      44.319  30.962  28.797  1.00  0.00     0.049 A 
ATOM     34  H   UNL A   1      44.075  28.922  28.309  1.00  0.00     0.167 HD
ATOM     35  C   UNL A   1      46.561  30.275  27.984  1.00  0.00     0.074 A 
ATOM     36  C   UNL A   1      47.940  30.545  27.637  1.00  0.00     0.031 C 
ATOM     37  C   UNL A   1      45.689  31.216  28.426  1.00  0.00     0.034 A 
BRANCH  24  38
ATOM     38  C   UNL A   1      39.934  29.168  29.367  1.00  0.00     0.023 A 
ATOM     39  C   UNL A   1      39.486  29.286  30.694  1.00  0.00     0.031 A 
ATOM     40  C   UNL A   1      39.018  29.446  28.335  1.00  0.00     0.131 A 
ATOM     41  C   UNL A   1      38.153  29.639  30.952  1.00  0.00     0.055 A 
ATOM     42  C   UNL A   1      37.712  29.858  28.599  1.00  0.00     0.041 A 
ATOM     43  F   UNL A   1      39.385  29.329  27.049  1.00  0.00    -0.206 F 
ATOM     44  C   UNL A   1      37.270  29.952  29.915  1.00  0.00     0.022 A 
BRANCH  41  45
ATOM     45  S   UNL A   1      37.555  29.602  32.665  1.00  0.00     0.124 S 
ATOM     46  O   UNL A   1      36.272  30.291  32.546  1.00  0.00    -0.237 OA
ATOM     47  O   UNL A   1      37.488  28.172  32.945  1.00  0.00    -0.237 OA
ATOM     48  O   UNL A   1      38.581  30.336  33.403  1.00  0.00    -0.744 OA
ENDBRANCH  41  45
ENDBRANCH  24  38
BRANCH  25  49
ATOM     49  C   UNL A   1      49.187  26.714  26.355  1.00  0.00     0.023 A 
ATOM     50  C   UNL A   1      50.300  26.556  27.194  1.00  0.00     0.031 A 
ATOM     51  C   UNL A   1      49.393  26.618  24.965  1.00  0.00     0.131 A 
ATOM     52  C   UNL A   1      51.575  26.375  26.636  1.00  0.00     0.055 A 
ATOM     53  C   UNL A   1      50.651  26.365  24.418  1.00  0.00     0.041 A 
ATOM     54  F   UNL A   1      48.365  26.765  24.113  1.00  0.00    -0.206 F 
ATOM     55  C   UNL A   1      51.756  26.261  25.256  1.00  0.00     0.022 A 
BRANCH  52  56
ATOM     56  S   UNL A   1      53.013  26.428  27.738  1.00  0.00     0.124 S 
ATOM     57  O   UNL A   1      53.505  27.784  27.518  1.00  0.00    -0.237 OA
ATOM     58  O   UNL A   1      52.406  26.168  29.039  1.00  0.00    -0.237 OA
ATOM     59  O   UNL A   1      53.871  25.362  27.227  1.00  0.00    -0.744 OA
ENDBRANCH  52  56
ENDBRANCH  25  49
BRANCH  37  60
ATOM     60  C   UNL A   1      46.221  32.619  28.572  1.00  0.00     0.023 A 
ATOM     61  C   UNL A   1      46.328  33.481  27.466  1.00  0.00     0.031 A 
ATOM     62  C   UNL A   1      46.630  33.098  29.828  1.00  0.00     0.131 A 
ATOM     63  C   UNL A   1      46.875  34.761  27.630  1.00  0.00     0.055 A 
ATOM     64  C   UNL A   1      47.117  34.394  29.996  1.00  0.00     0.041 A 
ATOM     65  F   UNL A   1      46.556  32.313  30.916  1.00  0.00    -0.206 F 
ATOM     66  C   UNL A   1      47.251  35.230  28.892  1.00  0.00     0.022 A 
BRANCH  63  67
ATOM     67  S   UNL A   1      47.162  35.781  26.158  1.00  0.00     0.124 S 
ATOM     68  O   UNL A   1      46.120  36.793  26.285  1.00  0.00    -0.237 OA
ATOM     69  O   UNL A   1      48.531  36.245  26.360  1.00  0.00    -0.237 OA
ATOM     70  O   UNL A   1      46.984  34.842  25.051  1.00  0.00    -0.744 OA
ENDBRANCH  63  67
ENDBRANCH  37  60
ENDBRANCH  11  12
ENDBRANCH   4   6
ENDBRANCH   1   2
BRANCH   1  71
ATOM     71  C   UNL A   1      37.881  20.035  24.898  1.00  0.00     0.042 C 
BRANCH  71  72
ATOM     72  C   UNL A   1      36.597  20.813  25.148  1.00  0.00     0.117 C 
BRANCH  72  73
ATOM     73  N   UNL A   1      35.431  19.950  25.099  1.00  0.00    -0.356 N 
ATOM     74  C   UNL A   1      34.111  20.270  24.973  1.00  0.00     0.227 C 
ATOM     75  H   UNL A   1      35.621  18.987  25.167  1.00  0.00     0.163 HD
ATOM     76  O   UNL A   1      33.288  19.356  25.053  1.00  0.00    -0.274 OA
BRANCH  74  77
ATOM     77  C   UNL A   1      33.713  21.724  24.736  1.00  0.00     0.107 C 
ATOM     78  C   UNL A   1      32.545  22.128  25.577  1.00  0.00    -0.012 C 
ATOM     79  C   UNL A   1      33.220  21.931  23.297  1.00  0.00     0.087 C 
ATOM     80  C   UNL A   1      31.552  22.640  24.843  1.00  0.00     0.033 C 
ATOM     81  C   UNL A   1      31.848  22.632  23.372  1.00  0.00     0.208 C 
BRANCH  81  82
ATOM     82  N   UNL A   1      31.661  23.959  22.773  1.00  0.00    -0.328 N 
ATOM     83  C   UNL A   1      31.511  25.056  23.738  1.00  0.00     0.275 C 
ATOM     84  C   UNL A   1      32.923  24.514  22.269  1.00  0.00     0.275 C 
ATOM     85  H   UNL A   1      30.884  23.767  22.140  1.00  0.00     0.348 HD
ATOM     86  C   UNL A   1      32.894  25.465  23.400  1.00  0.00     0.068 C 
ATOM     87  C   UNL A   1      34.009  25.748  24.362  1.00  0.00     0.020 C 
ATOM     88  C   UNL A   1      33.489  26.835  23.463  1.00  0.00     0.020 C 
ENDBRANCH  81  82
ENDBRANCH  74  77
ENDBRANCH  72  73
ENDBRANCH  71  72
ENDBRANCH   1  71
TORSDOF 14
ENDMDL
