MODEL 1
REMARK VINA RESULT:     -11.7      0.000      0.000
REMARK SMILES CC[C@@](O)(C(=O)NCCCNC(=O)c1ccc(-c2c3nc(c(-c4cc(S(=O)(=O)[O-])ccc4F)c4ccc([nH]4)c(-c4cc(S(=O)(=O)[O-])ccc4F)c4nc(c(-c5cc(S(=O)(=O)[O-])ccc5F)c5ccc2[nH]5)C=C4)C=C3)cc1)[C@H]1CCc2ccc(OC)cc21
REMARK SMILES IDX 9 1 8 2 7 3 5 4 6 5 3 7 2 8 1 9 4 10 77 12 78 13 87 14 79 15
REMARK SMILES IDX 80 16 86 17 81 18 83 19 82 20 84 21 85 22 10 23 11 24 12 25
REMARK SMILES IDX 13 27 14 28 15 29 76 30 16 31 75 32 17 33 18 34 19 35 69 36
REMARK SMILES IDX 20 37 74 38 68 39 70 40 21 41 73 42 67 43 66 44 22 46 54 47
REMARK SMILES IDX 34 48 53 49 35 50 38 51 52 52 71 53 36 54 37 55 51 57 72 58
REMARK SMILES IDX 39 59 23 60 24 61 32 62 25 63 31 64 33 65 30 66 26 67 27 68
REMARK SMILES IDX 28 69 29 70 55 71 56 72 64 73 57 74 63 75 65 76 62 77 58 78
REMARK SMILES IDX 59 79 60 80 61 81 40 82 41 83 49 84 42 85 48 86 50 87 47 88
REMARK SMILES IDX 43 89 44 90 45 91 46 92
REMARK H PARENT 7 6 4 11 11 26 70 45 38 56
REMARK Flexibility Score: inf
ROOT
ATOM      1  C   UNL A   1      31.528  31.828  26.622  1.00  0.00     0.042 C 
ENDROOT
BRANCH   1   2
ATOM      2  C   UNL A   1      31.810  30.531  25.868  1.00  0.00     0.117 C 
BRANCH   2   3
ATOM      3  N   UNL A   1      31.766  29.413  26.785  1.00  0.00    -0.354 N 
ATOM      4  C   UNL A   1      31.729  28.086  26.473  1.00  0.00     0.252 C 
ATOM      5  O   UNL A   1      31.024  27.371  27.188  1.00  0.00    -0.272 OA
ATOM      6  H   UNL A   1      31.760  29.634  27.744  1.00  0.00     0.163 HD
BRANCH   4   7
ATOM      7  C   UNL A   1      32.589  27.531  25.295  1.00  0.00     0.149 C 
BRANCH   7   8
ATOM      8  C   UNL A   1      33.607  28.626  24.911  1.00  0.00     0.043 C 
ATOM      9  C   UNL A   1      34.155  28.538  23.493  1.00  0.00     0.007 C 
ENDBRANCH   7   8
BRANCH   7  10
ATOM     10  O   UNL A   1      33.340  26.367  25.703  1.00  0.00    -0.379 OA
ATOM     11  H   UNL A   1      34.264  26.617  25.862  1.00  0.00     0.212 HD
ENDBRANCH   7  10
BRANCH   7  12
ATOM     12  C   UNL A   1      31.624  27.033  24.163  1.00  0.00     0.061 C 
ATOM     13  C   UNL A   1      30.896  25.716  24.602  1.00  0.00     0.017 C 
ATOM     14  C   UNL A   1      30.468  27.889  23.711  1.00  0.00    -0.035 A 
ATOM     15  C   UNL A   1      29.487  25.723  24.013  1.00  0.00     0.036 C 
ATOM     16  C   UNL A   1      29.271  27.168  23.708  1.00  0.00    -0.044 A 
ATOM     17  C   UNL A   1      30.484  29.204  23.257  1.00  0.00     0.050 A 
ATOM     18  C   UNL A   1      28.067  27.770  23.380  1.00  0.00     0.008 A 
ATOM     19  C   UNL A   1      29.283  29.821  22.897  1.00  0.00     0.119 A 
ATOM     20  C   UNL A   1      28.078  29.111  22.994  1.00  0.00     0.047 A 
BRANCH  19  21
ATOM     21  O   UNL A   1      29.154  31.105  22.435  1.00  0.00    -0.497 OA
ATOM     22  C   UNL A   1      28.134  31.897  23.032  1.00  0.00     0.278 C 
ENDBRANCH  19  21
ENDBRANCH   7  12
ENDBRANCH   4   7
ENDBRANCH   2   3
ENDBRANCH   1   2
BRANCH   1  23
ATOM     23  C   UNL A   1      32.747  32.401  27.342  1.00  0.00     0.118 C 
BRANCH  23  24
ATOM     24  N   UNL A   1      32.599  33.818  27.638  1.00  0.00    -0.352 N 
ATOM     25  C   UNL A   1      33.220  34.564  28.604  1.00  0.00     0.251 C 
ATOM     26  H   UNL A   1      31.965  34.307  27.065  1.00  0.00     0.163 HD
ATOM     27  O   UNL A   1      32.813  35.699  28.852  1.00  0.00    -0.269 OA
BRANCH  25  28
ATOM     28  C   UNL A   1      34.353  33.991  29.355  1.00  0.00     0.039 A 
ATOM     29  C   UNL A   1      34.088  33.173  30.454  1.00  0.00     0.014 A 
ATOM     30  C   UNL A   1      35.673  34.262  28.975  1.00  0.00     0.014 A 
ATOM     31  C   UNL A   1      35.149  32.591  31.147  1.00  0.00     0.010 A 
ATOM     32  C   UNL A   1      36.725  33.620  29.621  1.00  0.00     0.010 A 
ATOM     33  C   UNL A   1      36.473  32.788  30.722  1.00  0.00    -0.014 A 
BRANCH  33  34
ATOM     34  C   UNL A   1      37.599  32.138  31.437  1.00  0.00     0.031 A 
ATOM     35  C   UNL A   1      38.371  31.025  30.779  1.00  0.00     0.074 A 
ATOM     36  C   UNL A   1      37.905  32.532  32.688  1.00  0.00     0.049 A 
ATOM     37  N   UNL A   1      39.387  30.342  31.235  1.00  0.00    -0.248 NA
ATOM     38  C   UNL A   1      37.920  30.611  29.442  1.00  0.00     0.031 C 
ATOM     39  C   UNL A   1      37.186  33.560  33.447  1.00  0.00     0.029 A 
ATOM     40  N   UNL A   1      38.896  32.123  33.541  1.00  0.00    -0.354 N 
ATOM     41  C   UNL A   1      39.696  29.415  30.246  1.00  0.00     0.074 A 
ATOM     42  C   UNL A   1      38.711  29.578  29.198  1.00  0.00     0.031 C 
ATOM     43  C   UNL A   1      37.783  33.722  34.639  1.00  0.00     0.029 A 
ATOM     44  C   UNL A   1      38.902  32.791  34.743  1.00  0.00     0.049 A 
ATOM     45  H   UNL A   1      39.545  31.417  33.315  1.00  0.00     0.167 HD
ATOM     46  C   UNL A   1      40.722  28.529  30.202  1.00  0.00     0.034 A 
ATOM     47  C   UNL A   1      39.719  32.668  35.807  1.00  0.00     0.034 A 
ATOM     48  C   UNL A   1      41.696  28.383  31.258  1.00  0.00     0.049 A 
ATOM     49  C   UNL A   1      40.855  31.681  35.736  1.00  0.00     0.074 A 
ATOM     50  C   UNL A   1      42.802  27.552  31.305  1.00  0.00     0.029 A 
ATOM     51  N   UNL A   1      41.678  29.083  32.458  1.00  0.00    -0.354 N 
ATOM     52  N   UNL A   1      41.172  30.854  34.765  1.00  0.00    -0.248 NA
ATOM     53  C   UNL A   1      41.755  31.628  36.893  1.00  0.00     0.031 C 
ATOM     54  C   UNL A   1      43.415  27.705  32.555  1.00  0.00     0.029 A 
ATOM     55  C   UNL A   1      42.736  28.686  33.261  1.00  0.00     0.049 A 
ATOM     56  H   UNL A   1      41.009  29.764  32.703  1.00  0.00     0.167 HD
ATOM     57  C   UNL A   1      42.323  30.198  35.189  1.00  0.00     0.074 A 
ATOM     58  C   UNL A   1      42.657  30.747  36.489  1.00  0.00     0.031 C 
ATOM     59  C   UNL A   1      43.042  29.230  34.564  1.00  0.00     0.034 A 
BRANCH  46  60
ATOM     60  C   UNL A   1      40.821  27.643  28.982  1.00  0.00     0.023 A 
ATOM     61  C   UNL A   1      41.757  27.896  27.962  1.00  0.00     0.031 A 
ATOM     62  C   UNL A   1      39.949  26.554  28.815  1.00  0.00     0.131 A 
ATOM     63  C   UNL A   1      41.744  27.125  26.790  1.00  0.00     0.055 A 
ATOM     64  C   UNL A   1      39.996  25.738  27.681  1.00  0.00     0.041 A 
ATOM     65  F   UNL A   1      39.021  26.272  29.743  1.00  0.00    -0.206 F 
ATOM     66  C   UNL A   1      40.887  26.032  26.653  1.00  0.00     0.022 A 
BRANCH  63  67
ATOM     67  S   UNL A   1      42.763  27.663  25.388  1.00  0.00     0.124 S 
ATOM     68  O   UNL A   1      42.896  26.421  24.627  1.00  0.00    -0.237 OA
ATOM     69  O   UNL A   1      41.939  28.700  24.779  1.00  0.00    -0.237 OA
ATOM     70  O   UNL A   1      43.994  28.133  26.019  1.00  0.00    -0.744 OA
ENDBRANCH  63  67
ENDBRANCH  46  60
BRANCH  47  71
ATOM     71  C   UNL A   1      39.501  33.499  37.025  1.00  0.00     0.023 A 
ATOM     72  C   UNL A   1      38.938  32.950  38.188  1.00  0.00     0.031 A 
ATOM     73  C   UNL A   1      39.824  34.867  37.033  1.00  0.00     0.131 A 
ATOM     74  C   UNL A   1      38.671  33.773  39.293  1.00  0.00     0.055 A 
ATOM     75  C   UNL A   1      39.604  35.672  38.152  1.00  0.00     0.041 A 
ATOM     76  F   UNL A   1      40.375  35.441  35.950  1.00  0.00    -0.206 F 
ATOM     77  C   UNL A   1      39.012  35.127  39.287  1.00  0.00     0.022 A 
BRANCH  74  78
ATOM     78  S   UNL A   1      37.800  33.063  40.716  1.00  0.00     0.124 S 
ATOM     79  O   UNL A   1      36.405  33.215  40.318  1.00  0.00    -0.237 OA
ATOM     80  O   UNL A   1      38.316  31.698  40.736  1.00  0.00    -0.237 OA
ATOM     81  O   UNL A   1      38.226  33.904  41.831  1.00  0.00    -0.744 OA
ENDBRANCH  74  78
ENDBRANCH  47  71
BRANCH  59  82
ATOM     82  C   UNL A   1      44.275  28.733  35.278  1.00  0.00     0.023 A 
ATOM     83  C   UNL A   1      44.200  27.749  36.280  1.00  0.00     0.031 A 
ATOM     84  C   UNL A   1      45.536  29.277  34.979  1.00  0.00     0.131 A 
ATOM     85  C   UNL A   1      45.353  27.391  36.996  1.00  0.00     0.055 A 
ATOM     86  C   UNL A   1      46.690  28.870  35.649  1.00  0.00     0.041 A 
ATOM     87  F   UNL A   1      45.666  30.221  34.033  1.00  0.00    -0.206 F 
ATOM     88  C   UNL A   1      46.600  27.934  36.676  1.00  0.00     0.022 A 
BRANCH  85  89
ATOM     89  S   UNL A   1      45.180  26.291  38.427  1.00  0.00     0.124 S 
ATOM     90  O   UNL A   1      45.510  24.991  37.853  1.00  0.00    -0.237 OA
ATOM     91  O   UNL A   1      46.156  26.841  39.363  1.00  0.00    -0.237 OA
ATOM     92  O   UNL A   1      43.782  26.459  38.821  1.00  0.00    -0.744 OA
ENDBRANCH  85  89
ENDBRANCH  59  82
ENDBRANCH  33  34
ENDBRANCH  25  28
ENDBRANCH  23  24
ENDBRANCH   1  23
TORSDOF 17
ENDMDL
MODEL 2
REMARK VINA RESULT:     -11.6      3.743      9.202
REMARK SMILES CC[C@@](O)(C(=O)NCCCNC(=O)c1ccc(-c2c3nc(c(-c4cc(S(=O)(=O)[O-])ccc4F)c4ccc([nH]4)c(-c4cc(S(=O)(=O)[O-])ccc4F)c4nc(c(-c5cc(S(=O)(=O)[O-])ccc5F)c5ccc2[nH]5)C=C4)C=C3)cc1)[C@H]1CCc2ccc(OC)cc21
REMARK SMILES IDX 9 1 8 2 7 3 5 4 6 5 3 7 2 8 1 9 4 10 77 12 78 13 87 14 79 15
REMARK SMILES IDX 80 16 86 17 81 18 83 19 82 20 84 21 85 22 10 23 11 24 12 25
REMARK SMILES IDX 13 27 14 28 15 29 76 30 16 31 75 32 17 33 18 34 19 35 69 36
REMARK SMILES IDX 20 37 74 38 68 39 70 40 21 41 73 42 67 43 66 44 22 46 54 47
REMARK SMILES IDX 34 48 53 49 35 50 38 51 52 52 71 53 36 54 37 55 51 57 72 58
REMARK SMILES IDX 39 59 23 60 24 61 32 62 25 63 31 64 33 65 30 66 26 67 27 68
REMARK SMILES IDX 28 69 29 70 55 71 56 72 64 73 57 74 63 75 65 76 62 77 58 78
REMARK SMILES IDX 59 79 60 80 61 81 40 82 41 83 49 84 42 85 48 86 50 87 47 88
REMARK SMILES IDX 43 89 44 90 45 91 46 92
REMARK H PARENT 7 6 4 11 11 26 70 45 38 56
REMARK Flexibility Score: inf
ROOT
ATOM      1  C   UNL A   1      32.694  28.210  26.725  1.00  0.00     0.042 C 
ENDROOT
BRANCH   1   2
ATOM      2  C   UNL A   1      32.245  27.127  25.748  1.00  0.00     0.117 C 
BRANCH   2   3
ATOM      3  N   UNL A   1      32.837  25.859  26.117  1.00  0.00    -0.354 N 
ATOM      4  C   UNL A   1      32.616  24.643  25.542  1.00  0.00     0.252 C 
ATOM      5  O   UNL A   1      32.577  23.672  26.301  1.00  0.00    -0.272 OA
ATOM      6  H   UNL A   1      33.470  25.875  26.870  1.00  0.00     0.163 HD
BRANCH   4   7
ATOM      7  C   UNL A   1      32.476  24.518  23.993  1.00  0.00     0.149 C 
BRANCH   7   8
ATOM      8  C   UNL A   1      31.017  24.114  23.692  1.00  0.00     0.043 C 
ATOM      9  C   UNL A   1      30.015  25.262  23.666  1.00  0.00     0.007 C 
ENDBRANCH   7   8
BRANCH   7  10
ATOM     10  O   UNL A   1      32.715  25.786  23.344  1.00  0.00    -0.379 OA
ATOM     11  H   UNL A   1      32.652  25.675  22.383  1.00  0.00     0.212 HD
ENDBRANCH   7  10
BRANCH   7  12
ATOM     12  C   UNL A   1      33.599  23.558  23.465  1.00  0.00     0.061 C 
ATOM     13  C   UNL A   1      35.016  24.116  23.836  1.00  0.00     0.017 C 
ATOM     14  C   UNL A   1      33.687  22.137  23.960  1.00  0.00    -0.035 A 
ATOM     15  C   UNL A   1      35.941  22.934  24.119  1.00  0.00     0.036 C 
ATOM     16  C   UNL A   1      34.978  21.828  24.395  1.00  0.00    -0.044 A 
ATOM     17  C   UNL A   1      32.705  21.152  23.956  1.00  0.00     0.050 A 
ATOM     18  C   UNL A   1      35.278  20.591  24.943  1.00  0.00     0.008 A 
ATOM     19  C   UNL A   1      32.995  19.890  24.482  1.00  0.00     0.119 A 
ATOM     20  C   UNL A   1      34.270  19.629  25.005  1.00  0.00     0.047 A 
BRANCH  19  21
ATOM     21  O   UNL A   1      32.126  18.832  24.541  1.00  0.00    -0.497 OA
ATOM     22  C   UNL A   1      32.545  17.706  25.303  1.00  0.00     0.278 C 
ENDBRANCH  19  21
ENDBRANCH   7  12
ENDBRANCH   4   7
ENDBRANCH   2   3
ENDBRANCH   1   2
BRANCH   1  23
ATOM     23  C   UNL A   1      33.799  29.112  26.180  1.00  0.00     0.118 C 
BRANCH  23  24
ATOM     24  N   UNL A   1      33.683  30.480  26.661  1.00  0.00    -0.352 N 
ATOM     25  C   UNL A   1      34.438  31.127  27.603  1.00  0.00     0.251 C 
ATOM     26  H   UNL A   1      32.963  31.014  26.253  1.00  0.00     0.163 HD
ATOM     27  O   UNL A   1      34.061  32.213  28.044  1.00  0.00    -0.269 OA
BRANCH  25  28
ATOM     28  C   UNL A   1      35.679  30.505  28.100  1.00  0.00     0.039 A 
ATOM     29  C   UNL A   1      36.866  30.714  27.395  1.00  0.00     0.014 A 
ATOM     30  C   UNL A   1      35.672  29.717  29.257  1.00  0.00     0.014 A 
ATOM     31  C   UNL A   1      38.055  30.168  27.876  1.00  0.00     0.010 A 
ATOM     32  C   UNL A   1      36.871  29.237  29.775  1.00  0.00     0.010 A 
ATOM     33  C   UNL A   1      38.072  29.446  29.082  1.00  0.00    -0.014 A 
BRANCH  33  34
ATOM     34  C   UNL A   1      39.345  28.898  29.613  1.00  0.00     0.031 A 
ATOM     35  C   UNL A   1      39.990  29.520  30.822  1.00  0.00     0.074 A 
ATOM     36  C   UNL A   1      39.928  27.858  28.988  1.00  0.00     0.049 A 
ATOM     37  N   UNL A   1      41.092  29.179  31.438  1.00  0.00    -0.248 NA
ATOM     38  C   UNL A   1      39.321  30.697  31.395  1.00  0.00     0.031 C 
ATOM     39  C   UNL A   1      39.423  27.213  27.772  1.00  0.00     0.029 A 
ATOM     40  N   UNL A   1      41.069  27.157  29.285  1.00  0.00    -0.354 N 
ATOM     41  C   UNL A   1      41.250  30.100  32.468  1.00  0.00     0.074 A 
ATOM     42  C   UNL A   1      40.170  31.055  32.345  1.00  0.00     0.031 C 
ATOM     43  C   UNL A   1      40.233  26.191  27.448  1.00  0.00     0.029 A 
ATOM     44  C   UNL A   1      41.329  26.128  28.410  1.00  0.00     0.049 A 
ATOM     45  H   UNL A   1      41.648  27.370  30.052  1.00  0.00     0.167 HD
ATOM     46  C   UNL A   1      42.193  30.131  33.443  1.00  0.00     0.034 A 
ATOM     47  C   UNL A   1      42.335  25.233  28.388  1.00  0.00     0.034 A 
ATOM     48  C   UNL A   1      43.262  29.166  33.550  1.00  0.00     0.049 A 
ATOM     49  C   UNL A   1      43.370  25.282  29.482  1.00  0.00     0.074 A 
ATOM     50  C   UNL A   1      44.247  29.072  34.517  1.00  0.00     0.029 A 
ATOM     51  N   UNL A   1      43.491  28.130  32.651  1.00  0.00    -0.354 N 
ATOM     52  N   UNL A   1      43.471  26.123  30.487  1.00  0.00    -0.248 NA
ATOM     53  C   UNL A   1      44.411  24.249  29.452  1.00  0.00     0.031 C 
ATOM     54  C   UNL A   1      45.104  28.019  34.172  1.00  0.00     0.029 A 
ATOM     55  C   UNL A   1      44.613  27.408  33.028  1.00  0.00     0.049 A 
ATOM     56  H   UNL A   1      42.935  27.937  31.861  1.00  0.00     0.167 HD
ATOM     57  C   UNL A   1      44.576  25.703  31.221  1.00  0.00     0.074 A 
ATOM     58  C   UNL A   1      45.088  24.521  30.557  1.00  0.00     0.031 C 
ATOM     59  C   UNL A   1      45.121  26.243  32.341  1.00  0.00     0.034 A 
BRANCH  46  60
ATOM     60  C   UNL A   1      42.113  31.254  34.449  1.00  0.00     0.023 A 
ATOM     61  C   UNL A   1      41.109  31.289  35.436  1.00  0.00     0.031 A 
ATOM     62  C   UNL A   1      43.023  32.324  34.404  1.00  0.00     0.131 A 
ATOM     63  C   UNL A   1      40.992  32.404  36.280  1.00  0.00     0.055 A 
ATOM     64  C   UNL A   1      42.952  33.392  35.303  1.00  0.00     0.041 A 
ATOM     65  F   UNL A   1      43.991  32.359  33.475  1.00  0.00    -0.206 F 
ATOM     66  C   UNL A   1      41.922  33.444  36.237  1.00  0.00     0.022 A 
BRANCH  63  67
ATOM     67  S   UNL A   1      39.522  32.541  37.334  1.00  0.00     0.124 S 
ATOM     68  O   UNL A   1      38.746  31.376  36.911  1.00  0.00    -0.237 OA
ATOM     69  O   UNL A   1      40.089  32.478  38.676  1.00  0.00    -0.237 OA
ATOM     70  O   UNL A   1      38.949  33.831  36.958  1.00  0.00    -0.744 OA
ENDBRANCH  63  67
ENDBRANCH  46  60
BRANCH  47  71
ATOM     71  C   UNL A   1      42.416  24.215  27.303  1.00  0.00     0.023 A 
ATOM     72  C   UNL A   1      41.607  23.067  27.323  1.00  0.00     0.031 A 
ATOM     73  C   UNL A   1      43.329  24.358  26.243  1.00  0.00     0.131 A 
ATOM     74  C   UNL A   1      41.760  22.086  26.331  1.00  0.00     0.055 A 
ATOM     75  C   UNL A   1      43.441  23.404  25.231  1.00  0.00     0.041 A 
ATOM     76  F   UNL A   1      44.119  25.443  26.170  1.00  0.00    -0.206 F 
ATOM     77  C   UNL A   1      42.662  22.253  25.279  1.00  0.00     0.022 A 
BRANCH  74  78
ATOM     78  S   UNL A   1      40.811  20.547  26.478  1.00  0.00     0.124 S 
ATOM     79  O   UNL A   1      39.511  20.947  25.952  1.00  0.00    -0.237 OA
ATOM     80  O   UNL A   1      41.587  19.633  25.645  1.00  0.00    -0.237 OA
ATOM     81  O   UNL A   1      40.845  20.261  27.910  1.00  0.00    -0.744 OA
ENDBRANCH  74  78
ENDBRANCH  47  71
BRANCH  59  82
ATOM     82  C   UNL A   1      46.317  25.531  32.925  1.00  0.00     0.023 A 
ATOM     83  C   UNL A   1      46.171  24.495  33.866  1.00  0.00     0.031 A 
ATOM     84  C   UNL A   1      47.620  25.918  32.565  1.00  0.00     0.131 A 
ATOM     85  C   UNL A   1      47.306  23.932  34.466  1.00  0.00     0.055 A 
ATOM     86  C   UNL A   1      48.746  25.308  33.117  1.00  0.00     0.041 A 
ATOM     87  F   UNL A   1      47.818  26.902  31.674  1.00  0.00    -0.206 F 
ATOM     88  C   UNL A   1      48.593  24.320  34.086  1.00  0.00     0.022 A 
BRANCH  85  89
ATOM     89  S   UNL A   1      47.076  22.764  35.834  1.00  0.00     0.124 S 
ATOM     90  O   UNL A   1      45.634  22.828  36.049  1.00  0.00    -0.237 OA
ATOM     91  O   UNL A   1      47.581  21.517  35.268  1.00  0.00    -0.237 OA
ATOM     92  O   UNL A   1      47.889  23.331  36.910  1.00  0.00    -0.744 OA
ENDBRANCH  85  89
ENDBRANCH  59  82
ENDBRANCH  33  34
ENDBRANCH  25  28
ENDBRANCH  23  24
ENDBRANCH   1  23
TORSDOF 17
ENDMDL
MODEL 3
REMARK VINA RESULT:     -11.6      3.051      8.837
REMARK SMILES CC[C@@](O)(C(=O)NCCCNC(=O)c1ccc(-c2c3nc(c(-c4cc(S(=O)(=O)[O-])ccc4F)c4ccc([nH]4)c(-c4cc(S(=O)(=O)[O-])ccc4F)c4nc(c(-c5cc(S(=O)(=O)[O-])ccc5F)c5ccc2[nH]5)C=C4)C=C3)cc1)[C@H]1CCc2ccc(OC)cc21
REMARK SMILES IDX 9 1 8 2 7 3 5 4 6 5 3 7 2 8 1 9 4 10 77 12 78 13 87 14 79 15
REMARK SMILES IDX 80 16 86 17 81 18 83 19 82 20 84 21 85 22 10 23 11 24 12 25
REMARK SMILES IDX 13 27 14 28 15 29 76 30 16 31 75 32 17 33 18 34 19 35 69 36
REMARK SMILES IDX 20 37 74 38 68 39 70 40 21 41 73 42 67 43 66 44 22 46 54 47
REMARK SMILES IDX 34 48 53 49 35 50 38 51 52 52 71 53 36 54 37 55 51 57 72 58
REMARK SMILES IDX 39 59 23 60 24 61 32 62 25 63 31 64 33 65 30 66 26 67 27 68
REMARK SMILES IDX 28 69 29 70 55 71 56 72 64 73 57 74 63 75 65 76 62 77 58 78
REMARK SMILES IDX 59 79 60 80 61 81 40 82 41 83 49 84 42 85 48 86 50 87 47 88
REMARK SMILES IDX 43 89 44 90 45 91 46 92
REMARK H PARENT 7 6 4 11 11 26 70 45 38 56
REMARK Flexibility Score: inf
ROOT
ATOM      1  C   UNL A   1      32.071  28.491  25.945  1.00  0.00     0.042 C 
ENDROOT
BRANCH   1   2
ATOM      2  C   UNL A   1      32.303  27.102  25.355  1.00  0.00     0.117 C 
BRANCH   2   3
ATOM      3  N   UNL A   1      31.523  26.948  24.146  1.00  0.00    -0.354 N 
ATOM      4  C   UNL A   1      31.478  25.864  23.321  1.00  0.00     0.252 C 
ATOM      5  O   UNL A   1      31.400  26.092  22.112  1.00  0.00    -0.272 OA
ATOM      6  H   UNL A   1      30.962  27.714  23.887  1.00  0.00     0.163 HD
BRANCH   4   7
ATOM      7  C   UNL A   1      31.474  24.421  23.917  1.00  0.00     0.149 C 
BRANCH   7   8
ATOM      8  C   UNL A   1      31.461  24.558  25.455  1.00  0.00     0.043 C 
ATOM      9  C   UNL A   1      30.603  23.538  26.192  1.00  0.00     0.007 C 
ENDBRANCH   7   8
BRANCH   7  10
ATOM     10  O   UNL A   1      30.280  23.703  23.537  1.00  0.00    -0.379 OA
ATOM     11  H   UNL A   1      30.449  23.200  22.726  1.00  0.00     0.212 HD
ENDBRANCH   7  10
BRANCH   7  12
ATOM     12  C   UNL A   1      32.666  23.618  23.288  1.00  0.00     0.061 C 
ATOM     13  C   UNL A   1      34.005  24.419  23.434  1.00  0.00     0.017 C 
ATOM     14  C   UNL A   1      33.052  22.267  23.836  1.00  0.00    -0.035 A 
ATOM     15  C   UNL A   1      35.143  23.423  23.645  1.00  0.00     0.036 C 
ATOM     16  C   UNL A   1      34.422  22.200  24.104  1.00  0.00    -0.044 A 
ATOM     17  C   UNL A   1      32.257  21.140  24.014  1.00  0.00     0.050 A 
ATOM     18  C   UNL A   1      34.992  21.069  24.666  1.00  0.00     0.008 A 
ATOM     19  C   UNL A   1      32.819  19.982  24.557  1.00  0.00     0.119 A 
ATOM     20  C   UNL A   1      34.175  19.965  24.912  1.00  0.00     0.047 A 
BRANCH  19  21
ATOM     21  O   UNL A   1      32.154  18.805  24.786  1.00  0.00    -0.497 OA
ATOM     22  C   UNL A   1      32.728  17.926  25.746  1.00  0.00     0.278 C 
ENDBRANCH  19  21
ENDBRANCH   7  12
ENDBRANCH   4   7
ENDBRANCH   2   3
ENDBRANCH   1   2
BRANCH   1  23
ATOM     23  C   UNL A   1      33.283  29.415  25.843  1.00  0.00     0.118 C 
BRANCH  23  24
ATOM     24  N   UNL A   1      32.981  30.771  26.271  1.00  0.00    -0.352 N 
ATOM     25  C   UNL A   1      33.581  31.518  27.250  1.00  0.00     0.251 C 
ATOM     26  H   UNL A   1      32.243  31.214  25.792  1.00  0.00     0.163 HD
ATOM     27  O   UNL A   1      33.055  32.566  27.626  1.00  0.00    -0.269 OA
BRANCH  25  28
ATOM     28  C   UNL A   1      34.838  31.047  27.862  1.00  0.00     0.039 A 
ATOM     29  C   UNL A   1      35.903  31.941  27.987  1.00  0.00     0.014 A 
ATOM     30  C   UNL A   1      34.966  29.727  28.310  1.00  0.00     0.014 A 
ATOM     31  C   UNL A   1      37.082  31.523  28.602  1.00  0.00     0.010 A 
ATOM     32  C   UNL A   1      36.115  29.335  28.990  1.00  0.00     0.010 A 
ATOM     33  C   UNL A   1      37.189  30.225  29.130  1.00  0.00    -0.014 A 
BRANCH  33  34
ATOM     34  C   UNL A   1      38.431  29.792  29.818  1.00  0.00     0.031 A 
ATOM     35  C   UNL A   1      38.761  30.323  31.187  1.00  0.00     0.074 A 
ATOM     36  C   UNL A   1      39.270  28.944  29.195  1.00  0.00     0.049 A 
ATOM     37  N   UNL A   1      39.788  30.058  31.951  1.00  0.00    -0.248 NA
ATOM     38  C   UNL A   1      37.823  31.302  31.760  1.00  0.00     0.031 C 
ATOM     39  C   UNL A   1      39.082  28.412  27.843  1.00  0.00     0.029 A 
ATOM     40  N   UNL A   1      40.446  28.376  29.613  1.00  0.00    -0.354 N 
ATOM     41  C   UNL A   1      39.625  30.838  33.091  1.00  0.00     0.074 A 
ATOM     42  C   UNL A   1      38.437  31.639  32.883  1.00  0.00     0.031 C 
ATOM     43  C   UNL A   1      40.089  27.570  27.557  1.00  0.00     0.029 A 
ATOM     44  C   UNL A   1      41.010  27.528  28.689  1.00  0.00     0.049 A 
ATOM     45  H   UNL A   1      40.850  28.559  30.493  1.00  0.00     0.167 HD
ATOM     46  C   UNL A   1      40.379  30.864  34.218  1.00  0.00     0.034 A 
ATOM     47  C   UNL A   1      42.139  26.797  28.748  1.00  0.00     0.034 A 
ATOM     48  C   UNL A   1      41.560  30.055  34.407  1.00  0.00     0.049 A 
ATOM     49  C   UNL A   1      42.960  26.836  30.011  1.00  0.00     0.074 A 
ATOM     50  C   UNL A   1      42.377  29.965  35.521  1.00  0.00     0.029 A 
ATOM     51  N   UNL A   1      42.097  29.199  33.453  1.00  0.00    -0.354 N 
ATOM     52  N   UNL A   1      42.758  27.533  31.107  1.00  0.00    -0.248 NA
ATOM     53  C   UNL A   1      44.147  25.976  30.053  1.00  0.00     0.031 C 
ATOM     54  C   UNL A   1      43.438  29.103  35.219  1.00  0.00     0.029 A 
ATOM     55  C   UNL A   1      43.246  28.596  33.943  1.00  0.00     0.049 A 
ATOM     56  H   UNL A   1      41.716  29.042  32.558  1.00  0.00     0.167 HD
ATOM     57  C   UNL A   1      43.783  27.175  31.977  1.00  0.00     0.074 A 
ATOM     58  C   UNL A   1      44.583  26.182  31.287  1.00  0.00     0.031 C 
ATOM     59  C   UNL A   1      44.043  27.624  33.232  1.00  0.00     0.034 A 
BRANCH  46  60
ATOM     60  C   UNL A   1      39.953  31.812  35.315  1.00  0.00     0.023 A 
ATOM     61  C   UNL A   1      39.133  31.388  36.377  1.00  0.00     0.031 A 
ATOM     62  C   UNL A   1      40.337  33.163  35.283  1.00  0.00     0.131 A 
ATOM     63  C   UNL A   1      38.661  32.320  37.315  1.00  0.00     0.055 A 
ATOM     64  C   UNL A   1      39.931  34.069  36.267  1.00  0.00     0.041 A 
ATOM     65  F   UNL A   1      41.102  33.634  34.285  1.00  0.00    -0.206 F 
ATOM     66  C   UNL A   1      39.074  33.652  37.281  1.00  0.00     0.022 A 
BRANCH  63  67
ATOM     67  S   UNL A   1      37.383  31.793  38.490  1.00  0.00     0.124 S 
ATOM     68  O   UNL A   1      37.140  30.416  38.064  1.00  0.00    -0.237 OA
ATOM     69  O   UNL A   1      38.051  31.956  39.776  1.00  0.00    -0.237 OA
ATOM     70  O   UNL A   1      36.281  32.719  38.237  1.00  0.00    -0.744 OA
ENDBRANCH  63  67
ENDBRANCH  46  60
BRANCH  47  71
ATOM     71  C   UNL A   1      42.561  25.963  27.587  1.00  0.00     0.023 A 
ATOM     72  C   UNL A   1      42.120  24.637  27.448  1.00  0.00     0.031 A 
ATOM     73  C   UNL A   1      43.438  26.471  26.614  1.00  0.00     0.131 A 
ATOM     74  C   UNL A   1      42.595  23.849  26.388  1.00  0.00     0.055 A 
ATOM     75  C   UNL A   1      43.868  25.700  25.533  1.00  0.00     0.041 A 
ATOM     76  F   UNL A   1      43.881  27.737  26.693  1.00  0.00    -0.206 F 
ATOM     77  C   UNL A   1      43.456  24.375  25.423  1.00  0.00     0.022 A 
BRANCH  74  78
ATOM     78  S   UNL A   1      42.130  22.097  26.331  1.00  0.00     0.124 S 
ATOM     79  O   UNL A   1      40.688  22.178  26.127  1.00  0.00    -0.237 OA
ATOM     80  O   UNL A   1      42.912  21.614  25.198  1.00  0.00    -0.237 OA
ATOM     81  O   UNL A   1      42.548  21.590  27.636  1.00  0.00    -0.744 OA
ENDBRANCH  74  78
ENDBRANCH  47  71
BRANCH  59  82
ATOM     82  C   UNL A   1      45.228  27.012  33.939  1.00  0.00     0.023 A 
ATOM     83  C   UNL A   1      45.106  25.833  34.697  1.00  0.00     0.031 A 
ATOM     84  C   UNL A   1      46.487  27.637  33.885  1.00  0.00     0.131 A 
ATOM     85  C   UNL A   1      46.205  25.356  35.427  1.00  0.00     0.055 A 
ATOM     86  C   UNL A   1      47.593  27.120  34.561  1.00  0.00     0.041 A 
ATOM     87  F   UNL A   1      46.660  28.766  33.179  1.00  0.00    -0.206 F 
ATOM     88  C   UNL A   1      47.451  25.983  35.351  1.00  0.00     0.022 A 
BRANCH  85  89
ATOM     89  S   UNL A   1      45.953  23.969  36.568  1.00  0.00     0.124 S 
ATOM     90  O   UNL A   1      44.527  23.700  36.409  1.00  0.00    -0.237 OA
ATOM     91  O   UNL A   1      46.857  22.956  36.033  1.00  0.00    -0.237 OA
ATOM     92  O   UNL A   1      46.338  24.520  37.867  1.00  0.00    -0.744 OA
ENDBRANCH  85  89
ENDBRANCH  59  82
ENDBRANCH  33  34
ENDBRANCH  25  28
ENDBRANCH  23  24
ENDBRANCH   1  23
TORSDOF 17
ENDMDL
