MODEL 1
REMARK VINA RESULT:     -11.2      0.000      0.000
REMARK SMILES C=CCOC(=O)N[C@@H](Cc1ccccc1)C(=O)NCCCNC(=O)c1ccc(-c2c3nc(c(-c4cc(S(=O)(=O)[O-])ccc4F)c4ccc([nH]4)c(-c4cc(S(=O)(=O)[O-])ccc4F)c4nc(c(-c5cc(S(=O)(=O)[O-])ccc5F)c5ccc2[nH]5)C=C4)C=C3)cc1
REMARK SMILES IDX 19 1 18 2 16 3 17 4 8 6 7 7 5 8 6 9 4 11 3 12 2 13 1 14 9 15
REMARK SMILES IDX 10 16 11 17 15 18 12 19 14 20 13 21 20 22 21 23 22 24 23 25
REMARK SMILES IDX 24 27 25 28 26 29 87 30 27 31 86 32 28 33 29 34 30 35 80 36
REMARK SMILES IDX 31 37 85 38 79 39 81 40 32 41 84 42 78 43 77 44 33 46 65 47
REMARK SMILES IDX 45 48 64 49 46 50 49 51 63 52 82 53 47 54 48 55 62 57 83 58
REMARK SMILES IDX 50 59 34 60 35 61 43 62 36 63 42 64 44 65 41 66 37 67 38 68
REMARK SMILES IDX 39 69 40 70 66 71 67 72 75 73 68 74 74 75 76 76 73 77 69 78
REMARK SMILES IDX 70 79 71 80 72 81 51 82 52 83 60 84 53 85 59 86 61 87 58 88
REMARK SMILES IDX 54 89 55 90 56 91 57 92
REMARK H PARENT 18 5 7 10 22 26 81 45 49 56
REMARK Flexibility Score: inf
ROOT
ATOM      1  C   UNL A   1      35.008  22.307  24.965  1.00  0.00     0.117 C 
ENDROOT
BRANCH   1   2
ATOM      2  N   UNL A   1      34.946  22.735  23.586  1.00  0.00    -0.354 N 
ATOM      3  C   UNL A   1      33.828  22.988  22.841  1.00  0.00     0.243 C 
ATOM      4  O   UNL A   1      33.946  23.797  21.913  1.00  0.00    -0.273 OA
ATOM      5  H   UNL A   1      35.810  22.859  23.130  1.00  0.00     0.163 HD
BRANCH   3   6
ATOM      6  C   UNL A   1      32.437  22.408  23.198  1.00  0.00     0.179 C 
BRANCH   6   7
ATOM      7  N   UNL A   1      31.345  23.378  23.118  1.00  0.00    -0.309 N 
ATOM      8  C   UNL A   1      30.984  24.304  24.047  1.00  0.00     0.408 C 
ATOM      9  O   UNL A   1      29.992  25.002  23.869  1.00  0.00    -0.225 OA
ATOM     10  H   UNL A   1      30.806  23.359  22.295  1.00  0.00     0.167 HD
BRANCH   8  11
ATOM     11  O   UNL A   1      31.773  24.315  25.145  1.00  0.00    -0.445 OA
BRANCH  11  12
ATOM     12  C   UNL A   1      32.184  25.615  25.582  1.00  0.00     0.262 C 
BRANCH  12  13
ATOM     13  C   UNL A   1      33.498  25.998  24.972  1.00  0.00     0.006 C 
ATOM     14  C   UNL A   1      33.734  27.188  24.402  1.00  0.00     0.007 C 
ENDBRANCH  12  13
ENDBRANCH  11  12
ENDBRANCH   8  11
ENDBRANCH   6   7
BRANCH   6  15
ATOM     15  C   UNL A   1      32.107  21.061  22.503  1.00  0.00     0.070 C 
BRANCH  15  16
ATOM     16  C   UNL A   1      32.322  19.786  23.289  1.00  0.00    -0.045 A 
ATOM     17  C   UNL A   1      32.457  18.547  22.640  1.00  0.00     0.004 A 
ATOM     18  C   UNL A   1      32.467  19.833  24.686  1.00  0.00     0.004 A 
ATOM     19  C   UNL A   1      32.832  17.406  23.357  1.00  0.00     0.000 A 
ATOM     20  C   UNL A   1      32.823  18.685  25.403  1.00  0.00     0.000 A 
ATOM     21  C   UNL A   1      33.032  17.480  24.734  1.00  0.00     0.000 A 
ENDBRANCH  15  16
ENDBRANCH   6  15
ENDBRANCH   3   6
ENDBRANCH   1   2
BRANCH   1  22
ATOM     22  C   UNL A   1      35.936  21.153  25.249  1.00  0.00     0.042 C 
BRANCH  22  23
ATOM     23  C   UNL A   1      37.393  21.494  24.998  1.00  0.00     0.118 C 
BRANCH  23  24
ATOM     24  N   UNL A   1      38.317  20.452  25.448  1.00  0.00    -0.352 N 
ATOM     25  C   UNL A   1      39.512  20.543  26.125  1.00  0.00     0.251 C 
ATOM     26  H   UNL A   1      38.039  19.533  25.230  1.00  0.00     0.163 HD
ATOM     27  O   UNL A   1      40.213  19.543  26.256  1.00  0.00    -0.269 OA
BRANCH  25  28
ATOM     28  C   UNL A   1      39.961  21.849  26.650  1.00  0.00     0.039 A 
ATOM     29  C   UNL A   1      40.968  21.891  27.617  1.00  0.00     0.014 A 
ATOM     30  C   UNL A   1      39.426  23.033  26.148  1.00  0.00     0.014 A 
ATOM     31  C   UNL A   1      41.505  23.124  27.994  1.00  0.00     0.010 A 
ATOM     32  C   UNL A   1      40.058  24.239  26.412  1.00  0.00     0.010 A 
ATOM     33  C   UNL A   1      41.098  24.302  27.348  1.00  0.00    -0.014 A 
BRANCH  33  34
ATOM     34  C   UNL A   1      41.729  25.615  27.640  1.00  0.00     0.031 A 
ATOM     35  C   UNL A   1      40.959  26.663  28.400  1.00  0.00     0.074 A 
ATOM     36  C   UNL A   1      42.952  25.893  27.146  1.00  0.00     0.049 A 
ATOM     37  N   UNL A   1      41.290  27.898  28.672  1.00  0.00    -0.248 NA
ATOM     38  C   UNL A   1      39.620  26.283  28.876  1.00  0.00     0.031 C 
ATOM     39  C   UNL A   1      43.765  24.982  26.335  1.00  0.00     0.029 A 
ATOM     40  N   UNL A   1      43.724  27.024  27.241  1.00  0.00    -0.354 N 
ATOM     41  C   UNL A   1      40.190  28.447  29.325  1.00  0.00     0.074 A 
ATOM     42  C   UNL A   1      39.158  27.435  29.333  1.00  0.00     0.031 C 
ATOM     43  C   UNL A   1      44.930  25.577  26.036  1.00  0.00     0.029 A 
ATOM     44  C   UNL A   1      44.928  26.931  26.582  1.00  0.00     0.049 A 
ATOM     45  H   UNL A   1      43.443  27.828  27.736  1.00  0.00     0.167 HD
ATOM     46  C   UNL A   1      40.064  29.672  29.892  1.00  0.00     0.034 A 
ATOM     47  C   UNL A   1      45.912  27.838  26.417  1.00  0.00     0.034 A 
ATOM     48  C   UNL A   1      41.116  30.658  29.887  1.00  0.00     0.049 A 
ATOM     49  C   UNL A   1      45.754  29.196  27.051  1.00  0.00     0.074 A 
ATOM     50  C   UNL A   1      41.137  31.899  30.497  1.00  0.00     0.029 A 
ATOM     51  N   UNL A   1      42.332  30.522  29.225  1.00  0.00    -0.354 N 
ATOM     52  N   UNL A   1      44.740  29.674  27.736  1.00  0.00    -0.248 NA
ATOM     53  C   UNL A   1      46.873  30.132  26.900  1.00  0.00     0.031 C 
ATOM     54  C   UNL A   1      42.321  32.546  30.132  1.00  0.00     0.029 A 
ATOM     55  C   UNL A   1      43.088  31.674  29.374  1.00  0.00     0.049 A 
ATOM     56  H   UNL A   1      42.614  29.724  28.723  1.00  0.00     0.167 HD
ATOM     57  C   UNL A   1      45.113  30.958  28.121  1.00  0.00     0.074 A 
ATOM     58  C   UNL A   1      46.450  31.170  27.606  1.00  0.00     0.031 C 
ATOM     59  C   UNL A   1      44.416  31.877  28.838  1.00  0.00     0.034 A 
BRANCH  46  60
ATOM     60  C   UNL A   1      38.735  30.013  30.527  1.00  0.00     0.023 A 
ATOM     61  C   UNL A   1      37.760  30.771  29.853  1.00  0.00     0.031 A 
ATOM     62  C   UNL A   1      38.455  29.615  31.847  1.00  0.00     0.131 A 
ATOM     63  C   UNL A   1      36.604  31.189  30.530  1.00  0.00     0.055 A 
ATOM     64  C   UNL A   1      37.258  29.951  32.481  1.00  0.00     0.041 A 
ATOM     65  F   UNL A   1      39.353  28.911  32.553  1.00  0.00    -0.206 F 
ATOM     66  C   UNL A   1      36.332  30.760  31.829  1.00  0.00     0.022 A 
BRANCH  63  67
ATOM     67  S   UNL A   1      35.555  32.448  29.750  1.00  0.00     0.124 S 
ATOM     68  O   UNL A   1      34.391  32.451  30.633  1.00  0.00    -0.237 OA
ATOM     69  O   UNL A   1      36.398  33.637  29.800  1.00  0.00    -0.237 OA
ATOM     70  O   UNL A   1      35.311  31.910  28.414  1.00  0.00    -0.744 OA
ENDBRANCH  63  67
ENDBRANCH  46  60
BRANCH  47  71
ATOM     71  C   UNL A   1      47.117  27.499  25.605  1.00  0.00     0.023 A 
ATOM     72  C   UNL A   1      47.202  27.837  24.246  1.00  0.00     0.031 A 
ATOM     73  C   UNL A   1      48.201  26.811  26.181  1.00  0.00     0.131 A 
ATOM     74  C   UNL A   1      48.329  27.454  23.499  1.00  0.00     0.055 A 
ATOM     75  C   UNL A   1      49.343  26.482  25.448  1.00  0.00     0.041 A 
ATOM     76  F   UNL A   1      48.174  26.467  27.479  1.00  0.00    -0.206 F 
ATOM     77  C   UNL A   1      49.405  26.794  24.094  1.00  0.00     0.022 A 
BRANCH  74  78
ATOM     78  S   UNL A   1      48.334  27.762  21.711  1.00  0.00     0.124 S 
ATOM     79  O   UNL A   1      48.610  26.433  21.180  1.00  0.00    -0.237 OA
ATOM     80  O   UNL A   1      46.987  28.277  21.488  1.00  0.00    -0.237 OA
ATOM     81  O   UNL A   1      49.407  28.739  21.538  1.00  0.00    -0.744 OA
ENDBRANCH  74  78
ENDBRANCH  47  71
BRANCH  59  82
ATOM     82  C   UNL A   1      45.110  33.184  29.142  1.00  0.00     0.023 A 
ATOM     83  C   UNL A   1      45.147  34.240  28.216  1.00  0.00     0.031 A 
ATOM     84  C   UNL A   1      45.750  33.371  30.382  1.00  0.00     0.131 A 
ATOM     85  C   UNL A   1      45.859  35.411  28.517  1.00  0.00     0.055 A 
ATOM     86  C   UNL A   1      46.394  34.565  30.705  1.00  0.00     0.041 A 
ATOM     87  F   UNL A   1      45.753  32.396  31.304  1.00  0.00    -0.206 F 
ATOM     88  C   UNL A   1      46.463  35.589  29.764  1.00  0.00     0.022 A 
BRANCH  85  89
ATOM     89  S   UNL A   1      46.077  36.655  27.217  1.00  0.00     0.124 S 
ATOM     90  O   UNL A   1      47.341  37.275  27.602  1.00  0.00    -0.237 OA
ATOM     91  O   UNL A   1      46.108  35.841  26.006  1.00  0.00    -0.237 OA
ATOM     92  O   UNL A   1      44.899  37.509  27.360  1.00  0.00    -0.744 OA
ENDBRANCH  85  89
ENDBRANCH  59  82
ENDBRANCH  33  34
ENDBRANCH  25  28
ENDBRANCH  23  24
ENDBRANCH  22  23
ENDBRANCH   1  22
TORSDOF 19
ENDMDL
MODEL 2
REMARK VINA RESULT:     -11.1      1.589      7.731
REMARK SMILES C=CCOC(=O)N[C@@H](Cc1ccccc1)C(=O)NCCCNC(=O)c1ccc(-c2c3nc(c(-c4cc(S(=O)(=O)[O-])ccc4F)c4ccc([nH]4)c(-c4cc(S(=O)(=O)[O-])ccc4F)c4nc(c(-c5cc(S(=O)(=O)[O-])ccc5F)c5ccc2[nH]5)C=C4)C=C3)cc1
REMARK SMILES IDX 19 1 18 2 16 3 17 4 8 6 7 7 5 8 6 9 4 11 3 12 2 13 1 14 9 15
REMARK SMILES IDX 10 16 11 17 15 18 12 19 14 20 13 21 20 22 21 23 22 24 23 25
REMARK SMILES IDX 24 27 25 28 26 29 87 30 27 31 86 32 28 33 29 34 30 35 80 36
REMARK SMILES IDX 31 37 85 38 79 39 81 40 32 41 84 42 78 43 77 44 33 46 65 47
REMARK SMILES IDX 45 48 64 49 46 50 49 51 63 52 82 53 47 54 48 55 62 57 83 58
REMARK SMILES IDX 50 59 34 60 35 61 43 62 36 63 42 64 44 65 41 66 37 67 38 68
REMARK SMILES IDX 39 69 40 70 66 71 67 72 75 73 68 74 74 75 76 76 73 77 69 78
REMARK SMILES IDX 70 79 71 80 72 81 51 82 52 83 60 84 53 85 59 86 61 87 58 88
REMARK SMILES IDX 54 89 55 90 56 91 57 92
REMARK H PARENT 18 5 7 10 22 26 81 45 49 56
REMARK Flexibility Score: inf
ROOT
ATOM      1  C   UNL A   1      34.781  23.119  24.887  1.00  0.00     0.117 C 
ENDROOT
BRANCH   1   2
ATOM      2  N   UNL A   1      34.733  23.236  23.448  1.00  0.00    -0.354 N 
ATOM      3  C   UNL A   1      33.626  23.208  22.646  1.00  0.00     0.243 C 
ATOM      4  O   UNL A   1      33.702  23.809  21.567  1.00  0.00    -0.273 OA
ATOM      5  H   UNL A   1      35.598  23.348  22.991  1.00  0.00     0.163 HD
BRANCH   3   6
ATOM      6  C   UNL A   1      32.285  22.577  23.094  1.00  0.00     0.179 C 
BRANCH   6   7
ATOM      7  N   UNL A   1      31.126  23.457  22.939  1.00  0.00    -0.309 N 
ATOM      8  C   UNL A   1      30.773  24.514  23.718  1.00  0.00     0.408 C 
ATOM      9  O   UNL A   1      29.726  25.115  23.505  1.00  0.00    -0.225 OA
ATOM     10  H   UNL A   1      30.531  23.262  22.179  1.00  0.00     0.167 HD
BRANCH   8  11
ATOM     11  O   UNL A   1      31.637  24.764  24.728  1.00  0.00    -0.445 OA
BRANCH  11  12
ATOM     12  C   UNL A   1      31.829  26.150  25.031  1.00  0.00     0.262 C 
BRANCH  12  13
ATOM     13  C   UNL A   1      32.880  26.332  26.082  1.00  0.00     0.006 C 
ATOM     14  C   UNL A   1      33.929  27.156  25.950  1.00  0.00     0.007 C 
ENDBRANCH  12  13
ENDBRANCH  11  12
ENDBRANCH   8  11
ENDBRANCH   6   7
BRANCH   6  15
ATOM     15  C   UNL A   1      32.038  21.144  22.553  1.00  0.00     0.070 C 
BRANCH  15  16
ATOM     16  C   UNL A   1      32.392  19.977  23.450  1.00  0.00    -0.045 A 
ATOM     17  C   UNL A   1      32.597  20.156  24.828  1.00  0.00     0.004 A 
ATOM     18  C   UNL A   1      32.445  18.675  22.926  1.00  0.00     0.004 A 
ATOM     19  C   UNL A   1      32.745  19.053  25.674  1.00  0.00     0.000 A 
ATOM     20  C   UNL A   1      32.613  17.574  23.772  1.00  0.00     0.000 A 
ATOM     21  C   UNL A   1      32.736  17.763  25.148  1.00  0.00     0.000 A 
ENDBRANCH  15  16
ENDBRANCH   6  15
ENDBRANCH   3   6
ENDBRANCH   1   2
BRANCH   1  22
ATOM     22  C   UNL A   1      35.686  22.039  25.425  1.00  0.00     0.042 C 
BRANCH  22  23
ATOM     23  C   UNL A   1      36.993  21.932  24.663  1.00  0.00     0.118 C 
BRANCH  23  24
ATOM     24  N   UNL A   1      37.861  20.859  25.150  1.00  0.00    -0.352 N 
ATOM     25  C   UNL A   1      39.023  20.908  25.886  1.00  0.00     0.251 C 
ATOM     26  H   UNL A   1      37.566  19.951  24.912  1.00  0.00     0.163 HD
ATOM     27  O   UNL A   1      39.685  19.886  26.044  1.00  0.00    -0.269 OA
BRANCH  25  28
ATOM     28  C   UNL A   1      39.486  22.196  26.443  1.00  0.00     0.039 A 
ATOM     29  C   UNL A   1      40.580  22.216  27.311  1.00  0.00     0.014 A 
ATOM     30  C   UNL A   1      38.873  23.389  26.065  1.00  0.00     0.014 A 
ATOM     31  C   UNL A   1      41.118  23.442  27.708  1.00  0.00     0.010 A 
ATOM     32  C   UNL A   1      39.496  24.598  26.338  1.00  0.00     0.010 A 
ATOM     33  C   UNL A   1      40.619  24.642  27.174  1.00  0.00    -0.014 A 
BRANCH  33  34
ATOM     34  C   UNL A   1      41.241  25.955  27.482  1.00  0.00     0.031 A 
ATOM     35  C   UNL A   1      42.659  26.231  27.055  1.00  0.00     0.074 A 
ATOM     36  C   UNL A   1      40.564  26.858  28.220  1.00  0.00     0.049 A 
ATOM     37  N   UNL A   1      43.413  27.268  27.308  1.00  0.00    -0.248 NA
ATOM     38  C   UNL A   1      43.331  25.177  26.279  1.00  0.00     0.031 C 
ATOM     39  C   UNL A   1      39.211  26.674  28.751  1.00  0.00     0.029 A 
ATOM     40  N   UNL A   1      40.924  28.107  28.663  1.00  0.00    -0.354 N 
ATOM     41  C   UNL A   1      44.653  26.979  26.747  1.00  0.00     0.074 A 
ATOM     42  C   UNL A   1      44.570  25.637  26.214  1.00  0.00     0.031 C 
ATOM     43  C   UNL A   1      38.843  27.780  29.417  1.00  0.00     0.029 A 
ATOM     44  C   UNL A   1      39.952  28.729  29.413  1.00  0.00     0.049 A 
ATOM     45  H   UNL A   1      41.794  28.519  28.462  1.00  0.00     0.167 HD
ATOM     46  C   UNL A   1      45.750  27.770  26.658  1.00  0.00     0.034 A 
ATOM     47  C   UNL A   1      39.959  29.921  30.044  1.00  0.00     0.034 A 
ATOM     48  C   UNL A   1      45.801  29.112  27.181  1.00  0.00     0.049 A 
ATOM     49  C   UNL A   1      41.188  30.786  29.937  1.00  0.00     0.074 A 
ATOM     50  C   UNL A   1      46.824  30.038  27.079  1.00  0.00     0.029 A 
ATOM     51  N   UNL A   1      44.791  29.719  27.919  1.00  0.00    -0.354 N 
ATOM     52  N   UNL A   1      42.326  30.532  29.333  1.00  0.00    -0.248 NA
ATOM     53  C   UNL A   1      41.131  32.101  30.586  1.00  0.00     0.031 C 
ATOM     54  C   UNL A   1      46.471  31.164  27.829  1.00  0.00     0.029 A 
ATOM     55  C   UNL A   1      45.186  30.986  28.318  1.00  0.00     0.049 A 
ATOM     56  H   UNL A   1      43.922  29.306  28.129  1.00  0.00     0.167 HD
ATOM     57  C   UNL A   1      43.111  31.668  29.507  1.00  0.00     0.074 A 
ATOM     58  C   UNL A   1      42.307  32.612  30.256  1.00  0.00     0.031 C 
ATOM     59  C   UNL A   1      44.378  31.911  29.082  1.00  0.00     0.034 A 
BRANCH  46  60
ATOM     60  C   UNL A   1      46.981  27.184  26.001  1.00  0.00     0.023 A 
ATOM     61  C   UNL A   1      47.919  26.426  26.724  1.00  0.00     0.031 A 
ATOM     62  C   UNL A   1      47.245  27.429  24.642  1.00  0.00     0.131 A 
ATOM     63  C   UNL A   1      49.118  26.026  26.113  1.00  0.00     0.055 A 
ATOM     64  C   UNL A   1      48.394  26.943  24.015  1.00  0.00     0.041 A 
ATOM     65  F   UNL A   1      46.401  28.166  23.903  1.00  0.00    -0.206 F 
ATOM     66  C   UNL A   1      49.349  26.254  24.756  1.00  0.00     0.022 A 
BRANCH  63  67
ATOM     67  S   UNL A   1      50.444  25.369  27.163  1.00  0.00     0.124 S 
ATOM     68  O   UNL A   1      50.764  26.527  27.995  1.00  0.00    -0.237 OA
ATOM     69  O   UNL A   1      49.788  24.258  27.842  1.00  0.00    -0.237 OA
ATOM     70  O   UNL A   1      51.484  24.993  26.207  1.00  0.00    -0.744 OA
ENDBRANCH  63  67
ENDBRANCH  46  60
BRANCH  47  71
ATOM     71  C   UNL A   1      38.776  30.353  30.844  1.00  0.00     0.023 A 
ATOM     72  C   UNL A   1      37.708  31.047  30.255  1.00  0.00     0.031 A 
ATOM     73  C   UNL A   1      38.708  30.090  32.225  1.00  0.00     0.131 A 
ATOM     74  C   UNL A   1      36.636  31.487  31.050  1.00  0.00     0.055 A 
ATOM     75  C   UNL A   1      37.613  30.481  32.999  1.00  0.00     0.041 A 
ATOM     76  F   UNL A   1      39.700  29.427  32.839  1.00  0.00    -0.206 F 
ATOM     77  C   UNL A   1      36.574  31.194  32.413  1.00  0.00     0.022 A 
BRANCH  74  78
ATOM     78  S   UNL A   1      35.354  32.521  30.287  1.00  0.00     0.124 S 
ATOM     79  O   UNL A   1      34.405  32.675  31.383  1.00  0.00    -0.237 OA
ATOM     80  O   UNL A   1      36.107  33.714  29.916  1.00  0.00    -0.237 OA
ATOM     81  O   UNL A   1      34.887  31.709  29.165  1.00  0.00    -0.744 OA
ENDBRANCH  74  78
ENDBRANCH  47  71
BRANCH  59  82
ATOM     82  C   UNL A   1      44.957  33.272  29.386  1.00  0.00     0.023 A 
ATOM     83  C   UNL A   1      44.889  34.332  28.465  1.00  0.00     0.031 A 
ATOM     84  C   UNL A   1      45.592  33.510  30.619  1.00  0.00     0.131 A 
ATOM     85  C   UNL A   1      45.497  35.560  28.765  1.00  0.00     0.055 A 
ATOM     86  C   UNL A   1      46.131  34.756  30.942  1.00  0.00     0.041 A 
ATOM     87  F   UNL A   1      45.692  32.535  31.535  1.00  0.00    -0.206 F 
ATOM     88  C   UNL A   1      46.098  35.786  30.006  1.00  0.00     0.022 A 
BRANCH  85  89
ATOM     89  S   UNL A   1      45.588  36.826  27.469  1.00  0.00     0.124 S 
ATOM     90  O   UNL A   1      46.547  37.769  28.036  1.00  0.00    -0.237 OA
ATOM     91  O   UNL A   1      46.051  36.060  26.316  1.00  0.00    -0.237 OA
ATOM     92  O   UNL A   1      44.215  37.319  27.376  1.00  0.00    -0.744 OA
ENDBRANCH  85  89
ENDBRANCH  59  82
ENDBRANCH  33  34
ENDBRANCH  25  28
ENDBRANCH  23  24
ENDBRANCH  22  23
ENDBRANCH   1  22
TORSDOF 19
ENDMDL
MODEL 3
REMARK VINA RESULT:     -11.0      5.078     10.047
REMARK SMILES C=CCOC(=O)N[C@@H](Cc1ccccc1)C(=O)NCCCNC(=O)c1ccc(-c2c3nc(c(-c4cc(S(=O)(=O)[O-])ccc4F)c4ccc([nH]4)c(-c4cc(S(=O)(=O)[O-])ccc4F)c4nc(c(-c5cc(S(=O)(=O)[O-])ccc5F)c5ccc2[nH]5)C=C4)C=C3)cc1
REMARK SMILES IDX 19 1 18 2 16 3 17 4 8 6 7 7 5 8 6 9 4 11 3 12 2 13 1 14 9 15
REMARK SMILES IDX 10 16 11 17 15 18 12 19 14 20 13 21 20 22 21 23 22 24 23 25
REMARK SMILES IDX 24 27 25 28 26 29 87 30 27 31 86 32 28 33 29 34 30 35 80 36
REMARK SMILES IDX 31 37 85 38 79 39 81 40 32 41 84 42 78 43 77 44 33 46 65 47
REMARK SMILES IDX 45 48 64 49 46 50 49 51 63 52 82 53 47 54 48 55 62 57 83 58
REMARK SMILES IDX 50 59 34 60 35 61 43 62 36 63 42 64 44 65 41 66 37 67 38 68
REMARK SMILES IDX 39 69 40 70 66 71 67 72 75 73 68 74 74 75 76 76 73 77 69 78
REMARK SMILES IDX 70 79 71 80 72 81 51 82 52 83 60 84 53 85 59 86 61 87 58 88
REMARK SMILES IDX 54 89 55 90 56 91 57 92
REMARK H PARENT 18 5 7 10 22 26 81 45 49 56
REMARK Flexibility Score: inf
ROOT
ATOM      1  C   UNL A   1      33.536  28.640  25.315  1.00  0.00     0.117 C 
ENDROOT
BRANCH   1   2
ATOM      2  N   UNL A   1      34.035  28.236  24.021  1.00  0.00    -0.354 N 
ATOM      3  C   UNL A   1      33.607  27.190  23.252  1.00  0.00     0.243 C 
ATOM      4  O   UNL A   1      33.765  27.295  22.029  1.00  0.00    -0.273 OA
ATOM      5  H   UNL A   1      34.771  28.776  23.651  1.00  0.00     0.163 HD
BRANCH   3   6
ATOM      6  C   UNL A   1      32.839  25.980  23.838  1.00  0.00     0.179 C 
BRANCH   6   7
ATOM      7  N   UNL A   1      31.382  26.109  23.779  1.00  0.00    -0.309 N 
ATOM      8  C   UNL A   1      30.481  25.820  24.755  1.00  0.00     0.408 C 
ATOM      9  O   UNL A   1      29.279  25.908  24.531  1.00  0.00    -0.225 OA
ATOM     10  H   UNL A   1      31.010  26.444  22.932  1.00  0.00     0.167 HD
BRANCH   8  11
ATOM     11  O   UNL A   1      31.041  25.395  25.911  1.00  0.00    -0.445 OA
BRANCH  11  12
ATOM     12  C   UNL A   1      30.562  24.132  26.387  1.00  0.00     0.262 C 
BRANCH  12  13
ATOM     13  C   UNL A   1      31.635  23.089  26.322  1.00  0.00     0.006 C 
ATOM     14  C   UNL A   1      32.585  22.940  27.255  1.00  0.00     0.007 C 
ENDBRANCH  12  13
ENDBRANCH  11  12
ENDBRANCH   8  11
ENDBRANCH   6   7
BRANCH   6  15
ATOM     15  C   UNL A   1      33.349  24.599  23.350  1.00  0.00     0.070 C 
BRANCH  15  16
ATOM     16  C   UNL A   1      34.672  24.100  23.890  1.00  0.00    -0.045 A 
ATOM     17  C   UNL A   1      35.098  24.433  25.187  1.00  0.00     0.004 A 
ATOM     18  C   UNL A   1      35.463  23.227  23.125  1.00  0.00     0.004 A 
ATOM     19  C   UNL A   1      36.229  23.825  25.740  1.00  0.00     0.000 A 
ATOM     20  C   UNL A   1      36.605  22.636  23.675  1.00  0.00     0.000 A 
ATOM     21  C   UNL A   1      36.971  22.914  24.991  1.00  0.00     0.000 A 
ENDBRANCH  15  16
ENDBRANCH   6  15
ENDBRANCH   3   6
ENDBRANCH   1   2
BRANCH   1  22
ATOM     22  C   UNL A   1      32.526  29.760  25.305  1.00  0.00     0.042 C 
BRANCH  22  23
ATOM     23  C   UNL A   1      32.114  30.193  26.698  1.00  0.00     0.118 C 
BRANCH  23  24
ATOM     24  N   UNL A   1      32.055  31.647  26.859  1.00  0.00    -0.352 N 
ATOM     25  C   UNL A   1      32.935  32.521  27.454  1.00  0.00     0.251 C 
ATOM     26  H   UNL A   1      31.252  32.071  26.479  1.00  0.00     0.163 HD
ATOM     27  O   UNL A   1      32.606  33.692  27.626  1.00  0.00    -0.269 OA
BRANCH  25  28
ATOM     28  C   UNL A   1      34.251  32.036  27.919  1.00  0.00     0.039 A 
ATOM     29  C   UNL A   1      35.317  32.932  28.022  1.00  0.00     0.014 A 
ATOM     30  C   UNL A   1      34.417  30.707  28.305  1.00  0.00     0.014 A 
ATOM     31  C   UNL A   1      36.511  32.513  28.613  1.00  0.00     0.010 A 
ATOM     32  C   UNL A   1      35.544  30.336  29.022  1.00  0.00     0.010 A 
ATOM     33  C   UNL A   1      36.612  31.230  29.175  1.00  0.00    -0.014 A 
BRANCH  33  34
ATOM     34  C   UNL A   1      37.823  30.790  29.914  1.00  0.00     0.031 A 
ATOM     35  C   UNL A   1      38.769  29.804  29.279  1.00  0.00     0.074 A 
ATOM     36  C   UNL A   1      38.022  31.206  31.180  1.00  0.00     0.049 A 
ATOM     37  N   UNL A   1      39.824  29.224  29.789  1.00  0.00    -0.248 NA
ATOM     38  C   UNL A   1      38.459  29.382  27.904  1.00  0.00     0.031 C 
ATOM     39  C   UNL A   1      37.135  32.105  31.925  1.00  0.00     0.029 A 
ATOM     40  N   UNL A   1      39.024  30.920  32.073  1.00  0.00    -0.354 N 
ATOM     41  C   UNL A   1      40.284  28.350  28.808  1.00  0.00     0.074 A 
ATOM     42  C   UNL A   1      39.346  28.420  27.710  1.00  0.00     0.031 C 
ATOM     43  C   UNL A   1      37.650  32.322  33.145  1.00  0.00     0.029 A 
ATOM     44  C   UNL A   1      38.870  31.535  33.294  1.00  0.00     0.049 A 
ATOM     45  H   UNL A   1      39.784  30.332  31.860  1.00  0.00     0.167 HD
ATOM     46  C   UNL A   1      41.401  27.583  28.812  1.00  0.00     0.034 A 
ATOM     47  C   UNL A   1      39.615  31.459  34.416  1.00  0.00     0.034 A 
ATOM     48  C   UNL A   1      42.332  27.545  29.912  1.00  0.00     0.049 A 
ATOM     49  C   UNL A   1      40.853  30.599  34.403  1.00  0.00     0.074 A 
ATOM     50  C   UNL A   1      43.538  26.873  29.998  1.00  0.00     0.029 A 
ATOM     51  N   UNL A   1      42.154  28.196  31.128  1.00  0.00    -0.354 N 
ATOM     52  N   UNL A   1      41.319  29.840  33.438  1.00  0.00    -0.248 NA
ATOM     53  C   UNL A   1      41.668  30.593  35.622  1.00  0.00     0.031 C 
ATOM     54  C   UNL A   1      44.042  27.044  31.291  1.00  0.00     0.029 A 
ATOM     55  C   UNL A   1      43.204  27.903  31.984  1.00  0.00     0.049 A 
ATOM     56  H   UNL A   1      41.392  28.780  31.348  1.00  0.00     0.167 HD
ATOM     57  C   UNL A   1      42.500  29.287  33.927  1.00  0.00     0.074 A 
ATOM     58  C   UNL A   1      42.678  29.816  35.264  1.00  0.00     0.031 C 
ATOM     59  C   UNL A   1      43.359  28.425  33.324  1.00  0.00     0.034 A 
BRANCH  46  60
ATOM     60  C   UNL A   1      41.649  26.706  27.604  1.00  0.00     0.023 A 
ATOM     61  C   UNL A   1      41.282  25.348  27.582  1.00  0.00     0.031 A 
ATOM     62  C   UNL A   1      42.306  27.224  26.473  1.00  0.00     0.131 A 
ATOM     63  C   UNL A   1      41.662  24.536  26.503  1.00  0.00     0.055 A 
ATOM     64  C   UNL A   1      42.591  26.432  25.359  1.00  0.00     0.041 A 
ATOM     65  F   UNL A   1      42.703  28.505  26.440  1.00  0.00    -0.206 F 
ATOM     66  C   UNL A   1      42.288  25.074  25.378  1.00  0.00     0.022 A 
BRANCH  63  67
ATOM     67  S   UNL A   1      41.488  22.738  26.673  1.00  0.00     0.124 S 
ATOM     68  O   UNL A   1      40.036  22.587  26.747  1.00  0.00    -0.237 OA
ATOM     69  O   UNL A   1      42.119  22.243  25.455  1.00  0.00    -0.237 OA
ATOM     70  O   UNL A   1      42.201  22.440  27.913  1.00  0.00    -0.744 OA
ENDBRANCH  63  67
ENDBRANCH  46  60
BRANCH  47  71
ATOM     71  C   UNL A   1      39.201  32.200  35.644  1.00  0.00     0.023 A 
ATOM     72  C   UNL A   1      38.479  31.571  36.669  1.00  0.00     0.031 A 
ATOM     73  C   UNL A   1      39.511  33.564  35.798  1.00  0.00     0.131 A 
ATOM     74  C   UNL A   1      38.058  32.313  37.785  1.00  0.00     0.055 A 
ATOM     75  C   UNL A   1      39.139  34.283  36.936  1.00  0.00     0.041 A 
ATOM     76  F   UNL A   1      40.203  34.215  34.849  1.00  0.00    -0.206 F 
ATOM     77  C   UNL A   1      38.397  33.659  37.933  1.00  0.00     0.022 A 
BRANCH  74  78
ATOM     78  S   UNL A   1      36.989  31.510  39.012  1.00  0.00     0.124 S 
ATOM     79  O   UNL A   1      37.782  31.640  40.229  1.00  0.00    -0.237 OA
ATOM     80  O   UNL A   1      35.781  32.325  38.942  1.00  0.00    -0.237 OA
ATOM     81  O   UNL A   1      36.849  30.148  38.500  1.00  0.00    -0.744 OA
ENDBRANCH  74  78
ENDBRANCH  47  71
BRANCH  59  82
ATOM     82  C   UNL A   1      44.596  28.034  34.098  1.00  0.00     0.023 A 
ATOM     83  C   UNL A   1      45.787  28.776  34.022  1.00  0.00     0.031 A 
ATOM     84  C   UNL A   1      44.581  26.893  34.921  1.00  0.00     0.131 A 
ATOM     85  C   UNL A   1      46.930  28.337  34.708  1.00  0.00     0.055 A 
ATOM     86  C   UNL A   1      45.699  26.502  35.659  1.00  0.00     0.041 A 
ATOM     87  F   UNL A   1      43.475  26.141  35.029  1.00  0.00    -0.206 F 
ATOM     88  C   UNL A   1      46.887  27.219  35.543  1.00  0.00     0.022 A 
BRANCH  85  89
ATOM     89  S   UNL A   1      48.504  29.187  34.408  1.00  0.00     0.124 S 
ATOM     90  O   UNL A   1      48.205  30.542  34.858  1.00  0.00    -0.237 OA
ATOM     91  O   UNL A   1      49.432  28.428  35.239  1.00  0.00    -0.237 OA
ATOM     92  O   UNL A   1      48.701  29.042  32.967  1.00  0.00    -0.744 OA
ENDBRANCH  85  89
ENDBRANCH  59  82
ENDBRANCH  33  34
ENDBRANCH  25  28
ENDBRANCH  23  24
ENDBRANCH  22  23
ENDBRANCH   1  22
TORSDOF 19
ENDMDL
