MODEL 1
REMARK VINA RESULT:     -11.0      0.000      0.000
REMARK SMILES O=C(COc1ccccc1Br)Nc1cccc(C(=O)Nc2ccc(C(=O)NCCCNC(=O)c3ccc(-c4c5nc(c(-c6cc(S(=O)(=O)[O-])ccc6F)c6ccc([nH]6)c(-c6cc(S(=O)(=O)[O-])ccc6F)c6nc(c(-c7cc(S(=O)(=O)[O-])ccc7F)c7ccc4[nH]7)C=C6)C=C5)cc3)cc2)c1
REMARK SMILES IDX 25 1 26 2 27 3 24 5 21 6 22 7 98 8 23 9 97 10 20 11 18 12
REMARK SMILES IDX 19 13 17 15 13 16 14 17 99 18 15 19 16 20 12 21 1 22 2 23
REMARK SMILES IDX 3 25 4 26 5 27 6 28 10 29 7 30 9 31 11 32 8 33 28 34 29 35
REMARK SMILES IDX 30 36 31 37 32 38 33 40 34 41 35 42 96 43 36 44 95 45 37 46
REMARK SMILES IDX 38 47 39 48 89 49 40 50 94 51 88 52 90 53 41 54 93 55 87 56
REMARK SMILES IDX 86 57 42 59 74 60 54 61 73 62 55 63 58 64 72 65 91 66 56 67
REMARK SMILES IDX 57 68 71 70 92 71 59 72 43 73 44 74 52 75 45 76 51 77 53 78
REMARK SMILES IDX 50 79 46 80 47 81 48 82 49 83 75 84 76 85 84 86 77 87 83 88
REMARK SMILES IDX 85 89 82 90 78 91 79 92 80 93 81 94 60 95 61 96 69 97 62 98
REMARK SMILES IDX 68 99 70 100 67 101 63 102 64 103 65 104 66 105
REMARK H PARENT 27 4 20 14 12 24 31 39 90 58 58 69
REMARK Flexibility Score: inf
ROOT
ATOM      1  C   UNL A   1      36.829  22.846  24.570  1.00  0.00     0.251 C 
ATOM      2  O   UNL A   1      37.027  22.300  23.483  1.00  0.00    -0.269 OA
ATOM      3  N   UNL A   1      37.923  23.327  25.247  1.00  0.00    -0.352 N 
ATOM      4  H   UNL A   1      38.782  23.127  24.809  1.00  0.00     0.163 HD
ENDROOT
BRANCH   1   5
ATOM      5  C   UNL A   1      35.431  23.024  25.049  1.00  0.00     0.039 A 
ATOM      6  C   UNL A   1      32.843  23.818  25.772  1.00  0.00     0.041 A 
ATOM      7  C   UNL A   1      33.149  23.605  24.429  1.00  0.00     0.027 A 
ATOM      8  C   UNL A   1      33.765  23.455  26.756  1.00  0.00     0.027 A 
ATOM      9  C   UNL A   1      34.450  23.242  24.069  1.00  0.00     0.016 A 
ATOM     10  C   UNL A   1      35.049  23.029  26.393  1.00  0.00     0.016 A 
BRANCH   6  11
ATOM     11  N   UNL A   1      31.642  24.482  26.065  1.00  0.00    -0.322 N 
ATOM     12  C   UNL A   1      31.384  25.835  26.198  1.00  0.00     0.255 C 
ATOM     13  O   UNL A   1      30.290  26.188  26.648  1.00  0.00    -0.269 OA
ATOM     14  H   UNL A   1      30.863  23.894  26.197  1.00  0.00     0.170 HD
BRANCH  12  15
ATOM     15  C   UNL A   1      32.325  26.888  25.706  1.00  0.00     0.042 A 
ATOM     16  C   UNL A   1      34.061  28.553  26.089  1.00  0.00     0.042 A 
ATOM     17  C   UNL A   1      34.047  28.873  24.731  1.00  0.00     0.026 A 
ATOM     18  C   UNL A   1      33.250  27.518  26.546  1.00  0.00     0.040 A 
ATOM     19  C   UNL A   1      33.226  28.165  23.850  1.00  0.00     0.003 A 
ATOM     20  C   UNL A   1      32.357  27.186  24.339  1.00  0.00     0.014 A 
BRANCH  16  21
ATOM     21  N   UNL A   1      34.958  29.247  26.920  1.00  0.00    -0.323 N 
ATOM     22  O   UNL A   1      33.876  31.287  27.315  1.00  0.00    -0.271 OA
ATOM     23  C   UNL A   1      34.758  30.468  27.551  1.00  0.00     0.262 C 
ATOM     24  H   UNL A   1      35.831  28.817  27.073  1.00  0.00     0.170 HD
BRANCH  23  25
ATOM     25  C   UNL A   1      35.780  30.726  28.652  1.00  0.00     0.329 C 
BRANCH  25  26
ATOM     26  O   UNL A   1      36.702  29.635  28.696  1.00  0.00    -0.483 OA
BRANCH  26  27
ATOM     27  C   UNL A   1      37.049  29.284  29.969  1.00  0.00     0.134 A 
ATOM     28  C   UNL A   1      36.419  30.012  30.981  1.00  0.00     0.047 A 
ATOM     29  C   UNL A   1      38.069  28.378  30.294  1.00  0.00     0.060 A 
ATOM     30  C   UNL A   1      36.805  29.842  32.309  1.00  0.00     0.004 A 
ATOM     31  C   UNL A   1      38.450  28.215  31.627  1.00  0.00     0.019 A 
ATOM     32  Br  UNL A   1      39.042  27.349  29.039  1.00  0.00    -0.047 Br
ATOM     33  C   UNL A   1      37.826  28.951  32.631  1.00  0.00     0.001 A 
ENDBRANCH  26  27
ENDBRANCH  25  26
ENDBRANCH  23  25
ENDBRANCH  16  21
ENDBRANCH  12  15
ENDBRANCH   6  11
ENDBRANCH   1   5
BRANCH   3  34
ATOM     34  C   UNL A   1      38.051  24.073  26.484  1.00  0.00     0.118 C 
BRANCH  34  35
ATOM     35  C   UNL A   1      39.503  24.155  26.934  1.00  0.00     0.042 C 
BRANCH  35  36
ATOM     36  C   UNL A   1      40.227  25.370  26.368  1.00  0.00     0.118 C 
BRANCH  36  37
ATOM     37  N   UNL A   1      41.485  25.012  25.722  1.00  0.00    -0.352 N 
ATOM     38  C   UNL A   1      42.635  25.747  25.558  1.00  0.00     0.251 C 
ATOM     39  H   UNL A   1      41.516  24.104  25.345  1.00  0.00     0.163 HD
ATOM     40  O   UNL A   1      43.493  25.346  24.780  1.00  0.00    -0.269 OA
BRANCH  38  41
ATOM     41  C   UNL A   1      42.823  27.013  26.302  1.00  0.00     0.039 A 
ATOM     42  C   UNL A   1      42.139  28.157  25.883  1.00  0.00     0.014 A 
ATOM     43  C   UNL A   1      43.693  27.080  27.393  1.00  0.00     0.014 A 
ATOM     44  C   UNL A   1      42.294  29.352  26.590  1.00  0.00     0.010 A 
ATOM     45  C   UNL A   1      43.762  28.239  28.156  1.00  0.00     0.010 A 
ATOM     46  C   UNL A   1      43.085  29.397  27.749  1.00  0.00    -0.014 A 
BRANCH  46  47
ATOM     47  C   UNL A   1      43.257  30.654  28.521  1.00  0.00     0.031 A 
ATOM     48  C   UNL A   1      44.332  31.633  28.126  1.00  0.00     0.074 A 
ATOM     49  C   UNL A   1      42.487  30.887  29.602  1.00  0.00     0.049 A 
ATOM     50  N   UNL A   1      44.682  32.757  28.696  1.00  0.00    -0.248 NA
ATOM     51  C   UNL A   1      45.148  31.281  26.952  1.00  0.00     0.031 C 
ATOM     52  C   UNL A   1      41.444  29.989  30.106  1.00  0.00     0.029 A 
ATOM     53  N   UNL A   1      42.458  31.946  30.472  1.00  0.00    -0.354 N 
ATOM     54  C   UNL A   1      45.769  33.230  27.967  1.00  0.00     0.074 A 
ATOM     55  C   UNL A   1      46.064  32.235  26.961  1.00  0.00     0.031 C 
ATOM     56  C   UNL A   1      40.851  30.557  31.168  1.00  0.00     0.029 A 
ATOM     57  C   UNL A   1      41.500  31.833  31.453  1.00  0.00     0.049 A 
ATOM     58  H   UNL A   1      43.066  32.718  30.401  1.00  0.00     0.167 HD
ATOM     59  C   UNL A   1      46.439  34.401  28.107  1.00  0.00     0.034 A 
ATOM     60  C   UNL A   1      41.184  32.662  32.467  1.00  0.00     0.034 A 
ATOM     61  C   UNL A   1      46.114  35.389  29.106  1.00  0.00     0.049 A 
ATOM     62  C   UNL A   1      41.952  33.954  32.609  1.00  0.00     0.074 A 
ATOM     63  C   UNL A   1      46.680  36.636  29.302  1.00  0.00     0.029 A 
ATOM     64  N   UNL A   1      45.136  35.239  30.082  1.00  0.00    -0.354 N 
ATOM     65  N   UNL A   1      42.938  34.416  31.874  1.00  0.00    -0.248 NA
ATOM     66  C   UNL A   1      41.552  34.839  33.708  1.00  0.00     0.031 C 
ATOM     67  C   UNL A   1      46.101  37.205  30.442  1.00  0.00     0.029 A 
ATOM     68  C   UNL A   1      45.108  36.356  30.904  1.00  0.00     0.049 A 
ATOM     69  H   UNL A   1      44.549  34.454  30.177  1.00  0.00     0.167 HD
ATOM     70  C   UNL A   1      43.246  35.669  32.399  1.00  0.00     0.074 A 
ATOM     71  C   UNL A   1      42.331  35.890  33.501  1.00  0.00     0.031 C 
ATOM     72  C   UNL A   1      44.193  36.559  32.003  1.00  0.00     0.034 A 
BRANCH  59  73
ATOM     73  C   UNL A   1      47.607  34.651  27.178  1.00  0.00     0.023 A 
ATOM     74  C   UNL A   1      48.928  34.326  27.538  1.00  0.00     0.031 A 
ATOM     75  C   UNL A   1      47.401  35.256  25.925  1.00  0.00     0.131 A 
ATOM     76  C   UNL A   1      49.994  34.687  26.701  1.00  0.00     0.055 A 
ATOM     77  C   UNL A   1      48.459  35.528  25.054  1.00  0.00     0.041 A 
ATOM     78  F   UNL A   1      46.169  35.612  25.531  1.00  0.00    -0.206 F 
ATOM     79  C   UNL A   1      49.767  35.260  25.447  1.00  0.00     0.022 A 
BRANCH  76  80
ATOM     80  S   UNL A   1      51.685  34.548  27.343  1.00  0.00     0.124 S 
ATOM     81  O   UNL A   1      51.456  33.916  28.640  1.00  0.00    -0.237 OA
ATOM     82  O   UNL A   1      52.338  33.723  26.336  1.00  0.00    -0.237 OA
ATOM     83  O   UNL A   1      52.142  35.936  27.408  1.00  0.00    -0.744 OA
ENDBRANCH  76  80
ENDBRANCH  59  73
BRANCH  60  84
ATOM     84  C   UNL A   1      40.088  32.317  33.417  1.00  0.00     0.023 A 
ATOM     85  C   UNL A   1      38.833  32.941  33.328  1.00  0.00     0.031 A 
ATOM     86  C   UNL A   1      40.289  31.394  34.459  1.00  0.00     0.131 A 
ATOM     87  C   UNL A   1      37.848  32.677  34.292  1.00  0.00     0.055 A 
ATOM     88  C   UNL A   1      39.286  31.091  35.381  1.00  0.00     0.041 A 
ATOM     89  F   UNL A   1      41.468  30.763  34.590  1.00  0.00    -0.206 F 
ATOM     90  C   UNL A   1      38.061  31.746  35.309  1.00  0.00     0.022 A 
BRANCH  87  91
ATOM     91  S   UNL A   1      36.314  33.645  34.250  1.00  0.00     0.124 S 
ATOM     92  O   UNL A   1      35.936  33.662  35.658  1.00  0.00    -0.237 OA
ATOM     93  O   UNL A   1      36.771  34.913  33.692  1.00  0.00    -0.237 OA
ATOM     94  O   UNL A   1      35.441  32.861  33.378  1.00  0.00    -0.744 OA
ENDBRANCH  87  91
ENDBRANCH  60  84
BRANCH  72  95
ATOM     95  C   UNL A   1      44.240  37.880  32.734  1.00  0.00     0.023 A 
ATOM     96  C   UNL A   1      43.442  38.972  32.349  1.00  0.00     0.031 A 
ATOM     97  C   UNL A   1      45.115  38.053  33.821  1.00  0.00     0.131 A 
ATOM     98  C   UNL A   1      43.590  40.207  32.998  1.00  0.00     0.055 A 
ATOM     99  C   UNL A   1      45.203  39.262  34.512  1.00  0.00     0.041 A 
ATOM    100  F   UNL A   1      45.902  37.046  34.232  1.00  0.00    -0.206 F 
ATOM    101  C   UNL A   1      44.449  40.353  34.090  1.00  0.00     0.022 A 
BRANCH  98 102
ATOM    102  S   UNL A   1      42.732  41.654  32.319  1.00  0.00     0.124 S 
ATOM    103  O   UNL A   1      42.309  42.351  33.530  1.00  0.00    -0.237 OA
ATOM    104  O   UNL A   1      43.784  42.304  31.544  1.00  0.00    -0.237 OA
ATOM    105  O   UNL A   1      41.650  41.071  31.529  1.00  0.00    -0.744 OA
ENDBRANCH  98 102
ENDBRANCH  72  95
ENDBRANCH  46  47
ENDBRANCH  38  41
ENDBRANCH  36  37
ENDBRANCH  35  36
ENDBRANCH  34  35
ENDBRANCH   3  34
TORSDOF 19
ENDMDL
MODEL 2
REMARK VINA RESULT:     -10.8      4.024      9.126
REMARK SMILES O=C(COc1ccccc1Br)Nc1cccc(C(=O)Nc2ccc(C(=O)NCCCNC(=O)c3ccc(-c4c5nc(c(-c6cc(S(=O)(=O)[O-])ccc6F)c6ccc([nH]6)c(-c6cc(S(=O)(=O)[O-])ccc6F)c6nc(c(-c7cc(S(=O)(=O)[O-])ccc7F)c7ccc4[nH]7)C=C6)C=C5)cc3)cc2)c1
REMARK SMILES IDX 25 1 26 2 27 3 24 5 21 6 22 7 98 8 23 9 97 10 20 11 18 12
REMARK SMILES IDX 19 13 17 15 13 16 14 17 99 18 15 19 16 20 12 21 1 22 2 23
REMARK SMILES IDX 3 25 4 26 5 27 6 28 10 29 7 30 9 31 11 32 8 33 28 34 29 35
REMARK SMILES IDX 30 36 31 37 32 38 33 40 34 41 35 42 96 43 36 44 95 45 37 46
REMARK SMILES IDX 38 47 39 48 89 49 40 50 94 51 88 52 90 53 41 54 93 55 87 56
REMARK SMILES IDX 86 57 42 59 74 60 54 61 73 62 55 63 58 64 72 65 91 66 56 67
REMARK SMILES IDX 57 68 71 70 92 71 59 72 43 73 44 74 52 75 45 76 51 77 53 78
REMARK SMILES IDX 50 79 46 80 47 81 48 82 49 83 75 84 76 85 84 86 77 87 83 88
REMARK SMILES IDX 85 89 82 90 78 91 79 92 80 93 81 94 60 95 61 96 69 97 62 98
REMARK SMILES IDX 68 99 70 100 67 101 63 102 64 103 65 104 66 105
REMARK H PARENT 27 4 20 14 12 24 31 39 90 58 58 69
REMARK Flexibility Score: inf
ROOT
ATOM      1  C   UNL A   1      36.193  22.469  23.854  1.00  0.00     0.251 C 
ATOM      2  O   UNL A   1      36.187  23.353  22.996  1.00  0.00    -0.269 OA
ATOM      3  N   UNL A   1      37.399  21.887  24.158  1.00  0.00    -0.352 N 
ATOM      4  H   UNL A   1      38.146  22.204  23.601  1.00  0.00     0.163 HD
ENDROOT
BRANCH   1   5
ATOM      5  C   UNL A   1      34.927  22.136  24.563  1.00  0.00     0.039 A 
ATOM      6  C   UNL A   1      32.434  21.989  25.835  1.00  0.00     0.041 A 
ATOM      7  C   UNL A   1      32.494  22.154  24.453  1.00  0.00     0.027 A 
ATOM      8  C   UNL A   1      33.603  21.711  26.549  1.00  0.00     0.027 A 
ATOM      9  C   UNL A   1      33.739  22.260  23.826  1.00  0.00     0.016 A 
ATOM     10  C   UNL A   1      34.846  21.755  25.904  1.00  0.00     0.016 A 
BRANCH   6  11
ATOM     11  N   UNL A   1      31.198  22.206  26.461  1.00  0.00    -0.322 N 
ATOM     12  C   UNL A   1      30.529  23.389  26.723  1.00  0.00     0.255 C 
ATOM     13  O   UNL A   1      29.537  23.359  27.456  1.00  0.00    -0.269 OA
ATOM     14  H   UNL A   1      30.734  21.390  26.759  1.00  0.00     0.170 HD
BRANCH  12  15
ATOM     15  C   UNL A   1      30.884  24.681  26.057  1.00  0.00     0.042 A 
ATOM     16  C   UNL A   1      32.211  26.718  25.912  1.00  0.00     0.042 A 
ATOM     17  C   UNL A   1      31.486  27.104  24.784  1.00  0.00     0.026 A 
ATOM     18  C   UNL A   1      31.947  25.480  26.492  1.00  0.00     0.040 A 
ATOM     19  C   UNL A   1      30.508  26.260  24.254  1.00  0.00     0.003 A 
ATOM     20  C   UNL A   1      30.198  25.059  24.897  1.00  0.00     0.014 A 
BRANCH  16  21
ATOM     21  N   UNL A   1      33.233  27.572  26.364  1.00  0.00    -0.323 N 
ATOM     22  O   UNL A   1      33.472  29.114  24.617  1.00  0.00    -0.271 OA
ATOM     23  C   UNL A   1      33.691  28.738  25.764  1.00  0.00     0.262 C 
ATOM     24  H   UNL A   1      33.676  27.313  27.204  1.00  0.00     0.170 HD
BRANCH  23  25
ATOM     25  C   UNL A   1      34.531  29.586  26.710  1.00  0.00     0.329 C 
BRANCH  25  26
ATOM     26  O   UNL A   1      33.691  30.096  27.748  1.00  0.00    -0.483 OA
BRANCH  26  27
ATOM     27  C   UNL A   1      33.841  31.439  27.941  1.00  0.00     0.134 A 
ATOM     28  C   UNL A   1      34.920  31.808  28.748  1.00  0.00     0.047 A 
ATOM     29  C   UNL A   1      32.924  32.411  27.516  1.00  0.00     0.060 A 
ATOM     30  C   UNL A   1      35.084  33.138  29.133  1.00  0.00     0.004 A 
ATOM     31  C   UNL A   1      33.094  33.740  27.909  1.00  0.00     0.019 A 
ATOM     32  Br  UNL A   1      31.395  32.065  26.457  1.00  0.00    -0.047 Br
ATOM     33  C   UNL A   1      34.166  34.101  28.722  1.00  0.00     0.001 A 
ENDBRANCH  26  27
ENDBRANCH  25  26
ENDBRANCH  23  25
ENDBRANCH  16  21
ENDBRANCH  12  15
ENDBRANCH   6  11
ENDBRANCH   1   5
BRANCH   3  34
ATOM     34  C   UNL A   1      37.780  20.894  25.144  1.00  0.00     0.118 C 
BRANCH  34  35
ATOM     35  C   UNL A   1      39.261  20.990  25.485  1.00  0.00     0.042 C 
BRANCH  35  36
ATOM     36  C   UNL A   1      39.685  19.986  26.550  1.00  0.00     0.118 C 
BRANCH  36  37
ATOM     37  N   UNL A   1      40.851  19.209  26.144  1.00  0.00    -0.352 N 
ATOM     38  C   UNL A   1      42.125  19.621  25.835  1.00  0.00     0.251 C 
ATOM     39  H   UNL A   1      40.702  18.238  26.081  1.00  0.00     0.163 HD
ATOM     40  O   UNL A   1      42.890  18.835  25.290  1.00  0.00    -0.269 OA
BRANCH  38  41
ATOM     41  C   UNL A   1      42.558  21.002  26.147  1.00  0.00     0.039 A 
ATOM     42  C   UNL A   1      42.797  21.356  27.477  1.00  0.00     0.014 A 
ATOM     43  C   UNL A   1      42.702  21.954  25.135  1.00  0.00     0.014 A 
ATOM     44  C   UNL A   1      43.224  22.651  27.781  1.00  0.00     0.010 A 
ATOM     45  C   UNL A   1      43.229  23.206  25.428  1.00  0.00     0.010 A 
ATOM     46  C   UNL A   1      43.471  23.578  26.757  1.00  0.00    -0.014 A 
BRANCH  46  47
ATOM     47  C   UNL A   1      43.935  24.958  27.056  1.00  0.00     0.031 A 
ATOM     48  C   UNL A   1      42.978  25.954  27.658  1.00  0.00     0.074 A 
ATOM     49  C   UNL A   1      45.192  25.326  26.738  1.00  0.00     0.049 A 
ATOM     50  N   UNL A   1      43.166  27.217  27.945  1.00  0.00    -0.248 NA
ATOM     51  C   UNL A   1      41.615  25.475  27.942  1.00  0.00     0.031 C 
ATOM     52  C   UNL A   1      46.192  24.459  26.109  1.00  0.00     0.029 A 
ATOM     53  N   UNL A   1      45.845  26.520  26.899  1.00  0.00    -0.354 N 
ATOM     54  C   UNL A   1      41.943  27.684  28.418  1.00  0.00     0.074 A 
ATOM     55  C   UNL A   1      41.006  26.589  28.309  1.00  0.00     0.031 C 
ATOM     56  C   UNL A   1      47.342  25.139  25.980  1.00  0.00     0.029 A 
ATOM     57  C   UNL A   1      47.151  26.501  26.467  1.00  0.00     0.049 A 
ATOM     58  H   UNL A   1      45.418  27.319  27.287  1.00  0.00     0.167 HD
ATOM     59  C   UNL A   1      41.639  28.906  28.922  1.00  0.00     0.034 A 
ATOM     60  C   UNL A   1      48.085  27.472  26.463  1.00  0.00     0.034 A 
ATOM     61  C   UNL A   1      42.597  29.978  29.039  1.00  0.00     0.049 A 
ATOM     62  C   UNL A   1      47.720  28.827  27.018  1.00  0.00     0.074 A 
ATOM     63  C   UNL A   1      42.422  31.234  29.591  1.00  0.00     0.029 A 
ATOM     64  N   UNL A   1      43.912  29.921  28.591  1.00  0.00    -0.354 N 
ATOM     65  N   UNL A   1      46.576  29.237  27.519  1.00  0.00    -0.248 NA
ATOM     66  C   UNL A   1      48.778  29.843  27.022  1.00  0.00     0.031 C 
ATOM     67  C   UNL A   1      43.602  31.962  29.405  1.00  0.00     0.029 A 
ATOM     68  C   UNL A   1      44.547  31.132  28.823  1.00  0.00     0.049 A 
ATOM     69  H   UNL A   1      44.331  29.135  28.170  1.00  0.00     0.167 HD
ATOM     70  C   UNL A   1      46.793  30.548  27.936  1.00  0.00     0.074 A 
ATOM     71  C   UNL A   1      48.179  30.850  27.640  1.00  0.00     0.031 C 
ATOM     72  C   UNL A   1      45.929  31.420  28.517  1.00  0.00     0.034 A 
BRANCH  59  73
ATOM     73  C   UNL A   1      40.208  29.148  29.349  1.00  0.00     0.023 A 
ATOM     74  C   UNL A   1      39.822  29.128  30.702  1.00  0.00     0.031 A 
ATOM     75  C   UNL A   1      39.207  29.369  28.387  1.00  0.00     0.131 A 
ATOM     76  C   UNL A   1      38.467  29.234  31.048  1.00  0.00     0.055 A 
ATOM     77  C   UNL A   1      37.871  29.567  28.744  1.00  0.00     0.041 A 
ATOM     78  F   UNL A   1      39.505  29.377  27.078  1.00  0.00    -0.206 F 
ATOM     79  C   UNL A   1      37.491  29.482  30.080  1.00  0.00     0.022 A 
BRANCH  76  80
ATOM     80  S   UNL A   1      37.979  28.878  32.758  1.00  0.00     0.124 S 
ATOM     81  O   UNL A   1      38.103  27.423  32.803  1.00  0.00    -0.237 OA
ATOM     82  O   UNL A   1      38.963  29.627  33.530  1.00  0.00    -0.237 OA
ATOM     83  O   UNL A   1      36.608  29.381  32.836  1.00  0.00    -0.744 OA
ENDBRANCH  76  80
ENDBRANCH  59  73
BRANCH  60  84
ATOM     84  C   UNL A   1      49.455  27.207  25.934  1.00  0.00     0.023 A 
ATOM     85  C   UNL A   1      49.828  27.641  24.652  1.00  0.00     0.031 A 
ATOM     86  C   UNL A   1      50.396  26.477  26.682  1.00  0.00     0.131 A 
ATOM     87  C   UNL A   1      51.086  27.296  24.134  1.00  0.00     0.055 A 
ATOM     88  C   UNL A   1      51.668  26.187  26.185  1.00  0.00     0.041 A 
ATOM     89  F   UNL A   1      50.094  26.042  27.916  1.00  0.00    -0.206 F 
ATOM     90  C   UNL A   1      52.013  26.584  24.897  1.00  0.00     0.022 A 
BRANCH  87  91
ATOM     91  S   UNL A   1      51.456  27.710  22.407  1.00  0.00     0.124 S 
ATOM     92  O   UNL A   1      51.070  29.114  22.350  1.00  0.00    -0.237 OA
ATOM     93  O   UNL A   1      52.886  27.432  22.329  1.00  0.00    -0.237 OA
ATOM     94  O   UNL A   1      50.602  26.797  21.649  1.00  0.00    -0.744 OA
ENDBRANCH  87  91
ENDBRANCH  60  84
BRANCH  72  95
ATOM     95  C   UNL A   1      46.484  32.764  28.925  1.00  0.00     0.023 A 
ATOM     96  C   UNL A   1      46.463  33.873  28.061  1.00  0.00     0.031 A 
ATOM     97  C   UNL A   1      47.063  32.930  30.196  1.00  0.00     0.131 A 
ATOM     98  C   UNL A   1      47.076  35.073  28.450  1.00  0.00     0.055 A 
ATOM     99  C   UNL A   1      47.604  34.148  30.607  1.00  0.00     0.041 A 
ATOM    100  F   UNL A   1      47.114  31.906  31.063  1.00  0.00    -0.206 F 
ATOM    101  C   UNL A   1      47.627  35.225  29.725  1.00  0.00     0.022 A 
BRANCH  98 102
ATOM    102  S   UNL A   1      47.249  36.398  27.223  1.00  0.00     0.124 S 
ATOM    103  O   UNL A   1      48.694  36.606  27.206  1.00  0.00    -0.237 OA
ATOM    104  O   UNL A   1      46.679  35.790  26.025  1.00  0.00    -0.237 OA
ATOM    105  O   UNL A   1      46.471  37.496  27.792  1.00  0.00    -0.744 OA
ENDBRANCH  98 102
ENDBRANCH  72  95
ENDBRANCH  46  47
ENDBRANCH  38  41
ENDBRANCH  36  37
ENDBRANCH  35  36
ENDBRANCH  34  35
ENDBRANCH   3  34
TORSDOF 19
ENDMDL
MODEL 3
REMARK VINA RESULT:     -10.6      4.113      6.395
REMARK SMILES O=C(COc1ccccc1Br)Nc1cccc(C(=O)Nc2ccc(C(=O)NCCCNC(=O)c3ccc(-c4c5nc(c(-c6cc(S(=O)(=O)[O-])ccc6F)c6ccc([nH]6)c(-c6cc(S(=O)(=O)[O-])ccc6F)c6nc(c(-c7cc(S(=O)(=O)[O-])ccc7F)c7ccc4[nH]7)C=C6)C=C5)cc3)cc2)c1
REMARK SMILES IDX 25 1 26 2 27 3 24 5 21 6 22 7 98 8 23 9 97 10 20 11 18 12
REMARK SMILES IDX 19 13 17 15 13 16 14 17 99 18 15 19 16 20 12 21 1 22 2 23
REMARK SMILES IDX 3 25 4 26 5 27 6 28 10 29 7 30 9 31 11 32 8 33 28 34 29 35
REMARK SMILES IDX 30 36 31 37 32 38 33 40 34 41 35 42 96 43 36 44 95 45 37 46
REMARK SMILES IDX 38 47 39 48 89 49 40 50 94 51 88 52 90 53 41 54 93 55 87 56
REMARK SMILES IDX 86 57 42 59 74 60 54 61 73 62 55 63 58 64 72 65 91 66 56 67
REMARK SMILES IDX 57 68 71 70 92 71 59 72 43 73 44 74 52 75 45 76 51 77 53 78
REMARK SMILES IDX 50 79 46 80 47 81 48 82 49 83 75 84 76 85 84 86 77 87 83 88
REMARK SMILES IDX 85 89 82 90 78 91 79 92 80 93 81 94 60 95 61 96 69 97 62 98
REMARK SMILES IDX 68 99 70 100 67 101 63 102 64 103 65 104 66 105
REMARK H PARENT 27 4 20 14 12 24 31 39 90 58 58 69
REMARK Flexibility Score: inf
ROOT
ATOM      1  C   UNL A   1      38.854  23.214  26.226  1.00  0.00     0.251 C 
ATOM      2  O   UNL A   1      38.785  24.440  26.127  1.00  0.00    -0.269 OA
ATOM      3  N   UNL A   1      39.969  22.687  26.830  1.00  0.00    -0.352 N 
ATOM      4  H   UNL A   1      40.645  23.360  27.075  1.00  0.00     0.163 HD
ENDROOT
BRANCH   1   5
ATOM      5  C   UNL A   1      37.708  22.382  25.766  1.00  0.00     0.039 A 
ATOM      6  C   UNL A   1      35.554  20.637  25.359  1.00  0.00     0.041 A 
ATOM      7  C   UNL A   1      35.381  21.773  26.147  1.00  0.00     0.027 A 
ATOM      8  C   UNL A   1      36.734  20.476  24.629  1.00  0.00     0.027 A 
ATOM      9  C   UNL A   1      36.467  22.624  26.375  1.00  0.00     0.016 A 
ATOM     10  C   UNL A   1      37.799  21.367  24.811  1.00  0.00     0.016 A 
BRANCH   6  11
ATOM     11  N   UNL A   1      34.555  19.653  25.413  1.00  0.00    -0.322 N 
ATOM     12  C   UNL A   1      33.199  19.746  25.154  1.00  0.00     0.255 C 
ATOM     13  O   UNL A   1      32.473  18.794  25.449  1.00  0.00    -0.269 OA
ATOM     14  H   UNL A   1      34.869  18.757  25.677  1.00  0.00     0.170 HD
BRANCH  12  15
ATOM     15  C   UNL A   1      32.596  20.902  24.421  1.00  0.00     0.042 A 
ATOM     16  C   UNL A   1      31.652  23.147  24.371  1.00  0.00     0.042 A 
ATOM     17  C   UNL A   1      31.444  23.024  22.997  1.00  0.00     0.026 A 
ATOM     18  C   UNL A   1      32.288  22.112  25.052  1.00  0.00     0.040 A 
ATOM     19  C   UNL A   1      31.864  21.876  22.322  1.00  0.00     0.003 A 
ATOM     20  C   UNL A   1      32.425  20.812  23.034  1.00  0.00     0.014 A 
BRANCH  16  21
ATOM     21  N   UNL A   1      31.275  24.352  24.990  1.00  0.00    -0.323 N 
ATOM     22  O   UNL A   1      31.039  23.763  27.245  1.00  0.00    -0.271 OA
ATOM     23  C   UNL A   1      31.120  24.596  26.348  1.00  0.00     0.262 C 
ATOM     24  H   UNL A   1      31.100  25.113  24.390  1.00  0.00     0.170 HD
BRANCH  23  25
ATOM     25  C   UNL A   1      31.072  26.085  26.668  1.00  0.00     0.329 C 
BRANCH  25  26
ATOM     26  O   UNL A   1      32.280  26.697  26.215  1.00  0.00    -0.483 OA
BRANCH  26  27
ATOM     27  C   UNL A   1      32.174  28.053  26.085  1.00  0.00     0.134 A 
ATOM     28  C   UNL A   1      32.614  28.792  27.185  1.00  0.00     0.047 A 
ATOM     29  C   UNL A   1      31.536  28.702  25.019  1.00  0.00     0.060 A 
ATOM     30  C   UNL A   1      32.418  30.171  27.225  1.00  0.00     0.004 A 
ATOM     31  C   UNL A   1      31.341  30.083  25.068  1.00  0.00     0.019 A 
ATOM     32  Br  UNL A   1      30.850  27.838  23.482  1.00  0.00    -0.047 Br
ATOM     33  C   UNL A   1      31.773  30.815  26.172  1.00  0.00     0.001 A 
ENDBRANCH  26  27
ENDBRANCH  25  26
ENDBRANCH  23  25
ENDBRANCH  16  21
ENDBRANCH  12  15
ENDBRANCH   6  11
ENDBRANCH   1   5
BRANCH   3  34
ATOM     34  C   UNL A   1      40.340  21.328  27.176  1.00  0.00     0.118 C 
BRANCH  34  35
ATOM     35  C   UNL A   1      41.069  20.643  26.029  1.00  0.00     0.042 C 
BRANCH  35  36
ATOM     36  C   UNL A   1      42.018  19.550  26.504  1.00  0.00     0.118 C 
BRANCH  36  37
ATOM     37  N   UNL A   1      43.022  19.214  25.500  1.00  0.00    -0.352 N 
ATOM     38  C   UNL A   1      43.900  20.026  24.823  1.00  0.00     0.251 C 
ATOM     39  H   UNL A   1      43.079  18.259  25.273  1.00  0.00     0.163 HD
ATOM     40  O   UNL A   1      44.497  19.577  23.851  1.00  0.00    -0.269 OA
BRANCH  38  41
ATOM     41  C   UNL A   1      44.108  21.426  25.256  1.00  0.00     0.039 A 
ATOM     42  C   UNL A   1      43.796  22.464  24.376  1.00  0.00     0.014 A 
ATOM     43  C   UNL A   1      44.634  21.715  26.518  1.00  0.00     0.014 A 
ATOM     44  C   UNL A   1      43.970  23.790  24.781  1.00  0.00     0.010 A 
ATOM     45  C   UNL A   1      44.705  23.031  26.956  1.00  0.00     0.010 A 
ATOM     46  C   UNL A   1      44.399  24.085  26.085  1.00  0.00    -0.014 A 
BRANCH  46  47
ATOM     47  C   UNL A   1      44.583  25.487  26.541  1.00  0.00     0.031 A 
ATOM     48  C   UNL A   1      45.934  26.142  26.419  1.00  0.00     0.074 A 
ATOM     49  C   UNL A   1      43.554  26.147  27.109  1.00  0.00     0.049 A 
ATOM     50  N   UNL A   1      46.318  27.332  26.804  1.00  0.00    -0.248 NA
ATOM     51  C   UNL A   1      47.009  25.335  25.817  1.00  0.00     0.031 C 
ATOM     52  C   UNL A   1      42.212  25.598  27.321  1.00  0.00     0.029 A 
ATOM     53  N   UNL A   1      43.472  27.420  27.612  1.00  0.00    -0.354 N 
ATOM     54  C   UNL A   1      47.677  27.405  26.513  1.00  0.00     0.074 A 
ATOM     55  C   UNL A   1      48.063  26.115  25.988  1.00  0.00     0.031 C 
ATOM     56  C   UNL A   1      41.432  26.543  27.869  1.00  0.00     0.029 A 
ATOM     57  C   UNL A   1      42.226  27.747  28.094  1.00  0.00     0.049 A 
ATOM     58  H   UNL A   1      44.235  28.042  27.627  1.00  0.00     0.167 HD
ATOM     59  C   UNL A   1      48.517  28.462  26.645  1.00  0.00     0.034 A 
ATOM     60  C   UNL A   1      41.777  28.886  28.656  1.00  0.00     0.034 A 
ATOM     61  C   UNL A   1      48.105  29.747  27.153  1.00  0.00     0.049 A 
ATOM     62  C   UNL A   1      42.734  30.044  28.804  1.00  0.00     0.074 A 
ATOM     63  C   UNL A   1      48.849  30.906  27.273  1.00  0.00     0.029 A 
ATOM     64  N   UNL A   1      46.833  30.041  27.632  1.00  0.00    -0.354 N 
ATOM     65  N   UNL A   1      44.002  30.119  28.467  1.00  0.00    -0.248 NA
ATOM     66  C   UNL A   1      42.193  31.274  29.392  1.00  0.00     0.031 C 
ATOM     67  C   UNL A   1      48.054  31.875  27.895  1.00  0.00     0.029 A 
ATOM     68  C   UNL A   1      46.784  31.352  28.079  1.00  0.00     0.049 A 
ATOM     69  H   UNL A   1      46.077  29.409  27.651  1.00  0.00     0.167 HD
ATOM     70  C   UNL A   1      44.397  31.421  28.765  1.00  0.00     0.074 A 
ATOM     71  C   UNL A   1      43.228  32.095  29.294  1.00  0.00     0.031 C 
ATOM     72  C   UNL A   1      45.611  32.009  28.610  1.00  0.00     0.034 A 
BRANCH  59  73
ATOM     73  C   UNL A   1      49.966  28.252  26.265  1.00  0.00     0.023 A 
ATOM     74  C   UNL A   1      50.423  28.431  24.945  1.00  0.00     0.031 A 
ATOM     75  C   UNL A   1      50.901  27.833  27.228  1.00  0.00     0.131 A 
ATOM     76  C   UNL A   1      51.745  28.107  24.610  1.00  0.00     0.055 A 
ATOM     77  C   UNL A   1      52.241  27.602  26.906  1.00  0.00     0.041 A 
ATOM     78  F   UNL A   1      50.526  27.622  28.499  1.00  0.00    -0.206 F 
ATOM     79  C   UNL A   1      52.666  27.721  25.586  1.00  0.00     0.022 A 
BRANCH  76  80
ATOM     80  S   UNL A   1      52.201  28.038  22.855  1.00  0.00     0.124 S 
ATOM     81  O   UNL A   1      53.218  29.084  22.773  1.00  0.00    -0.237 OA
ATOM     82  O   UNL A   1      52.678  26.669  22.706  1.00  0.00    -0.237 OA
ATOM     83  O   UNL A   1      50.949  28.343  22.163  1.00  0.00    -0.744 OA
ENDBRANCH  76  80
ENDBRANCH  59  73
BRANCH  60  84
ATOM     84  C   UNL A   1      40.361  29.004  29.108  1.00  0.00     0.023 A 
ATOM     85  C   UNL A   1      40.025  28.879  30.465  1.00  0.00     0.031 A 
ATOM     86  C   UNL A   1      39.315  29.197  28.187  1.00  0.00     0.131 A 
ATOM     87  C   UNL A   1      38.678  28.893  30.859  1.00  0.00     0.055 A 
ATOM     88  C   UNL A   1      37.981  29.270  28.591  1.00  0.00     0.041 A 
ATOM     89  F   UNL A   1      39.579  29.329  26.877  1.00  0.00    -0.206 F 
ATOM     90  C   UNL A   1      37.655  29.102  29.932  1.00  0.00     0.022 A 
BRANCH  87  91
ATOM     91  S   UNL A   1      38.277  28.537  32.592  1.00  0.00     0.124 S 
ATOM     92  O   UNL A   1      39.442  29.075  33.283  1.00  0.00    -0.237 OA
ATOM     93  O   UNL A   1      37.028  29.271  32.770  1.00  0.00    -0.237 OA
ATOM     94  O   UNL A   1      38.151  27.081  32.619  1.00  0.00    -0.744 OA
ENDBRANCH  87  91
ENDBRANCH  60  84
BRANCH  72  95
ATOM     95  C   UNL A   1      45.713  33.474  28.962  1.00  0.00     0.023 A 
ATOM     96  C   UNL A   1      46.054  33.908  30.255  1.00  0.00     0.031 A 
ATOM     97  C   UNL A   1      45.442  34.452  27.988  1.00  0.00     0.131 A 
ATOM     98  C   UNL A   1      46.043  35.277  30.558  1.00  0.00     0.055 A 
ATOM     99  C   UNL A   1      45.507  35.816  28.276  1.00  0.00     0.041 A 
ATOM    100  F   UNL A   1      45.109  34.098  26.737  1.00  0.00    -0.206 F 
ATOM    101  C   UNL A   1      45.792  36.235  29.572  1.00  0.00     0.022 A 
BRANCH  98 102
ATOM    102  S   UNL A   1      46.242  35.787  32.287  1.00  0.00     0.124 S 
ATOM    103  O   UNL A   1      44.869  35.731  32.780  1.00  0.00    -0.237 OA
ATOM    104  O   UNL A   1      47.149  34.770  32.809  1.00  0.00    -0.237 OA
ATOM    105  O   UNL A   1      46.810  37.130  32.185  1.00  0.00    -0.744 OA
ENDBRANCH  98 102
ENDBRANCH  72  95
ENDBRANCH  46  47
ENDBRANCH  38  41
ENDBRANCH  36  37
ENDBRANCH  35  36
ENDBRANCH  34  35
ENDBRANCH   3  34
TORSDOF 19
ENDMDL
