MODEL 1
REMARK VINA RESULT:     -12.4      0.000      0.000
REMARK SMILES O=C(NCCCNC(=O)c1cc(-n2cccc2)ccc1O)c1ccc(-c2c3nc(c(-c4cc(S(=O)(=O)[O-])ccc4F)c4ccc([nH]4)c(-c4cc(S(=O)(=O)[O-])ccc4F)c4nc(c(-c5cc(S(=O)(=O)[O-])ccc5F)c5ccc2[nH]5)C=C4)C=C3)cc1
REMARK SMILES IDX 4 1 3 2 1 3 2 4 22 6 23 7 84 8 24 9 83 10 25 11 26 12 27 13
REMARK SMILES IDX 77 14 28 15 82 16 76 17 78 18 29 19 81 20 75 21 74 22 30 24
REMARK SMILES IDX 62 25 42 26 61 27 43 28 46 29 60 30 79 31 44 32 45 33 59 35
REMARK SMILES IDX 80 36 47 37 31 38 32 39 40 40 33 41 39 42 41 43 38 44 34 45
REMARK SMILES IDX 35 46 36 47 37 48 63 49 64 50 72 51 65 52 71 53 73 54 70 55
REMARK SMILES IDX 66 56 67 57 68 58 69 59 48 60 49 61 57 62 50 63 56 64 58 65
REMARK SMILES IDX 55 66 51 67 52 68 53 69 54 70 5 71 6 72 7 73 8 74 9 76 10 77
REMARK SMILES IDX 11 78 20 79 12 80 19 81 18 82 21 83 13 85 14 86 17 87 15 88
REMARK SMILES IDX 16 89
REMARK H PARENT 3 5 78 23 46 34 7 75 21 84
REMARK Flexibility Score: inf
ROOT
ATOM      1  C   UNL A   1      37.194  24.070  26.259  1.00  0.00     0.118 C 
ENDROOT
BRANCH   1   2
ATOM      2  N   UNL A   1      38.487  23.502  26.606  1.00  0.00    -0.352 N 
ATOM      3  O   UNL A   1      40.507  23.221  27.517  1.00  0.00    -0.269 OA
ATOM      4  C   UNL A   1      39.555  23.976  27.325  1.00  0.00     0.251 C 
ATOM      5  H   UNL A   1      38.624  22.593  26.254  1.00  0.00     0.163 HD
BRANCH   4   6
ATOM      6  C   UNL A   1      39.630  25.373  27.814  1.00  0.00     0.039 A 
ATOM      7  C   UNL A   1      39.397  25.724  29.144  1.00  0.00     0.014 A 
ATOM      8  C   UNL A   1      39.991  26.368  26.890  1.00  0.00     0.014 A 
ATOM      9  C   UNL A   1      39.428  27.060  29.530  1.00  0.00     0.010 A 
ATOM     10  C   UNL A   1      40.063  27.708  27.282  1.00  0.00     0.010 A 
ATOM     11  C   UNL A   1      39.778  28.053  28.607  1.00  0.00    -0.014 A 
BRANCH  11  12
ATOM     12  C   UNL A   1      40.071  29.400  29.157  1.00  0.00     0.031 A 
ATOM     13  C   UNL A   1      38.779  30.127  29.577  1.00  0.00     0.074 A 
ATOM     14  C   UNL A   1      41.364  29.846  29.125  1.00  0.00     0.049 A 
ATOM     15  N   UNL A   1      38.459  31.383  29.497  1.00  0.00    -0.248 NA
ATOM     16  C   UNL A   1      37.618  29.309  30.030  1.00  0.00     0.031 C 
ATOM     17  C   UNL A   1      42.526  29.042  28.686  1.00  0.00     0.029 A 
ATOM     18  N   UNL A   1      41.965  31.050  29.435  1.00  0.00    -0.354 N 
ATOM     19  C   UNL A   1      37.185  31.534  30.097  1.00  0.00     0.074 A 
ATOM     20  C   UNL A   1      36.660  30.211  30.249  1.00  0.00     0.031 C 
ATOM     21  C   UNL A   1      43.658  29.784  28.696  1.00  0.00     0.029 A 
ATOM     22  C   UNL A   1      43.357  31.130  29.149  1.00  0.00     0.049 A 
ATOM     23  H   UNL A   1      41.466  31.802  29.827  1.00  0.00     0.167 HD
ATOM     24  C   UNL A   1      36.707  32.723  30.574  1.00  0.00     0.034 A 
ATOM     25  C   UNL A   1      44.204  32.204  29.238  1.00  0.00     0.034 A 
ATOM     26  C   UNL A   1      37.667  33.753  30.358  1.00  0.00     0.049 A 
ATOM     27  C   UNL A   1      43.398  33.290  29.816  1.00  0.00     0.074 A 
ATOM     28  C   UNL A   1      38.090  34.452  29.263  1.00  0.00     0.029 A 
ATOM     29  N   UNL A   1      38.494  34.046  31.416  1.00  0.00    -0.354 N 
ATOM     30  N   UNL A   1      43.057  33.378  31.065  1.00  0.00    -0.248 NA
ATOM     31  C   UNL A   1      42.914  34.358  28.930  1.00  0.00     0.031 C 
ATOM     32  C   UNL A   1      39.411  34.828  29.587  1.00  0.00     0.029 A 
ATOM     33  C   UNL A   1      39.706  34.407  30.890  1.00  0.00     0.049 A 
ATOM     34  H   UNL A   1      38.260  34.006  32.372  1.00  0.00     0.167 HD
ATOM     35  C   UNL A   1      42.079  34.342  31.043  1.00  0.00     0.074 A 
ATOM     36  C   UNL A   1      42.279  35.103  29.831  1.00  0.00     0.031 C 
ATOM     37  C   UNL A   1      40.897  34.101  31.663  1.00  0.00     0.034 A 
BRANCH  24  38
ATOM     38  C   UNL A   1      35.541  33.088  31.469  1.00  0.00     0.023 A 
ATOM     39  C   UNL A   1      34.742  34.184  31.041  1.00  0.00     0.031 A 
ATOM     40  C   UNL A   1      35.347  32.672  32.792  1.00  0.00     0.131 A 
ATOM     41  C   UNL A   1      33.923  34.897  31.926  1.00  0.00     0.055 A 
ATOM     42  C   UNL A   1      34.466  33.342  33.659  1.00  0.00     0.041 A 
ATOM     43  F   UNL A   1      36.052  31.669  33.328  1.00  0.00    -0.206 F 
ATOM     44  C   UNL A   1      33.780  34.481  33.242  1.00  0.00     0.022 A 
BRANCH  41  45
ATOM     45  S   UNL A   1      33.215  36.473  31.363  1.00  0.00     0.124 S 
ATOM     46  O   UNL A   1      33.350  36.375  29.915  1.00  0.00    -0.237 OA
ATOM     47  O   UNL A   1      31.853  36.398  31.884  1.00  0.00    -0.237 OA
ATOM     48  O   UNL A   1      34.068  37.474  32.001  1.00  0.00    -0.744 OA
ENDBRANCH  41  45
ENDBRANCH  24  38
BRANCH  25  49
ATOM     49  C   UNL A   1      45.638  32.581  28.883  1.00  0.00     0.023 A 
ATOM     50  C   UNL A   1      46.064  33.220  27.708  1.00  0.00     0.031 A 
ATOM     51  C   UNL A   1      46.689  32.308  29.820  1.00  0.00     0.131 A 
ATOM     52  C   UNL A   1      47.428  33.600  27.548  1.00  0.00     0.055 A 
ATOM     53  C   UNL A   1      48.007  32.747  29.690  1.00  0.00     0.041 A 
ATOM     54  F   UNL A   1      46.493  31.588  30.932  1.00  0.00    -0.206 F 
ATOM     55  C   UNL A   1      48.383  33.410  28.549  1.00  0.00     0.022 A 
BRANCH  52  56
ATOM     56  S   UNL A   1      48.027  34.380  26.020  1.00  0.00     0.124 S 
ATOM     57  O   UNL A   1      48.562  35.644  26.517  1.00  0.00    -0.237 OA
ATOM     58  O   UNL A   1      49.009  33.425  25.519  1.00  0.00    -0.237 OA
ATOM     59  O   UNL A   1      46.812  34.492  25.215  1.00  0.00    -0.744 OA
ENDBRANCH  52  56
ENDBRANCH  25  49
BRANCH  37  60
ATOM     60  C   UNL A   1      40.996  33.108  32.819  1.00  0.00     0.023 A 
ATOM     61  C   UNL A   1      40.672  31.751  32.631  1.00  0.00     0.031 A 
ATOM     62  C   UNL A   1      41.271  33.497  34.143  1.00  0.00     0.131 A 
ATOM     63  C   UNL A   1      40.618  30.863  33.727  1.00  0.00     0.055 A 
ATOM     64  C   UNL A   1      41.238  32.617  35.230  1.00  0.00     0.041 A 
ATOM     65  F   UNL A   1      41.563  34.761  34.433  1.00  0.00    -0.206 F 
ATOM     66  C   UNL A   1      40.903  31.289  35.025  1.00  0.00     0.022 A 
BRANCH  63  67
ATOM     67  S   UNL A   1      40.184  29.125  33.443  1.00  0.00     0.124 S 
ATOM     68  O   UNL A   1      40.936  28.805  32.227  1.00  0.00    -0.237 OA
ATOM     69  O   UNL A   1      40.631  28.479  34.660  1.00  0.00    -0.237 OA
ATOM     70  O   UNL A   1      38.728  29.163  33.263  1.00  0.00    -0.744 OA
ENDBRANCH  63  67
ENDBRANCH  37  60
ENDBRANCH  11  12
ENDBRANCH   4   6
ENDBRANCH   1   2
BRANCH   1  71
ATOM     71  C   UNL A   1      36.247  23.170  25.466  1.00  0.00     0.042 C 
BRANCH  71  72
ATOM     72  C   UNL A   1      35.767  23.758  24.144  1.00  0.00     0.118 C 
BRANCH  72  73
ATOM     73  N   UNL A   1      34.364  23.473  23.907  1.00  0.00    -0.352 N 
ATOM     74  C   UNL A   1      33.330  24.328  23.638  1.00  0.00     0.255 C 
ATOM     75  H   UNL A   1      34.119  22.521  23.945  1.00  0.00     0.163 HD
ATOM     76  O   UNL A   1      32.180  23.887  23.623  1.00  0.00    -0.269 OA
BRANCH  74  77
ATOM     77  C   UNL A   1      33.546  25.773  23.404  1.00  0.00     0.083 A 
ATOM     78  C   UNL A   1      33.654  26.589  24.543  1.00  0.00     0.044 A 
ATOM     79  C   UNL A   1      33.495  26.358  22.133  1.00  0.00     0.128 A 
ATOM     80  C   UNL A   1      33.683  27.983  24.407  1.00  0.00     0.046 A 
ATOM     81  C   UNL A   1      33.571  27.744  21.995  1.00  0.00     0.049 A 
ATOM     82  C   UNL A   1      33.643  28.557  23.129  1.00  0.00     0.030 A 
BRANCH  79  83
ATOM     83  O   UNL A   1      33.336  25.590  21.013  1.00  0.00    -0.507 OA
ATOM     84  H   UNL A   1      33.506  25.953  20.167  1.00  0.00     0.293 HD
ENDBRANCH  79  83
BRANCH  80  85
ATOM     85  N   UNL A   1      33.708  28.812  25.559  1.00  0.00    -0.324 N 
ATOM     86  C   UNL A   1      32.935  29.939  25.765  1.00  0.00     0.091 A 
ATOM     87  C   UNL A   1      34.483  28.629  26.686  1.00  0.00     0.091 A 
ATOM     88  C   UNL A   1      33.216  30.454  27.012  1.00  0.00     0.020 A 
ATOM     89  C   UNL A   1      34.217  29.641  27.584  1.00  0.00     0.020 A 
ENDBRANCH  80  85
ENDBRANCH  74  77
ENDBRANCH  72  73
ENDBRANCH  71  72
ENDBRANCH   1  71
TORSDOF 15
ENDMDL
MODEL 2
REMARK VINA RESULT:     -12.1      4.547     10.235
REMARK SMILES O=C(NCCCNC(=O)c1cc(-n2cccc2)ccc1O)c1ccc(-c2c3nc(c(-c4cc(S(=O)(=O)[O-])ccc4F)c4ccc([nH]4)c(-c4cc(S(=O)(=O)[O-])ccc4F)c4nc(c(-c5cc(S(=O)(=O)[O-])ccc5F)c5ccc2[nH]5)C=C4)C=C3)cc1
REMARK SMILES IDX 4 1 3 2 1 3 2 4 22 6 23 7 84 8 24 9 83 10 25 11 26 12 27 13
REMARK SMILES IDX 77 14 28 15 82 16 76 17 78 18 29 19 81 20 75 21 74 22 30 24
REMARK SMILES IDX 62 25 42 26 61 27 43 28 46 29 60 30 79 31 44 32 45 33 59 35
REMARK SMILES IDX 80 36 47 37 31 38 32 39 40 40 33 41 39 42 41 43 38 44 34 45
REMARK SMILES IDX 35 46 36 47 37 48 63 49 64 50 72 51 65 52 71 53 73 54 70 55
REMARK SMILES IDX 66 56 67 57 68 58 69 59 48 60 49 61 57 62 50 63 56 64 58 65
REMARK SMILES IDX 55 66 51 67 52 68 53 69 54 70 5 71 6 72 7 73 8 74 9 76 10 77
REMARK SMILES IDX 11 78 20 79 12 80 19 81 18 82 21 83 13 85 14 86 17 87 15 88
REMARK SMILES IDX 16 89
REMARK H PARENT 3 5 78 23 46 34 7 75 21 84
REMARK Flexibility Score: inf
ROOT
ATOM      1  C   UNL A   1      34.615  28.786  26.609  1.00  0.00     0.118 C 
ENDROOT
BRANCH   1   2
ATOM      2  N   UNL A   1      34.911  30.082  27.200  1.00  0.00    -0.352 N 
ATOM      3  O   UNL A   1      36.006  31.787  28.139  1.00  0.00    -0.269 OA
ATOM      4  C   UNL A   1      36.032  30.608  27.790  1.00  0.00     0.251 C 
ATOM      5  H   UNL A   1      34.152  30.709  27.171  1.00  0.00     0.163 HD
BRANCH   4   6
ATOM      6  C   UNL A   1      37.237  29.794  28.079  1.00  0.00     0.039 A 
ATOM      7  C   UNL A   1      38.399  29.860  27.310  1.00  0.00     0.014 A 
ATOM      8  C   UNL A   1      37.201  28.955  29.205  1.00  0.00     0.014 A 
ATOM      9  C   UNL A   1      39.476  29.030  27.599  1.00  0.00     0.010 A 
ATOM     10  C   UNL A   1      38.296  28.148  29.524  1.00  0.00     0.010 A 
ATOM     11  C   UNL A   1      39.437  28.186  28.715  1.00  0.00    -0.014 A 
BRANCH  11  12
ATOM     12  C   UNL A   1      40.719  27.557  29.121  1.00  0.00     0.031 A 
ATOM     13  C   UNL A   1      41.108  26.412  28.166  1.00  0.00     0.074 A 
ATOM     14  C   UNL A   1      41.306  27.975  30.283  1.00  0.00     0.049 A 
ATOM     15  N   UNL A   1      41.685  25.274  28.412  1.00  0.00    -0.248 NA
ATOM     16  C   UNL A   1      40.665  26.489  26.745  1.00  0.00     0.031 C 
ATOM     17  C   UNL A   1      40.822  29.094  31.122  1.00  0.00     0.029 A 
ATOM     18  N   UNL A   1      42.406  27.550  31.003  1.00  0.00    -0.354 N 
ATOM     19  C   UNL A   1      41.884  24.624  27.169  1.00  0.00     0.074 A 
ATOM     20  C   UNL A   1      41.092  25.342  26.217  1.00  0.00     0.031 C 
ATOM     21  C   UNL A   1      41.569  29.216  32.244  1.00  0.00     0.029 A 
ATOM     22  C   UNL A   1      42.614  28.207  32.247  1.00  0.00     0.049 A 
ATOM     23  H   UNL A   1      43.005  26.840  30.677  1.00  0.00     0.167 HD
ATOM     24  C   UNL A   1      42.807  23.636  26.969  1.00  0.00     0.034 A 
ATOM     25  C   UNL A   1      43.535  27.944  33.228  1.00  0.00     0.034 A 
ATOM     26  C   UNL A   1      43.500  23.367  28.184  1.00  0.00     0.049 A 
ATOM     27  C   UNL A   1      44.386  26.874  32.686  1.00  0.00     0.074 A 
ATOM     28  C   UNL A   1      43.179  22.725  29.347  1.00  0.00     0.029 A 
ATOM     29  N   UNL A   1      44.710  24.000  28.349  1.00  0.00    -0.354 N 
ATOM     30  N   UNL A   1      45.303  27.039  31.783  1.00  0.00    -0.248 NA
ATOM     31  C   UNL A   1      44.191  25.502  33.175  1.00  0.00     0.031 C 
ATOM     32  C   UNL A   1      44.008  23.333  30.314  1.00  0.00     0.029 A 
ATOM     33  C   UNL A   1      44.846  24.263  29.686  1.00  0.00     0.049 A 
ATOM     34  H   UNL A   1      45.357  24.221  27.640  1.00  0.00     0.167 HD
ATOM     35  C   UNL A   1      45.576  25.752  31.391  1.00  0.00     0.074 A 
ATOM     36  C   UNL A   1      45.140  24.894  32.468  1.00  0.00     0.031 C 
ATOM     37  C   UNL A   1      45.589  25.451  30.069  1.00  0.00     0.034 A 
BRANCH  24  38
ATOM     38  C   UNL A   1      43.387  22.993  25.726  1.00  0.00     0.023 A 
ATOM     39  C   UNL A   1      43.460  21.573  25.731  1.00  0.00     0.031 A 
ATOM     40  C   UNL A   1      44.120  23.638  24.723  1.00  0.00     0.131 A 
ATOM     41  C   UNL A   1      44.326  20.871  24.883  1.00  0.00     0.055 A 
ATOM     42  C   UNL A   1      44.930  22.926  23.821  1.00  0.00     0.041 A 
ATOM     43  F   UNL A   1      44.157  24.972  24.620  1.00  0.00    -0.206 F 
ATOM     44  C   UNL A   1      45.067  21.542  23.922  1.00  0.00     0.022 A 
BRANCH  41  45
ATOM     45  S   UNL A   1      44.594  19.101  25.201  1.00  0.00     0.124 S 
ATOM     46  O   UNL A   1      44.510  18.529  23.862  1.00  0.00    -0.237 OA
ATOM     47  O   UNL A   1      45.919  19.100  25.814  1.00  0.00    -0.237 OA
ATOM     48  O   UNL A   1      43.495  18.748  26.097  1.00  0.00    -0.744 OA
ENDBRANCH  41  45
ENDBRANCH  24  38
BRANCH  25  49
ATOM     49  C   UNL A   1      43.874  28.385  34.647  1.00  0.00     0.023 A 
ATOM     50  C   UNL A   1      44.065  27.545  35.756  1.00  0.00     0.031 A 
ATOM     51  C   UNL A   1      44.059  29.780  34.926  1.00  0.00     0.131 A 
ATOM     52  C   UNL A   1      44.472  28.087  37.009  1.00  0.00     0.055 A 
ATOM     53  C   UNL A   1      44.529  30.296  36.133  1.00  0.00     0.041 A 
ATOM     54  F   UNL A   1      43.790  30.735  34.026  1.00  0.00    -0.206 F 
ATOM     55  C   UNL A   1      44.750  29.444  37.186  1.00  0.00     0.022 A 
BRANCH  52  56
ATOM     56  S   UNL A   1      44.677  27.039  38.480  1.00  0.00     0.124 S 
ATOM     57  O   UNL A   1      43.345  26.460  38.624  1.00  0.00    -0.237 OA
ATOM     58  O   UNL A   1      45.736  26.115  38.089  1.00  0.00    -0.237 OA
ATOM     59  O   UNL A   1      45.052  28.002  39.514  1.00  0.00    -0.744 OA
ENDBRANCH  52  56
ENDBRANCH  25  49
BRANCH  37  60
ATOM     60  C   UNL A   1      45.931  26.636  29.168  1.00  0.00     0.023 A 
ATOM     61  C   UNL A   1      44.911  27.392  28.558  1.00  0.00     0.031 A 
ATOM     62  C   UNL A   1      47.246  26.953  28.783  1.00  0.00     0.131 A 
ATOM     63  C   UNL A   1      45.223  28.389  27.609  1.00  0.00     0.055 A 
ATOM     64  C   UNL A   1      47.561  27.954  27.858  1.00  0.00     0.041 A 
ATOM     65  F   UNL A   1      48.281  26.281  29.280  1.00  0.00    -0.206 F 
ATOM     66  C   UNL A   1      46.543  28.677  27.260  1.00  0.00     0.022 A 
BRANCH  63  67
ATOM     67  S   UNL A   1      43.879  29.333  26.838  1.00  0.00     0.124 S 
ATOM     68  O   UNL A   1      43.345  28.383  25.860  1.00  0.00    -0.237 OA
ATOM     69  O   UNL A   1      43.019  29.645  27.962  1.00  0.00    -0.237 OA
ATOM     70  O   UNL A   1      44.568  30.488  26.250  1.00  0.00    -0.744 OA
ENDBRANCH  63  67
ENDBRANCH  37  60
ENDBRANCH  11  12
ENDBRANCH   4   6
ENDBRANCH   1   2
BRANCH   1  71
ATOM     71  C   UNL A   1      33.291  28.140  27.015  1.00  0.00     0.042 C 
BRANCH  71  72
ATOM     72  C   UNL A   1      32.755  27.111  26.027  1.00  0.00     0.118 C 
BRANCH  72  73
ATOM     73  N   UNL A   1      31.704  26.299  26.612  1.00  0.00    -0.352 N 
ATOM     74  C   UNL A   1      31.312  25.023  26.310  1.00  0.00     0.255 C 
ATOM     75  H   UNL A   1      31.197  26.732  27.336  1.00  0.00     0.163 HD
ATOM     76  O   UNL A   1      30.288  24.576  26.828  1.00  0.00    -0.269 OA
BRANCH  74  77
ATOM     77  C   UNL A   1      32.057  24.179  25.351  1.00  0.00     0.083 A 
ATOM     78  C   UNL A   1      33.374  23.837  25.699  1.00  0.00     0.044 A 
ATOM     79  C   UNL A   1      31.566  23.847  24.083  1.00  0.00     0.128 A 
ATOM     80  C   UNL A   1      34.200  23.192  24.770  1.00  0.00     0.046 A 
ATOM     81  C   UNL A   1      32.373  23.162  23.174  1.00  0.00     0.049 A 
ATOM     82  C   UNL A   1      33.695  22.854  23.507  1.00  0.00     0.030 A 
BRANCH  79  83
ATOM     83  O   UNL A   1      30.305  24.214  23.700  1.00  0.00    -0.507 OA
ATOM     84  H   UNL A   1      30.144  24.492  22.820  1.00  0.00     0.293 HD
ENDBRANCH  79  83
BRANCH  80  85
ATOM     85  N   UNL A   1      35.557  22.920  25.089  1.00  0.00    -0.324 N 
ATOM     86  C   UNL A   1      36.556  23.861  25.258  1.00  0.00     0.091 A 
ATOM     87  C   UNL A   1      36.115  21.678  25.314  1.00  0.00     0.091 A 
ATOM     88  C   UNL A   1      37.727  23.218  25.593  1.00  0.00     0.020 A 
ATOM     89  C   UNL A   1      37.455  21.833  25.602  1.00  0.00     0.020 A 
ENDBRANCH  80  85
ENDBRANCH  74  77
ENDBRANCH  72  73
ENDBRANCH  71  72
ENDBRANCH   1  71
TORSDOF 15
ENDMDL
MODEL 3
REMARK VINA RESULT:     -12.1      2.068      3.800
REMARK SMILES O=C(NCCCNC(=O)c1cc(-n2cccc2)ccc1O)c1ccc(-c2c3nc(c(-c4cc(S(=O)(=O)[O-])ccc4F)c4ccc([nH]4)c(-c4cc(S(=O)(=O)[O-])ccc4F)c4nc(c(-c5cc(S(=O)(=O)[O-])ccc5F)c5ccc2[nH]5)C=C4)C=C3)cc1
REMARK SMILES IDX 4 1 3 2 1 3 2 4 22 6 23 7 84 8 24 9 83 10 25 11 26 12 27 13
REMARK SMILES IDX 77 14 28 15 82 16 76 17 78 18 29 19 81 20 75 21 74 22 30 24
REMARK SMILES IDX 62 25 42 26 61 27 43 28 46 29 60 30 79 31 44 32 45 33 59 35
REMARK SMILES IDX 80 36 47 37 31 38 32 39 40 40 33 41 39 42 41 43 38 44 34 45
REMARK SMILES IDX 35 46 36 47 37 48 63 49 64 50 72 51 65 52 71 53 73 54 70 55
REMARK SMILES IDX 66 56 67 57 68 58 69 59 48 60 49 61 57 62 50 63 56 64 58 65
REMARK SMILES IDX 55 66 51 67 52 68 53 69 54 70 5 71 6 72 7 73 8 74 9 76 10 77
REMARK SMILES IDX 11 78 20 79 12 80 19 81 18 82 21 83 13 85 14 86 17 87 15 88
REMARK SMILES IDX 16 89
REMARK H PARENT 3 5 78 23 46 34 7 75 21 84
REMARK Flexibility Score: inf
ROOT
ATOM      1  C   UNL A   1      37.589  23.885  26.119  1.00  0.00     0.118 C 
ENDROOT
BRANCH   1   2
ATOM      2  N   UNL A   1      38.968  23.435  26.237  1.00  0.00    -0.352 N 
ATOM      3  O   UNL A   1      41.120  23.318  26.821  1.00  0.00    -0.269 OA
ATOM      4  C   UNL A   1      40.084  23.981  26.817  1.00  0.00     0.251 C 
ATOM      5  H   UNL A   1      39.132  22.562  25.814  1.00  0.00     0.163 HD
BRANCH   4   6
ATOM      6  C   UNL A   1      40.103  25.355  27.372  1.00  0.00     0.039 A 
ATOM      7  C   UNL A   1      39.888  25.630  28.723  1.00  0.00     0.014 A 
ATOM      8  C   UNL A   1      40.391  26.411  26.490  1.00  0.00     0.014 A 
ATOM      9  C   UNL A   1      39.863  26.945  29.174  1.00  0.00     0.010 A 
ATOM     10  C   UNL A   1      40.407  27.732  26.946  1.00  0.00     0.010 A 
ATOM     11  C   UNL A   1      40.140  27.998  28.293  1.00  0.00    -0.014 A 
BRANCH  11  12
ATOM     12  C   UNL A   1      40.381  29.330  28.902  1.00  0.00     0.031 A 
ATOM     13  C   UNL A   1      39.060  29.991  29.344  1.00  0.00     0.074 A 
ATOM     14  C   UNL A   1      41.656  29.824  28.896  1.00  0.00     0.049 A 
ATOM     15  N   UNL A   1      38.695  31.237  29.315  1.00  0.00    -0.248 NA
ATOM     16  C   UNL A   1      37.928  29.112  29.755  1.00  0.00     0.031 C 
ATOM     17  C   UNL A   1      42.849  29.083  28.431  1.00  0.00     0.029 A 
ATOM     18  N   UNL A   1      42.212  31.035  29.262  1.00  0.00    -0.354 N 
ATOM     19  C   UNL A   1      37.413  31.315  29.913  1.00  0.00     0.074 A 
ATOM     20  C   UNL A   1      36.937  29.969  30.006  1.00  0.00     0.031 C 
ATOM     21  C   UNL A   1      43.953  29.864  28.480  1.00  0.00     0.029 A 
ATOM     22  C   UNL A   1      43.601  31.177  28.988  1.00  0.00     0.049 A 
ATOM     23  H   UNL A   1      41.683  31.751  29.682  1.00  0.00     0.167 HD
ATOM     24  C   UNL A   1      36.890  32.464  30.437  1.00  0.00     0.034 A 
ATOM     25  C   UNL A   1      44.407  32.277  29.128  1.00  0.00     0.034 A 
ATOM     26  C   UNL A   1      37.812  33.537  30.272  1.00  0.00     0.049 A 
ATOM     27  C   UNL A   1      43.559  33.307  29.747  1.00  0.00     0.074 A 
ATOM     28  C   UNL A   1      38.215  34.297  29.210  1.00  0.00     0.029 A 
ATOM     29  N   UNL A   1      38.623  33.815  31.347  1.00  0.00    -0.354 N 
ATOM     30  N   UNL A   1      43.209  33.329  30.996  1.00  0.00    -0.248 NA
ATOM     31  C   UNL A   1      43.041  34.394  28.904  1.00  0.00     0.031 C 
ATOM     32  C   UNL A   1      39.519  34.708  29.558  1.00  0.00     0.029 A 
ATOM     33  C   UNL A   1      39.824  34.242  30.844  1.00  0.00     0.049 A 
ATOM     34  H   UNL A   1      38.386  33.725  32.298  1.00  0.00     0.167 HD
ATOM     35  C   UNL A   1      42.196  34.257  31.009  1.00  0.00     0.074 A 
ATOM     36  C   UNL A   1      42.374  35.076  29.832  1.00  0.00     0.031 C 
ATOM     37  C   UNL A   1      41.021  33.946  31.611  1.00  0.00     0.034 A 
BRANCH  24  38
ATOM     38  C   UNL A   1      35.707  32.748  31.340  1.00  0.00     0.023 A 
ATOM     39  C   UNL A   1      34.793  33.737  30.883  1.00  0.00     0.031 A 
ATOM     40  C   UNL A   1      35.577  32.372  32.682  1.00  0.00     0.131 A 
ATOM     41  C   UNL A   1      33.920  34.402  31.754  1.00  0.00     0.055 A 
ATOM     42  C   UNL A   1      34.647  32.986  33.539  1.00  0.00     0.041 A 
ATOM     43  F   UNL A   1      36.389  31.470  33.246  1.00  0.00    -0.206 F 
ATOM     44  C   UNL A   1      33.841  34.031  33.089  1.00  0.00     0.022 A 
BRANCH  41  45
ATOM     45  S   UNL A   1      33.046  35.873  31.141  1.00  0.00     0.124 S 
ATOM     46  O   UNL A   1      31.758  35.772  31.815  1.00  0.00    -0.237 OA
ATOM     47  O   UNL A   1      33.919  36.954  31.590  1.00  0.00    -0.237 OA
ATOM     48  O   UNL A   1      33.009  35.666  29.694  1.00  0.00    -0.744 OA
ENDBRANCH  41  45
ENDBRANCH  24  38
BRANCH  25  49
ATOM     49  C   UNL A   1      45.828  32.720  28.799  1.00  0.00     0.023 A 
ATOM     50  C   UNL A   1      46.259  33.309  27.600  1.00  0.00     0.031 A 
ATOM     51  C   UNL A   1      46.857  32.576  29.788  1.00  0.00     0.131 A 
ATOM     52  C   UNL A   1      47.603  33.764  27.461  1.00  0.00     0.055 A 
ATOM     53  C   UNL A   1      48.149  33.090  29.674  1.00  0.00     0.041 A 
ATOM     54  F   UNL A   1      46.662  31.919  30.938  1.00  0.00    -0.206 F 
ATOM     55  C   UNL A   1      48.528  33.700  28.505  1.00  0.00     0.022 A 
BRANCH  52  56
ATOM     56  S   UNL A   1      48.212  34.480  25.906  1.00  0.00     0.124 S 
ATOM     57  O   UNL A   1      46.986  34.581  25.121  1.00  0.00    -0.237 OA
ATOM     58  O   UNL A   1      48.805  35.744  26.329  1.00  0.00    -0.237 OA
ATOM     59  O   UNL A   1      49.169  33.477  25.441  1.00  0.00    -0.744 OA
ENDBRANCH  52  56
ENDBRANCH  25  49
BRANCH  37  60
ATOM     60  C   UNL A   1      41.151  32.909  32.724  1.00  0.00     0.023 A 
ATOM     61  C   UNL A   1      40.761  31.573  32.511  1.00  0.00     0.031 A 
ATOM     62  C   UNL A   1      41.523  33.239  34.040  1.00  0.00     0.131 A 
ATOM     63  C   UNL A   1      40.738  30.649  33.578  1.00  0.00     0.055 A 
ATOM     64  C   UNL A   1      41.521  32.322  35.097  1.00  0.00     0.041 A 
ATOM     65  F   UNL A   1      41.883  34.480  34.354  1.00  0.00    -0.206 F 
ATOM     66  C   UNL A   1      41.121  31.017  34.869  1.00  0.00     0.022 A 
BRANCH  63  67
ATOM     67  S   UNL A   1      40.218  28.940  33.263  1.00  0.00     0.124 S 
ATOM     68  O   UNL A   1      40.673  28.243  34.468  1.00  0.00    -0.237 OA
ATOM     69  O   UNL A   1      38.783  29.066  33.100  1.00  0.00    -0.237 OA
ATOM     70  O   UNL A   1      40.948  28.582  32.042  1.00  0.00    -0.744 OA
ENDBRANCH  63  67
ENDBRANCH  37  60
ENDBRANCH  11  12
ENDBRANCH   4   6
ENDBRANCH   1   2
BRANCH   1  71
ATOM     71  C   UNL A   1      36.866  23.529  24.820  1.00  0.00     0.042 C 
BRANCH  71  72
ATOM     72  C   UNL A   1      35.752  22.499  24.975  1.00  0.00     0.118 C 
BRANCH  72  73
ATOM     73  N   UNL A   1      34.569  23.076  25.586  1.00  0.00    -0.352 N 
ATOM     74  C   UNL A   1      33.247  22.792  25.374  1.00  0.00     0.255 C 
ATOM     75  H   UNL A   1      34.744  23.777  26.254  1.00  0.00     0.163 HD
ATOM     76  O   UNL A   1      32.392  23.513  25.890  1.00  0.00    -0.269 OA
BRANCH  74  77
ATOM     77  C   UNL A   1      32.812  21.671  24.512  1.00  0.00     0.083 A 
ATOM     78  C   UNL A   1      33.172  20.377  24.928  1.00  0.00     0.044 A 
ATOM     79  C   UNL A   1      32.210  21.855  23.263  1.00  0.00     0.128 A 
ATOM     80  C   UNL A   1      32.953  19.283  24.083  1.00  0.00     0.046 A 
ATOM     81  C   UNL A   1      31.949  20.759  22.440  1.00  0.00     0.049 A 
ATOM     82  C   UNL A   1      32.338  19.478  22.838  1.00  0.00     0.030 A 
BRANCH  79  83
ATOM     83  O   UNL A   1      31.899  23.109  22.812  1.00  0.00    -0.507 OA
ATOM     84  H   UNL A   1      31.046  23.465  22.966  1.00  0.00     0.293 HD
ENDBRANCH  79  83
BRANCH  80  85
ATOM     85  N   UNL A   1      33.390  17.987  24.465  1.00  0.00    -0.324 N 
ATOM     86  C   UNL A   1      34.690  17.521  24.415  1.00  0.00     0.091 A 
ATOM     87  C   UNL A   1      32.606  16.973  24.977  1.00  0.00     0.091 A 
ATOM     88  C   UNL A   1      34.725  16.232  24.899  1.00  0.00     0.020 A 
ATOM     89  C   UNL A   1      33.401  15.874  25.229  1.00  0.00     0.020 A 
ENDBRANCH  80  85
ENDBRANCH  74  77
ENDBRANCH  72  73
ENDBRANCH  71  72
ENDBRANCH   1  71
TORSDOF 15
ENDMDL
