MODEL 1
REMARK VINA RESULT:      -9.7      0.000      0.000
REMARK SMILES CCC[C@H](c1ccccc1)[C@@](C)(O)C(=O)NCCCNC(=O)c1ccc(-c2c3nc(c(-c4cc(S(=O)(=O)[O-])ccc4F)c4ccc([nH]4)c(-c4cc(S(=O)(=O)[O-])ccc4F)c4nc(c(-c5cc(S(=O)(=O)[O-])ccc5F)c5ccc2[nH]5)C=C4)C=C3)cc1
REMARK SMILES IDX 18 1 17 2 16 3 14 4 15 5 11 7 12 8 4 9 3 10 2 11 1 12 5 13
REMARK SMILES IDX 6 14 10 15 7 16 9 17 8 18 13 19 19 21 20 22 21 23 22 25
REMARK SMILES IDX 23 26 24 27 85 28 25 29 84 30 26 31 27 32 28 33 78 34 29 35
REMARK SMILES IDX 83 36 77 37 79 38 30 39 82 40 76 41 75 42 31 44 63 45 43 46
REMARK SMILES IDX 62 47 44 48 47 49 61 50 80 51 45 52 46 53 60 55 81 56 48 57
REMARK SMILES IDX 32 58 33 59 41 60 34 61 40 62 42 63 39 64 35 65 36 66 37 67
REMARK SMILES IDX 38 68 64 69 65 70 73 71 66 72 72 73 74 74 71 75 67 76 68 77
REMARK SMILES IDX 69 78 70 79 49 80 50 81 58 82 51 83 57 84 59 85 56 86 52 87
REMARK SMILES IDX 53 88 54 89 55 90
REMARK H PARENT 16 6 13 20 20 24 79 43 47 54
REMARK Flexibility Score: inf
ROOT
ATOM      1  C   UNL A   1      42.195  20.409  26.813  1.00  0.00     0.042 C 
ENDROOT
BRANCH   1   2
ATOM      2  C   UNL A   1      43.223  20.664  25.723  1.00  0.00     0.117 C 
BRANCH   2   3
ATOM      3  N   UNL A   1      43.043  21.957  25.093  1.00  0.00    -0.354 N 
ATOM      4  C   UNL A   1      43.859  23.050  25.070  1.00  0.00     0.252 C 
ATOM      5  O   UNL A   1      43.349  24.090  24.647  1.00  0.00    -0.272 OA
ATOM      6  H   UNL A   1      42.196  22.064  24.603  1.00  0.00     0.163 HD
BRANCH   4   7
ATOM      7  C   UNL A   1      45.339  22.953  25.550  1.00  0.00     0.147 C 
ATOM      8  C   UNL A   1      46.277  22.651  24.365  1.00  0.00     0.053 C 
BRANCH   7   9
ATOM      9  C   UNL A   1      45.791  24.268  26.312  1.00  0.00     0.060 C 
BRANCH   9  10
ATOM     10  C   UNL A   1      47.272  24.643  25.972  1.00  0.00     0.011 C 
BRANCH  10  11
ATOM     11  C   UNL A   1      47.437  26.009  25.293  1.00  0.00    -0.003 C 
ATOM     12  C   UNL A   1      46.123  26.710  24.989  1.00  0.00     0.004 C 
ENDBRANCH  10  11
ENDBRANCH   9  10
BRANCH   9  13
ATOM     13  C   UNL A   1      45.422  24.281  27.806  1.00  0.00    -0.042 A 
ATOM     14  C   UNL A   1      44.204  23.790  28.302  1.00  0.00     0.004 A 
ATOM     15  C   UNL A   1      46.289  24.892  28.732  1.00  0.00     0.004 A 
ATOM     16  C   UNL A   1      43.846  23.948  29.644  1.00  0.00     0.000 A 
ATOM     17  C   UNL A   1      45.915  25.090  30.064  1.00  0.00     0.000 A 
ATOM     18  C   UNL A   1      44.689  24.621  30.520  1.00  0.00     0.000 A 
ENDBRANCH   9  13
ENDBRANCH   7   9
BRANCH   7  19
ATOM     19  O   UNL A   1      45.466  21.837  26.455  1.00  0.00    -0.380 OA
ATOM     20  H   UNL A   1      45.960  22.115  27.243  1.00  0.00     0.212 HD
ENDBRANCH   7  19
ENDBRANCH   4   7
ENDBRANCH   2   3
ENDBRANCH   1   2
BRANCH   1  21
ATOM     21  C   UNL A   1      41.346  21.621  27.167  1.00  0.00     0.118 C 
BRANCH  21  22
ATOM     22  N   UNL A   1      40.038  21.601  26.526  1.00  0.00    -0.352 N 
ATOM     23  C   UNL A   1      39.090  22.586  26.409  1.00  0.00     0.251 C 
ATOM     24  H   UNL A   1      39.796  20.743  26.108  1.00  0.00     0.163 HD
ATOM     25  O   UNL A   1      37.968  22.291  25.998  1.00  0.00    -0.269 OA
BRANCH  23  26
ATOM     26  C   UNL A   1      39.398  23.978  26.802  1.00  0.00     0.039 A 
ATOM     27  C   UNL A   1      39.145  24.377  28.117  1.00  0.00     0.014 A 
ATOM     28  C   UNL A   1      39.931  24.891  25.889  1.00  0.00     0.014 A 
ATOM     29  C   UNL A   1      39.498  25.663  28.529  1.00  0.00     0.010 A 
ATOM     30  C   UNL A   1      40.381  26.132  26.328  1.00  0.00     0.010 A 
ATOM     31  C   UNL A   1      40.166  26.535  27.652  1.00  0.00    -0.014 A 
BRANCH  31  32
ATOM     32  C   UNL A   1      40.657  27.857  28.124  1.00  0.00     0.031 A 
ATOM     33  C   UNL A   1      42.126  28.176  28.121  1.00  0.00     0.074 A 
ATOM     34  C   UNL A   1      39.772  28.752  28.605  1.00  0.00     0.049 A 
ATOM     35  N   UNL A   1      42.736  29.272  28.496  1.00  0.00    -0.248 NA
ATOM     36  C   UNL A   1      43.033  27.110  27.674  1.00  0.00     0.031 C 
ATOM     37  C   UNL A   1      38.330  28.525  28.733  1.00  0.00     0.029 A 
ATOM     38  N   UNL A   1      39.949  30.027  29.081  1.00  0.00    -0.354 N 
ATOM     39  C   UNL A   1      44.096  29.023  28.343  1.00  0.00     0.074 A 
ATOM     40  C   UNL A   1      44.219  27.647  27.911  1.00  0.00     0.031 C 
ATOM     41  C   UNL A   1      37.752  29.635  29.216  1.00  0.00     0.029 A 
ATOM     42  C   UNL A   1      38.781  30.633  29.481  1.00  0.00     0.049 A 
ATOM     43  H   UNL A   1      40.829  30.465  29.132  1.00  0.00     0.167 HD
ATOM     44  C   UNL A   1      45.141  29.871  28.521  1.00  0.00     0.034 A 
ATOM     45  C   UNL A   1      38.561  31.852  30.012  1.00  0.00     0.034 A 
ATOM     46  C   UNL A   1      44.990  31.241  28.954  1.00  0.00     0.049 A 
ATOM     47  C   UNL A   1      39.731  32.780  30.200  1.00  0.00     0.074 A 
ATOM     48  C   UNL A   1      45.965  32.215  29.089  1.00  0.00     0.029 A 
ATOM     49  N   UNL A   1      43.792  31.826  29.348  1.00  0.00    -0.354 N 
ATOM     50  N   UNL A   1      41.004  32.565  29.957  1.00  0.00    -0.248 NA
ATOM     51  C   UNL A   1      39.430  34.118  30.717  1.00  0.00     0.031 C 
ATOM     52  C   UNL A   1      45.372  33.354  29.648  1.00  0.00     0.029 A 
ATOM     53  C   UNL A   1      44.010  33.129  29.774  1.00  0.00     0.049 A 
ATOM     54  H   UNL A   1      42.914  31.381  29.328  1.00  0.00     0.167 HD
ATOM     55  C   UNL A   1      41.657  33.750  30.282  1.00  0.00     0.074 A 
ATOM     56  C   UNL A   1      40.630  34.681  30.706  1.00  0.00     0.031 C 
ATOM     57  C   UNL A   1      42.984  34.041  30.236  1.00  0.00     0.034 A 
BRANCH  44  58
ATOM     58  C   UNL A   1      46.530  29.319  28.284  1.00  0.00     0.023 A 
ATOM     59  C   UNL A   1      47.203  28.552  29.254  1.00  0.00     0.031 A 
ATOM     60  C   UNL A   1      47.218  29.608  27.091  1.00  0.00     0.131 A 
ATOM     61  C   UNL A   1      48.546  28.195  29.060  1.00  0.00     0.055 A 
ATOM     62  C   UNL A   1      48.523  29.164  26.863  1.00  0.00     0.041 A 
ATOM     63  F   UNL A   1      46.643  30.352  26.133  1.00  0.00    -0.206 F 
ATOM     64  C   UNL A   1      49.202  28.471  27.861  1.00  0.00     0.022 A 
BRANCH  61  65
ATOM     65  S   UNL A   1      49.477  27.536  30.473  1.00  0.00     0.124 S 
ATOM     66  O   UNL A   1      49.913  26.239  29.961  1.00  0.00    -0.237 OA
ATOM     67  O   UNL A   1      50.523  28.536  30.655  1.00  0.00    -0.237 OA
ATOM     68  O   UNL A   1      48.480  27.472  31.540  1.00  0.00    -0.744 OA
ENDBRANCH  61  65
ENDBRANCH  44  58
BRANCH  45  69
ATOM     69  C   UNL A   1      37.181  32.247  30.415  1.00  0.00     0.023 A 
ATOM     70  C   UNL A   1      36.286  32.826  29.502  1.00  0.00     0.031 A 
ATOM     71  C   UNL A   1      36.737  32.037  31.733  1.00  0.00     0.131 A 
ATOM     72  C   UNL A   1      35.000  33.199  29.927  1.00  0.00     0.055 A 
ATOM     73  C   UNL A   1      35.442  32.363  32.138  1.00  0.00     0.041 A 
ATOM     74  F   UNL A   1      37.552  31.480  32.643  1.00  0.00    -0.206 F 
ATOM     75  C   UNL A   1      34.567  32.955  31.233  1.00  0.00     0.022 A 
BRANCH  72  76
ATOM     76  S   UNL A   1      33.909  34.057  28.759  1.00  0.00     0.124 S 
ATOM     77  O   UNL A   1      32.898  34.616  29.650  1.00  0.00    -0.237 OA
ATOM     78  O   UNL A   1      34.819  35.016  28.142  1.00  0.00    -0.237 OA
ATOM     79  O   UNL A   1      33.444  32.988  27.878  1.00  0.00    -0.744 OA
ENDBRANCH  72  76
ENDBRANCH  45  69
BRANCH  57  80
ATOM     80  C   UNL A   1      43.389  35.438  30.648  1.00  0.00     0.023 A 
ATOM     81  C   UNL A   1      43.604  35.775  31.997  1.00  0.00     0.031 A 
ATOM     82  C   UNL A   1      43.517  36.457  29.687  1.00  0.00     0.131 A 
ATOM     83  C   UNL A   1      43.853  37.109  32.354  1.00  0.00     0.055 A 
ATOM     84  C   UNL A   1      43.847  37.766  30.042  1.00  0.00     0.041 A 
ATOM     85  F   UNL A   1      43.318  36.199  28.385  1.00  0.00    -0.206 F 
ATOM     86  C   UNL A   1      43.997  38.103  31.384  1.00  0.00     0.022 A 
BRANCH  83  87
ATOM     87  S   UNL A   1      43.845  37.553  34.113  1.00  0.00     0.124 S 
ATOM     88  O   UNL A   1      43.746  36.245  34.753  1.00  0.00    -0.237 OA
ATOM     89  O   UNL A   1      45.122  38.243  34.266  1.00  0.00    -0.237 OA
ATOM     90  O   UNL A   1      42.662  38.399  34.247  1.00  0.00    -0.744 OA
ENDBRANCH  83  87
ENDBRANCH  57  80
ENDBRANCH  31  32
ENDBRANCH  23  26
ENDBRANCH  21  22
ENDBRANCH   1  21
TORSDOF 18
ENDMDL
MODEL 2
REMARK VINA RESULT:      -9.6      4.038     11.307
REMARK SMILES CCC[C@H](c1ccccc1)[C@@](C)(O)C(=O)NCCCNC(=O)c1ccc(-c2c3nc(c(-c4cc(S(=O)(=O)[O-])ccc4F)c4ccc([nH]4)c(-c4cc(S(=O)(=O)[O-])ccc4F)c4nc(c(-c5cc(S(=O)(=O)[O-])ccc5F)c5ccc2[nH]5)C=C4)C=C3)cc1
REMARK SMILES IDX 18 1 17 2 16 3 14 4 15 5 11 7 12 8 4 9 3 10 2 11 1 12 5 13
REMARK SMILES IDX 6 14 10 15 7 16 9 17 8 18 13 19 19 21 20 22 21 23 22 25
REMARK SMILES IDX 23 26 24 27 85 28 25 29 84 30 26 31 27 32 28 33 78 34 29 35
REMARK SMILES IDX 83 36 77 37 79 38 30 39 82 40 76 41 75 42 31 44 63 45 43 46
REMARK SMILES IDX 62 47 44 48 47 49 61 50 80 51 45 52 46 53 60 55 81 56 48 57
REMARK SMILES IDX 32 58 33 59 41 60 34 61 40 62 42 63 39 64 35 65 36 66 37 67
REMARK SMILES IDX 38 68 64 69 65 70 73 71 66 72 72 73 74 74 71 75 67 76 68 77
REMARK SMILES IDX 69 78 70 79 49 80 50 81 58 82 51 83 57 84 59 85 56 86 52 87
REMARK SMILES IDX 53 88 54 89 55 90
REMARK H PARENT 16 6 13 20 20 24 79 43 47 54
REMARK Flexibility Score: inf
ROOT
ATOM      1  C   UNL A   1      33.781  34.443  28.785  1.00  0.00     0.042 C 
ENDROOT
BRANCH   1   2
ATOM      2  C   UNL A   1      33.958  34.714  30.269  1.00  0.00     0.117 C 
BRANCH   2   3
ATOM      3  N   UNL A   1      33.990  33.492  31.048  1.00  0.00    -0.354 N 
ATOM      4  C   UNL A   1      34.784  33.136  32.100  1.00  0.00     0.252 C 
ATOM      5  O   UNL A   1      34.744  31.946  32.422  1.00  0.00    -0.272 OA
ATOM      6  H   UNL A   1      33.337  32.809  30.775  1.00  0.00     0.163 HD
BRANCH   4   7
ATOM      7  C   UNL A   1      35.666  34.193  32.830  1.00  0.00     0.147 C 
ATOM      8  C   UNL A   1      35.134  34.458  34.252  1.00  0.00     0.053 C 
BRANCH   7   9
ATOM      9  C   UNL A   1      37.190  33.754  32.866  1.00  0.00     0.060 C 
BRANCH   9  10
ATOM     10  C   UNL A   1      37.901  34.269  34.162  1.00  0.00     0.011 C 
BRANCH  10  11
ATOM     11  C   UNL A   1      38.355  33.156  35.115  1.00  0.00    -0.003 C 
ATOM     12  C   UNL A   1      37.827  31.778  34.754  1.00  0.00     0.004 C 
ENDBRANCH  10  11
ENDBRANCH   9  10
BRANCH   9  13
ATOM     13  C   UNL A   1      37.941  34.002  31.546  1.00  0.00    -0.042 A 
ATOM     14  C   UNL A   1      37.476  33.550  30.300  1.00  0.00     0.004 A 
ATOM     15  C   UNL A   1      39.201  34.628  31.569  1.00  0.00     0.004 A 
ATOM     16  C   UNL A   1      38.254  33.670  29.144  1.00  0.00     0.000 A 
ATOM     17  C   UNL A   1      39.999  34.709  30.424  1.00  0.00     0.000 A 
ATOM     18  C   UNL A   1      39.526  34.225  29.209  1.00  0.00     0.000 A 
ENDBRANCH   9  13
ENDBRANCH   7   9
BRANCH   7  19
ATOM     19  O   UNL A   1      35.571  35.448  32.127  1.00  0.00    -0.380 OA
ATOM     20  H   UNL A   1      36.164  35.434  31.358  1.00  0.00     0.212 HD
ENDBRANCH   7  19
ENDBRANCH   4   7
ENDBRANCH   2   3
ENDBRANCH   1   2
BRANCH   1  21
ATOM     21  C   UNL A   1      34.701  33.366  28.231  1.00  0.00     0.118 C 
BRANCH  21  22
ATOM     22  N   UNL A   1      33.998  32.130  27.913  1.00  0.00    -0.352 N 
ATOM     23  C   UNL A   1      34.447  30.834  27.886  1.00  0.00     0.251 C 
ATOM     24  H   UNL A   1      33.048  32.244  27.680  1.00  0.00     0.163 HD
ATOM     25  O   UNL A   1      33.730  29.963  27.394  1.00  0.00    -0.269 OA
BRANCH  23  26
ATOM     26  C   UNL A   1      35.786  30.489  28.410  1.00  0.00     0.039 A 
ATOM     27  C   UNL A   1      35.899  30.052  29.732  1.00  0.00     0.014 A 
ATOM     28  C   UNL A   1      36.928  30.595  27.613  1.00  0.00     0.014 A 
ATOM     29  C   UNL A   1      37.142  29.650  30.223  1.00  0.00     0.010 A 
ATOM     30  C   UNL A   1      38.143  30.092  28.067  1.00  0.00     0.010 A 
ATOM     31  C   UNL A   1      38.266  29.619  29.380  1.00  0.00    -0.014 A 
BRANCH  31  32
ATOM     32  C   UNL A   1      39.562  29.072  29.863  1.00  0.00     0.031 A 
ATOM     33  C   UNL A   1      40.291  29.720  31.007  1.00  0.00     0.074 A 
ATOM     34  C   UNL A   1      40.106  28.015  29.227  1.00  0.00     0.049 A 
ATOM     35  N   UNL A   1      41.429  29.384  31.561  1.00  0.00    -0.248 NA
ATOM     36  C   UNL A   1      39.680  30.927  31.581  1.00  0.00     0.031 C 
ATOM     37  C   UNL A   1      39.531  27.352  28.054  1.00  0.00     0.029 A 
ATOM     38  N   UNL A   1      41.261  27.316  29.470  1.00  0.00    -0.354 N 
ATOM     39  C   UNL A   1      41.675  30.344  32.536  1.00  0.00     0.074 A 
ATOM     40  C   UNL A   1      40.604  31.313  32.445  1.00  0.00     0.031 C 
ATOM     41  C   UNL A   1      40.315  26.321  27.704  1.00  0.00     0.029 A 
ATOM     42  C   UNL A   1      41.471  26.278  28.591  1.00  0.00     0.049 A 
ATOM     43  H   UNL A   1      41.879  27.535  30.203  1.00  0.00     0.167 HD
ATOM     44  C   UNL A   1      42.687  30.396  33.440  1.00  0.00     0.034 A 
ATOM     45  C   UNL A   1      42.486  25.397  28.500  1.00  0.00     0.034 A 
ATOM     46  C   UNL A   1      43.745  29.415  33.509  1.00  0.00     0.049 A 
ATOM     47  C   UNL A   1      43.598  25.468  29.512  1.00  0.00     0.074 A 
ATOM     48  C   UNL A   1      44.774  29.320  34.431  1.00  0.00     0.029 A 
ATOM     49  N   UNL A   1      43.928  28.374  32.606  1.00  0.00    -0.354 N 
ATOM     50  N   UNL A   1      43.768  26.324  30.494  1.00  0.00    -0.248 NA
ATOM     51  C   UNL A   1      44.643  24.445  29.412  1.00  0.00     0.031 C 
ATOM     52  C   UNL A   1      45.624  28.281  34.034  1.00  0.00     0.029 A 
ATOM     53  C   UNL A   1      45.079  27.663  32.919  1.00  0.00     0.049 A 
ATOM     54  H   UNL A   1      43.329  28.170  31.853  1.00  0.00     0.167 HD
ATOM     55  C   UNL A   1      44.938  25.934  31.139  1.00  0.00     0.074 A 
ATOM     56  C   UNL A   1      45.408  24.747  30.451  1.00  0.00     0.031 C 
ATOM     57  C   UNL A   1      45.566  26.504  32.201  1.00  0.00     0.034 A 
BRANCH  44  58
ATOM     58  C   UNL A   1      42.707  31.575  34.391  1.00  0.00     0.023 A 
ATOM     59  C   UNL A   1      42.154  31.500  35.683  1.00  0.00     0.031 A 
ATOM     60  C   UNL A   1      43.238  32.811  33.980  1.00  0.00     0.131 A 
ATOM     61  C   UNL A   1      42.049  32.656  36.471  1.00  0.00     0.055 A 
ATOM     62  C   UNL A   1      43.220  33.935  34.811  1.00  0.00     0.041 A 
ATOM     63  F   UNL A   1      43.762  32.958  32.754  1.00  0.00    -0.206 F 
ATOM     64  C   UNL A   1      42.603  33.867  36.056  1.00  0.00     0.022 A 
BRANCH  61  65
ATOM     65  S   UNL A   1      41.010  32.596  37.959  1.00  0.00     0.124 S 
ATOM     66  O   UNL A   1      39.865  31.820  37.489  1.00  0.00    -0.237 OA
ATOM     67  O   UNL A   1      41.879  31.934  38.924  1.00  0.00    -0.237 OA
ATOM     68  O   UNL A   1      40.726  34.003  38.235  1.00  0.00    -0.744 OA
ENDBRANCH  61  65
ENDBRANCH  44  58
BRANCH  45  69
ATOM     69  C   UNL A   1      42.497  24.389  27.401  1.00  0.00     0.023 A 
ATOM     70  C   UNL A   1      41.685  23.246  27.443  1.00  0.00     0.031 A 
ATOM     71  C   UNL A   1      43.327  24.570  26.279  1.00  0.00     0.131 A 
ATOM     72  C   UNL A   1      41.737  22.314  26.394  1.00  0.00     0.055 A 
ATOM     73  C   UNL A   1      43.339  23.666  25.216  1.00  0.00     0.041 A 
ATOM     74  F   UNL A   1      44.118  25.651  26.187  1.00  0.00    -0.206 F 
ATOM     75  C   UNL A   1      42.546  22.525  25.274  1.00  0.00     0.022 A 
BRANCH  72  76
ATOM     76  S   UNL A   1      40.769  20.786  26.534  1.00  0.00     0.124 S 
ATOM     77  O   UNL A   1      40.801  20.543  27.972  1.00  0.00    -0.237 OA
ATOM     78  O   UNL A   1      39.481  21.191  25.981  1.00  0.00    -0.237 OA
ATOM     79  O   UNL A   1      41.519  19.831  25.721  1.00  0.00    -0.744 OA
ENDBRANCH  72  76
ENDBRANCH  45  69
BRANCH  57  80
ATOM     80  C   UNL A   1      46.831  25.831  32.684  1.00  0.00     0.023 A 
ATOM     81  C   UNL A   1      46.805  24.853  33.695  1.00  0.00     0.031 A 
ATOM     82  C   UNL A   1      48.083  26.203  32.162  1.00  0.00     0.131 A 
ATOM     83  C   UNL A   1      48.007  24.342  34.207  1.00  0.00     0.055 A 
ATOM     84  C   UNL A   1      49.271  25.632  32.620  1.00  0.00     0.041 A 
ATOM     85  F   UNL A   1      48.173  27.137  31.202  1.00  0.00    -0.206 F 
ATOM     86  C   UNL A   1      49.240  24.709  33.662  1.00  0.00     0.022 A 
BRANCH  83  87
ATOM     87  S   UNL A   1      47.947  23.300  35.691  1.00  0.00     0.124 S 
ATOM     88  O   UNL A   1      46.778  23.832  36.384  1.00  0.00    -0.237 OA
ATOM     89  O   UNL A   1      47.801  21.962  35.127  1.00  0.00    -0.237 OA
ATOM     90  O   UNL A   1      49.227  23.562  36.346  1.00  0.00    -0.744 OA
ENDBRANCH  83  87
ENDBRANCH  57  80
ENDBRANCH  31  32
ENDBRANCH  23  26
ENDBRANCH  21  22
ENDBRANCH   1  21
TORSDOF 18
ENDMDL
MODEL 3
REMARK VINA RESULT:      -9.5      3.710      6.494
REMARK SMILES CCC[C@H](c1ccccc1)[C@@](C)(O)C(=O)NCCCNC(=O)c1ccc(-c2c3nc(c(-c4cc(S(=O)(=O)[O-])ccc4F)c4ccc([nH]4)c(-c4cc(S(=O)(=O)[O-])ccc4F)c4nc(c(-c5cc(S(=O)(=O)[O-])ccc5F)c5ccc2[nH]5)C=C4)C=C3)cc1
REMARK SMILES IDX 18 1 17 2 16 3 14 4 15 5 11 7 12 8 4 9 3 10 2 11 1 12 5 13
REMARK SMILES IDX 6 14 10 15 7 16 9 17 8 18 13 19 19 21 20 22 21 23 22 25
REMARK SMILES IDX 23 26 24 27 85 28 25 29 84 30 26 31 27 32 28 33 78 34 29 35
REMARK SMILES IDX 83 36 77 37 79 38 30 39 82 40 76 41 75 42 31 44 63 45 43 46
REMARK SMILES IDX 62 47 44 48 47 49 61 50 80 51 45 52 46 53 60 55 81 56 48 57
REMARK SMILES IDX 32 58 33 59 41 60 34 61 40 62 42 63 39 64 35 65 36 66 37 67
REMARK SMILES IDX 38 68 64 69 65 70 73 71 66 72 72 73 74 74 71 75 67 76 68 77
REMARK SMILES IDX 69 78 70 79 49 80 50 81 58 82 51 83 57 84 59 85 56 86 52 87
REMARK SMILES IDX 53 88 54 89 55 90
REMARK H PARENT 16 6 13 20 20 24 79 43 47 54
REMARK Flexibility Score: inf
ROOT
ATOM      1  C   UNL A   1      36.031  23.140  25.027  1.00  0.00     0.042 C 
ENDROOT
BRANCH   1   2
ATOM      2  C   UNL A   1      34.696  23.775  25.375  1.00  0.00     0.117 C 
BRANCH   2   3
ATOM      3  N   UNL A   1      34.098  23.181  26.555  1.00  0.00    -0.354 N 
ATOM      4  C   UNL A   1      32.850  22.663  26.746  1.00  0.00     0.252 C 
ATOM      5  O   UNL A   1      32.541  22.432  27.918  1.00  0.00    -0.272 OA
ATOM      6  H   UNL A   1      34.685  23.146  27.344  1.00  0.00     0.163 HD
BRANCH   4   7
ATOM      7  C   UNL A   1      31.905  22.386  25.539  1.00  0.00     0.147 C 
ATOM      8  C   UNL A   1      31.015  23.611  25.251  1.00  0.00     0.053 C 
BRANCH   7   9
ATOM      9  C   UNL A   1      32.720  21.961  24.247  1.00  0.00     0.060 C 
BRANCH   9  10
ATOM     10  C   UNL A   1      32.162  22.662  22.964  1.00  0.00     0.011 C 
BRANCH  10  11
ATOM     11  C   UNL A   1      33.219  23.415  22.147  1.00  0.00    -0.003 C 
ATOM     12  C   UNL A   1      32.795  24.812  21.725  1.00  0.00     0.004 C 
ENDBRANCH  10  11
ENDBRANCH   9  10
BRANCH   9  13
ATOM     13  C   UNL A   1      32.960  20.445  24.132  1.00  0.00    -0.042 A 
ATOM     14  C   UNL A   1      33.972  19.771  24.833  1.00  0.00     0.004 A 
ATOM     15  C   UNL A   1      32.202  19.688  23.218  1.00  0.00     0.004 A 
ATOM     16  C   UNL A   1      34.250  18.420  24.596  1.00  0.00     0.000 A 
ATOM     17  C   UNL A   1      32.506  18.351  22.947  1.00  0.00     0.000 A 
ATOM     18  C   UNL A   1      33.535  17.716  23.634  1.00  0.00     0.000 A 
ENDBRANCH   9  13
ENDBRANCH   7   9
BRANCH   7  19
ATOM     19  O   UNL A   1      31.007  21.311  25.883  1.00  0.00    -0.380 OA
ATOM     20  H   UNL A   1      31.460  20.688  26.474  1.00  0.00     0.212 HD
ENDBRANCH   7  19
ENDBRANCH   4   7
ENDBRANCH   2   3
ENDBRANCH   1   2
BRANCH   1  21
ATOM     21  C   UNL A   1      37.173  23.539  25.951  1.00  0.00     0.118 C 
BRANCH  21  22
ATOM     22  N   UNL A   1      38.187  22.501  26.076  1.00  0.00    -0.352 N 
ATOM     23  C   UNL A   1      39.518  22.592  26.398  1.00  0.00     0.251 C 
ATOM     24  H   UNL A   1      37.865  21.587  25.904  1.00  0.00     0.163 HD
ATOM     25  O   UNL A   1      40.238  21.605  26.251  1.00  0.00    -0.269 OA
BRANCH  23  26
ATOM     26  C   UNL A   1      40.089  23.867  26.883  1.00  0.00     0.039 A 
ATOM     27  C   UNL A   1      40.240  24.923  25.980  1.00  0.00     0.014 A 
ATOM     28  C   UNL A   1      40.478  24.030  28.215  1.00  0.00     0.014 A 
ATOM     29  C   UNL A   1      40.707  26.158  26.433  1.00  0.00     0.010 A 
ATOM     30  C   UNL A   1      40.838  25.289  28.686  1.00  0.00     0.010 A 
ATOM     31  C   UNL A   1      40.962  26.367  27.799  1.00  0.00    -0.014 A 
BRANCH  31  32
ATOM     32  C   UNL A   1      41.337  27.715  28.304  1.00  0.00     0.031 A 
ATOM     33  C   UNL A   1      42.781  28.121  28.411  1.00  0.00     0.074 A 
ATOM     34  C   UNL A   1      40.367  28.554  28.716  1.00  0.00     0.049 A 
ATOM     35  N   UNL A   1      43.294  29.250  28.829  1.00  0.00    -0.248 NA
ATOM     36  C   UNL A   1      43.781  27.111  28.036  1.00  0.00     0.031 C 
ATOM     37  C   UNL A   1      38.935  28.241  28.735  1.00  0.00     0.029 A 
ATOM     38  N   UNL A   1      40.431  29.836  29.201  1.00  0.00    -0.354 N 
ATOM     39  C   UNL A   1      44.674  29.083  28.780  1.00  0.00     0.074 A 
ATOM     40  C   UNL A   1      44.911  27.717  28.361  1.00  0.00     0.031 C 
ATOM     41  C   UNL A   1      38.257  29.313  29.170  1.00  0.00     0.029 A 
ATOM     42  C   UNL A   1      39.202  30.370  29.510  1.00  0.00     0.049 A 
ATOM     43  H   UNL A   1      41.277  30.326  29.317  1.00  0.00     0.167 HD
ATOM     44  C   UNL A   1      45.650  29.992  29.034  1.00  0.00     0.034 A 
ATOM     45  C   UNL A   1      38.870  31.573  30.020  1.00  0.00     0.034 A 
ATOM     46  C   UNL A   1      45.385  31.348  29.452  1.00  0.00     0.049 A 
ATOM     47  C   UNL A   1      39.965  32.568  30.294  1.00  0.00     0.074 A 
ATOM     48  C   UNL A   1      46.287  32.379  29.658  1.00  0.00     0.029 A 
ATOM     49  N   UNL A   1      44.128  31.861  29.752  1.00  0.00    -0.354 N 
ATOM     50  N   UNL A   1      41.263  32.430  30.148  1.00  0.00    -0.248 NA
ATOM     51  C   UNL A   1      39.547  33.885  30.784  1.00  0.00     0.031 C 
ATOM     52  C   UNL A   1      45.588  33.479  30.168  1.00  0.00     0.029 A 
ATOM     53  C   UNL A   1      44.236  33.173  30.191  1.00  0.00     0.049 A 
ATOM     54  H   UNL A   1      43.283  31.364  29.668  1.00  0.00     0.167 HD
ATOM     55  C   UNL A   1      41.819  33.651  30.519  1.00  0.00     0.074 A 
ATOM     56  C   UNL A   1      40.708  34.519  30.862  1.00  0.00     0.031 C 
ATOM     57  C   UNL A   1      43.126  34.021  30.573  1.00  0.00     0.034 A 
BRANCH  44  58
ATOM     58  C   UNL A   1      47.084  29.523  28.904  1.00  0.00     0.023 A 
ATOM     59  C   UNL A   1      47.717  29.400  27.653  1.00  0.00     0.031 A 
ATOM     60  C   UNL A   1      47.814  29.140  30.044  1.00  0.00     0.131 A 
ATOM     61  C   UNL A   1      48.989  28.813  27.563  1.00  0.00     0.055 A 
ATOM     62  C   UNL A   1      49.119  28.648  29.955  1.00  0.00     0.041 A 
ATOM     63  F   UNL A   1      47.264  29.212  31.265  1.00  0.00    -0.206 F 
ATOM     64  C   UNL A   1      49.705  28.461  28.707  1.00  0.00     0.022 A 
BRANCH  61  65
ATOM     65  S   UNL A   1      49.607  28.339  25.923  1.00  0.00     0.124 S 
ATOM     66  O   UNL A   1      48.377  28.332  25.134  1.00  0.00    -0.237 OA
ATOM     67  O   UNL A   1      50.554  29.406  25.623  1.00  0.00    -0.237 OA
ATOM     68  O   UNL A   1      50.200  27.022  26.148  1.00  0.00    -0.744 OA
ENDBRANCH  61  65
ENDBRANCH  44  58
BRANCH  45  69
ATOM     69  C   UNL A   1      37.442  31.884  30.317  1.00  0.00     0.023 A 
ATOM     70  C   UNL A   1      36.570  32.352  29.323  1.00  0.00     0.031 A 
ATOM     71  C   UNL A   1      36.930  31.705  31.615  1.00  0.00     0.131 A 
ATOM     72  C   UNL A   1      35.236  32.648  29.648  1.00  0.00     0.055 A 
ATOM     73  C   UNL A   1      35.592  31.954  31.922  1.00  0.00     0.041 A 
ATOM     74  F   UNL A   1      37.722  31.253  32.601  1.00  0.00    -0.206 F 
ATOM     75  C   UNL A   1      34.738  32.436  30.936  1.00  0.00     0.022 A 
BRANCH  72  76
ATOM     76  S   UNL A   1      34.165  33.367  28.372  1.00  0.00     0.124 S 
ATOM     77  O   UNL A   1      35.131  34.062  27.529  1.00  0.00    -0.237 OA
ATOM     78  O   UNL A   1      33.544  32.181  27.793  1.00  0.00    -0.237 OA
ATOM     79  O   UNL A   1      33.263  34.230  29.132  1.00  0.00    -0.744 OA
ENDBRANCH  72  76
ENDBRANCH  45  69
BRANCH  57  80
ATOM     80  C   UNL A   1      43.414  35.438  31.011  1.00  0.00     0.023 A 
ATOM     81  C   UNL A   1      43.548  36.485  30.080  1.00  0.00     0.031 A 
ATOM     82  C   UNL A   1      43.602  35.742  32.371  1.00  0.00     0.131 A 
ATOM     83  C   UNL A   1      43.940  37.761  30.512  1.00  0.00     0.055 A 
ATOM     84  C   UNL A   1      43.912  37.033  32.802  1.00  0.00     0.041 A 
ATOM     85  F   UNL A   1      43.494  34.784  33.307  1.00  0.00    -0.206 F 
ATOM     86  C   UNL A   1      44.103  38.047  31.869  1.00  0.00     0.022 A 
BRANCH  83  87
ATOM     87  S   UNL A   1      44.374  39.005  29.264  1.00  0.00     0.124 S 
ATOM     88  O   UNL A   1      45.755  38.648  28.953  1.00  0.00    -0.237 OA
ATOM     89  O   UNL A   1      43.396  38.747  28.213  1.00  0.00    -0.237 OA
ATOM     90  O   UNL A   1      44.206  40.273  29.972  1.00  0.00    -0.744 OA
ENDBRANCH  83  87
ENDBRANCH  57  80
ENDBRANCH  31  32
ENDBRANCH  23  26
ENDBRANCH  21  22
ENDBRANCH   1  21
TORSDOF 18
ENDMDL
