MODEL 1
REMARK VINA RESULT:     -11.8      0.000      0.000
REMARK SMILES COCC[C@]1(C(=O)NCCCNC(=O)c2ccc(-c3c4nc(c(-c5cc(S(=O)(=O)[O-])ccc5F)c5ccc([nH]5)c(-c5cc(S(=O)(=O)[O-])ccc5F)c5nc(c(-c6cc(S(=O)(=O)[O-])ccc6F)c6ccc3[nH]6)C=C5)C=C4)cc2)CCC[N@@H+](Cc2ccc(C(F)(F)F)nc2)C1
REMARK SMILES IDX 10 1 9 2 8 3 6 4 7 5 5 7 78 8 93 9 79 10 81 11 80 12 4 14
REMARK SMILES IDX 3 15 2 16 1 17 82 18 83 19 84 20 92 21 85 22 91 23 86 24
REMARK SMILES IDX 87 25 88 26 89 27 90 28 11 29 12 30 13 31 14 33 15 34 16 35
REMARK SMILES IDX 77 36 17 37 76 38 18 39 19 40 20 41 70 42 21 43 75 44 69 45
REMARK SMILES IDX 71 46 22 47 74 48 68 49 67 50 23 52 55 53 35 54 54 55 36 56
REMARK SMILES IDX 39 57 53 58 72 59 37 60 38 61 52 63 73 64 40 65 24 66 25 67
REMARK SMILES IDX 33 68 26 69 32 70 34 71 31 72 27 73 28 74 29 75 30 76 56 77
REMARK SMILES IDX 57 78 65 79 58 80 64 81 66 82 63 83 59 84 60 85 61 86 62 87
REMARK SMILES IDX 41 88 42 89 50 90 43 91 49 92 51 93 48 94 44 95 45 96 46 97
REMARK SMILES IDX 47 98
REMARK H PARENT 8 6 81 13 12 32 71 51 39 62
REMARK Flexibility Score: inf
ROOT
ATOM      1  C   UNL A   1      31.947  30.147  25.451  1.00  0.00     0.042 C 
ENDROOT
BRANCH   1   2
ATOM      2  C   UNL A   1      33.028  29.101  25.257  1.00  0.00     0.117 C 
BRANCH   2   3
ATOM      3  N   UNL A   1      33.556  29.101  23.900  1.00  0.00    -0.355 N 
ATOM      4  C   UNL A   1      33.651  28.151  22.931  1.00  0.00     0.232 C 
ATOM      5  O   UNL A   1      34.356  28.465  21.967  1.00  0.00    -0.274 OA
ATOM      6  H   UNL A   1      33.923  29.973  23.627  1.00  0.00     0.163 HD
BRANCH   4   7
ATOM      7  C   UNL A   1      32.975  26.767  23.038  1.00  0.00     0.100 C 
ATOM      8  C   UNL A   1      33.122  26.087  21.648  1.00  0.00     0.029 C 
ATOM      9  C   UNL A   1      33.627  25.906  24.139  1.00  0.00     0.279 C 
ATOM     10  C   UNL A   1      32.853  24.582  21.677  1.00  0.00     0.063 C 
ATOM     11  N   UNL A   1      33.232  24.491  24.119  1.00  0.00    -0.330 N 
ATOM     12  C   UNL A   1      33.577  23.881  22.827  1.00  0.00     0.262 C 
ATOM     13  H   UNL A   1      32.218  24.439  24.217  1.00  0.00     0.348 HD
BRANCH   7  14
ATOM     14  C   UNL A   1      31.446  26.948  23.340  1.00  0.00     0.051 C 
BRANCH  14  15
ATOM     15  C   UNL A   1      30.589  27.704  22.310  1.00  0.00     0.161 C 
BRANCH  15  16
ATOM     16  O   UNL A   1      30.477  29.101  22.548  1.00  0.00    -0.385 OA
ATOM     17  C   UNL A   1      29.240  29.685  22.174  1.00  0.00     0.194 C 
ENDBRANCH  15  16
ENDBRANCH  14  15
ENDBRANCH   7  14
BRANCH  11  18
ATOM     18  C   UNL A   1      33.783  23.745  25.274  1.00  0.00     0.300 C 
BRANCH  18  19
ATOM     19  C   UNL A   1      33.662  22.239  25.217  1.00  0.00     0.025 A 
ATOM     20  C   UNL A   1      34.774  21.406  25.061  1.00  0.00     0.013 A 
ATOM     21  C   UNL A   1      32.418  21.625  25.247  1.00  0.00     0.121 A 
ATOM     22  C   UNL A   1      34.602  20.042  24.837  1.00  0.00     0.034 A 
ATOM     23  N   UNL A   1      32.219  20.300  25.066  1.00  0.00    -0.251 NA
ATOM     24  C   UNL A   1      33.310  19.517  24.821  1.00  0.00     0.144 A 
BRANCH  24  25
ATOM     25  C   UNL A   1      33.104  18.037  24.521  1.00  0.00     0.433 C 
ATOM     26  F   UNL A   1      31.814  17.635  24.707  1.00  0.00    -0.165 F 
ATOM     27  F   UNL A   1      33.429  17.695  23.242  1.00  0.00    -0.165 F 
ATOM     28  F   UNL A   1      33.858  17.222  25.318  1.00  0.00    -0.165 F 
ENDBRANCH  24  25
ENDBRANCH  18  19
ENDBRANCH  11  18
ENDBRANCH   4   7
ENDBRANCH   2   3
ENDBRANCH   1   2
BRANCH   1  29
ATOM     29  C   UNL A   1      31.909  30.738  26.850  1.00  0.00     0.118 C 
BRANCH  29  30
ATOM     30  N   UNL A   1      31.930  32.193  26.843  1.00  0.00    -0.352 N 
ATOM     31  C   UNL A   1      32.817  33.063  27.437  1.00  0.00     0.251 C 
ATOM     32  H   UNL A   1      31.201  32.621  26.337  1.00  0.00     0.163 HD
ATOM     33  O   UNL A   1      32.542  34.254  27.497  1.00  0.00    -0.269 OA
BRANCH  31  34
ATOM     34  C   UNL A   1      34.076  32.546  28.022  1.00  0.00     0.039 A 
ATOM     35  C   UNL A   1      35.176  33.398  28.139  1.00  0.00     0.014 A 
ATOM     36  C   UNL A   1      34.165  31.226  28.466  1.00  0.00     0.014 A 
ATOM     37  C   UNL A   1      36.335  32.945  28.775  1.00  0.00     0.010 A 
ATOM     38  C   UNL A   1      35.272  30.814  29.199  1.00  0.00     0.010 A 
ATOM     39  C   UNL A   1      36.376  31.664  29.351  1.00  0.00    -0.014 A 
BRANCH  39  40
ATOM     40  C   UNL A   1      37.570  31.180  30.094  1.00  0.00     0.031 A 
ATOM     41  C   UNL A   1      38.485  30.163  29.463  1.00  0.00     0.074 A 
ATOM     42  C   UNL A   1      37.796  31.606  31.354  1.00  0.00     0.049 A 
ATOM     43  N   UNL A   1      39.523  29.552  29.974  1.00  0.00    -0.248 NA
ATOM     44  C   UNL A   1      38.167  29.753  28.086  1.00  0.00     0.031 C 
ATOM     45  C   UNL A   1      36.959  32.558  32.089  1.00  0.00     0.029 A 
ATOM     46  N   UNL A   1      38.791  31.290  32.244  1.00  0.00    -0.354 N 
ATOM     47  C   UNL A   1      39.971  28.679  28.988  1.00  0.00     0.074 A 
ATOM     48  C   UNL A   1      39.047  28.786  27.881  1.00  0.00     0.031 C 
ATOM     49  C   UNL A   1      37.495  32.774  33.300  1.00  0.00     0.029 A 
ATOM     50  C   UNL A   1      38.680  31.936  33.455  1.00  0.00     0.049 A 
ATOM     51  H   UNL A   1      39.518  30.659  32.037  1.00  0.00     0.167 HD
ATOM     52  C   UNL A   1      41.069  27.883  28.994  1.00  0.00     0.034 A 
ATOM     53  C   UNL A   1      39.436  31.851  34.568  1.00  0.00     0.034 A 
ATOM     54  C   UNL A   1      41.988  27.799  30.102  1.00  0.00     0.049 A 
ATOM     55  C   UNL A   1      40.631  30.930  34.564  1.00  0.00     0.074 A 
ATOM     56  C   UNL A   1      43.159  27.068  30.195  1.00  0.00     0.029 A 
ATOM     57  N   UNL A   1      41.838  28.463  31.313  1.00  0.00    -0.354 N 
ATOM     58  N   UNL A   1      41.071  30.149  33.603  1.00  0.00    -0.248 NA
ATOM     59  C   UNL A   1      41.438  30.887  35.790  1.00  0.00     0.031 C 
ATOM     60  C   UNL A   1      43.672  27.226  31.487  1.00  0.00     0.029 A 
ATOM     61  C   UNL A   1      42.874  28.129  32.170  1.00  0.00     0.049 A 
ATOM     62  H   UNL A   1      41.103  29.081  31.530  1.00  0.00     0.167 HD
ATOM     63  C   UNL A   1      42.226  29.551  34.099  1.00  0.00     0.074 A 
ATOM     64  C   UNL A   1      42.422  30.074  35.435  1.00  0.00     0.031 C 
ATOM     65  C   UNL A   1      43.053  28.653  33.504  1.00  0.00     0.034 A 
BRANCH  52  66
ATOM     66  C   UNL A   1      41.317  27.028  27.773  1.00  0.00     0.023 A 
ATOM     67  C   UNL A   1      40.985  25.661  27.746  1.00  0.00     0.031 A 
ATOM     68  C   UNL A   1      41.912  27.580  26.625  1.00  0.00     0.131 A 
ATOM     69  C   UNL A   1      41.320  24.879  26.631  1.00  0.00     0.055 A 
ATOM     70  C   UNL A   1      42.163  26.815  25.483  1.00  0.00     0.041 A 
ATOM     71  F   UNL A   1      42.273  28.873  26.595  1.00  0.00    -0.206 F 
ATOM     72  C   UNL A   1      41.881  25.451  25.488  1.00  0.00     0.022 A 
BRANCH  69  73
ATOM     73  S   UNL A   1      41.152  23.077  26.757  1.00  0.00     0.124 S 
ATOM     74  O   UNL A   1      41.334  22.865  28.192  1.00  0.00    -0.237 OA
ATOM     75  O   UNL A   1      39.808  22.848  26.242  1.00  0.00    -0.237 OA
ATOM     76  O   UNL A   1      42.237  22.572  25.919  1.00  0.00    -0.744 OA
ENDBRANCH  69  73
ENDBRANCH  52  66
BRANCH  53  77
ATOM     77  C   UNL A   1      39.090  32.644  35.785  1.00  0.00     0.023 A 
ATOM     78  C   UNL A   1      39.582  33.946  35.965  1.00  0.00     0.031 A 
ATOM     79  C   UNL A   1      38.307  32.089  36.815  1.00  0.00     0.131 A 
ATOM     80  C   UNL A   1      39.336  34.630  37.165  1.00  0.00     0.055 A 
ATOM     81  C   UNL A   1      38.012  32.797  37.981  1.00  0.00     0.041 A 
ATOM     82  F   UNL A   1      37.809  30.849  36.697  1.00  0.00    -0.206 F 
ATOM     83  C   UNL A   1      38.542  34.070  38.169  1.00  0.00     0.022 A 
BRANCH  80  84
ATOM     84  S   UNL A   1      40.161  36.221  37.444  1.00  0.00     0.124 S 
ATOM     85  O   UNL A   1      39.251  36.865  38.386  1.00  0.00    -0.237 OA
ATOM     86  O   UNL A   1      41.451  35.802  37.983  1.00  0.00    -0.237 OA
ATOM     87  O   UNL A   1      40.207  36.818  36.112  1.00  0.00    -0.744 OA
ENDBRANCH  80  84
ENDBRANCH  53  77
BRANCH  65  88
ATOM     88  C   UNL A   1      44.275  28.222  34.281  1.00  0.00     0.023 A 
ATOM     89  C   UNL A   1      44.259  27.101  35.128  1.00  0.00     0.031 A 
ATOM     90  C   UNL A   1      45.473  28.953  34.173  1.00  0.00     0.131 A 
ATOM     91  C   UNL A   1      45.399  26.778  35.880  1.00  0.00     0.055 A 
ATOM     92  C   UNL A   1      46.624  28.585  34.870  1.00  0.00     0.041 A 
ATOM     93  F   UNL A   1      45.545  30.034  33.381  1.00  0.00    -0.206 F 
ATOM     94  C   UNL A   1      46.587  27.499  35.741  1.00  0.00     0.022 A 
BRANCH  91  95
ATOM     95  S   UNL A   1      45.278  25.461  37.122  1.00  0.00     0.124 S 
ATOM     96  O   UNL A   1      44.812  26.195  38.296  1.00  0.00    -0.237 OA
ATOM     97  O   UNL A   1      44.314  24.549  36.517  1.00  0.00    -0.237 OA
ATOM     98  O   UNL A   1      46.644  24.949  37.213  1.00  0.00    -0.744 OA
ENDBRANCH  91  95
ENDBRANCH  65  88
ENDBRANCH  39  40
ENDBRANCH  31  34
ENDBRANCH  29  30
ENDBRANCH   1  29
TORSDOF 19
ENDMDL
MODEL 2
REMARK VINA RESULT:     -11.8      2.240      2.922
REMARK SMILES COCC[C@]1(C(=O)NCCCNC(=O)c2ccc(-c3c4nc(c(-c5cc(S(=O)(=O)[O-])ccc5F)c5ccc([nH]5)c(-c5cc(S(=O)(=O)[O-])ccc5F)c5nc(c(-c6cc(S(=O)(=O)[O-])ccc6F)c6ccc3[nH]6)C=C5)C=C4)cc2)CCC[N@@H+](Cc2ccc(C(F)(F)F)nc2)C1
REMARK SMILES IDX 10 1 9 2 8 3 6 4 7 5 5 7 78 8 93 9 79 10 81 11 80 12 4 14
REMARK SMILES IDX 3 15 2 16 1 17 82 18 83 19 84 20 92 21 85 22 91 23 86 24
REMARK SMILES IDX 87 25 88 26 89 27 90 28 11 29 12 30 13 31 14 33 15 34 16 35
REMARK SMILES IDX 77 36 17 37 76 38 18 39 19 40 20 41 70 42 21 43 75 44 69 45
REMARK SMILES IDX 71 46 22 47 74 48 68 49 67 50 23 52 55 53 35 54 54 55 36 56
REMARK SMILES IDX 39 57 53 58 72 59 37 60 38 61 52 63 73 64 40 65 24 66 25 67
REMARK SMILES IDX 33 68 26 69 32 70 34 71 31 72 27 73 28 74 29 75 30 76 56 77
REMARK SMILES IDX 57 78 65 79 58 80 64 81 66 82 63 83 59 84 60 85 61 86 62 87
REMARK SMILES IDX 41 88 42 89 50 90 43 91 49 92 51 93 48 94 44 95 45 96 46 97
REMARK SMILES IDX 47 98
REMARK H PARENT 8 6 81 13 12 32 71 51 39 62
REMARK Flexibility Score: inf
ROOT
ATOM      1  C   UNL A   1      31.393  32.369  26.543  1.00  0.00     0.042 C 
ENDROOT
BRANCH   1   2
ATOM      2  C   UNL A   1      31.366  30.869  26.315  1.00  0.00     0.117 C 
BRANCH   2   3
ATOM      3  N   UNL A   1      32.703  30.310  26.176  1.00  0.00    -0.355 N 
ATOM      4  C   UNL A   1      33.181  29.131  25.693  1.00  0.00     0.232 C 
ATOM      5  O   UNL A   1      34.375  28.921  25.930  1.00  0.00    -0.274 OA
ATOM      6  H   UNL A   1      33.412  30.913  26.499  1.00  0.00     0.163 HD
BRANCH   4   7
ATOM      7  C   UNL A   1      32.298  28.104  24.950  1.00  0.00     0.100 C 
ATOM      8  C   UNL A   1      31.350  28.916  24.024  1.00  0.00     0.029 C 
ATOM      9  C   UNL A   1      33.153  27.118  24.128  1.00  0.00     0.279 C 
ATOM     10  C   UNL A   1      30.678  28.064  22.947  1.00  0.00     0.063 C 
ATOM     11  N   UNL A   1      32.389  26.294  23.181  1.00  0.00    -0.330 N 
ATOM     12  C   UNL A   1      31.666  27.146  22.226  1.00  0.00     0.262 C 
ATOM     13  H   UNL A   1      31.690  25.767  23.706  1.00  0.00     0.348 HD
BRANCH   7  14
ATOM     14  C   UNL A   1      31.423  27.315  25.985  1.00  0.00     0.051 C 
BRANCH  14  15
ATOM     15  C   UNL A   1      31.952  25.966  26.503  1.00  0.00     0.161 C 
BRANCH  15  16
ATOM     16  O   UNL A   1      31.338  24.826  25.916  1.00  0.00    -0.385 OA
ATOM     17  C   UNL A   1      31.447  23.625  26.661  1.00  0.00     0.194 C 
ENDBRANCH  15  16
ENDBRANCH  14  15
ENDBRANCH   7  14
BRANCH  11  18
ATOM     18  C   UNL A   1      33.239  25.278  22.519  1.00  0.00     0.300 C 
BRANCH  18  19
ATOM     19  C   UNL A   1      33.354  23.942  23.217  1.00  0.00     0.025 A 
ATOM     20  C   UNL A   1      34.447  23.615  24.025  1.00  0.00     0.013 A 
ATOM     21  C   UNL A   1      32.401  22.954  23.020  1.00  0.00     0.121 A 
ATOM     22  C   UNL A   1      34.599  22.316  24.504  1.00  0.00     0.034 A 
ATOM     23  N   UNL A   1      32.503  21.694  23.498  1.00  0.00    -0.251 NA
ATOM     24  C   UNL A   1      33.623  21.365  24.206  1.00  0.00     0.144 A 
BRANCH  24  25
ATOM     25  C   UNL A   1      33.805  19.927  24.676  1.00  0.00     0.433 C 
ATOM     26  F   UNL A   1      33.306  19.713  25.927  1.00  0.00    -0.165 F 
ATOM     27  F   UNL A   1      33.201  19.014  23.863  1.00  0.00    -0.165 F 
ATOM     28  F   UNL A   1      35.117  19.549  24.738  1.00  0.00    -0.165 F 
ENDBRANCH  24  25
ENDBRANCH  18  19
ENDBRANCH  11  18
ENDBRANCH   4   7
ENDBRANCH   2   3
ENDBRANCH   1   2
BRANCH   1  29
ATOM     29  C   UNL A   1      32.719  32.884  27.074  1.00  0.00     0.118 C 
BRANCH  29  30
ATOM     30  N   UNL A   1      32.602  34.201  27.683  1.00  0.00    -0.352 N 
ATOM     31  C   UNL A   1      33.271  34.734  28.762  1.00  0.00     0.251 C 
ATOM     32  H   UNL A   1      31.947  34.802  27.260  1.00  0.00     0.163 HD
ATOM     33  O   UNL A   1      32.878  35.782  29.256  1.00  0.00    -0.269 OA
BRANCH  31  34
ATOM     34  C   UNL A   1      34.438  34.020  29.331  1.00  0.00     0.039 A 
ATOM     35  C   UNL A   1      35.726  34.449  29.008  1.00  0.00     0.014 A 
ATOM     36  C   UNL A   1      34.259  32.937  30.193  1.00  0.00     0.014 A 
ATOM     37  C   UNL A   1      36.829  33.840  29.614  1.00  0.00     0.010 A 
ATOM     38  C   UNL A   1      35.346  32.411  30.881  1.00  0.00     0.010 A 
ATOM     39  C   UNL A   1      36.646  32.847  30.590  1.00  0.00    -0.014 A 
BRANCH  39  40
ATOM     40  C   UNL A   1      37.796  32.230  31.303  1.00  0.00     0.031 A 
ATOM     41  C   UNL A   1      38.539  31.081  30.674  1.00  0.00     0.074 A 
ATOM     42  C   UNL A   1      38.132  32.660  32.536  1.00  0.00     0.049 A 
ATOM     43  N   UNL A   1      39.508  30.352  31.165  1.00  0.00    -0.248 NA
ATOM     44  C   UNL A   1      38.108  30.674  29.327  1.00  0.00     0.031 C 
ATOM     45  C   UNL A   1      37.462  33.739  33.268  1.00  0.00     0.029 A 
ATOM     46  N   UNL A   1      39.115  32.241  33.397  1.00  0.00    -0.354 N 
ATOM     47  C   UNL A   1      39.792  29.397  30.195  1.00  0.00     0.074 A 
ATOM     48  C   UNL A   1      38.843  29.592  29.122  1.00  0.00     0.031 C 
ATOM     49  C   UNL A   1      38.075  33.918  34.449  1.00  0.00     0.029 A 
ATOM     50  C   UNL A   1      39.144  32.934  34.587  1.00  0.00     0.049 A 
ATOM     51  H   UNL A   1      39.742  31.513  33.185  1.00  0.00     0.167 HD
ATOM     52  C   UNL A   1      40.774  28.461  30.186  1.00  0.00     0.034 A 
ATOM     53  C   UNL A   1      39.931  32.783  35.672  1.00  0.00     0.034 A 
ATOM     54  C   UNL A   1      41.722  28.289  31.259  1.00  0.00     0.049 A 
ATOM     55  C   UNL A   1      40.992  31.710  35.654  1.00  0.00     0.074 A 
ATOM     56  C   UNL A   1      42.788  27.410  31.332  1.00  0.00     0.029 A 
ATOM     57  N   UNL A   1      41.715  29.004  32.450  1.00  0.00    -0.354 N 
ATOM     58  N   UNL A   1      41.281  30.848  34.705  1.00  0.00    -0.248 NA
ATOM     59  C   UNL A   1      41.839  31.597  36.847  1.00  0.00     0.031 C 
ATOM     60  C   UNL A   1      43.375  27.538  32.596  1.00  0.00     0.029 A 
ATOM     61  C   UNL A   1      42.734  28.561  33.277  1.00  0.00     0.049 A 
ATOM     62  H   UNL A   1      41.079  29.721  32.674  1.00  0.00     0.167 HD
ATOM     63  C   UNL A   1      42.367  30.116  35.177  1.00  0.00     0.074 A 
ATOM     64  C   UNL A   1      42.690  30.649  36.484  1.00  0.00     0.031 C 
ATOM     65  C   UNL A   1      43.041  29.097  34.583  1.00  0.00     0.034 A 
BRANCH  52  66
ATOM     66  C   UNL A   1      40.851  27.543  28.988  1.00  0.00     0.023 A 
ATOM     67  C   UNL A   1      41.804  27.731  27.971  1.00  0.00     0.031 A 
ATOM     68  C   UNL A   1      39.947  26.475  28.849  1.00  0.00     0.131 A 
ATOM     69  C   UNL A   1      41.782  26.918  26.828  1.00  0.00     0.055 A 
ATOM     70  C   UNL A   1      39.986  25.614  27.750  1.00  0.00     0.041 A 
ATOM     71  F   UNL A   1      38.998  26.256  29.774  1.00  0.00    -0.206 F 
ATOM     72  C   UNL A   1      40.898  25.843  26.723  1.00  0.00     0.022 A 
BRANCH  69  73
ATOM     73  S   UNL A   1      42.822  27.382  25.416  1.00  0.00     0.124 S 
ATOM     74  O   UNL A   1      42.796  26.159  24.618  1.00  0.00    -0.237 OA
ATOM     75  O   UNL A   1      42.107  28.524  24.859  1.00  0.00    -0.237 OA
ATOM     76  O   UNL A   1      44.113  27.690  26.028  1.00  0.00    -0.744 OA
ENDBRANCH  69  73
ENDBRANCH  52  66
BRANCH  53  77
ATOM     77  C   UNL A   1      39.748  33.652  36.871  1.00  0.00     0.023 A 
ATOM     78  C   UNL A   1      39.088  33.178  38.016  1.00  0.00     0.031 A 
ATOM     79  C   UNL A   1      40.180  34.992  36.870  1.00  0.00     0.131 A 
ATOM     80  C   UNL A   1      38.830  34.047  39.087  1.00  0.00     0.055 A 
ATOM     81  C   UNL A   1      39.977  35.835  37.964  1.00  0.00     0.041 A 
ATOM     82  F   UNL A   1      40.818  35.500  35.803  1.00  0.00    -0.206 F 
ATOM     83  C   UNL A   1      39.283  35.368  39.076  1.00  0.00     0.022 A 
BRANCH  80  84
ATOM     84  S   UNL A   1      37.795  33.455  40.455  1.00  0.00     0.124 S 
ATOM     85  O   UNL A   1      38.680  32.490  41.098  1.00  0.00    -0.237 OA
ATOM     86  O   UNL A   1      37.541  34.686  41.196  1.00  0.00    -0.237 OA
ATOM     87  O   UNL A   1      36.632  32.884  39.779  1.00  0.00    -0.744 OA
ENDBRANCH  80  84
ENDBRANCH  53  77
BRANCH  65  88
ATOM     88  C   UNL A   1      44.227  28.530  35.326  1.00  0.00     0.023 A 
ATOM     89  C   UNL A   1      44.089  27.501  36.272  1.00  0.00     0.031 A 
ATOM     90  C   UNL A   1      45.518  29.035  35.082  1.00  0.00     0.131 A 
ATOM     91  C   UNL A   1      45.211  27.052  36.986  1.00  0.00     0.055 A 
ATOM     92  C   UNL A   1      46.640  28.536  35.744  1.00  0.00     0.041 A 
ATOM     93  F   UNL A   1      45.710  30.021  34.191  1.00  0.00    -0.206 F 
ATOM     94  C   UNL A   1      46.488  27.548  36.713  1.00  0.00     0.022 A 
BRANCH  91  95
ATOM     95  S   UNL A   1      44.964  25.881  38.349  1.00  0.00     0.124 S 
ATOM     96  O   UNL A   1      44.621  24.655  37.636  1.00  0.00    -0.237 OA
ATOM     97  O   UNL A   1      46.264  25.893  39.009  1.00  0.00    -0.237 OA
ATOM     98  O   UNL A   1      43.873  26.476  39.119  1.00  0.00    -0.744 OA
ENDBRANCH  91  95
ENDBRANCH  65  88
ENDBRANCH  39  40
ENDBRANCH  31  34
ENDBRANCH  29  30
ENDBRANCH   1  29
TORSDOF 19
ENDMDL
MODEL 3
REMARK VINA RESULT:     -11.7      1.809      7.683
REMARK SMILES COCC[C@]1(C(=O)NCCCNC(=O)c2ccc(-c3c4nc(c(-c5cc(S(=O)(=O)[O-])ccc5F)c5ccc([nH]5)c(-c5cc(S(=O)(=O)[O-])ccc5F)c5nc(c(-c6cc(S(=O)(=O)[O-])ccc6F)c6ccc3[nH]6)C=C5)C=C4)cc2)CCC[N@@H+](Cc2ccc(C(F)(F)F)nc2)C1
REMARK SMILES IDX 10 1 9 2 8 3 6 4 7 5 5 7 78 8 93 9 79 10 81 11 80 12 4 14
REMARK SMILES IDX 3 15 2 16 1 17 82 18 83 19 84 20 92 21 85 22 91 23 86 24
REMARK SMILES IDX 87 25 88 26 89 27 90 28 11 29 12 30 13 31 14 33 15 34 16 35
REMARK SMILES IDX 77 36 17 37 76 38 18 39 19 40 20 41 70 42 21 43 75 44 69 45
REMARK SMILES IDX 71 46 22 47 74 48 68 49 67 50 23 52 55 53 35 54 54 55 36 56
REMARK SMILES IDX 39 57 53 58 72 59 37 60 38 61 52 63 73 64 40 65 24 66 25 67
REMARK SMILES IDX 33 68 26 69 32 70 34 71 31 72 27 73 28 74 29 75 30 76 56 77
REMARK SMILES IDX 57 78 65 79 58 80 64 81 66 82 63 83 59 84 60 85 61 86 62 87
REMARK SMILES IDX 41 88 42 89 50 90 43 91 49 92 51 93 48 94 44 95 45 96 46 97
REMARK SMILES IDX 47 98
REMARK H PARENT 8 6 81 13 12 32 71 51 39 62
REMARK Flexibility Score: inf
ROOT
ATOM      1  C   UNL A   1      31.377  31.889  26.474  1.00  0.00     0.042 C 
ENDROOT
BRANCH   1   2
ATOM      2  C   UNL A   1      31.540  30.543  25.793  1.00  0.00     0.117 C 
BRANCH   2   3
ATOM      3  N   UNL A   1      32.818  29.919  26.107  1.00  0.00    -0.355 N 
ATOM      4  C   UNL A   1      33.340  28.684  25.874  1.00  0.00     0.232 C 
ATOM      5  O   UNL A   1      34.391  28.446  26.477  1.00  0.00    -0.274 OA
ATOM      6  H   UNL A   1      33.434  30.517  26.588  1.00  0.00     0.163 HD
BRANCH   4   7
ATOM      7  C   UNL A   1      32.657  27.636  24.969  1.00  0.00     0.100 C 
ATOM      8  C   UNL A   1      32.056  28.409  23.762  1.00  0.00     0.029 C 
ATOM      9  C   UNL A   1      33.659  26.567  24.489  1.00  0.00     0.279 C 
ATOM     10  C   UNL A   1      31.679  27.505  22.589  1.00  0.00     0.063 C 
ATOM     11  N   UNL A   1      33.158  25.702  23.412  1.00  0.00    -0.330 N 
ATOM     12  C   UNL A   1      32.784  26.507  22.240  1.00  0.00     0.262 C 
ATOM     13  H   UNL A   1      32.312  25.237  23.743  1.00  0.00     0.348 HD
BRANCH   7  14
ATOM     14  C   UNL A   1      31.482  26.951  25.751  1.00  0.00     0.051 C 
BRANCH  14  15
ATOM     15  C   UNL A   1      31.737  25.569  26.378  1.00  0.00     0.161 C 
BRANCH  15  16
ATOM     16  O   UNL A   1      31.208  24.478  25.636  1.00  0.00    -0.385 OA
ATOM     17  C   UNL A   1      31.072  23.263  26.354  1.00  0.00     0.194 C 
ENDBRANCH  15  16
ENDBRANCH  14  15
ENDBRANCH   7  14
BRANCH  11  18
ATOM     18  C   UNL A   1      34.109  24.616  23.085  1.00  0.00     0.300 C 
BRANCH  18  19
ATOM     19  C   UNL A   1      33.759  23.240  23.605  1.00  0.00     0.025 A 
ATOM     20  C   UNL A   1      34.471  22.630  24.642  1.00  0.00     0.013 A 
ATOM     21  C   UNL A   1      32.749  22.494  23.014  1.00  0.00     0.121 A 
ATOM     22  C   UNL A   1      34.230  21.298  24.969  1.00  0.00     0.034 A 
ATOM     23  N   UNL A   1      32.468  21.210  23.331  1.00  0.00    -0.251 NA
ATOM     24  C   UNL A   1      33.237  20.601  24.281  1.00  0.00     0.144 A 
BRANCH  24  25
ATOM     25  C   UNL A   1      33.000  19.128  24.590  1.00  0.00     0.433 C 
ATOM     26  F   UNL A   1      31.995  18.587  23.844  1.00  0.00    -0.165 F 
ATOM     27  F   UNL A   1      34.098  18.349  24.373  1.00  0.00    -0.165 F 
ATOM     28  F   UNL A   1      32.647  18.906  25.891  1.00  0.00    -0.165 F 
ENDBRANCH  24  25
ENDBRANCH  18  19
ENDBRANCH  11  18
ENDBRANCH   4   7
ENDBRANCH   2   3
ENDBRANCH   1   2
BRANCH   1  29
ATOM     29  C   UNL A   1      32.618  32.356  27.214  1.00  0.00     0.118 C 
BRANCH  29  30
ATOM     30  N   UNL A   1      32.575  33.774  27.538  1.00  0.00    -0.352 N 
ATOM     31  C   UNL A   1      33.279  34.482  28.486  1.00  0.00     0.251 C 
ATOM     32  H   UNL A   1      31.949  34.309  26.998  1.00  0.00     0.163 HD
ATOM     33  O   UNL A   1      32.944  35.629  28.751  1.00  0.00    -0.269 OA
BRANCH  31  34
ATOM     34  C   UNL A   1      34.410  33.840  29.195  1.00  0.00     0.039 A 
ATOM     35  C   UNL A   1      34.149  32.866  30.160  1.00  0.00     0.014 A 
ATOM     36  C   UNL A   1      35.729  34.191  28.897  1.00  0.00     0.014 A 
ATOM     37  C   UNL A   1      35.213  32.190  30.764  1.00  0.00     0.010 A 
ATOM     38  C   UNL A   1      36.779  33.440  29.411  1.00  0.00     0.010 A 
ATOM     39  C   UNL A   1      36.535  32.440  30.362  1.00  0.00    -0.014 A 
BRANCH  39  40
ATOM     40  C   UNL A   1      37.682  31.687  30.937  1.00  0.00     0.031 A 
ATOM     41  C   UNL A   1      38.147  31.985  32.338  1.00  0.00     0.074 A 
ATOM     42  C   UNL A   1      38.340  30.785  30.181  1.00  0.00     0.049 A 
ATOM     43  N   UNL A   1      39.176  31.506  32.989  1.00  0.00    -0.248 NA
ATOM     44  C   UNL A   1      37.373  32.983  33.093  1.00  0.00     0.031 C 
ATOM     45  C   UNL A   1      38.010  30.438  28.795  1.00  0.00     0.029 A 
ATOM     46  N   UNL A   1      39.428  29.998  30.465  1.00  0.00    -0.354 N 
ATOM     47  C   UNL A   1      39.178  32.152  34.221  1.00  0.00     0.074 A 
ATOM     48  C   UNL A   1      38.095  33.110  34.195  1.00  0.00     0.031 C 
ATOM     49  C   UNL A   1      38.853  29.486  28.366  1.00  0.00     0.029 A 
ATOM     50  C   UNL A   1      39.820  29.193  29.419  1.00  0.00     0.049 A 
ATOM     51  H   UNL A   1      39.887  30.008  31.336  1.00  0.00     0.167 HD
ATOM     52  C   UNL A   1      39.990  31.945  35.287  1.00  0.00     0.034 A 
ATOM     53  C   UNL A   1      40.850  28.328  29.314  1.00  0.00     0.034 A 
ATOM     54  C   UNL A   1      41.057  30.974  35.301  1.00  0.00     0.049 A 
ATOM     55  C   UNL A   1      41.763  28.142  30.501  1.00  0.00     0.074 A 
ATOM     56  C   UNL A   1      41.907  30.644  36.342  1.00  0.00     0.029 A 
ATOM     57  N   UNL A   1      41.428  30.183  34.221  1.00  0.00    -0.354 N 
ATOM     58  N   UNL A   1      41.719  28.724  31.679  1.00  0.00    -0.248 NA
ATOM     59  C   UNL A   1      42.857  27.175  30.350  1.00  0.00     0.031 C 
ATOM     60  C   UNL A   1      42.838  29.714  35.869  1.00  0.00     0.029 A 
ATOM     61  C   UNL A   1      42.515  29.394  34.560  1.00  0.00     0.049 A 
ATOM     62  H   UNL A   1      40.983  30.183  33.342  1.00  0.00     0.167 HD
ATOM     63  C   UNL A   1      42.759  28.165  32.416  1.00  0.00     0.074 A 
ATOM     64  C   UNL A   1      43.398  27.190  31.558  1.00  0.00     0.031 C 
ATOM     65  C   UNL A   1      43.148  28.430  33.691  1.00  0.00     0.034 A 
BRANCH  52  66
ATOM     66  C   UNL A   1      39.765  32.800  36.512  1.00  0.00     0.023 A 
ATOM     67  C   UNL A   1      38.937  32.378  37.568  1.00  0.00     0.031 A 
ATOM     68  C   UNL A   1      40.369  34.065  36.619  1.00  0.00     0.131 A 
ATOM     69  C   UNL A   1      38.674  33.240  38.642  1.00  0.00     0.055 A 
ATOM     70  C   UNL A   1      40.174  34.884  37.734  1.00  0.00     0.041 A 
ATOM     71  F   UNL A   1      41.152  34.536  35.634  1.00  0.00    -0.206 F 
ATOM     72  C   UNL A   1      39.309  34.479  38.747  1.00  0.00     0.022 A 
BRANCH  69  73
ATOM     73  S   UNL A   1      37.375  32.782  39.821  1.00  0.00     0.124 S 
ATOM     74  O   UNL A   1      37.882  31.513  40.339  1.00  0.00    -0.237 OA
ATOM     75  O   UNL A   1      37.384  33.903  40.754  1.00  0.00    -0.237 OA
ATOM     76  O   UNL A   1      36.179  32.672  38.988  1.00  0.00    -0.744 OA
ENDBRANCH  69  73
ENDBRANCH  52  66
BRANCH  53  77
ATOM     77  C   UNL A   1      41.089  27.580  28.045  1.00  0.00     0.023 A 
ATOM     78  C   UNL A   1      40.823  26.204  27.955  1.00  0.00     0.031 A 
ATOM     79  C   UNL A   1      41.641  28.218  26.919  1.00  0.00     0.131 A 
ATOM     80  C   UNL A   1      41.160  25.500  26.788  1.00  0.00     0.055 A 
ATOM     81  C   UNL A   1      41.916  27.525  25.739  1.00  0.00     0.041 A 
ATOM     82  F   UNL A   1      41.914  29.532  26.948  1.00  0.00    -0.206 F 
ATOM     83  C   UNL A   1      41.691  26.154  25.674  1.00  0.00     0.022 A 
BRANCH  80  84
ATOM     84  S   UNL A   1      40.996  23.694  26.787  1.00  0.00     0.124 S 
ATOM     85  O   UNL A   1      41.965  23.310  25.765  1.00  0.00    -0.237 OA
ATOM     86  O   UNL A   1      41.348  23.357  28.162  1.00  0.00    -0.237 OA
ATOM     87  O   UNL A   1      39.596  23.479  26.432  1.00  0.00    -0.744 OA
ENDBRANCH  80  84
ENDBRANCH  53  77
BRANCH  65  88
ATOM     88  C   UNL A   1      44.290  27.612  34.246  1.00  0.00     0.023 A 
ATOM     89  C   UNL A   1      44.083  26.361  34.851  1.00  0.00     0.031 A 
ATOM     90  C   UNL A   1      45.609  28.100  34.170  1.00  0.00     0.131 A 
ATOM     91  C   UNL A   1      45.167  25.668  35.412  1.00  0.00     0.055 A 
ATOM     92  C   UNL A   1      46.691  27.374  34.667  1.00  0.00     0.041 A 
ATOM     93  F   UNL A   1      45.865  29.290  33.605  1.00  0.00    -0.206 F 
ATOM     94  C   UNL A   1      46.471  26.156  35.305  1.00  0.00     0.022 A 
BRANCH  91  95
ATOM     95  S   UNL A   1      44.836  24.167  36.374  1.00  0.00     0.124 S 
ATOM     96  O   UNL A   1      44.413  24.717  37.658  1.00  0.00    -0.237 OA
ATOM     97  O   UNL A   1      43.797  23.514  35.587  1.00  0.00    -0.237 OA
ATOM     98  O   UNL A   1      46.126  23.478  36.390  1.00  0.00    -0.744 OA
ENDBRANCH  91  95
ENDBRANCH  65  88
ENDBRANCH  39  40
ENDBRANCH  31  34
ENDBRANCH  29  30
ENDBRANCH   1  29
TORSDOF 19
ENDMDL
