MODEL 1
REMARK VINA RESULT:     -14.6      0.000      0.000
REMARK SMILES Cc1c(C[N@H+]2CC[C@@H](C(=O)NCCCNC(=O)c3ccc(-c4c5nc(c(-c6cc(S(=O)(=O)[O-])ccc6F)c6ccc([nH]6)c(-c6cc(S(=O)(=O)[O-])ccc6F)c6nc(c(-c7cc(S(=O)(=O)[O-])ccc7F)c7ccc4[nH]7)C=C6)C=C5)cc3)[C@@H]2C)cccc1[N+](=O)[O-]
REMARK SMILES IDX 13 1 12 2 11 3 9 4 10 5 8 7 5 8 6 9 81 10 7 12 82 13 4 14
REMARK SMILES IDX 3 15 1 16 2 17 86 18 83 19 85 20 84 21 87 22 88 23 89 24
REMARK SMILES IDX 14 25 15 26 16 27 17 29 18 30 19 31 80 32 20 33 79 34 21 35
REMARK SMILES IDX 22 36 23 37 73 38 24 39 78 40 72 41 74 42 25 43 77 44 71 45
REMARK SMILES IDX 70 46 26 48 58 49 38 50 57 51 39 52 42 53 56 54 75 55 40 56
REMARK SMILES IDX 41 57 55 59 76 60 43 61 27 62 28 63 36 64 29 65 35 66 37 67
REMARK SMILES IDX 34 68 30 69 31 70 32 71 33 72 59 73 60 74 68 75 61 76 67 77
REMARK SMILES IDX 69 78 66 79 62 80 63 81 64 82 65 83 44 84 45 85 53 86 46 87
REMARK SMILES IDX 52 88 54 89 51 90 47 91 48 92 49 93 50 94
REMARK H PARENT 11 6 5 11 15 28 74 47 42 58
REMARK Flexibility Score: inf
ROOT
ATOM      1  C   UNL A   1      32.098  30.861  26.780  1.00  0.00     0.042 C 
ENDROOT
BRANCH   1   2
ATOM      2  C   UNL A   1      31.073  30.314  24.922  1.00  0.00     0.117 C 
BRANCH   2   3
ATOM      3  N   UNL A   1      31.478  29.312  23.710  1.00  0.00    -0.356 N 
ATOM      4  C   UNL A   1      31.867  28.015  23.599  1.00  0.00     0.229 C 
ATOM      5  O   UNL A   1      32.108  27.592  22.461  1.00  0.00    -0.275 OA
ATOM      6  H   UNL A   1      31.430  29.758  22.833  1.00  0.00     0.163 HD
BRANCH   4   7
ATOM      7  C   UNL A   1      32.057  27.066  24.777  1.00  0.00     0.142 C 
ATOM      8  N   UNL A   1      33.286  24.986  24.704  1.00  0.00    -0.328 N 
ATOM      9  C   UNL A   1      34.073  25.937  25.496  1.00  0.00     0.263 C 
ATOM     10  C   UNL A   1      31.983  25.592  24.400  1.00  0.00     0.193 C 
ATOM     11  H   UNL A   1      33.159  24.154  25.279  1.00  0.00     0.348 HD
ATOM     12  C   UNL A   1      33.349  27.274  25.537  1.00  0.00     0.081 C 
ATOM     13  C   UNL A   1      30.909  24.815  25.160  1.00  0.00     0.076 C 
BRANCH   8  14
ATOM     14  C   UNL A   1      33.956  24.442  23.514  1.00  0.00     0.299 C 
BRANCH  14  15
ATOM     15  C   UNL A   1      34.655  23.125  23.743  1.00  0.00     0.016 A 
ATOM     16  C   UNL A   1      32.211  21.629  23.696  1.00  0.00     0.052 C 
ATOM     17  C   UNL A   1      33.653  21.667  24.109  1.00  0.00     0.036 A 
ATOM     18  C   UNL A   1      34.451  20.167  24.700  1.00  0.00     0.272 A 
ATOM     19  C   UNL A   1      36.461  23.058  23.918  1.00  0.00     0.010 A 
ATOM     20  C   UNL A   1      36.237  20.097  24.923  1.00  0.00     0.086 A 
ATOM     21  C   UNL A   1      37.250  21.548  24.518  1.00  0.00     0.008 A 
BRANCH  18  22
ATOM     22  N   UNL A   1      33.627  18.988  24.745  1.00  0.00     0.062 N 
ATOM     23  O   UNL A   1      32.990  18.828  25.797  1.00  0.00    -0.258 OA
ATOM     24  O   UNL A   1      33.868  18.125  23.888  1.00  0.00    -0.258 OA
ENDBRANCH  18  22
ENDBRANCH  14  15
ENDBRANCH   8  14
ENDBRANCH   4   7
ENDBRANCH   2   3
ENDBRANCH   1   2
BRANCH   1  25
ATOM     25  C   UNL A   1      33.579  30.417  27.498  1.00  0.00     0.118 C 
BRANCH  25  26
ATOM     26  N   UNL A   1      34.292  31.456  28.261  1.00  0.00    -0.352 N 
ATOM     27  C   UNL A   1      35.514  31.341  28.919  1.00  0.00     0.251 C 
ATOM     28  H   UNL A   1      33.854  32.336  28.311  1.00  0.00     0.163 HD
ATOM     29  O   UNL A   1      36.019  32.285  29.518  1.00  0.00    -0.269 OA
BRANCH  27  30
ATOM     30  C   UNL A   1      36.294  30.090  28.751  1.00  0.00     0.039 A 
ATOM     31  C   UNL A   1      36.659  29.433  29.933  1.00  0.00     0.014 A 
ATOM     32  C   UNL A   1      37.014  29.901  27.579  1.00  0.00     0.014 A 
ATOM     33  C   UNL A   1      37.935  28.905  30.028  1.00  0.00     0.010 A 
ATOM     34  C   UNL A   1      38.333  29.559  27.721  1.00  0.00     0.010 A 
ATOM     35  C   UNL A   1      38.801  29.131  28.967  1.00  0.00    -0.014 A 
BRANCH  35  36
ATOM     36  C   UNL A   1      40.198  28.767  28.976  1.00  0.00     0.031 A 
ATOM     37  C   UNL A   1      40.440  27.325  28.819  1.00  0.00     0.074 A 
ATOM     38  C   UNL A   1      41.144  29.729  29.024  1.00  0.00     0.049 A 
ATOM     39  N   UNL A   1      41.486  26.707  29.217  1.00  0.00    -0.248 NA
ATOM     40  C   UNL A   1      39.415  26.423  28.282  1.00  0.00     0.031 C 
ATOM     41  C   UNL A   1      42.578  29.606  28.778  1.00  0.00     0.029 A 
ATOM     42  N   UNL A   1      40.991  31.028  29.528  1.00  0.00    -0.354 N 
ATOM     43  C   UNL A   1      41.409  25.417  28.733  1.00  0.00     0.074 A 
ATOM     44  C   UNL A   1      40.056  25.256  28.286  1.00  0.00     0.031 C 
ATOM     45  C   UNL A   1      43.206  30.643  29.365  1.00  0.00     0.029 A 
ATOM     46  C   UNL A   1      42.213  31.364  30.148  1.00  0.00     0.049 A 
ATOM     47  H   UNL A   1      40.188  31.594  29.462  1.00  0.00     0.167 HD
ATOM     48  C   UNL A   1      42.561  24.706  28.625  1.00  0.00     0.034 A 
ATOM     49  C   UNL A   1      42.271  31.515  31.506  1.00  0.00     0.034 A 
ATOM     50  C   UNL A   1      43.647  25.459  29.256  1.00  0.00     0.049 A 
ATOM     51  C   UNL A   1      43.080  30.449  32.190  1.00  0.00     0.074 A 
ATOM     52  C   UNL A   1      44.567  26.360  28.748  1.00  0.00     0.029 A 
ATOM     53  N   UNL A   1      43.594  25.676  30.626  1.00  0.00    -0.354 N 
ATOM     54  N   UNL A   1      43.381  29.295  31.660  1.00  0.00    -0.248 NA
ATOM     55  C   UNL A   1      43.611  30.621  33.534  1.00  0.00     0.031 C 
ATOM     56  C   UNL A   1      44.974  27.202  29.820  1.00  0.00     0.029 A 
ATOM     57  C   UNL A   1      44.350  26.775  30.983  1.00  0.00     0.049 A 
ATOM     58  H   UNL A   1      43.083  25.120  31.259  1.00  0.00     0.167 HD
ATOM     59  C   UNL A   1      44.066  28.546  32.579  1.00  0.00     0.074 A 
ATOM     60  C   UNL A   1      44.249  29.453  33.701  1.00  0.00     0.031 C 
ATOM     61  C   UNL A   1      44.376  27.228  32.368  1.00  0.00     0.034 A 
BRANCH  48  62
ATOM     62  C   UNL A   1      42.789  23.520  27.718  1.00  0.00     0.023 A 
ATOM     63  C   UNL A   1      43.776  23.652  26.721  1.00  0.00     0.031 A 
ATOM     64  C   UNL A   1      42.074  22.303  27.689  1.00  0.00     0.131 A 
ATOM     65  C   UNL A   1      43.977  22.666  25.740  1.00  0.00     0.055 A 
ATOM     66  C   UNL A   1      42.265  21.323  26.704  1.00  0.00     0.041 A 
ATOM     67  F   UNL A   1      41.167  21.974  28.613  1.00  0.00    -0.206 F 
ATOM     68  C   UNL A   1      43.218  21.503  25.717  1.00  0.00     0.022 A 
BRANCH  65  69
ATOM     69  S   UNL A   1      45.243  22.949  24.478  1.00  0.00     0.124 S 
ATOM     70  O   UNL A   1      44.609  22.402  23.283  1.00  0.00    -0.237 OA
ATOM     71  O   UNL A   1      45.405  24.398  24.523  1.00  0.00    -0.237 OA
ATOM     72  O   UNL A   1      46.388  22.185  24.973  1.00  0.00    -0.744 OA
ENDBRANCH  65  69
ENDBRANCH  48  62
BRANCH  49  73
ATOM     73  C   UNL A   1      41.041  32.125  32.082  1.00  0.00     0.023 A 
ATOM     74  C   UNL A   1      40.195  31.274  32.810  1.00  0.00     0.031 A 
ATOM     75  C   UNL A   1      40.991  33.502  32.341  1.00  0.00     0.131 A 
ATOM     76  C   UNL A   1      39.500  31.776  33.915  1.00  0.00     0.055 A 
ATOM     77  C   UNL A   1      40.285  33.997  33.441  1.00  0.00     0.041 A 
ATOM     78  F   UNL A   1      41.752  34.357  31.643  1.00  0.00    -0.206 F 
ATOM     79  C   UNL A   1      39.595  33.124  34.277  1.00  0.00     0.022 A 
BRANCH  76  80
ATOM     80  S   UNL A   1      38.671  30.592  35.000  1.00  0.00     0.124 S 
ATOM     81  O   UNL A   1      39.766  30.091  35.820  1.00  0.00    -0.237 OA
ATOM     82  O   UNL A   1      37.681  31.426  35.678  1.00  0.00    -0.237 OA
ATOM     83  O   UNL A   1      38.096  29.645  34.055  1.00  0.00    -0.744 OA
ENDBRANCH  76  80
ENDBRANCH  49  73
BRANCH  61  84
ATOM     84  C   UNL A   1      44.794  26.282  33.474  1.00  0.00     0.023 A 
ATOM     85  C   UNL A   1      44.008  26.081  34.613  1.00  0.00     0.031 A 
ATOM     86  C   UNL A   1      45.977  25.511  33.418  1.00  0.00     0.131 A 
ATOM     87  C   UNL A   1      44.479  25.350  35.708  1.00  0.00     0.055 A 
ATOM     88  C   UNL A   1      46.375  24.655  34.451  1.00  0.00     0.041 A 
ATOM     89  F   UNL A   1      46.799  25.540  32.360  1.00  0.00    -0.206 F 
ATOM     90  C   UNL A   1      45.650  24.609  35.631  1.00  0.00     0.022 A 
BRANCH  87  91
ATOM     91  S   UNL A   1      43.590  25.549  37.270  1.00  0.00     0.124 S 
ATOM     92  O   UNL A   1      42.306  24.922  36.961  1.00  0.00    -0.237 OA
ATOM     93  O   UNL A   1      44.436  24.820  38.210  1.00  0.00    -0.237 OA
ATOM     94  O   UNL A   1      43.547  26.996  37.457  1.00  0.00    -0.744 OA
ENDBRANCH  87  91
ENDBRANCH  61  84
ENDBRANCH  35  36
ENDBRANCH  27  30
ENDBRANCH  25  26
ENDBRANCH   1  25
TORSDOF 16
ENDMDL
MODEL 2
REMARK VINA RESULT:     -14.4      2.750      3.323
REMARK SMILES Cc1c(C[N@H+]2CC[C@@H](C(=O)NCCCNC(=O)c3ccc(-c4c5nc(c(-c6cc(S(=O)(=O)[O-])ccc6F)c6ccc([nH]6)c(-c6cc(S(=O)(=O)[O-])ccc6F)c6nc(c(-c7cc(S(=O)(=O)[O-])ccc7F)c7ccc4[nH]7)C=C6)C=C5)cc3)[C@@H]2C)cccc1[N+](=O)[O-]
REMARK SMILES IDX 13 1 12 2 11 3 9 4 10 5 8 7 5 8 6 9 81 10 7 12 82 13 4 14
REMARK SMILES IDX 3 15 1 16 2 17 86 18 83 19 85 20 84 21 87 22 88 23 89 24
REMARK SMILES IDX 14 25 15 26 16 27 17 29 18 30 19 31 80 32 20 33 79 34 21 35
REMARK SMILES IDX 22 36 23 37 73 38 24 39 78 40 72 41 74 42 25 43 77 44 71 45
REMARK SMILES IDX 70 46 26 48 58 49 38 50 57 51 39 52 42 53 56 54 75 55 40 56
REMARK SMILES IDX 41 57 55 59 76 60 43 61 27 62 28 63 36 64 29 65 35 66 37 67
REMARK SMILES IDX 34 68 30 69 31 70 32 71 33 72 59 73 60 74 68 75 61 76 67 77
REMARK SMILES IDX 69 78 66 79 62 80 63 81 64 82 65 83 44 84 45 85 53 86 46 87
REMARK SMILES IDX 52 88 54 89 51 90 47 91 48 92 49 93 50 94
REMARK H PARENT 11 6 5 11 15 28 74 47 42 58
REMARK Flexibility Score: inf
ROOT
ATOM      1  C   UNL A   1      33.016  30.393  27.273  1.00  0.00     0.042 C 
ENDROOT
BRANCH   1   2
ATOM      2  C   UNL A   1      31.829  30.347  25.431  1.00  0.00     0.117 C 
BRANCH   2   3
ATOM      3  N   UNL A   1      31.880  29.380  24.127  1.00  0.00    -0.356 N 
ATOM      4  C   UNL A   1      31.321  28.197  23.762  1.00  0.00     0.229 C 
ATOM      5  O   UNL A   1      31.619  27.752  22.646  1.00  0.00    -0.275 OA
ATOM      6  H   UNL A   1      32.465  29.745  23.423  1.00  0.00     0.163 HD
BRANCH   4   7
ATOM      7  C   UNL A   1      30.388  27.374  24.642  1.00  0.00     0.142 C 
ATOM      8  N   UNL A   1      30.060  24.985  24.470  1.00  0.00    -0.328 N 
ATOM      9  C   UNL A   1      30.808  25.241  25.706  1.00  0.00     0.263 C 
ATOM     10  C   UNL A   1      29.647  26.272  23.896  1.00  0.00     0.193 C 
ATOM     11  H   UNL A   1      29.240  24.438  24.727  1.00  0.00     0.348 HD
ATOM     12  C   UNL A   1      31.067  26.733  25.834  1.00  0.00     0.081 C 
ATOM     13  C   UNL A   1      28.126  26.373  24.000  1.00  0.00     0.076 C 
BRANCH   8  14
ATOM     14  C   UNL A   1      30.725  24.109  23.495  1.00  0.00     0.299 C 
BRANCH  14  15
ATOM     15  C   UNL A   1      31.891  23.332  24.051  1.00  0.00     0.016 A 
ATOM     16  C   UNL A   1      33.820  25.239  23.125  1.00  0.00     0.052 C 
ATOM     17  C   UNL A   1      33.564  23.837  23.592  1.00  0.00     0.036 A 
ATOM     18  C   UNL A   1      34.951  22.754  23.967  1.00  0.00     0.272 A 
ATOM     19  C   UNL A   1      31.620  21.770  24.935  1.00  0.00     0.010 A 
ATOM     20  C   UNL A   1      34.696  21.179  24.803  1.00  0.00     0.086 A 
ATOM     21  C   UNL A   1      33.021  20.689  25.301  1.00  0.00     0.008 A 
BRANCH  18  22
ATOM     22  N   UNL A   1      36.262  23.321  23.785  1.00  0.00     0.062 N 
ATOM     23  O   UNL A   1      36.830  23.010  22.727  1.00  0.00    -0.258 OA
ATOM     24  O   UNL A   1      36.795  23.790  24.801  1.00  0.00    -0.258 OA
ENDBRANCH  18  22
ENDBRANCH  14  15
ENDBRANCH   8  14
ENDBRANCH   4   7
ENDBRANCH   2   3
ENDBRANCH   1   2
BRANCH   1  25
ATOM     25  C   UNL A   1      34.626  29.992  27.660  1.00  0.00     0.118 C 
BRANCH  25  26
ATOM     26  N   UNL A   1      35.351  30.915  28.552  1.00  0.00    -0.352 N 
ATOM     27  C   UNL A   1      36.554  30.689  29.216  1.00  0.00     0.251 C 
ATOM     28  H   UNL A   1      34.937  31.796  28.694  1.00  0.00     0.163 HD
ATOM     29  O   UNL A   1      37.071  31.542  29.929  1.00  0.00    -0.269 OA
BRANCH  27  30
ATOM     30  C   UNL A   1      37.302  29.442  28.921  1.00  0.00     0.039 A 
ATOM     31  C   UNL A   1      37.572  28.616  30.019  1.00  0.00     0.014 A 
ATOM     32  C   UNL A   1      38.086  29.386  27.777  1.00  0.00     0.014 A 
ATOM     33  C   UNL A   1      38.822  28.028  30.113  1.00  0.00     0.010 A 
ATOM     34  C   UNL A   1      39.383  28.975  27.945  1.00  0.00     0.010 A 
ATOM     35  C   UNL A   1      39.759  28.362  29.144  1.00  0.00    -0.014 A 
BRANCH  35  36
ATOM     36  C   UNL A   1      41.140  27.944  29.181  1.00  0.00     0.031 A 
ATOM     37  C   UNL A   1      41.360  26.568  28.712  1.00  0.00     0.074 A 
ATOM     38  C   UNL A   1      42.101  28.827  29.530  1.00  0.00     0.049 A 
ATOM     39  N   UNL A   1      42.352  25.829  29.039  1.00  0.00    -0.248 NA
ATOM     40  C   UNL A   1      40.367  25.861  27.897  1.00  0.00     0.031 C 
ATOM     41  C   UNL A   1      43.547  28.700  29.381  1.00  0.00     0.029 A 
ATOM     42  N   UNL A   1      41.935  29.979  30.310  1.00  0.00    -0.354 N 
ATOM     43  C   UNL A   1      42.287  24.691  28.261  1.00  0.00     0.074 A 
ATOM     44  C   UNL A   1      40.976  24.697  27.680  1.00  0.00     0.031 C 
ATOM     45  C   UNL A   1      44.145  29.545  30.244  1.00  0.00     0.029 A 
ATOM     46  C   UNL A   1      43.104  30.109  31.090  1.00  0.00     0.049 A 
ATOM     47  H   UNL A   1      41.155  30.580  30.313  1.00  0.00     0.167 HD
ATOM     48  C   UNL A   1      43.427  23.973  28.084  1.00  0.00     0.034 A 
ATOM     49  C   UNL A   1      43.043  29.939  32.445  1.00  0.00     0.034 A 
ATOM     50  C   UNL A   1      44.469  24.511  28.960  1.00  0.00     0.049 A 
ATOM     51  C   UNL A   1      43.761  28.709  32.924  1.00  0.00     0.074 A 
ATOM     52  C   UNL A   1      45.453  25.463  28.754  1.00  0.00     0.029 A 
ATOM     53  N   UNL A   1      44.299  24.408  30.334  1.00  0.00    -0.354 N 
ATOM     54  N   UNL A   1      44.081  27.696  32.165  1.00  0.00    -0.248 NA
ATOM     55  C   UNL A   1      44.174  28.542  34.310  1.00  0.00     0.031 C 
ATOM     56  C   UNL A   1      45.782  26.017  30.023  1.00  0.00     0.029 A 
ATOM     57  C   UNL A   1      45.046  25.360  30.999  1.00  0.00     0.049 A 
ATOM     58  H   UNL A   1      43.720  23.744  30.776  1.00  0.00     0.167 HD
ATOM     59  C   UNL A   1      44.662  26.725  32.936  1.00  0.00     0.074 A 
ATOM     60  C   UNL A   1      44.765  27.340  34.251  1.00  0.00     0.031 C 
ATOM     61  C   UNL A   1      44.958  25.480  32.449  1.00  0.00     0.034 A 
BRANCH  48  62
ATOM     62  C   UNL A   1      43.706  23.020  26.946  1.00  0.00     0.023 A 
ATOM     63  C   UNL A   1      43.071  21.762  26.991  1.00  0.00     0.031 A 
ATOM     64  C   UNL A   1      44.596  23.199  25.866  1.00  0.00     0.131 A 
ATOM     65  C   UNL A   1      43.362  20.751  26.059  1.00  0.00     0.055 A 
ATOM     66  C   UNL A   1      44.896  22.188  24.942  1.00  0.00     0.041 A 
ATOM     67  F   UNL A   1      45.212  24.358  25.620  1.00  0.00    -0.206 F 
ATOM     68  C   UNL A   1      44.283  20.951  25.038  1.00  0.00     0.022 A 
BRANCH  65  69
ATOM     69  S   UNL A   1      42.523  19.156  26.227  1.00  0.00     0.124 S 
ATOM     70  O   UNL A   1      41.345  19.343  25.386  1.00  0.00    -0.237 OA
ATOM     71  O   UNL A   1      43.532  18.225  25.735  1.00  0.00    -0.237 OA
ATOM     72  O   UNL A   1      42.250  19.069  27.661  1.00  0.00    -0.744 OA
ENDBRANCH  65  69
ENDBRANCH  48  62
BRANCH  49  73
ATOM     73  C   UNL A   1      41.781  30.453  33.045  1.00  0.00     0.023 A 
ATOM     74  C   UNL A   1      41.602  31.845  33.046  1.00  0.00     0.031 A 
ATOM     75  C   UNL A   1      40.646  29.631  33.111  1.00  0.00     0.131 A 
ATOM     76  C   UNL A   1      40.317  32.373  32.885  1.00  0.00     0.055 A 
ATOM     77  C   UNL A   1      39.365  30.168  32.961  1.00  0.00     0.041 A 
ATOM     78  F   UNL A   1      40.770  28.297  33.153  1.00  0.00    -0.206 F 
ATOM     79  C   UNL A   1      39.201  31.538  32.773  1.00  0.00     0.022 A 
BRANCH  76  80
ATOM     80  S   UNL A   1      40.166  34.149  32.585  1.00  0.00     0.124 S 
ATOM     81  O   UNL A   1      39.477  34.198  31.304  1.00  0.00    -0.237 OA
ATOM     82  O   UNL A   1      39.407  34.601  33.750  1.00  0.00    -0.237 OA
ATOM     83  O   UNL A   1      41.555  34.589  32.580  1.00  0.00    -0.744 OA
ENDBRANCH  76  80
ENDBRANCH  49  73
BRANCH  61  84
ATOM     84  C   UNL A   1      45.252  24.286  33.333  1.00  0.00     0.023 A 
ATOM     85  C   UNL A   1      46.488  24.118  33.965  1.00  0.00     0.031 A 
ATOM     86  C   UNL A   1      44.295  23.285  33.613  1.00  0.00     0.131 A 
ATOM     87  C   UNL A   1      46.817  22.932  34.629  1.00  0.00     0.055 A 
ATOM     88  C   UNL A   1      44.574  22.168  34.410  1.00  0.00     0.041 A 
ATOM     89  F   UNL A   1      43.043  23.341  33.140  1.00  0.00    -0.206 F 
ATOM     90  C   UNL A   1      45.860  21.959  34.882  1.00  0.00     0.022 A 
BRANCH  87  91
ATOM     91  S   UNL A   1      48.567  22.652  34.990  1.00  0.00     0.124 S 
ATOM     92  O   UNL A   1      49.177  23.866  34.449  1.00  0.00    -0.237 OA
ATOM     93  O   UNL A   1      48.574  22.538  36.445  1.00  0.00    -0.237 OA
ATOM     94  O   UNL A   1      48.874  21.425  34.263  1.00  0.00    -0.744 OA
ENDBRANCH  87  91
ENDBRANCH  61  84
ENDBRANCH  35  36
ENDBRANCH  27  30
ENDBRANCH  25  26
ENDBRANCH   1  25
TORSDOF 16
ENDMDL
MODEL 3
REMARK VINA RESULT:     -14.4      4.075      9.401
REMARK SMILES Cc1c(C[N@H+]2CC[C@@H](C(=O)NCCCNC(=O)c3ccc(-c4c5nc(c(-c6cc(S(=O)(=O)[O-])ccc6F)c6ccc([nH]6)c(-c6cc(S(=O)(=O)[O-])ccc6F)c6nc(c(-c7cc(S(=O)(=O)[O-])ccc7F)c7ccc4[nH]7)C=C6)C=C5)cc3)[C@@H]2C)cccc1[N+](=O)[O-]
REMARK SMILES IDX 13 1 12 2 11 3 9 4 10 5 8 7 5 8 6 9 81 10 7 12 82 13 4 14
REMARK SMILES IDX 3 15 1 16 2 17 86 18 83 19 85 20 84 21 87 22 88 23 89 24
REMARK SMILES IDX 14 25 15 26 16 27 17 29 18 30 19 31 80 32 20 33 79 34 21 35
REMARK SMILES IDX 22 36 23 37 73 38 24 39 78 40 72 41 74 42 25 43 77 44 71 45
REMARK SMILES IDX 70 46 26 48 58 49 38 50 57 51 39 52 42 53 56 54 75 55 40 56
REMARK SMILES IDX 41 57 55 59 76 60 43 61 27 62 28 63 36 64 29 65 35 66 37 67
REMARK SMILES IDX 34 68 30 69 31 70 32 71 33 72 59 73 60 74 68 75 61 76 67 77
REMARK SMILES IDX 69 78 66 79 62 80 63 81 64 82 65 83 44 84 45 85 53 86 46 87
REMARK SMILES IDX 52 88 54 89 51 90 47 91 48 92 49 93 50 94
REMARK H PARENT 11 6 5 11 15 28 74 47 42 58
REMARK Flexibility Score: inf
ROOT
ATOM      1  C   UNL A   1      38.113  23.703  26.526  1.00  0.00     0.042 C 
ENDROOT
BRANCH   1   2
ATOM      2  C   UNL A   1      36.518  22.704  25.403  1.00  0.00     0.117 C 
BRANCH   2   3
ATOM      3  N   UNL A   1      35.007  22.270  25.811  1.00  0.00    -0.356 N 
ATOM      4  C   UNL A   1      33.837  22.057  25.154  1.00  0.00     0.229 C 
ATOM      5  O   UNL A   1      32.856  21.733  25.836  1.00  0.00    -0.275 OA
ATOM      6  H   UNL A   1      34.917  22.123  26.781  1.00  0.00     0.163 HD
BRANCH   4   7
ATOM      7  C   UNL A   1      33.648  22.224  23.650  1.00  0.00     0.142 C 
ATOM      8  N   UNL A   1      31.859  23.466  22.602  1.00  0.00    -0.328 N 
ATOM      9  C   UNL A   1      33.097  24.229  22.412  1.00  0.00     0.263 C 
ATOM     10  C   UNL A   1      32.194  22.167  23.201  1.00  0.00     0.193 C 
ATOM     11  H   UNL A   1      31.448  23.330  21.679  1.00  0.00     0.348 HD
ATOM     12  C   UNL A   1      34.245  23.497  23.089  1.00  0.00     0.081 C 
ATOM     13  C   UNL A   1      31.911  21.080  22.166  1.00  0.00     0.076 C 
BRANCH   8  14
ATOM     14  C   UNL A   1      30.784  24.167  23.320  1.00  0.00     0.299 C 
BRANCH  14  15
ATOM     15  C   UNL A   1      31.091  25.607  23.646  1.00  0.00     0.016 A 
ATOM     16  C   UNL A   1      31.955  24.993  26.309  1.00  0.00     0.052 C 
ATOM     17  C   UNL A   1      31.462  26.045  25.359  1.00  0.00     0.036 A 
ATOM     18  C   UNL A   1      31.514  27.777  25.841  1.00  0.00     0.272 A 
ATOM     19  C   UNL A   1      30.831  26.909  22.408  1.00  0.00     0.010 A 
ATOM     20  C   UNL A   1      31.212  29.082  24.636  1.00  0.00     0.086 A 
ATOM     21  C   UNL A   1      30.881  28.645  22.905  1.00  0.00     0.008 A 
BRANCH  18  22
ATOM     22  N   UNL A   1      32.040  28.053  27.152  1.00  0.00     0.062 N 
ATOM     23  O   UNL A   1      33.277  28.108  27.225  1.00  0.00    -0.258 OA
ATOM     24  O   UNL A   1      31.249  27.904  28.095  1.00  0.00    -0.258 OA
ENDBRANCH  18  22
ENDBRANCH  14  15
ENDBRANCH   8  14
ENDBRANCH   4   7
ENDBRANCH   2   3
ENDBRANCH   1   2
BRANCH   1  25
ATOM     25  C   UNL A   1      39.735  23.321  26.884  1.00  0.00     0.118 C 
BRANCH  25  26
ATOM     26  N   UNL A   1      40.315  22.153  26.200  1.00  0.00    -0.352 N 
ATOM     27  C   UNL A   1      41.656  21.786  26.130  1.00  0.00     0.251 C 
ATOM     28  H   UNL A   1      39.679  21.560  25.738  1.00  0.00     0.163 HD
ATOM     29  O   UNL A   1      42.023  20.778  25.536  1.00  0.00    -0.269 OA
BRANCH  27  30
ATOM     30  C   UNL A   1      42.642  22.551  26.933  1.00  0.00     0.039 A 
ATOM     31  C   UNL A   1      42.559  22.390  28.321  1.00  0.00     0.014 A 
ATOM     32  C   UNL A   1      43.217  23.688  26.380  1.00  0.00     0.014 A 
ATOM     33  C   UNL A   1      42.700  23.507  29.126  1.00  0.00     0.010 A 
ATOM     34  C   UNL A   1      43.168  24.828  27.140  1.00  0.00     0.010 A 
ATOM     35  C   UNL A   1      42.838  24.736  28.495  1.00  0.00    -0.014 A 
BRANCH  35  36
ATOM     36  C   UNL A   1      42.855  26.001  29.190  1.00  0.00     0.031 A 
ATOM     37  C   UNL A   1      41.656  26.822  28.965  1.00  0.00     0.074 A 
ATOM     38  C   UNL A   1      43.868  26.292  30.035  1.00  0.00     0.049 A 
ATOM     39  N   UNL A   1      41.602  28.094  29.083  1.00  0.00    -0.248 NA
ATOM     40  C   UNL A   1      40.408  26.243  28.455  1.00  0.00     0.031 C 
ATOM     41  C   UNL A   1      43.950  27.366  31.019  1.00  0.00     0.029 A 
ATOM     42  N   UNL A   1      45.160  25.750  30.008  1.00  0.00    -0.354 N 
ATOM     43  C   UNL A   1      40.277  28.461  28.962  1.00  0.00     0.074 A 
ATOM     44  C   UNL A   1      39.606  27.306  28.439  1.00  0.00     0.031 C 
ATOM     45  C   UNL A   1      45.247  27.592  31.304  1.00  0.00     0.029 A 
ATOM     46  C   UNL A   1      46.039  26.788  30.384  1.00  0.00     0.049 A 
ATOM     47  H   UNL A   1      45.407  24.826  29.772  1.00  0.00     0.167 HD
ATOM     48  C   UNL A   1      39.895  29.656  29.483  1.00  0.00     0.034 A 
ATOM     49  C   UNL A   1      46.913  27.309  29.471  1.00  0.00     0.034 A 
ATOM     50  C   UNL A   1      41.087  30.391  29.911  1.00  0.00     0.049 A 
ATOM     51  C   UNL A   1      46.599  28.728  29.088  1.00  0.00     0.074 A 
ATOM     52  C   UNL A   1      41.741  30.467  31.128  1.00  0.00     0.029 A 
ATOM     53  N   UNL A   1      41.996  30.798  28.944  1.00  0.00    -0.354 N 
ATOM     54  N   UNL A   1      45.442  29.305  29.269  1.00  0.00    -0.248 NA
ATOM     55  C   UNL A   1      47.587  29.601  28.470  1.00  0.00     0.031 C 
ATOM     56  C   UNL A   1      43.097  30.809  30.861  1.00  0.00     0.029 A 
ATOM     57  C   UNL A   1      43.246  31.000  29.495  1.00  0.00     0.049 A 
ATOM     58  H   UNL A   1      41.779  30.925  27.992  1.00  0.00     0.167 HD
ATOM     59  C   UNL A   1      45.486  30.569  28.746  1.00  0.00     0.074 A 
ATOM     60  C   UNL A   1      46.872  30.727  28.332  1.00  0.00     0.031 C 
ATOM     61  C   UNL A   1      44.373  31.361  28.643  1.00  0.00     0.034 A 
BRANCH  48  62
ATOM     62  C   UNL A   1      38.491  30.038  29.887  1.00  0.00     0.023 A 
ATOM     63  C   UNL A   1      37.970  31.232  29.350  1.00  0.00     0.031 A 
ATOM     64  C   UNL A   1      37.648  29.383  30.810  1.00  0.00     0.131 A 
ATOM     65  C   UNL A   1      36.730  31.752  29.760  1.00  0.00     0.055 A 
ATOM     66  C   UNL A   1      36.416  29.906  31.230  1.00  0.00     0.041 A 
ATOM     67  F   UNL A   1      37.944  28.197  31.347  1.00  0.00    -0.206 F 
ATOM     68  C   UNL A   1      35.952  31.101  30.710  1.00  0.00     0.022 A 
BRANCH  65  69
ATOM     69  S   UNL A   1      36.167  33.314  29.040  1.00  0.00     0.124 S 
ATOM     70  O   UNL A   1      35.028  33.647  29.890  1.00  0.00    -0.237 OA
ATOM     71  O   UNL A   1      37.348  34.158  29.175  1.00  0.00    -0.237 OA
ATOM     72  O   UNL A   1      35.825  32.946  27.667  1.00  0.00    -0.744 OA
ENDBRANCH  65  69
ENDBRANCH  48  62
BRANCH  49  73
ATOM     73  C   UNL A   1      47.449  26.291  28.526  1.00  0.00     0.023 A 
ATOM     74  C   UNL A   1      47.076  26.419  27.178  1.00  0.00     0.031 A 
ATOM     75  C   UNL A   1      48.630  25.598  28.831  1.00  0.00     0.131 A 
ATOM     76  C   UNL A   1      47.984  26.062  26.177  1.00  0.00     0.055 A 
ATOM     77  C   UNL A   1      49.527  25.235  27.823  1.00  0.00     0.041 A 
ATOM     78  F   UNL A   1      49.006  25.416  30.105  1.00  0.00    -0.206 F 
ATOM     79  C   UNL A   1      49.239  25.533  26.494  1.00  0.00     0.022 A 
BRANCH  76  80
ATOM     80  S   UNL A   1      47.588  26.526  24.475  1.00  0.00     0.124 S 
ATOM     81  O   UNL A   1      48.371  27.739  24.285  1.00  0.00    -0.237 OA
ATOM     82  O   UNL A   1      48.017  25.350  23.721  1.00  0.00    -0.237 OA
ATOM     83  O   UNL A   1      46.142  26.700  24.522  1.00  0.00    -0.744 OA
ENDBRANCH  76  80
ENDBRANCH  49  73
BRANCH  61  84
ATOM     84  C   UNL A   1      44.301  32.589  27.760  1.00  0.00     0.023 A 
ATOM     85  C   UNL A   1      43.896  33.833  28.253  1.00  0.00     0.031 A 
ATOM     86  C   UNL A   1      44.671  32.575  26.396  1.00  0.00     0.131 A 
ATOM     87  C   UNL A   1      43.657  34.916  27.401  1.00  0.00     0.055 A 
ATOM     88  C   UNL A   1      44.580  33.704  25.574  1.00  0.00     0.041 A 
ATOM     89  F   UNL A   1      45.146  31.476  25.795  1.00  0.00    -0.206 F 
ATOM     90  C   UNL A   1      44.020  34.874  26.062  1.00  0.00     0.022 A 
BRANCH  87  91
ATOM     91  S   UNL A   1      42.708  36.298  28.079  1.00  0.00     0.124 S 
ATOM     92  O   UNL A   1      43.700  36.948  28.933  1.00  0.00    -0.237 OA
ATOM     93  O   UNL A   1      42.328  37.038  26.879  1.00  0.00    -0.237 OA
ATOM     94  O   UNL A   1      41.611  35.645  28.786  1.00  0.00    -0.744 OA
ENDBRANCH  87  91
ENDBRANCH  61  84
ENDBRANCH  35  36
ENDBRANCH  27  30
ENDBRANCH  25  26
ENDBRANCH   1  25
TORSDOF 16
ENDMDL
