MODEL 1
REMARK VINA RESULT:     -11.7      0.000      0.000
REMARK SMILES NC(=O)c1ccsc1NS(=O)(=O)c1ccc(C(=O)NCCCNC(=O)c2ccc(-c3c4nc(c(-c5cc(S(=O)(=O)[O-])ccc5F)c5ccc([nH]5)c(-c5cc(S(=O)(=O)[O-])ccc5F)c5nc(c(-c6cc(S(=O)(=O)[O-])ccc6F)c6ccc3[nH]6)C=C5)C=C4)cc2)cc1
REMARK SMILES IDX 20 1 19 2 17 3 18 4 16 6 13 7 14 8 90 9 15 10 89 11 10 12
REMARK SMILES IDX 11 13 12 14 9 15 8 17 4 18 5 19 6 20 7 21 2 22 1 23 3 26
REMARK SMILES IDX 21 27 22 28 23 29 24 30 25 32 26 33 27 34 88 35 28 36 87 37
REMARK SMILES IDX 29 38 30 39 31 40 81 41 32 42 86 43 80 44 82 45 33 46 85 47
REMARK SMILES IDX 79 48 78 49 34 51 66 52 46 53 65 54 47 55 50 56 64 57 83 58
REMARK SMILES IDX 48 59 49 60 63 62 84 63 51 64 35 65 36 66 44 67 37 68 43 69
REMARK SMILES IDX 45 70 42 71 38 72 39 73 40 74 41 75 67 76 68 77 76 78 69 79
REMARK SMILES IDX 75 80 77 81 74 82 70 83 71 84 72 85 73 86 52 87 53 88 61 89
REMARK SMILES IDX 54 90 60 91 62 92 59 93 55 94 56 95 57 96 58 97
REMARK H PARENT 19 5 9 16 1 24 1 25 23 31 82 50 50 61
REMARK Flexibility Score: inf
ROOT
ATOM      1  C   UNL A   1      37.442  21.093  24.620  1.00  0.00     0.118 C 
ENDROOT
BRANCH   1   2
ATOM      2  N   UNL A   1      37.986  22.334  25.148  1.00  0.00    -0.352 N 
ATOM      3  C   UNL A   1      37.337  23.432  25.655  1.00  0.00     0.251 C 
ATOM      4  O   UNL A   1      37.979  24.313  26.220  1.00  0.00    -0.269 OA
ATOM      5  H   UNL A   1      38.969  22.397  25.140  1.00  0.00     0.163 HD
BRANCH   3   6
ATOM      6  C   UNL A   1      35.865  23.563  25.558  1.00  0.00     0.039 A 
ATOM      7  C   UNL A   1      33.107  23.967  25.536  1.00  0.00     0.087 A 
ATOM      8  C   UNL A   1      33.701  23.364  26.650  1.00  0.00     0.023 A 
ATOM      9  C   UNL A   1      33.874  24.330  24.423  1.00  0.00     0.023 A 
ATOM     10  C   UNL A   1      35.089  23.184  26.665  1.00  0.00     0.015 A 
ATOM     11  C   UNL A   1      35.255  24.142  24.443  1.00  0.00     0.015 A 
BRANCH   7  12
ATOM     12  S   UNL A   1      31.391  24.426  25.548  1.00  0.00     0.262 S 
ATOM     13  O   UNL A   1      31.064  24.690  26.934  1.00  0.00    -0.201 OA
ATOM     14  O   UNL A   1      30.657  23.430  24.793  1.00  0.00    -0.201 OA
BRANCH  12  15
ATOM     15  N   UNL A   1      31.221  25.875  24.752  1.00  0.00    -0.270 N 
ATOM     16  H   UNL A   1      30.776  25.839  23.875  1.00  0.00     0.181 HD
BRANCH  15  17
ATOM     17  C   UNL A   1      31.643  27.161  25.190  1.00  0.00     0.115 A 
ATOM     18  C   UNL A   1      31.275  28.308  24.496  1.00  0.00     0.074 A 
ATOM     19  C   UNL A   1      31.525  29.482  25.291  1.00  0.00     0.028 A 
ATOM     20  C   UNL A   1      32.191  29.193  26.459  1.00  0.00     0.068 A 
ATOM     21  S   UNL A   1      32.622  27.544  26.529  1.00  0.00    -0.125 S 
BRANCH  18  22
ATOM     22  C   UNL A   1      30.674  28.282  23.169  1.00  0.00     0.251 C 
ATOM     23  N   UNL A   1      31.550  28.457  22.137  1.00  0.00    -0.366 N 
ATOM     24  H   UNL A   1      31.223  28.452  21.207  1.00  0.00     0.159 HD
ATOM     25  H   UNL A   1      32.508  28.586  22.320  1.00  0.00     0.159 HD
ATOM     26  O   UNL A   1      29.486  28.057  22.965  1.00  0.00    -0.269 OA
ENDBRANCH  18  22
ENDBRANCH  15  17
ENDBRANCH  12  15
ENDBRANCH   7  12
ENDBRANCH   3   6
ENDBRANCH   1   2
BRANCH   1  27
ATOM     27  C   UNL A   1      38.308  19.889  24.981  1.00  0.00     0.042 C 
BRANCH  27  28
ATOM     28  C   UNL A   1      39.342  20.179  26.065  1.00  0.00     0.118 C 
BRANCH  28  29
ATOM     29  N   UNL A   1      40.448  19.235  26.027  1.00  0.00    -0.352 N 
ATOM     30  C   UNL A   1      41.800  19.464  25.987  1.00  0.00     0.251 C 
ATOM     31  H   UNL A   1      40.186  18.286  26.031  1.00  0.00     0.163 HD
ATOM     32  O   UNL A   1      42.550  18.529  25.719  1.00  0.00    -0.269 OA
BRANCH  30  33
ATOM     33  C   UNL A   1      42.356  20.811  26.253  1.00  0.00     0.039 A 
ATOM     34  C   UNL A   1      42.591  21.191  27.579  1.00  0.00     0.014 A 
ATOM     35  C   UNL A   1      42.581  21.725  25.219  1.00  0.00     0.014 A 
ATOM     36  C   UNL A   1      43.079  22.469  27.864  1.00  0.00     0.010 A 
ATOM     37  C   UNL A   1      43.135  22.972  25.499  1.00  0.00     0.010 A 
ATOM     38  C   UNL A   1      43.369  23.367  26.824  1.00  0.00    -0.014 A 
BRANCH  38  39
ATOM     39  C   UNL A   1      43.863  24.740  27.109  1.00  0.00     0.031 A 
ATOM     40  C   UNL A   1      42.924  25.768  27.683  1.00  0.00     0.074 A 
ATOM     41  C   UNL A   1      45.134  25.073  26.808  1.00  0.00     0.049 A 
ATOM     42  N   UNL A   1      43.130  27.036  27.927  1.00  0.00    -0.248 NA
ATOM     43  C   UNL A   1      41.560  25.311  27.991  1.00  0.00     0.031 C 
ATOM     44  C   UNL A   1      46.127  24.172  26.219  1.00  0.00     0.029 A 
ATOM     45  N   UNL A   1      45.806  26.261  26.948  1.00  0.00    -0.354 N 
ATOM     46  C   UNL A   1      41.919  27.534  28.400  1.00  0.00     0.074 A 
ATOM     47  C   UNL A   1      40.969  26.443  28.345  1.00  0.00     0.031 C 
ATOM     48  C   UNL A   1      47.285  24.833  26.068  1.00  0.00     0.029 A 
ATOM     49  C   UNL A   1      47.109  26.213  26.510  1.00  0.00     0.049 A 
ATOM     50  H   UNL A   1      45.395  27.071  27.328  1.00  0.00     0.167 HD
ATOM     51  C   UNL A   1      41.631  28.779  28.858  1.00  0.00     0.034 A 
ATOM     52  C   UNL A   1      48.051  27.176  26.460  1.00  0.00     0.034 A 
ATOM     53  C   UNL A   1      42.597  29.849  28.922  1.00  0.00     0.049 A 
ATOM     54  C   UNL A   1      47.709  28.554  26.971  1.00  0.00     0.074 A 
ATOM     55  C   UNL A   1      42.431  31.135  29.404  1.00  0.00     0.029 A 
ATOM     56  N   UNL A   1      43.915  29.757  28.488  1.00  0.00    -0.354 N 
ATOM     57  N   UNL A   1      46.570  28.999  27.449  1.00  0.00    -0.248 NA
ATOM     58  C   UNL A   1      48.786  29.551  26.955  1.00  0.00     0.031 C 
ATOM     59  C   UNL A   1      43.626  31.837  29.208  1.00  0.00     0.029 A 
ATOM     60  C   UNL A   1      44.564  30.968  28.674  1.00  0.00     0.049 A 
ATOM     61  H   UNL A   1      44.327  28.949  28.105  1.00  0.00     0.167 HD
ATOM     62  C   UNL A   1      46.806  30.319  27.824  1.00  0.00     0.074 A 
ATOM     63  C   UNL A   1      48.198  30.591  27.528  1.00  0.00     0.031 C 
ATOM     64  C   UNL A   1      45.953  31.223  28.371  1.00  0.00     0.034 A 
BRANCH  51  65
ATOM     65  C   UNL A   1      40.209  29.046  29.295  1.00  0.00     0.023 A 
ATOM     66  C   UNL A   1      39.834  29.012  30.651  1.00  0.00     0.031 A 
ATOM     67  C   UNL A   1      39.206  29.302  28.344  1.00  0.00     0.131 A 
ATOM     68  C   UNL A   1      38.484  29.143  31.009  1.00  0.00     0.055 A 
ATOM     69  C   UNL A   1      37.877  29.520  28.715  1.00  0.00     0.041 A 
ATOM     70  F   UNL A   1      39.496  29.328  27.034  1.00  0.00    -0.206 F 
ATOM     71  C   UNL A   1      37.505  29.424  30.053  1.00  0.00     0.022 A 
BRANCH  68  72
ATOM     72  S   UNL A   1      38.004  28.788  32.722  1.00  0.00     0.124 S 
ATOM     73  O   UNL A   1      39.070  29.452  33.470  1.00  0.00    -0.237 OA
ATOM     74  O   UNL A   1      36.683  29.398  32.813  1.00  0.00    -0.237 OA
ATOM     75  O   UNL A   1      38.023  27.328  32.788  1.00  0.00    -0.744 OA
ENDBRANCH  68  72
ENDBRANCH  51  65
BRANCH  52  76
ATOM     76  C   UNL A   1      49.405  26.881  25.911  1.00  0.00     0.023 A 
ATOM     77  C   UNL A   1      49.802  27.380  24.660  1.00  0.00     0.031 A 
ATOM     78  C   UNL A   1      50.308  26.062  26.610  1.00  0.00     0.131 A 
ATOM     79  C   UNL A   1      51.048  27.017  24.125  1.00  0.00     0.055 A 
ATOM     80  C   UNL A   1      51.568  25.748  26.098  1.00  0.00     0.041 A 
ATOM     81  F   UNL A   1      49.982  25.565  27.814  1.00  0.00    -0.206 F 
ATOM     82  C   UNL A   1      51.939  26.214  24.841  1.00  0.00     0.022 A 
BRANCH  79  83
ATOM     83  S   UNL A   1      51.454  27.543  22.437  1.00  0.00     0.124 S 
ATOM     84  O   UNL A   1      50.643  26.631  21.639  1.00  0.00    -0.237 OA
ATOM     85  O   UNL A   1      51.030  28.939  22.445  1.00  0.00    -0.237 OA
ATOM     86  O   UNL A   1      52.897  27.332  22.353  1.00  0.00    -0.744 OA
ENDBRANCH  79  83
ENDBRANCH  52  76
BRANCH  64  87
ATOM     87  C   UNL A   1      46.526  32.570  28.740  1.00  0.00     0.023 A 
ATOM     88  C   UNL A   1      46.460  33.670  27.867  1.00  0.00     0.031 A 
ATOM     89  C   UNL A   1      47.162  32.746  29.981  1.00  0.00     0.131 A 
ATOM     90  C   UNL A   1      47.074  34.881  28.223  1.00  0.00     0.055 A 
ATOM     91  C   UNL A   1      47.718  33.969  30.355  1.00  0.00     0.041 A 
ATOM     92  F   UNL A   1      47.255  31.728  30.852  1.00  0.00    -0.206 F 
ATOM     93  C   UNL A   1      47.688  35.042  29.469  1.00  0.00     0.022 A 
BRANCH  90  94
ATOM     94  S   UNL A   1      47.145  36.215  26.997  1.00  0.00     0.124 S 
ATOM     95  O   UNL A   1      45.737  36.389  26.655  1.00  0.00    -0.237 OA
ATOM     96  O   UNL A   1      47.757  37.302  27.754  1.00  0.00    -0.237 OA
ATOM     97  O   UNL A   1      47.978  35.658  25.932  1.00  0.00    -0.744 OA
ENDBRANCH  90  94
ENDBRANCH  64  87
ENDBRANCH  38  39
ENDBRANCH  30  33
ENDBRANCH  28  29
ENDBRANCH  27  28
ENDBRANCH   1  27
TORSDOF 17
ENDMDL
MODEL 2
REMARK VINA RESULT:     -11.7      2.007      2.420
REMARK SMILES NC(=O)c1ccsc1NS(=O)(=O)c1ccc(C(=O)NCCCNC(=O)c2ccc(-c3c4nc(c(-c5cc(S(=O)(=O)[O-])ccc5F)c5ccc([nH]5)c(-c5cc(S(=O)(=O)[O-])ccc5F)c5nc(c(-c6cc(S(=O)(=O)[O-])ccc6F)c6ccc3[nH]6)C=C5)C=C4)cc2)cc1
REMARK SMILES IDX 20 1 19 2 17 3 18 4 16 6 13 7 14 8 90 9 15 10 89 11 10 12
REMARK SMILES IDX 11 13 12 14 9 15 8 17 4 18 5 19 6 20 7 21 2 22 1 23 3 26
REMARK SMILES IDX 21 27 22 28 23 29 24 30 25 32 26 33 27 34 88 35 28 36 87 37
REMARK SMILES IDX 29 38 30 39 31 40 81 41 32 42 86 43 80 44 82 45 33 46 85 47
REMARK SMILES IDX 79 48 78 49 34 51 66 52 46 53 65 54 47 55 50 56 64 57 83 58
REMARK SMILES IDX 48 59 49 60 63 62 84 63 51 64 35 65 36 66 44 67 37 68 43 69
REMARK SMILES IDX 45 70 42 71 38 72 39 73 40 74 41 75 67 76 68 77 76 78 69 79
REMARK SMILES IDX 75 80 77 81 74 82 70 83 71 84 72 85 73 86 52 87 53 88 61 89
REMARK SMILES IDX 54 90 60 91 62 92 59 93 55 94 56 95 57 96 58 97
REMARK H PARENT 19 5 9 16 1 24 1 25 23 31 82 50 50 61
REMARK Flexibility Score: inf
ROOT
ATOM      1  C   UNL A   1      36.596  20.237  25.089  1.00  0.00     0.118 C 
ENDROOT
BRANCH   1   2
ATOM      2  N   UNL A   1      35.650  19.169  24.808  1.00  0.00    -0.352 N 
ATOM      3  C   UNL A   1      34.289  19.222  24.642  1.00  0.00     0.251 C 
ATOM      4  O   UNL A   1      33.686  18.235  24.231  1.00  0.00    -0.269 OA
ATOM      5  H   UNL A   1      36.047  18.271  24.724  1.00  0.00     0.163 HD
BRANCH   3   6
ATOM      6  C   UNL A   1      33.532  20.462  24.926  1.00  0.00     0.039 A 
ATOM      7  C   UNL A   1      32.293  22.880  25.552  1.00  0.00     0.087 A 
ATOM      8  C   UNL A   1      32.654  22.009  26.585  1.00  0.00     0.023 A 
ATOM      9  C   UNL A   1      32.509  22.533  24.214  1.00  0.00     0.023 A 
ATOM     10  C   UNL A   1      33.296  20.807  26.266  1.00  0.00     0.015 A 
ATOM     11  C   UNL A   1      33.143  21.331  23.903  1.00  0.00     0.015 A 
BRANCH   7  12
ATOM     12  S   UNL A   1      31.682  24.512  25.900  1.00  0.00     0.262 S 
ATOM     13  O   UNL A   1      31.282  24.494  27.291  1.00  0.00    -0.201 OA
ATOM     14  O   UNL A   1      30.732  24.863  24.863  1.00  0.00    -0.201 OA
BRANCH  12  15
ATOM     15  N   UNL A   1      32.945  25.586  25.799  1.00  0.00    -0.270 N 
ATOM     16  H   UNL A   1      33.760  25.347  26.298  1.00  0.00     0.181 HD
BRANCH  15  17
ATOM     17  C   UNL A   1      32.990  26.811  25.076  1.00  0.00     0.115 A 
ATOM     18  C   UNL A   1      32.861  28.031  25.729  1.00  0.00     0.074 A 
ATOM     19  C   UNL A   1      33.265  29.111  24.868  1.00  0.00     0.028 A 
ATOM     20  C   UNL A   1      33.535  28.688  23.587  1.00  0.00     0.068 A 
ATOM     21  S   UNL A   1      33.175  27.031  23.399  1.00  0.00    -0.125 S 
BRANCH  18  22
ATOM     22  C   UNL A   1      32.421  28.156  27.112  1.00  0.00     0.251 C 
ATOM     23  N   UNL A   1      33.254  28.875  27.920  1.00  0.00    -0.366 N 
ATOM     24  H   UNL A   1      33.028  29.006  28.870  1.00  0.00     0.159 HD
ATOM     25  H   UNL A   1      34.080  29.264  27.553  1.00  0.00     0.159 HD
ATOM     26  O   UNL A   1      31.355  27.714  27.529  1.00  0.00    -0.269 OA
ENDBRANCH  18  22
ENDBRANCH  15  17
ENDBRANCH  12  15
ENDBRANCH   7  12
ENDBRANCH   3   6
ENDBRANCH   1   2
BRANCH   1  27
ATOM     27  C   UNL A   1      38.036  19.815  24.808  1.00  0.00     0.042 C 
BRANCH  27  28
ATOM     28  C   UNL A   1      39.023  20.243  25.889  1.00  0.00     0.118 C 
BRANCH  28  29
ATOM     29  N   UNL A   1      40.141  19.318  26.001  1.00  0.00    -0.352 N 
ATOM     30  C   UNL A   1      41.485  19.569  26.114  1.00  0.00     0.251 C 
ATOM     31  H   UNL A   1      39.894  18.365  25.996  1.00  0.00     0.163 HD
ATOM     32  O   UNL A   1      42.275  18.642  25.955  1.00  0.00    -0.269 OA
BRANCH  30  33
ATOM     33  C   UNL A   1      41.985  20.932  26.413  1.00  0.00     0.039 A 
ATOM     34  C   UNL A   1      42.229  21.280  27.746  1.00  0.00     0.014 A 
ATOM     35  C   UNL A   1      42.149  21.886  25.405  1.00  0.00     0.014 A 
ATOM     36  C   UNL A   1      42.665  22.569  28.063  1.00  0.00     0.010 A 
ATOM     37  C   UNL A   1      42.652  23.148  25.714  1.00  0.00     0.010 A 
ATOM     38  C   UNL A   1      42.894  23.511  27.047  1.00  0.00    -0.014 A 
BRANCH  38  39
ATOM     39  C   UNL A   1      43.332  24.895  27.366  1.00  0.00     0.031 A 
ATOM     40  C   UNL A   1      42.356  25.866  27.977  1.00  0.00     0.074 A 
ATOM     41  C   UNL A   1      44.585  25.291  27.065  1.00  0.00     0.049 A 
ATOM     42  N   UNL A   1      42.511  27.135  28.256  1.00  0.00    -0.248 NA
ATOM     43  C   UNL A   1      41.015  25.343  28.284  1.00  0.00     0.031 C 
ATOM     44  C   UNL A   1      45.609  24.450  26.442  1.00  0.00     0.029 A 
ATOM     45  N   UNL A   1      45.207  26.502  27.233  1.00  0.00    -0.354 N 
ATOM     46  C   UNL A   1      41.283  27.567  28.753  1.00  0.00     0.074 A 
ATOM     47  C   UNL A   1      40.381  26.437  28.675  1.00  0.00     0.031 C 
ATOM     48  C   UNL A   1      46.737  25.164  26.300  1.00  0.00     0.029 A 
ATOM     49  C   UNL A   1      46.507  26.522  26.782  1.00  0.00     0.049 A 
ATOM     50  H   UNL A   1      44.766  27.283  27.639  1.00  0.00     0.167 HD
ATOM     51  C   UNL A   1      40.948  28.785  29.248  1.00  0.00     0.034 A 
ATOM     52  C   UNL A   1      47.407  27.526  26.752  1.00  0.00     0.034 A 
ATOM     53  C   UNL A   1      41.868  29.892  29.335  1.00  0.00     0.049 A 
ATOM     54  C   UNL A   1      47.012  28.872  27.305  1.00  0.00     0.074 A 
ATOM     55  C   UNL A   1      41.652  31.157  29.855  1.00  0.00     0.029 A 
ATOM     56  N   UNL A   1      43.185  29.869  28.888  1.00  0.00    -0.354 N 
ATOM     57  N   UNL A   1      45.859  29.255  27.805  1.00  0.00    -0.248 NA
ATOM     58  C   UNL A   1      48.045  29.915  27.308  1.00  0.00     0.031 C 
ATOM     59  C   UNL A   1      42.814  31.914  29.669  1.00  0.00     0.029 A 
ATOM     60  C   UNL A   1      43.783  31.101  29.103  1.00  0.00     0.049 A 
ATOM     61  H   UNL A   1      43.627  29.091  28.478  1.00  0.00     0.167 HD
ATOM     62  C   UNL A   1      46.043  30.572  28.216  1.00  0.00     0.074 A 
ATOM     63  C   UNL A   1      47.419  30.912  27.916  1.00  0.00     0.031 C 
ATOM     64  C   UNL A   1      45.157  31.423  28.796  1.00  0.00     0.034 A 
BRANCH  51  65
ATOM     65  C   UNL A   1      39.520  28.979  29.706  1.00  0.00     0.023 A 
ATOM     66  C   UNL A   1      38.571  29.640  28.906  1.00  0.00     0.031 A 
ATOM     67  C   UNL A   1      39.110  28.531  30.974  1.00  0.00     0.131 A 
ATOM     68  C   UNL A   1      37.291  29.910  29.413  1.00  0.00     0.055 A 
ATOM     69  C   UNL A   1      37.807  28.724  31.438  1.00  0.00     0.041 A 
ATOM     70  F   UNL A   1      39.974  27.911  31.793  1.00  0.00    -0.206 F 
ATOM     71  C   UNL A   1      36.893  29.433  30.664  1.00  0.00     0.022 A 
BRANCH  68  72
ATOM     72  S   UNL A   1      36.207  31.025  28.479  1.00  0.00     0.124 S 
ATOM     73  O   UNL A   1      35.888  30.212  27.307  1.00  0.00    -0.237 OA
ATOM     74  O   UNL A   1      35.112  31.257  29.414  1.00  0.00    -0.237 OA
ATOM     75  O   UNL A   1      37.055  32.184  28.212  1.00  0.00    -0.744 OA
ENDBRANCH  68  72
ENDBRANCH  51  65
BRANCH  52  76
ATOM     76  C   UNL A   1      48.767  27.304  26.183  1.00  0.00     0.023 A 
ATOM     77  C   UNL A   1      49.034  27.558  24.828  1.00  0.00     0.031 A 
ATOM     78  C   UNL A   1      49.810  26.797  26.977  1.00  0.00     0.131 A 
ATOM     79  C   UNL A   1      50.297  27.259  24.296  1.00  0.00     0.055 A 
ATOM     80  C   UNL A   1      51.082  26.552  26.455  1.00  0.00     0.041 A 
ATOM     81  F   UNL A   1      49.612  26.544  28.280  1.00  0.00    -0.206 F 
ATOM     82  C   UNL A   1      51.327  26.770  25.102  1.00  0.00     0.022 A 
BRANCH  79  83
ATOM     83  S   UNL A   1      50.551  27.441  22.509  1.00  0.00     0.124 S 
ATOM     84  O   UNL A   1      51.908  26.934  22.349  1.00  0.00    -0.237 OA
ATOM     85  O   UNL A   1      49.485  26.606  21.965  1.00  0.00    -0.237 OA
ATOM     86  O   UNL A   1      50.390  28.876  22.287  1.00  0.00    -0.744 OA
ENDBRANCH  79  83
ENDBRANCH  52  76
BRANCH  64  87
ATOM     87  C   UNL A   1      45.676  32.783  29.197  1.00  0.00     0.023 A 
ATOM     88  C   UNL A   1      45.657  33.877  28.315  1.00  0.00     0.031 A 
ATOM     89  C   UNL A   1      46.213  32.977  30.482  1.00  0.00     0.131 A 
ATOM     90  C   UNL A   1      46.220  35.101  28.708  1.00  0.00     0.055 A 
ATOM     91  C   UNL A   1      46.716  34.213  30.889  1.00  0.00     0.041 A 
ATOM     92  F   UNL A   1      46.258  31.966  31.365  1.00  0.00    -0.206 F 
ATOM     93  C   UNL A   1      46.734  35.281  29.996  1.00  0.00     0.022 A 
BRANCH  90  94
ATOM     94  S   UNL A   1      46.360  36.430  27.482  1.00  0.00     0.124 S 
ATOM     95  O   UNL A   1      46.930  35.727  26.337  1.00  0.00    -0.237 OA
ATOM     96  O   UNL A   1      44.975  36.867  27.337  1.00  0.00    -0.237 OA
ATOM     97  O   UNL A   1      47.250  37.396  28.123  1.00  0.00    -0.744 OA
ENDBRANCH  90  94
ENDBRANCH  64  87
ENDBRANCH  38  39
ENDBRANCH  30  33
ENDBRANCH  28  29
ENDBRANCH  27  28
ENDBRANCH   1  27
TORSDOF 17
ENDMDL
MODEL 3
REMARK VINA RESULT:     -11.6      5.011      8.771
REMARK SMILES NC(=O)c1ccsc1NS(=O)(=O)c1ccc(C(=O)NCCCNC(=O)c2ccc(-c3c4nc(c(-c5cc(S(=O)(=O)[O-])ccc5F)c5ccc([nH]5)c(-c5cc(S(=O)(=O)[O-])ccc5F)c5nc(c(-c6cc(S(=O)(=O)[O-])ccc6F)c6ccc3[nH]6)C=C5)C=C4)cc2)cc1
REMARK SMILES IDX 20 1 19 2 17 3 18 4 16 6 13 7 14 8 90 9 15 10 89 11 10 12
REMARK SMILES IDX 11 13 12 14 9 15 8 17 4 18 5 19 6 20 7 21 2 22 1 23 3 26
REMARK SMILES IDX 21 27 22 28 23 29 24 30 25 32 26 33 27 34 88 35 28 36 87 37
REMARK SMILES IDX 29 38 30 39 31 40 81 41 32 42 86 43 80 44 82 45 33 46 85 47
REMARK SMILES IDX 79 48 78 49 34 51 66 52 46 53 65 54 47 55 50 56 64 57 83 58
REMARK SMILES IDX 48 59 49 60 63 62 84 63 51 64 35 65 36 66 44 67 37 68 43 69
REMARK SMILES IDX 45 70 42 71 38 72 39 73 40 74 41 75 67 76 68 77 76 78 69 79
REMARK SMILES IDX 75 80 77 81 74 82 70 83 71 84 72 85 73 86 52 87 53 88 61 89
REMARK SMILES IDX 54 90 60 91 62 92 59 93 55 94 56 95 57 96 58 97
REMARK H PARENT 19 5 9 16 1 24 1 25 23 31 82 50 50 61
REMARK Flexibility Score: inf
ROOT
ATOM      1  C   UNL A   1      31.472  29.311  25.260  1.00  0.00     0.118 C 
ENDROOT
BRANCH   1   2
ATOM      2  N   UNL A   1      30.870  29.545  23.957  1.00  0.00    -0.352 N 
ATOM      3  C   UNL A   1      30.717  28.691  22.895  1.00  0.00     0.251 C 
ATOM      4  O   UNL A   1      30.018  29.023  21.941  1.00  0.00    -0.269 OA
ATOM      5  H   UNL A   1      30.520  30.455  23.816  1.00  0.00     0.163 HD
BRANCH   3   6
ATOM      6  C   UNL A   1      31.358  27.356  22.887  1.00  0.00     0.039 A 
ATOM      7  C   UNL A   1      32.420  24.784  22.713  1.00  0.00     0.087 A 
ATOM      8  C   UNL A   1      31.137  24.960  23.240  1.00  0.00     0.023 A 
ATOM      9  C   UNL A   1      33.187  25.885  22.313  1.00  0.00     0.023 A 
ATOM     10  C   UNL A   1      30.600  26.251  23.304  1.00  0.00     0.015 A 
ATOM     11  C   UNL A   1      32.648  27.168  22.386  1.00  0.00     0.015 A 
BRANCH   7  12
ATOM     12  S   UNL A   1      33.069  23.161  22.397  1.00  0.00     0.262 S 
ATOM     13  O   UNL A   1      33.763  23.254  21.130  1.00  0.00    -0.201 OA
ATOM     14  O   UNL A   1      31.994  22.206  22.581  1.00  0.00    -0.201 OA
BRANCH  12  15
ATOM     15  N   UNL A   1      34.232  22.822  23.533  1.00  0.00    -0.270 N 
ATOM     16  H   UNL A   1      35.155  22.739  23.199  1.00  0.00     0.181 HD
BRANCH  15  17
ATOM     17  C   UNL A   1      34.054  22.638  24.933  1.00  0.00     0.115 A 
ATOM     18  C   UNL A   1      35.070  22.945  25.830  1.00  0.00     0.074 A 
ATOM     19  C   UNL A   1      34.559  22.999  27.174  1.00  0.00     0.028 A 
ATOM     20  C   UNL A   1      33.246  22.596  27.254  1.00  0.00     0.068 A 
ATOM     21  S   UNL A   1      32.684  22.036  25.744  1.00  0.00    -0.125 S 
BRANCH  18  22
ATOM     22  C   UNL A   1      36.442  23.218  25.421  1.00  0.00     0.251 C 
ATOM     23  N   UNL A   1      37.327  23.380  26.447  1.00  0.00    -0.366 N 
ATOM     24  H   UNL A   1      38.276  23.567  26.255  1.00  0.00     0.159 HD
ATOM     25  H   UNL A   1      37.020  23.308  27.379  1.00  0.00     0.159 HD
ATOM     26  O   UNL A   1      36.811  23.240  24.252  1.00  0.00    -0.269 OA
ENDBRANCH  18  22
ENDBRANCH  15  17
ENDBRANCH  12  15
ENDBRANCH   7  12
ENDBRANCH   3   6
ENDBRANCH   1   2
BRANCH   1  27
ATOM     27  C   UNL A   1      32.985  29.507  25.235  1.00  0.00     0.042 C 
BRANCH  27  28
ATOM     28  C   UNL A   1      33.618  29.589  26.621  1.00  0.00     0.118 C 
BRANCH  28  29
ATOM     29  N   UNL A   1      33.595  30.944  27.149  1.00  0.00    -0.352 N 
ATOM     30  C   UNL A   1      34.405  31.540  28.082  1.00  0.00     0.251 C 
ATOM     31  H   UNL A   1      32.890  31.523  26.779  1.00  0.00     0.163 HD
ATOM     32  O   UNL A   1      34.064  32.620  28.558  1.00  0.00    -0.269 OA
BRANCH  30  33
ATOM     33  C   UNL A   1      35.666  30.898  28.521  1.00  0.00     0.039 A 
ATOM     34  C   UNL A   1      35.602  29.874  29.472  1.00  0.00     0.014 A 
ATOM     35  C   UNL A   1      36.909  31.339  28.058  1.00  0.00     0.014 A 
ATOM     36  C   UNL A   1      36.778  29.275  29.934  1.00  0.00     0.010 A 
ATOM     37  C   UNL A   1      38.074  30.693  28.464  1.00  0.00     0.010 A 
ATOM     38  C   UNL A   1      38.024  29.670  29.423  1.00  0.00    -0.014 A 
BRANCH  38  39
ATOM     39  C   UNL A   1      39.286  29.063  29.921  1.00  0.00     0.031 A 
ATOM     40  C   UNL A   1      39.967  29.642  31.133  1.00  0.00     0.074 A 
ATOM     41  C   UNL A   1      39.843  28.029  29.259  1.00  0.00     0.049 A 
ATOM     42  N   UNL A   1      41.110  29.316  31.680  1.00  0.00    -0.248 NA
ATOM     43  C   UNL A   1      39.281  30.761  31.798  1.00  0.00     0.031 C 
ATOM     44  C   UNL A   1      39.293  27.404  28.054  1.00  0.00     0.029 A 
ATOM     45  N   UNL A   1      40.997  27.327  29.500  1.00  0.00    -0.354 N 
ATOM     46  C   UNL A   1      41.290  30.201  32.740  1.00  0.00     0.074 A 
ATOM     47  C   UNL A   1      40.168  31.115  32.716  1.00  0.00     0.031 C 
ATOM     48  C   UNL A   1      40.099  26.399  27.675  1.00  0.00     0.029 A 
ATOM     49  C   UNL A   1      41.241  26.333  28.581  1.00  0.00     0.049 A 
ATOM     50  H   UNL A   1      41.594  27.517  30.260  1.00  0.00     0.167 HD
ATOM     51  C   UNL A   1      42.286  30.233  33.661  1.00  0.00     0.034 A 
ATOM     52  C   UNL A   1      42.274  25.473  28.476  1.00  0.00     0.034 A 
ATOM     53  C   UNL A   1      43.387  29.300  33.678  1.00  0.00     0.049 A 
ATOM     54  C   UNL A   1      43.372  25.528  29.508  1.00  0.00     0.074 A 
ATOM     55  C   UNL A   1      44.430  29.211  34.584  1.00  0.00     0.029 A 
ATOM     56  N   UNL A   1      43.590  28.291  32.743  1.00  0.00    -0.354 N 
ATOM     57  N   UNL A   1      43.510  26.347  30.526  1.00  0.00    -0.248 NA
ATOM     58  C   UNL A   1      44.443  24.531  29.389  1.00  0.00     0.031 C 
ATOM     59  C   UNL A   1      45.292  28.191  34.165  1.00  0.00     0.029 A 
ATOM     60  C   UNL A   1      44.749  27.591  33.040  1.00  0.00     0.049 A 
ATOM     61  H   UNL A   1      42.997  28.103  31.981  1.00  0.00     0.167 HD
ATOM     62  C   UNL A   1      44.664  25.936  31.189  1.00  0.00     0.074 A 
ATOM     63  C   UNL A   1      45.175  24.793  30.461  1.00  0.00     0.031 C 
ATOM     64  C   UNL A   1      45.245  26.453  32.302  1.00  0.00     0.034 A 
BRANCH  51  65
ATOM     65  C   UNL A   1      42.236  31.329  34.701  1.00  0.00     0.023 A 
ATOM     66  C   UNL A   1      42.850  32.577  34.490  1.00  0.00     0.031 A 
ATOM     67  C   UNL A   1      41.599  31.112  35.935  1.00  0.00     0.131 A 
ATOM     68  C   UNL A   1      42.888  33.524  35.524  1.00  0.00     0.055 A 
ATOM     69  C   UNL A   1      41.564  32.093  36.929  1.00  0.00     0.041 A 
ATOM     70  F   UNL A   1      41.012  29.935  36.205  1.00  0.00    -0.206 F 
ATOM     71  C   UNL A   1      42.226  33.302  36.734  1.00  0.00     0.022 A 
BRANCH  68  72
ATOM     72  S   UNL A   1      43.945  34.984  35.323  1.00  0.00     0.124 S 
ATOM     73  O   UNL A   1      43.320  35.645  34.179  1.00  0.00    -0.237 OA
ATOM     74  O   UNL A   1      43.801  35.658  36.608  1.00  0.00    -0.237 OA
ATOM     75  O   UNL A   1      45.266  34.417  35.060  1.00  0.00    -0.744 OA
ENDBRANCH  68  72
ENDBRANCH  51  65
BRANCH  52  76
ATOM     76  C   UNL A   1      42.325  24.487  27.359  1.00  0.00     0.023 A 
ATOM     77  C   UNL A   1      41.529  23.331  27.379  1.00  0.00     0.031 A 
ATOM     78  C   UNL A   1      43.200  24.666  26.274  1.00  0.00     0.131 A 
ATOM     79  C   UNL A   1      41.659  22.374  26.360  1.00  0.00     0.055 A 
ATOM     80  C   UNL A   1      43.287  23.737  25.235  1.00  0.00     0.041 A 
ATOM     81  F   UNL A   1      43.978  25.758  26.201  1.00  0.00    -0.206 F 
ATOM     82  C   UNL A   1      42.523  22.575  25.282  1.00  0.00     0.022 A 
BRANCH  79  83
ATOM     83  S   UNL A   1      40.739  20.818  26.510  1.00  0.00     0.124 S 
ATOM     84  O   UNL A   1      41.529  19.925  25.671  1.00  0.00    -0.237 OA
ATOM     85  O   UNL A   1      40.797  20.568  27.947  1.00  0.00    -0.237 OA
ATOM     86  O   UNL A   1      39.415  21.154  25.991  1.00  0.00    -0.744 OA
ENDBRANCH  79  83
ENDBRANCH  52  76
BRANCH  64  87
ATOM     87  C   UNL A   1      46.467  25.740  32.831  1.00  0.00     0.023 A 
ATOM     88  C   UNL A   1      47.731  25.889  32.235  1.00  0.00     0.031 A 
ATOM     89  C   UNL A   1      46.354  24.885  33.941  1.00  0.00     0.131 A 
ATOM     90  C   UNL A   1      48.821  25.147  32.716  1.00  0.00     0.055 A 
ATOM     91  C   UNL A   1      47.454  24.196  34.453  1.00  0.00     0.041 A 
ATOM     92  F   UNL A   1      45.170  24.705  34.548  1.00  0.00    -0.206 F 
ATOM     93  C   UNL A   1      48.694  24.314  33.831  1.00  0.00     0.022 A 
BRANCH  90  94
ATOM     94  S   UNL A   1      50.387  25.209  31.803  1.00  0.00     0.124 S 
ATOM     95  O   UNL A   1      49.954  25.663  30.486  1.00  0.00    -0.237 OA
ATOM     96  O   UNL A   1      51.165  26.166  32.584  1.00  0.00    -0.237 OA
ATOM     97  O   UNL A   1      50.869  23.830  31.856  1.00  0.00    -0.744 OA
ENDBRANCH  90  94
ENDBRANCH  64  87
ENDBRANCH  38  39
ENDBRANCH  30  33
ENDBRANCH  28  29
ENDBRANCH  27  28
ENDBRANCH   1  27
TORSDOF 17
ENDMDL
