MODEL 1
REMARK VINA RESULT:     -11.5      0.000      0.000
REMARK SMILES O=C(NCCCNC(=O)[C@H]1CCC[C@@H]1C[NH2+][C@@H]1CCOC2(CCC2)C1)c1ccc(-c2c3nc(c(-c4cc(S(=O)(=O)[O-])ccc4F)c4ccc([nH]4)c(-c4cc(S(=O)(=O)[O-])ccc4F)c4nc(c(-c5cc(S(=O)(=O)[O-])ccc5F)c5ccc2[nH]5)C=C4)C=C3)cc1
REMARK SMILES IDX 5 1 4 2 3 3 1 4 2 5 26 7 27 8 88 9 28 10 87 11 29 12 30 13
REMARK SMILES IDX 31 14 81 15 32 16 86 17 80 18 82 19 33 20 85 21 79 22 78 23
REMARK SMILES IDX 34 25 66 26 46 27 65 28 47 29 50 30 64 31 83 32 48 33 49 34
REMARK SMILES IDX 63 36 84 37 51 38 35 39 36 40 44 41 37 42 43 43 45 44 42 45
REMARK SMILES IDX 38 46 39 47 40 48 41 49 67 50 68 51 76 52 69 53 75 54 77 55
REMARK SMILES IDX 74 56 70 57 71 58 72 59 73 60 52 61 53 62 61 63 54 64 60 65
REMARK SMILES IDX 62 66 59 67 55 68 56 69 57 70 58 71 6 72 7 73 8 74 9 76
REMARK SMILES IDX 10 77 11 78 14 79 12 80 13 81 15 82 16 83 17 86 18 87 25 88
REMARK SMILES IDX 19 89 21 90 20 91 22 92 24 93 23 94
REMARK H PARENT 3 6 82 24 50 35 7 75 16 84 16 85
REMARK Flexibility Score: inf
ROOT
ATOM      1  C   UNL A   1      31.481  32.178  26.841  1.00  0.00     0.042 C 
ENDROOT
BRANCH   1   2
ATOM      2  C   UNL A   1      32.803  32.891  27.085  1.00  0.00     0.118 C 
BRANCH   2   3
ATOM      3  N   UNL A   1      32.637  34.195  27.717  1.00  0.00    -0.352 N 
ATOM      4  O   UNL A   1      32.832  35.777  29.305  1.00  0.00    -0.269 OA
ATOM      5  C   UNL A   1      33.240  34.717  28.837  1.00  0.00     0.251 C 
ATOM      6  H   UNL A   1      31.994  34.794  27.273  1.00  0.00     0.163 HD
BRANCH   5   7
ATOM      7  C   UNL A   1      34.364  34.003  29.480  1.00  0.00     0.039 A 
ATOM      8  C   UNL A   1      34.122  33.006  30.424  1.00  0.00     0.014 A 
ATOM      9  C   UNL A   1      35.678  34.319  29.120  1.00  0.00     0.014 A 
ATOM     10  C   UNL A   1      35.182  32.446  31.125  1.00  0.00     0.010 A 
ATOM     11  C   UNL A   1      36.748  33.675  29.753  1.00  0.00     0.010 A 
ATOM     12  C   UNL A   1      36.508  32.754  30.782  1.00  0.00    -0.014 A 
BRANCH  12  13
ATOM     13  C   UNL A   1      37.606  32.031  31.477  1.00  0.00     0.031 A 
ATOM     14  C   UNL A   1      38.393  30.951  30.788  1.00  0.00     0.074 A 
ATOM     15  C   UNL A   1      37.928  32.417  32.729  1.00  0.00     0.049 A 
ATOM     16  N   UNL A   1      39.418  30.271  31.235  1.00  0.00    -0.248 NA
ATOM     17  C   UNL A   1      37.973  30.580  29.429  1.00  0.00     0.031 C 
ATOM     18  C   UNL A   1      37.219  33.448  33.497  1.00  0.00     0.029 A 
ATOM     19  N   UNL A   1      38.943  32.027  33.563  1.00  0.00    -0.354 N 
ATOM     20  C   UNL A   1      39.763  29.385  30.219  1.00  0.00     0.074 A 
ATOM     21  C   UNL A   1      38.813  29.592  29.146  1.00  0.00     0.031 C 
ATOM     22  C   UNL A   1      37.858  33.652  34.656  1.00  0.00     0.029 A 
ATOM     23  C   UNL A   1      38.975  32.721  34.751  1.00  0.00     0.049 A 
ATOM     24  H   UNL A   1      39.587  31.318  33.334  1.00  0.00     0.167 HD
ATOM     25  C   UNL A   1      40.782  28.489  30.187  1.00  0.00     0.034 A 
ATOM     26  C   UNL A   1      39.802  32.612  35.808  1.00  0.00     0.034 A 
ATOM     27  C   UNL A   1      41.721  28.299  31.268  1.00  0.00     0.049 A 
ATOM     28  C   UNL A   1      40.914  31.600  35.746  1.00  0.00     0.074 A 
ATOM     29  C   UNL A   1      42.794  27.426  31.335  1.00  0.00     0.029 A 
ATOM     30  N   UNL A   1      41.701  28.990  32.473  1.00  0.00    -0.354 N 
ATOM     31  N   UNL A   1      41.224  30.775  34.773  1.00  0.00    -0.248 NA
ATOM     32  C   UNL A   1      41.786  31.508  36.922  1.00  0.00     0.031 C 
ATOM     33  C   UNL A   1      43.387  27.550  32.598  1.00  0.00     0.029 A 
ATOM     34  C   UNL A   1      42.726  28.547  33.296  1.00  0.00     0.049 A 
ATOM     35  H   UNL A   1      41.052  29.692  32.709  1.00  0.00     0.167 HD
ATOM     36  C   UNL A   1      42.334  30.068  35.221  1.00  0.00     0.074 A 
ATOM     37  C   UNL A   1      42.661  30.595  36.531  1.00  0.00     0.031 C 
ATOM     38  C   UNL A   1      43.018  29.066  34.611  1.00  0.00     0.034 A 
BRANCH  25  39
ATOM     39  C   UNL A   1      40.909  27.619  28.960  1.00  0.00     0.023 A 
ATOM     40  C   UNL A   1      41.902  27.846  27.991  1.00  0.00     0.031 A 
ATOM     41  C   UNL A   1      40.030  26.541  28.759  1.00  0.00     0.131 A 
ATOM     42  C   UNL A   1      41.960  27.039  26.844  1.00  0.00     0.055 A 
ATOM     43  C   UNL A   1      40.133  25.700  27.650  1.00  0.00     0.041 A 
ATOM     44  F   UNL A   1      39.050  26.286  29.642  1.00  0.00    -0.206 F 
ATOM     45  C   UNL A   1      41.097  25.953  26.678  1.00  0.00     0.022 A 
BRANCH  42  46
ATOM     46  S   UNL A   1      43.114  27.489  25.519  1.00  0.00     0.124 S 
ATOM     47  O   UNL A   1      44.141  28.219  26.259  1.00  0.00    -0.237 OA
ATOM     48  O   UNL A   1      43.508  26.190  24.989  1.00  0.00    -0.237 OA
ATOM     49  O   UNL A   1      42.301  28.308  24.621  1.00  0.00    -0.744 OA
ENDBRANCH  42  46
ENDBRANCH  25  39
BRANCH  26  50
ATOM     50  C   UNL A   1      39.588  33.448  37.023  1.00  0.00     0.023 A 
ATOM     51  C   UNL A   1      40.339  34.611  37.248  1.00  0.00     0.031 A 
ATOM     52  C   UNL A   1      38.649  33.069  38.000  1.00  0.00     0.131 A 
ATOM     53  C   UNL A   1      40.173  35.329  38.443  1.00  0.00     0.055 A 
ATOM     54  C   UNL A   1      38.446  33.818  39.159  1.00  0.00     0.041 A 
ATOM     55  F   UNL A   1      37.902  31.966  37.832  1.00  0.00    -0.206 F 
ATOM     56  C   UNL A   1      39.222  34.948  39.393  1.00  0.00     0.022 A 
BRANCH  53  57
ATOM     57  S   UNL A   1      41.292  36.713  38.787  1.00  0.00     0.124 S 
ATOM     58  O   UNL A   1      42.081  36.193  39.898  1.00  0.00    -0.237 OA
ATOM     59  O   UNL A   1      41.993  36.857  37.515  1.00  0.00    -0.237 OA
ATOM     60  O   UNL A   1      40.385  37.809  39.123  1.00  0.00    -0.744 OA
ENDBRANCH  53  57
ENDBRANCH  26  50
BRANCH  38  61
ATOM     61  C   UNL A   1      44.192  28.501  35.370  1.00  0.00     0.023 A 
ATOM     62  C   UNL A   1      44.035  27.429  36.266  1.00  0.00     0.031 A 
ATOM     63  C   UNL A   1      45.467  29.075  35.238  1.00  0.00     0.131 A 
ATOM     64  C   UNL A   1      45.119  27.011  37.052  1.00  0.00     0.055 A 
ATOM     65  C   UNL A   1      46.557  28.613  35.977  1.00  0.00     0.041 A 
ATOM     66  F   UNL A   1      45.672  30.102  34.399  1.00  0.00    -0.206 F 
ATOM     67  C   UNL A   1      46.382  27.587  36.903  1.00  0.00     0.022 A 
BRANCH  64  68
ATOM     68  S   UNL A   1      44.826  25.781  38.351  1.00  0.00     0.124 S 
ATOM     69  O   UNL A   1      46.165  25.242  38.567  1.00  0.00    -0.237 OA
ATOM     70  O   UNL A   1      44.283  26.594  39.434  1.00  0.00    -0.237 OA
ATOM     71  O   UNL A   1      43.876  24.854  37.737  1.00  0.00    -0.744 OA
ENDBRANCH  64  68
ENDBRANCH  38  61
ENDBRANCH  12  13
ENDBRANCH   5   7
ENDBRANCH   2   3
ENDBRANCH   1   2
BRANCH   1  72
ATOM     72  C   UNL A   1      31.607  30.665  26.751  1.00  0.00     0.117 C 
BRANCH  72  73
ATOM     73  N   UNL A   1      32.985  30.222  26.881  1.00  0.00    -0.356 N 
ATOM     74  C   UNL A   1      33.594  29.130  26.335  1.00  0.00     0.223 C 
ATOM     75  H   UNL A   1      33.561  30.791  27.443  1.00  0.00     0.163 HD
ATOM     76  O   UNL A   1      34.767  28.907  26.631  1.00  0.00    -0.275 OA
BRANCH  74  77
ATOM     77  C   UNL A   1      32.795  28.255  25.374  1.00  0.00     0.087 C 
ATOM     78  C   UNL A   1      33.724  27.439  24.472  1.00  0.00     0.014 C 
ATOM     79  C   UNL A   1      31.965  27.181  26.100  1.00  0.00     0.056 C 
ATOM     80  C   UNL A   1      33.995  26.136  25.216  1.00  0.00     0.001 C 
ATOM     81  C   UNL A   1      32.971  26.049  26.342  1.00  0.00     0.010 C 
BRANCH  79  82
ATOM     82  C   UNL A   1      30.764  26.687  25.270  1.00  0.00     0.265 C 
BRANCH  82  83
ATOM     83  N   UNL A   1      30.108  27.823  24.622  1.00  0.00    -0.343 N 
ATOM     84  H   UNL A   1      30.764  28.603  24.592  1.00  0.00     0.346 HD
ATOM     85  H   UNL A   1      29.275  28.045  25.169  1.00  0.00     0.346 HD
BRANCH  83  86
ATOM     86  C   UNL A   1      29.664  27.530  23.249  1.00  0.00     0.187 C 
ATOM     87  C   UNL A   1      30.794  27.675  22.217  1.00  0.00     0.093 C 
ATOM     88  C   UNL A   1      28.484  28.446  22.878  1.00  0.00     0.100 C 
ATOM     89  C   UNL A   1      31.158  29.131  21.955  1.00  0.00     0.167 C 
ATOM     90  C   UNL A   1      28.948  29.882  22.628  1.00  0.00     0.074 C 
ATOM     91  O   UNL A   1      29.986  29.868  21.616  1.00  0.00    -0.375 OA
ATOM     92  C   UNL A   1      27.761  30.844  22.320  1.00  0.00     0.036 C 
ATOM     93  C   UNL A   1      29.222  30.783  23.875  1.00  0.00     0.036 C 
ATOM     94  C   UNL A   1      28.489  31.920  23.143  1.00  0.00     0.006 C 
ENDBRANCH  83  86
ENDBRANCH  82  83
ENDBRANCH  79  82
ENDBRANCH  74  77
ENDBRANCH  72  73
ENDBRANCH   1  72
TORSDOF 16
ENDMDL
MODEL 2
REMARK VINA RESULT:     -11.4      1.186      7.708
REMARK SMILES O=C(NCCCNC(=O)[C@H]1CCC[C@@H]1C[NH2+][C@@H]1CCOC2(CCC2)C1)c1ccc(-c2c3nc(c(-c4cc(S(=O)(=O)[O-])ccc4F)c4ccc([nH]4)c(-c4cc(S(=O)(=O)[O-])ccc4F)c4nc(c(-c5cc(S(=O)(=O)[O-])ccc5F)c5ccc2[nH]5)C=C4)C=C3)cc1
REMARK SMILES IDX 5 1 4 2 3 3 1 4 2 5 26 7 27 8 88 9 28 10 87 11 29 12 30 13
REMARK SMILES IDX 31 14 81 15 32 16 86 17 80 18 82 19 33 20 85 21 79 22 78 23
REMARK SMILES IDX 34 25 66 26 46 27 65 28 47 29 50 30 64 31 83 32 48 33 49 34
REMARK SMILES IDX 63 36 84 37 51 38 35 39 36 40 44 41 37 42 43 43 45 44 42 45
REMARK SMILES IDX 38 46 39 47 40 48 41 49 67 50 68 51 76 52 69 53 75 54 77 55
REMARK SMILES IDX 74 56 70 57 71 58 72 59 73 60 52 61 53 62 61 63 54 64 60 65
REMARK SMILES IDX 62 66 59 67 55 68 56 69 57 70 58 71 6 72 7 73 8 74 9 76
REMARK SMILES IDX 10 77 11 78 14 79 12 80 13 81 15 82 16 83 17 86 18 87 25 88
REMARK SMILES IDX 19 89 21 90 20 91 22 92 24 93 23 94
REMARK H PARENT 3 6 82 24 50 35 7 75 16 84 16 85
REMARK Flexibility Score: inf
ROOT
ATOM      1  C   UNL A   1      31.580  32.027  26.667  1.00  0.00     0.042 C 
ENDROOT
BRANCH   1   2
ATOM      2  C   UNL A   1      32.840  32.739  27.136  1.00  0.00     0.118 C 
BRANCH   2   3
ATOM      3  N   UNL A   1      32.574  34.065  27.683  1.00  0.00    -0.352 N 
ATOM      4  O   UNL A   1      32.647  35.760  29.161  1.00  0.00    -0.269 OA
ATOM      5  C   UNL A   1      33.137  34.706  28.760  1.00  0.00     0.251 C 
ATOM      6  H   UNL A   1      31.883  34.580  27.206  1.00  0.00     0.163 HD
BRANCH   5   7
ATOM      7  C   UNL A   1      34.317  34.127  29.439  1.00  0.00     0.039 A 
ATOM      8  C   UNL A   1      35.606  34.425  28.997  1.00  0.00     0.014 A 
ATOM      9  C   UNL A   1      34.135  33.291  30.545  1.00  0.00     0.014 A 
ATOM     10  C   UNL A   1      36.695  33.764  29.548  1.00  0.00     0.010 A 
ATOM     11  C   UNL A   1      35.244  32.707  31.168  1.00  0.00     0.010 A 
ATOM     12  C   UNL A   1      36.532  32.917  30.655  1.00  0.00    -0.014 A 
BRANCH  12  13
ATOM     13  C   UNL A   1      37.746  32.333  31.286  1.00  0.00     0.031 A 
ATOM     14  C   UNL A   1      38.228  32.796  32.633  1.00  0.00     0.074 A 
ATOM     15  C   UNL A   1      38.371  31.323  30.647  1.00  0.00     0.049 A 
ATOM     16  N   UNL A   1      39.230  32.346  33.345  1.00  0.00    -0.248 NA
ATOM     17  C   UNL A   1      37.500  33.909  33.259  1.00  0.00     0.031 C 
ATOM     18  C   UNL A   1      37.993  30.806  29.326  1.00  0.00     0.029 A 
ATOM     19  N   UNL A   1      39.421  30.528  31.023  1.00  0.00    -0.354 N 
ATOM     20  C   UNL A   1      39.262  33.124  34.498  1.00  0.00     0.074 A 
ATOM     21  C   UNL A   1      38.197  34.097  34.373  1.00  0.00     0.031 C 
ATOM     22  C   UNL A   1      38.755  29.742  29.036  1.00  0.00     0.029 A 
ATOM     23  C   UNL A   1      39.722  29.545  30.108  1.00  0.00     0.049 A 
ATOM     24  H   UNL A   1      39.913  30.648  31.868  1.00  0.00     0.167 HD
ATOM     25  C   UNL A   1      40.099  33.026  35.562  1.00  0.00     0.034 A 
ATOM     26  C   UNL A   1      40.679  28.599  30.119  1.00  0.00     0.034 A 
ATOM     27  C   UNL A   1      41.154  32.045  35.669  1.00  0.00     0.049 A 
ATOM     28  C   UNL A   1      41.599  28.526  31.307  1.00  0.00     0.074 A 
ATOM     29  C   UNL A   1      42.052  31.853  36.705  1.00  0.00     0.029 A 
ATOM     30  N   UNL A   1      41.457  31.091  34.705  1.00  0.00    -0.354 N 
ATOM     31  N   UNL A   1      41.608  29.269  32.390  1.00  0.00    -0.248 NA
ATOM     32  C   UNL A   1      42.633  27.485  31.276  1.00  0.00     0.031 C 
ATOM     33  C   UNL A   1      42.930  30.823  36.345  1.00  0.00     0.029 A 
ATOM     34  C   UNL A   1      42.541  30.326  35.113  1.00  0.00     0.049 A 
ATOM     35  H   UNL A   1      40.973  30.975  33.856  1.00  0.00     0.167 HD
ATOM     36  C   UNL A   1      42.649  28.780  33.172  1.00  0.00     0.074 A 
ATOM     37  C   UNL A   1      43.213  27.654  32.454  1.00  0.00     0.031 C 
ATOM     38  C   UNL A   1      43.105  29.225  34.370  1.00  0.00     0.034 A 
BRANCH  25  39
ATOM     39  C   UNL A   1      39.932  34.030  36.677  1.00  0.00     0.023 A 
ATOM     40  C   UNL A   1      39.439  33.659  37.940  1.00  0.00     0.031 A 
ATOM     41  C   UNL A   1      40.279  35.377  36.477  1.00  0.00     0.131 A 
ATOM     42  C   UNL A   1      39.261  34.632  38.935  1.00  0.00     0.055 A 
ATOM     43  C   UNL A   1      40.163  36.329  37.491  1.00  0.00     0.041 A 
ATOM     44  F   UNL A   1      40.739  35.794  35.286  1.00  0.00    -0.206 F 
ATOM     45  C   UNL A   1      39.641  35.960  38.728  1.00  0.00     0.022 A 
BRANCH  42  46
ATOM     46  S   UNL A   1      38.427  34.159  40.476  1.00  0.00     0.124 S 
ATOM     47  O   UNL A   1      37.285  33.400  39.971  1.00  0.00    -0.237 OA
ATOM     48  O   UNL A   1      39.453  33.388  41.166  1.00  0.00    -0.237 OA
ATOM     49  O   UNL A   1      38.092  35.442  41.092  1.00  0.00    -0.744 OA
ENDBRANCH  42  46
ENDBRANCH  25  39
BRANCH  26  50
ATOM     50  C   UNL A   1      40.844  27.678  28.960  1.00  0.00     0.023 A 
ATOM     51  C   UNL A   1      41.840  27.892  27.995  1.00  0.00     0.031 A 
ATOM     52  C   UNL A   1      39.975  26.585  28.780  1.00  0.00     0.131 A 
ATOM     53  C   UNL A   1      41.913  27.056  26.870  1.00  0.00     0.055 A 
ATOM     54  C   UNL A   1      40.090  25.722  27.691  1.00  0.00     0.041 A 
ATOM     55  F   UNL A   1      39.007  26.333  29.675  1.00  0.00    -0.206 F 
ATOM     56  C   UNL A   1      41.055  25.964  26.718  1.00  0.00     0.022 A 
BRANCH  53  57
ATOM     57  S   UNL A   1      43.085  27.476  25.551  1.00  0.00     0.124 S 
ATOM     58  O   UNL A   1      43.445  26.159  25.039  1.00  0.00    -0.237 OA
ATOM     59  O   UNL A   1      42.265  28.304  24.673  1.00  0.00    -0.237 OA
ATOM     60  O   UNL A   1      44.151  28.186  26.256  1.00  0.00    -0.744 OA
ENDBRANCH  53  57
ENDBRANCH  26  50
BRANCH  38  61
ATOM     61  C   UNL A   1      44.266  28.468  34.966  1.00  0.00     0.023 A 
ATOM     62  C   UNL A   1      44.060  27.359  35.805  1.00  0.00     0.031 A 
ATOM     63  C   UNL A   1      45.585  28.893  34.738  1.00  0.00     0.131 A 
ATOM     64  C   UNL A   1      45.152  26.756  36.446  1.00  0.00     0.055 A 
ATOM     65  C   UNL A   1      46.673  28.250  35.329  1.00  0.00     0.041 A 
ATOM     66  F   UNL A   1      45.838  29.947  33.947  1.00  0.00    -0.206 F 
ATOM     67  C   UNL A   1      46.459  27.186  36.202  1.00  0.00     0.022 A 
BRANCH  64  68
ATOM     68  S   UNL A   1      44.831  25.477  37.690  1.00  0.00     0.124 S 
ATOM     69  O   UNL A   1      44.740  26.262  38.917  1.00  0.00    -0.237 OA
ATOM     70  O   UNL A   1      43.583  24.888  37.217  1.00  0.00    -0.237 OA
ATOM     71  O   UNL A   1      46.002  24.606  37.596  1.00  0.00    -0.744 OA
ENDBRANCH  64  68
ENDBRANCH  38  61
ENDBRANCH  12  13
ENDBRANCH   5   7
ENDBRANCH   2   3
ENDBRANCH   1   2
BRANCH   1  72
ATOM     72  C   UNL A   1      31.612  30.521  26.877  1.00  0.00     0.117 C 
BRANCH  72  73
ATOM     73  N   UNL A   1      32.966  30.020  27.042  1.00  0.00    -0.356 N 
ATOM     74  C   UNL A   1      33.552  28.923  26.483  1.00  0.00     0.223 C 
ATOM     75  H   UNL A   1      33.541  30.547  27.644  1.00  0.00     0.163 HD
ATOM     76  O   UNL A   1      34.704  28.645  26.814  1.00  0.00    -0.275 OA
BRANCH  74  77
ATOM     77  C   UNL A   1      32.757  28.111  25.463  1.00  0.00     0.087 C 
ATOM     78  C   UNL A   1      33.690  27.363  24.509  1.00  0.00     0.014 C 
ATOM     79  C   UNL A   1      31.933  26.987  26.115  1.00  0.00     0.056 C 
ATOM     80  C   UNL A   1      33.967  26.014  25.161  1.00  0.00     0.001 C 
ATOM     81  C   UNL A   1      32.944  25.846  26.279  1.00  0.00     0.010 C 
BRANCH  79  82
ATOM     82  C   UNL A   1      30.734  26.545  25.253  1.00  0.00     0.265 C 
BRANCH  82  83
ATOM     83  N   UNL A   1      30.116  27.713  24.625  1.00  0.00    -0.343 N 
ATOM     84  H   UNL A   1      30.796  28.474  24.615  1.00  0.00     0.346 HD
ATOM     85  H   UNL A   1      29.287  27.949  25.172  1.00  0.00     0.346 HD
BRANCH  83  86
ATOM     86  C   UNL A   1      29.673  27.463  23.244  1.00  0.00     0.187 C 
ATOM     87  C   UNL A   1      30.815  27.586  22.223  1.00  0.00     0.093 C 
ATOM     88  C   UNL A   1      28.530  28.428  22.882  1.00  0.00     0.100 C 
ATOM     89  C   UNL A   1      31.234  29.032  21.991  1.00  0.00     0.167 C 
ATOM     90  C   UNL A   1      29.048  29.850  22.663  1.00  0.00     0.074 C 
ATOM     91  O   UNL A   1      30.093  29.818  21.658  1.00  0.00    -0.375 OA
ATOM     92  C   UNL A   1      27.900  30.861  22.365  1.00  0.00     0.036 C 
ATOM     93  C   UNL A   1      29.346  30.717  23.928  1.00  0.00     0.036 C 
ATOM     94  C   UNL A   1      28.660  31.894  23.213  1.00  0.00     0.006 C 
ENDBRANCH  83  86
ENDBRANCH  82  83
ENDBRANCH  79  82
ENDBRANCH  74  77
ENDBRANCH  72  73
ENDBRANCH   1  72
TORSDOF 16
ENDMDL
MODEL 3
REMARK VINA RESULT:     -11.4      6.103      9.424
REMARK SMILES O=C(NCCCNC(=O)[C@H]1CCC[C@@H]1C[NH2+][C@@H]1CCOC2(CCC2)C1)c1ccc(-c2c3nc(c(-c4cc(S(=O)(=O)[O-])ccc4F)c4ccc([nH]4)c(-c4cc(S(=O)(=O)[O-])ccc4F)c4nc(c(-c5cc(S(=O)(=O)[O-])ccc5F)c5ccc2[nH]5)C=C4)C=C3)cc1
REMARK SMILES IDX 5 1 4 2 3 3 1 4 2 5 26 7 27 8 88 9 28 10 87 11 29 12 30 13
REMARK SMILES IDX 31 14 81 15 32 16 86 17 80 18 82 19 33 20 85 21 79 22 78 23
REMARK SMILES IDX 34 25 66 26 46 27 65 28 47 29 50 30 64 31 83 32 48 33 49 34
REMARK SMILES IDX 63 36 84 37 51 38 35 39 36 40 44 41 37 42 43 43 45 44 42 45
REMARK SMILES IDX 38 46 39 47 40 48 41 49 67 50 68 51 76 52 69 53 75 54 77 55
REMARK SMILES IDX 74 56 70 57 71 58 72 59 73 60 52 61 53 62 61 63 54 64 60 65
REMARK SMILES IDX 62 66 59 67 55 68 56 69 57 70 58 71 6 72 7 73 8 74 9 76
REMARK SMILES IDX 10 77 11 78 14 79 12 80 13 81 15 82 16 83 17 86 18 87 25 88
REMARK SMILES IDX 19 89 21 90 20 91 22 92 24 93 23 94
REMARK H PARENT 3 6 82 24 50 35 7 75 16 84 16 85
REMARK Flexibility Score: inf
ROOT
ATOM      1  C   UNL A   1      36.283  22.898  23.875  1.00  0.00     0.042 C 
ENDROOT
BRANCH   1   2
ATOM      2  C   UNL A   1      36.333  22.399  25.312  1.00  0.00     0.118 C 
BRANCH   2   3
ATOM      3  N   UNL A   1      37.218  21.251  25.484  1.00  0.00    -0.352 N 
ATOM      4  O   UNL A   1      39.155  20.139  25.751  1.00  0.00    -0.269 OA
ATOM      5  C   UNL A   1      38.548  21.204  25.828  1.00  0.00     0.251 C 
ATOM      6  H   UNL A   1      36.797  20.374  25.329  1.00  0.00     0.163 HD
BRANCH   5   7
ATOM      7  C   UNL A   1      39.245  22.429  26.277  1.00  0.00     0.039 A 
ATOM      8  C   UNL A   1      38.859  23.680  25.798  1.00  0.00     0.014 A 
ATOM      9  C   UNL A   1      40.286  22.328  27.206  1.00  0.00     0.014 A 
ATOM     10  C   UNL A   1      39.612  24.803  26.112  1.00  0.00     0.010 A 
ATOM     11  C   UNL A   1      40.977  23.478  27.605  1.00  0.00     0.010 A 
ATOM     12  C   UNL A   1      40.664  24.722  27.039  1.00  0.00    -0.014 A 
BRANCH  12  13
ATOM     13  C   UNL A   1      41.356  25.976  27.438  1.00  0.00     0.031 A 
ATOM     14  C   UNL A   1      42.719  26.321  26.908  1.00  0.00     0.074 A 
ATOM     15  C   UNL A   1      40.697  26.837  28.241  1.00  0.00     0.049 A 
ATOM     16  N   UNL A   1      43.429  27.403  27.111  1.00  0.00    -0.248 NA
ATOM     17  C   UNL A   1      43.376  25.326  26.048  1.00  0.00     0.031 C 
ATOM     18  C   UNL A   1      39.372  26.593  28.824  1.00  0.00     0.029 A 
ATOM     19  N   UNL A   1      41.021  28.094  28.677  1.00  0.00    -0.354 N 
ATOM     20  C   UNL A   1      44.619  27.218  26.413  1.00  0.00     0.074 A 
ATOM     21  C   UNL A   1      44.547  25.904  25.810  1.00  0.00     0.031 C 
ATOM     22  C   UNL A   1      38.972  27.688  29.483  1.00  0.00     0.029 A 
ATOM     23  C   UNL A   1      40.036  28.684  29.436  1.00  0.00     0.049 A 
ATOM     24  H   UNL A   1      41.877  28.534  28.469  1.00  0.00     0.167 HD
ATOM     25  C   UNL A   1      45.667  28.071  26.286  1.00  0.00     0.034 A 
ATOM     26  C   UNL A   1      39.995  29.886  30.042  1.00  0.00     0.034 A 
ATOM     27  C   UNL A   1      45.717  29.381  26.894  1.00  0.00     0.049 A 
ATOM     28  C   UNL A   1      41.178  30.803  29.891  1.00  0.00     0.074 A 
ATOM     29  C   UNL A   1      46.725  30.328  26.821  1.00  0.00     0.029 A 
ATOM     30  N   UNL A   1      44.719  29.930  27.690  1.00  0.00    -0.354 N 
ATOM     31  N   UNL A   1      42.292  30.609  29.223  1.00  0.00    -0.248 NA
ATOM     32  C   UNL A   1      41.097  32.099  30.573  1.00  0.00     0.031 C 
ATOM     33  C   UNL A   1      46.362  31.422  27.615  1.00  0.00     0.029 A 
ATOM     34  C   UNL A   1      45.098  31.190  28.131  1.00  0.00     0.049 A 
ATOM     35  H   UNL A   1      43.867  29.489  27.909  1.00  0.00     0.167 HD
ATOM     36  C   UNL A   1      43.043  31.766  29.402  1.00  0.00     0.074 A 
ATOM     37  C   UNL A   1      42.236  32.664  30.204  1.00  0.00     0.031 C 
ATOM     38  C   UNL A   1      44.290  32.058  28.954  1.00  0.00     0.034 A 
BRANCH  25  39
ATOM     39  C   UNL A   1      46.859  27.599  25.490  1.00  0.00     0.023 A 
ATOM     40  C   UNL A   1      47.053  27.979  24.150  1.00  0.00     0.031 A 
ATOM     41  C   UNL A   1      47.822  26.763  26.082  1.00  0.00     0.131 A 
ATOM     42  C   UNL A   1      48.154  27.485  23.435  1.00  0.00     0.055 A 
ATOM     43  C   UNL A   1      48.951  26.327  25.386  1.00  0.00     0.041 A 
ATOM     44  F   UNL A   1      47.681  26.353  27.353  1.00  0.00    -0.206 F 
ATOM     45  C   UNL A   1      49.117  26.681  24.049  1.00  0.00     0.022 A 
BRANCH  42  46
ATOM     46  S   UNL A   1      48.259  27.823  21.655  1.00  0.00     0.124 S 
ATOM     47  O   UNL A   1      47.029  28.576  21.426  1.00  0.00    -0.237 OA
ATOM     48  O   UNL A   1      49.501  28.578  21.551  1.00  0.00    -0.237 OA
ATOM     49  O   UNL A   1      48.288  26.490  21.054  1.00  0.00    -0.744 OA
ENDBRANCH  42  46
ENDBRANCH  25  39
BRANCH  26  50
ATOM     50  C   UNL A   1      38.821  30.273  30.873  1.00  0.00     0.023 A 
ATOM     51  C   UNL A   1      37.770  31.034  30.340  1.00  0.00     0.031 A 
ATOM     52  C   UNL A   1      38.754  29.916  32.233  1.00  0.00     0.131 A 
ATOM     53  C   UNL A   1      36.721  31.454  31.172  1.00  0.00     0.055 A 
ATOM     54  C   UNL A   1      37.680  30.287  33.041  1.00  0.00     0.041 A 
ATOM     55  F   UNL A   1      39.732  29.186  32.792  1.00  0.00    -0.206 F 
ATOM     56  C   UNL A   1      36.661  31.074  32.515  1.00  0.00     0.022 A 
BRANCH  53  57
ATOM     57  S   UNL A   1      35.482  32.594  30.498  1.00  0.00     0.124 S 
ATOM     58  O   UNL A   1      34.389  32.448  31.452  1.00  0.00    -0.237 OA
ATOM     59  O   UNL A   1      36.195  33.866  30.530  1.00  0.00    -0.237 OA
ATOM     60  O   UNL A   1      35.221  32.061  29.162  1.00  0.00    -0.744 OA
ENDBRANCH  53  57
ENDBRANCH  26  50
BRANCH  38  61
ATOM     61  C   UNL A   1      44.831  33.416  29.324  1.00  0.00     0.023 A 
ATOM     62  C   UNL A   1      44.794  34.489  28.416  1.00  0.00     0.031 A 
ATOM     63  C   UNL A   1      45.440  33.624  30.573  1.00  0.00     0.131 A 
ATOM     64  C   UNL A   1      45.420  35.701  28.741  1.00  0.00     0.055 A 
ATOM     65  C   UNL A   1      46.007  34.852  30.915  1.00  0.00     0.041 A 
ATOM     66  F   UNL A   1      45.505  32.633  31.476  1.00  0.00    -0.206 F 
ATOM     67  C   UNL A   1      46.014  35.894  29.991  1.00  0.00     0.022 A 
BRANCH  64  68
ATOM     68  S   UNL A   1      45.546  36.983  27.465  1.00  0.00     0.124 S 
ATOM     69  O   UNL A   1      46.482  37.925  28.072  1.00  0.00    -0.237 OA
ATOM     70  O   UNL A   1      46.049  36.234  26.319  1.00  0.00    -0.237 OA
ATOM     71  O   UNL A   1      44.174  37.470  27.332  1.00  0.00    -0.744 OA
ENDBRANCH  64  68
ENDBRANCH  38  61
ENDBRANCH  12  13
ENDBRANCH   5   7
ENDBRANCH   2   3
ENDBRANCH   1   2
BRANCH   1  72
ATOM     72  C   UNL A   1      34.874  23.004  23.312  1.00  0.00     0.117 C 
BRANCH  72  73
ATOM     73  N   UNL A   1      34.324  24.341  23.459  1.00  0.00    -0.356 N 
ATOM     74  C   UNL A   1      33.489  24.828  24.420  1.00  0.00     0.223 C 
ATOM     75  H   UNL A   1      34.593  24.987  22.765  1.00  0.00     0.163 HD
ATOM     76  O   UNL A   1      33.092  25.988  24.315  1.00  0.00    -0.275 OA
BRANCH  74  77
ATOM     77  C   UNL A   1      33.106  23.917  25.583  1.00  0.00     0.087 C 
ATOM     78  C   UNL A   1      32.213  24.652  26.586  1.00  0.00     0.014 C 
ATOM     79  C   UNL A   1      32.243  22.722  25.141  1.00  0.00     0.056 C 
ATOM     80  C   UNL A   1      30.780  24.426  26.117  1.00  0.00     0.001 C 
ATOM     81  C   UNL A   1      30.824  23.301  25.089  1.00  0.00     0.010 C 
BRANCH  79  82
ATOM     82  C   UNL A   1      32.320  21.532  26.117  1.00  0.00     0.265 C 
BRANCH  82  83
ATOM     83  N   UNL A   1      32.272  20.274  25.370  1.00  0.00    -0.343 N 
ATOM     84  H   UNL A   1      31.339  20.169  24.972  1.00  0.00     0.346 HD
ATOM     85  H   UNL A   1      32.494  19.524  26.026  1.00  0.00     0.346 HD
BRANCH  83  86
ATOM     86  C   UNL A   1      33.258  20.210  24.279  1.00  0.00     0.187 C 
ATOM     87  C   UNL A   1      32.612  19.932  22.912  1.00  0.00     0.093 C 
ATOM     88  C   UNL A   1      34.314  19.135  24.596  1.00  0.00     0.100 C 
ATOM     89  C   UNL A   1      32.136  18.492  22.776  1.00  0.00     0.167 C 
ATOM     90  C   UNL A   1      33.745  17.726  24.426  1.00  0.00     0.074 C 
ATOM     91  O   UNL A   1      33.203  17.599  23.088  1.00  0.00    -0.375 OA
ATOM     92  C   UNL A   1      34.775  16.620  24.811  1.00  0.00     0.036 C 
ATOM     93  C   UNL A   1      32.858  17.157  25.580  1.00  0.00     0.036 C 
ATOM     94  C   UNL A   1      33.612  15.825  25.426  1.00  0.00     0.006 C 
ENDBRANCH  83  86
ENDBRANCH  82  83
ENDBRANCH  79  82
ENDBRANCH  74  77
ENDBRANCH  72  73
ENDBRANCH   1  72
TORSDOF 16
ENDMDL
