MODEL 1
REMARK VINA RESULT:     -13.3      0.000      0.000
REMARK SMILES O=C(NCCCNC(=O)c1ccc2c(c1)[C@@H]1C=CC[C@@H]1[C@H](c1ccncc1)N2)c1ccc(-c2c3nc(c(-c4cc(S(=O)(=O)[O-])ccc4F)c4ccc([nH]4)c(-c4cc(S(=O)(=O)[O-])ccc4F)c4nc(c(-c5cc(S(=O)(=O)[O-])ccc5F)c5ccc2[nH]5)C=C4)C=C3)cc1
REMARK SMILES IDX 4 1 3 2 1 3 2 4 29 6 30 7 91 8 31 9 90 10 32 11 33 12 34 13
REMARK SMILES IDX 84 14 35 15 89 16 83 17 85 18 36 19 88 20 82 21 81 22 37 24
REMARK SMILES IDX 69 25 49 26 68 27 50 28 53 29 67 30 86 31 51 32 52 33 66 35
REMARK SMILES IDX 87 36 54 37 38 38 39 39 47 40 40 41 46 42 48 43 45 44 41 45
REMARK SMILES IDX 42 46 43 47 44 48 70 49 71 50 79 51 72 52 78 53 80 54 77 55
REMARK SMILES IDX 73 56 74 57 75 58 76 59 55 60 56 61 64 62 57 63 63 64 65 65
REMARK SMILES IDX 62 66 58 67 59 68 60 69 61 70 5 71 6 72 7 73 8 74 9 76 10 77
REMARK SMILES IDX 11 78 15 79 12 80 14 81 13 82 16 83 28 84 17 85 20 86 21 87
REMARK SMILES IDX 18 89 19 90 22 91 23 92 27 93 24 94 26 95 25 96
REMARK H PARENT 3 5 85 23 53 34 7 75 28 88
REMARK Flexibility Score: inf
ROOT
ATOM      1  C   UNL A   1      36.874  22.103  25.765  1.00  0.00     0.118 C 
ENDROOT
BRANCH   1   2
ATOM      2  N   UNL A   1      37.928  21.113  25.944  1.00  0.00    -0.352 N 
ATOM      3  O   UNL A   1      40.024  20.333  26.150  1.00  0.00    -0.269 OA
ATOM      4  C   UNL A   1      39.252  21.281  26.266  1.00  0.00     0.251 C 
ATOM      5  H   UNL A   1      37.648  20.178  25.816  1.00  0.00     0.163 HD
BRANCH   4   6
ATOM      6  C   UNL A   1      39.746  22.590  26.747  1.00  0.00     0.039 A 
ATOM      7  C   UNL A   1      40.703  22.665  27.761  1.00  0.00     0.014 A 
ATOM      8  C   UNL A   1      39.289  23.761  26.132  1.00  0.00     0.014 A 
ATOM      9  C   UNL A   1      41.110  23.901  28.246  1.00  0.00     0.010 A 
ATOM     10  C   UNL A   1      39.771  25.002  26.556  1.00  0.00     0.010 A 
ATOM     11  C   UNL A   1      40.679  25.081  27.624  1.00  0.00    -0.014 A 
BRANCH  11  12
ATOM     12  C   UNL A   1      41.291  26.372  28.023  1.00  0.00     0.031 A 
ATOM     13  C   UNL A   1      40.491  27.430  28.725  1.00  0.00     0.074 A 
ATOM     14  C   UNL A   1      42.593  26.569  27.731  1.00  0.00     0.049 A 
ATOM     15  N   UNL A   1      40.871  28.619  29.115  1.00  0.00    -0.248 NA
ATOM     16  C   UNL A   1      39.084  27.121  29.022  1.00  0.00     0.031 C 
ATOM     17  C   UNL A   1      43.454  25.605  27.037  1.00  0.00     0.029 A 
ATOM     18  N   UNL A   1      43.422  27.632  27.976  1.00  0.00    -0.354 N 
ATOM     19  C   UNL A   1      39.751  29.213  29.683  1.00  0.00     0.074 A 
ATOM     20  C   UNL A   1      38.669  28.255  29.575  1.00  0.00     0.031 C 
ATOM     21  C   UNL A   1      44.691  26.110  26.934  1.00  0.00     0.029 A 
ATOM     22  C   UNL A   1      44.696  27.460  27.483  1.00  0.00     0.049 A 
ATOM     23  H   UNL A   1      43.135  28.442  28.457  1.00  0.00     0.167 HD
ATOM     24  C   UNL A   1      39.643  30.443  30.240  1.00  0.00     0.034 A 
ATOM     25  C   UNL A   1      45.741  28.307  27.438  1.00  0.00     0.034 A 
ATOM     26  C   UNL A   1      40.743  31.371  30.353  1.00  0.00     0.049 A 
ATOM     27  C   UNL A   1      45.573  29.682  28.023  1.00  0.00     0.074 A 
ATOM     28  C   UNL A   1      40.768  32.601  30.989  1.00  0.00     0.029 A 
ATOM     29  N   UNL A   1      42.003  31.184  29.801  1.00  0.00    -0.354 N 
ATOM     30  N   UNL A   1      44.522  30.200  28.616  1.00  0.00    -0.248 NA
ATOM     31  C   UNL A   1      46.725  30.586  27.933  1.00  0.00     0.031 C 
ATOM     32  C   UNL A   1      42.017  33.188  30.758  1.00  0.00     0.029 A 
ATOM     33  C   UNL A   1      42.795  32.299  30.034  1.00  0.00     0.049 A 
ATOM     34  H   UNL A   1      42.292  30.378  29.315  1.00  0.00     0.167 HD
ATOM     35  C   UNL A   1      44.889  31.493  28.970  1.00  0.00     0.074 A 
ATOM     36  C   UNL A   1      46.267  31.662  28.554  1.00  0.00     0.031 C 
ATOM     37  C   UNL A   1      44.156  32.456  29.581  1.00  0.00     0.034 A 
BRANCH  24  38
ATOM     38  C   UNL A   1      38.288  30.885  30.729  1.00  0.00     0.023 A 
ATOM     39  C   UNL A   1      37.344  31.485  29.879  1.00  0.00     0.031 A 
ATOM     40  C   UNL A   1      37.924  30.667  32.071  1.00  0.00     0.131 A 
ATOM     41  C   UNL A   1      36.096  31.878  30.387  1.00  0.00     0.055 A 
ATOM     42  C   UNL A   1      36.662  31.008  32.557  1.00  0.00     0.041 A 
ATOM     43  F   UNL A   1      38.794  30.114  32.931  1.00  0.00    -0.206 F 
ATOM     44  C   UNL A   1      35.741  31.624  31.715  1.00  0.00     0.022 A 
BRANCH  41  45
ATOM     45  S   UNL A   1      34.962  32.796  29.309  1.00  0.00     0.124 S 
ATOM     46  O   UNL A   1      35.888  33.642  28.558  1.00  0.00    -0.237 OA
ATOM     47  O   UNL A   1      34.314  31.732  28.552  1.00  0.00    -0.237 OA
ATOM     48  O   UNL A   1      34.098  33.510  30.247  1.00  0.00    -0.744 OA
ENDBRANCH  41  45
ENDBRANCH  24  38
BRANCH  25  49
ATOM     49  C   UNL A   1      47.003  27.911  26.752  1.00  0.00     0.023 A 
ATOM     50  C   UNL A   1      47.140  28.018  25.360  1.00  0.00     0.031 A 
ATOM     51  C   UNL A   1      48.080  27.374  27.481  1.00  0.00     0.131 A 
ATOM     52  C   UNL A   1      48.310  27.558  24.737  1.00  0.00     0.055 A 
ATOM     53  C   UNL A   1      49.264  26.971  26.864  1.00  0.00     0.041 A 
ATOM     54  F   UNL A   1      48.002  27.249  28.816  1.00  0.00    -0.206 F 
ATOM     55  C   UNL A   1      49.377  27.047  25.480  1.00  0.00     0.022 A 
BRANCH  52  56
ATOM     56  S   UNL A   1      48.377  27.540  22.925  1.00  0.00     0.124 S 
ATOM     57  O   UNL A   1      49.631  28.237  22.665  1.00  0.00    -0.237 OA
ATOM     58  O   UNL A   1      48.368  26.109  22.638  1.00  0.00    -0.237 OA
ATOM     59  O   UNL A   1      47.169  28.262  22.533  1.00  0.00    -0.744 OA
ENDBRANCH  52  56
ENDBRANCH  25  49
BRANCH  37  60
ATOM     60  C   UNL A   1      44.848  33.769  29.833  1.00  0.00     0.023 A 
ATOM     61  C   UNL A   1      44.765  34.824  28.907  1.00  0.00     0.031 A 
ATOM     62  C   UNL A   1      45.618  33.958  30.993  1.00  0.00     0.131 A 
ATOM     63  C   UNL A   1      45.483  36.006  29.133  1.00  0.00     0.055 A 
ATOM     64  C   UNL A   1      46.287  35.157  31.239  1.00  0.00     0.041 A 
ATOM     65  F   UNL A   1      45.732  32.979  31.904  1.00  0.00    -0.206 F 
ATOM     66  C   UNL A   1      46.231  36.186  30.300  1.00  0.00     0.022 A 
BRANCH  63  67
ATOM     67  S   UNL A   1      45.486  37.283  27.845  1.00  0.00     0.124 S 
ATOM     68  O   UNL A   1      44.574  36.715  26.856  1.00  0.00    -0.237 OA
ATOM     69  O   UNL A   1      44.998  38.455  28.563  1.00  0.00    -0.237 OA
ATOM     70  O   UNL A   1      46.887  37.349  27.432  1.00  0.00    -0.744 OA
ENDBRANCH  63  67
ENDBRANCH  37  60
ENDBRANCH  11  12
ENDBRANCH   4   6
ENDBRANCH   1   2
BRANCH   1  71
ATOM     71  C   UNL A   1      35.937  21.747  24.623  1.00  0.00     0.042 C 
BRANCH  71  72
ATOM     72  C   UNL A   1      34.722  20.946  25.060  1.00  0.00     0.118 C 
BRANCH  72  73
ATOM     73  N   UNL A   1      34.393  21.144  26.468  1.00  0.00    -0.352 N 
ATOM     74  C   UNL A   1      33.632  22.126  27.056  1.00  0.00     0.251 C 
ATOM     75  H   UNL A   1      34.770  20.478  27.086  1.00  0.00     0.163 HD
ATOM     76  O   UNL A   1      33.596  22.241  28.279  1.00  0.00    -0.269 OA
BRANCH  74  77
ATOM     77  C   UNL A   1      32.860  23.054  26.209  1.00  0.00     0.040 A 
ATOM     78  C   UNL A   1      31.544  22.747  25.876  1.00  0.00     0.016 A 
ATOM     79  C   UNL A   1      33.429  24.255  25.786  1.00  0.00     0.020 A 
ATOM     80  C   UNL A   1      30.787  23.672  25.155  1.00  0.00     0.027 A 
ATOM     81  C   UNL A   1      32.639  25.229  25.161  1.00  0.00    -0.017 A 
ATOM     82  C   UNL A   1      31.326  24.912  24.777  1.00  0.00     0.038 A 
ATOM     83  C   UNL A   1      33.198  26.620  24.967  1.00  0.00     0.049 C 
ATOM     84  N   UNL A   1      30.522  25.835  24.120  1.00  0.00    -0.378 N 
ATOM     85  C   UNL A   1      33.634  27.253  26.270  1.00  0.00    -0.023 C 
ATOM     86  C   UNL A   1      32.151  27.645  24.500  1.00  0.00     0.031 C 
ATOM     87  C   UNL A   1      31.131  27.024  23.543  1.00  0.00     0.114 C 
ATOM     88  H   UNL A   1      29.552  25.685  24.046  1.00  0.00     0.161 HD
ATOM     89  C   UNL A   1      32.744  28.145  26.719  1.00  0.00    -0.030 C 
ATOM     90  C   UNL A   1      31.582  28.269  25.786  1.00  0.00     0.034 C 
BRANCH  87  91
ATOM     91  C   UNL A   1      30.098  28.033  23.063  1.00  0.00    -0.022 A 
ATOM     92  C   UNL A   1      30.527  29.161  22.348  1.00  0.00     0.026 A 
ATOM     93  C   UNL A   1      28.725  27.902  23.299  1.00  0.00     0.026 A 
ATOM     94  C   UNL A   1      29.587  30.077  21.900  1.00  0.00     0.111 A 
ATOM     95  C   UNL A   1      27.860  28.862  22.794  1.00  0.00     0.111 A 
ATOM     96  N   UNL A   1      28.261  29.945  22.095  1.00  0.00    -0.265 NA
ENDBRANCH  87  91
ENDBRANCH  74  77
ENDBRANCH  72  73
ENDBRANCH  71  72
ENDBRANCH   1  71
TORSDOF 14
ENDMDL
MODEL 2
REMARK VINA RESULT:     -13.2      5.014     10.012
REMARK SMILES O=C(NCCCNC(=O)c1ccc2c(c1)[C@@H]1C=CC[C@@H]1[C@H](c1ccncc1)N2)c1ccc(-c2c3nc(c(-c4cc(S(=O)(=O)[O-])ccc4F)c4ccc([nH]4)c(-c4cc(S(=O)(=O)[O-])ccc4F)c4nc(c(-c5cc(S(=O)(=O)[O-])ccc5F)c5ccc2[nH]5)C=C4)C=C3)cc1
REMARK SMILES IDX 4 1 3 2 1 3 2 4 29 6 30 7 91 8 31 9 90 10 32 11 33 12 34 13
REMARK SMILES IDX 84 14 35 15 89 16 83 17 85 18 36 19 88 20 82 21 81 22 37 24
REMARK SMILES IDX 69 25 49 26 68 27 50 28 53 29 67 30 86 31 51 32 52 33 66 35
REMARK SMILES IDX 87 36 54 37 38 38 39 39 47 40 40 41 46 42 48 43 45 44 41 45
REMARK SMILES IDX 42 46 43 47 44 48 70 49 71 50 79 51 72 52 78 53 80 54 77 55
REMARK SMILES IDX 73 56 74 57 75 58 76 59 55 60 56 61 64 62 57 63 63 64 65 65
REMARK SMILES IDX 62 66 58 67 59 68 60 69 61 70 5 71 6 72 7 73 8 74 9 76 10 77
REMARK SMILES IDX 11 78 15 79 12 80 14 81 13 82 16 83 28 84 17 85 20 86 21 87
REMARK SMILES IDX 18 89 19 90 22 91 23 92 27 93 24 94 26 95 25 96
REMARK H PARENT 3 5 85 23 53 34 7 75 28 88
REMARK Flexibility Score: inf
ROOT
ATOM      1  C   UNL A   1      33.191  29.767  26.267  1.00  0.00     0.118 C 
ENDROOT
BRANCH   1   2
ATOM      2  N   UNL A   1      33.099  31.169  26.652  1.00  0.00    -0.352 N 
ATOM      3  O   UNL A   1      33.471  33.007  27.889  1.00  0.00    -0.269 OA
ATOM      4  C   UNL A   1      33.854  31.893  27.541  1.00  0.00     0.251 C 
ATOM      5  H   UNL A   1      32.384  31.678  26.205  1.00  0.00     0.163 HD
BRANCH   4   6
ATOM      6  C   UNL A   1      35.116  31.336  28.078  1.00  0.00     0.039 A 
ATOM      7  C   UNL A   1      36.293  32.088  28.061  1.00  0.00     0.014 A 
ATOM      8  C   UNL A   1      35.108  30.066  28.664  1.00  0.00     0.014 A 
ATOM      9  C   UNL A   1      37.483  31.530  28.510  1.00  0.00     0.010 A 
ATOM     10  C   UNL A   1      36.287  29.542  29.202  1.00  0.00     0.010 A 
ATOM     11  C   UNL A   1      37.485  30.268  29.120  1.00  0.00    -0.014 A 
BRANCH  11  12
ATOM     12  C   UNL A   1      38.725  29.788  29.778  1.00  0.00     0.031 A 
ATOM     13  C   UNL A   1      39.572  28.715  29.158  1.00  0.00     0.074 A 
ATOM     14  C   UNL A   1      39.068  30.344  30.959  1.00  0.00     0.049 A 
ATOM     15  N   UNL A   1      40.667  28.169  29.619  1.00  0.00    -0.248 NA
ATOM     16  C   UNL A   1      39.134  28.181  27.860  1.00  0.00     0.031 C 
ATOM     17  C   UNL A   1      38.302  31.385  31.651  1.00  0.00     0.029 A 
ATOM     18  N   UNL A   1      40.139  30.121  31.784  1.00  0.00    -0.354 N 
ATOM     19  C   UNL A   1      41.040  27.211  28.684  1.00  0.00     0.074 A 
ATOM     20  C   UNL A   1      40.045  27.242  27.632  1.00  0.00     0.031 C 
ATOM     21  C   UNL A   1      38.937  31.726  32.781  1.00  0.00     0.029 A 
ATOM     22  C   UNL A   1      40.112  30.878  32.933  1.00  0.00     0.049 A 
ATOM     23  H   UNL A   1      40.857  29.481  31.577  1.00  0.00     0.167 HD
ATOM     24  C   UNL A   1      42.115  26.387  28.709  1.00  0.00     0.034 A 
ATOM     25  C   UNL A   1      40.918  30.865  34.012  1.00  0.00     0.034 A 
ATOM     26  C   UNL A   1      43.105  26.391  29.761  1.00  0.00     0.049 A 
ATOM     27  C   UNL A   1      42.075  29.904  34.028  1.00  0.00     0.074 A 
ATOM     28  C   UNL A   1      44.284  25.669  29.834  1.00  0.00     0.029 A 
ATOM     29  N   UNL A   1      43.021  27.134  30.930  1.00  0.00    -0.354 N 
ATOM     30  N   UNL A   1      42.448  29.051  33.102  1.00  0.00    -0.248 NA
ATOM     31  C   UNL A   1      42.916  29.900  35.230  1.00  0.00     0.031 C 
ATOM     32  C   UNL A   1      44.875  25.920  31.077  1.00  0.00     0.029 A 
ATOM     33  C   UNL A   1      44.099  26.847  31.755  1.00  0.00     0.049 A 
ATOM     34  H   UNL A   1      42.302  27.771  31.143  1.00  0.00     0.167 HD
ATOM     35  C   UNL A   1      43.571  28.410  33.611  1.00  0.00     0.074 A 
ATOM     36  C   UNL A   1      43.831  28.997  34.910  1.00  0.00     0.031 C 
ATOM     37  C   UNL A   1      44.319  27.422  33.060  1.00  0.00     0.034 A 
BRANCH  24  38
ATOM     38  C   UNL A   1      42.263  25.378  27.600  1.00  0.00     0.023 A 
ATOM     39  C   UNL A   1      41.552  24.166  27.590  1.00  0.00     0.031 A 
ATOM     40  C   UNL A   1      43.111  25.656  26.511  1.00  0.00     0.131 A 
ATOM     41  C   UNL A   1      41.727  23.263  26.530  1.00  0.00     0.055 A 
ATOM     42  C   UNL A   1      43.238  24.779  25.433  1.00  0.00     0.041 A 
ATOM     43  F   UNL A   1      43.827  26.791  26.478  1.00  0.00    -0.206 F 
ATOM     44  C   UNL A   1      42.549  23.570  25.441  1.00  0.00     0.022 A 
BRANCH  41  45
ATOM     45  S   UNL A   1      40.924  21.638  26.624  1.00  0.00     0.124 S 
ATOM     46  O   UNL A   1      39.653  21.896  25.951  1.00  0.00    -0.237 OA
ATOM     47  O   UNL A   1      41.862  20.780  25.909  1.00  0.00    -0.237 OA
ATOM     48  O   UNL A   1      40.821  21.388  28.060  1.00  0.00    -0.744 OA
ENDBRANCH  41  45
ENDBRANCH  24  38
BRANCH  25  49
ATOM     49  C   UNL A   1      40.617  31.727  35.189  1.00  0.00     0.023 A 
ATOM     50  C   UNL A   1      39.542  31.443  36.043  1.00  0.00     0.031 A 
ATOM     51  C   UNL A   1      41.380  32.880  35.450  1.00  0.00     0.131 A 
ATOM     52  C   UNL A   1      39.234  32.322  37.093  1.00  0.00     0.055 A 
ATOM     53  C   UNL A   1      41.106  33.721  36.528  1.00  0.00     0.041 A 
ATOM     54  F   UNL A   1      42.420  33.200  34.662  1.00  0.00    -0.206 F 
ATOM     55  C   UNL A   1      40.016  33.451  37.349  1.00  0.00     0.022 A 
BRANCH  52  56
ATOM     56  S   UNL A   1      37.730  32.024  38.061  1.00  0.00     0.124 S 
ATOM     57  O   UNL A   1      38.197  32.262  39.422  1.00  0.00    -0.237 OA
ATOM     58  O   UNL A   1      36.817  33.022  37.512  1.00  0.00    -0.237 OA
ATOM     59  O   UNL A   1      37.395  30.636  37.750  1.00  0.00    -0.744 OA
ENDBRANCH  52  56
ENDBRANCH  25  49
BRANCH  37  60
ATOM     60  C   UNL A   1      45.488  26.932  33.872  1.00  0.00     0.023 A 
ATOM     61  C   UNL A   1      45.363  25.829  34.734  1.00  0.00     0.031 A 
ATOM     62  C   UNL A   1      46.728  27.589  33.803  1.00  0.00     0.131 A 
ATOM     63  C   UNL A   1      46.448  25.446  35.534  1.00  0.00     0.055 A 
ATOM     64  C   UNL A   1      47.821  27.168  34.561  1.00  0.00     0.041 A 
ATOM     65  F   UNL A   1      46.896  28.650  32.998  1.00  0.00    -0.206 F 
ATOM     66  C   UNL A   1      47.681  26.097  35.442  1.00  0.00     0.022 A 
BRANCH  63  67
ATOM     67  S   UNL A   1      46.206  24.124  36.752  1.00  0.00     0.124 S 
ATOM     68  O   UNL A   1      44.986  23.486  36.268  1.00  0.00    -0.237 OA
ATOM     69  O   UNL A   1      47.431  23.343  36.617  1.00  0.00    -0.237 OA
ATOM     70  O   UNL A   1      46.069  24.845  38.017  1.00  0.00    -0.744 OA
ENDBRANCH  63  67
ENDBRANCH  37  60
ENDBRANCH  11  12
ENDBRANCH   4   6
ENDBRANCH   1   2
BRANCH   1  71
ATOM     71  C   UNL A   1      31.825  29.139  26.043  1.00  0.00     0.042 C 
BRANCH  71  72
ATOM     72  C   UNL A   1      31.411  29.091  24.582  1.00  0.00     0.118 C 
BRANCH  72  73
ATOM     73  N   UNL A   1      32.539  29.247  23.670  1.00  0.00    -0.352 N 
ATOM     74  C   UNL A   1      33.360  28.288  23.125  1.00  0.00     0.251 C 
ATOM     75  H   UNL A   1      32.742  30.173  23.407  1.00  0.00     0.163 HD
ATOM     76  O   UNL A   1      34.372  28.610  22.507  1.00  0.00    -0.269 OA
BRANCH  74  77
ATOM     77  C   UNL A   1      33.024  26.862  23.293  1.00  0.00     0.040 A 
ATOM     78  C   UNL A   1      32.208  26.234  22.357  1.00  0.00     0.016 A 
ATOM     79  C   UNL A   1      33.561  26.135  24.355  1.00  0.00     0.020 A 
ATOM     80  C   UNL A   1      31.971  24.862  22.467  1.00  0.00     0.027 A 
ATOM     81  C   UNL A   1      33.417  24.743  24.403  1.00  0.00    -0.017 A 
ATOM     82  C   UNL A   1      32.557  24.106  23.494  1.00  0.00     0.038 A 
ATOM     83  C   UNL A   1      34.236  23.950  25.396  1.00  0.00     0.049 C 
ATOM     84  N   UNL A   1      32.353  22.732  23.532  1.00  0.00    -0.378 N 
ATOM     85  C   UNL A   1      35.721  24.178  25.230  1.00  0.00    -0.023 C 
ATOM     86  C   UNL A   1      34.165  22.429  25.175  1.00  0.00     0.031 C 
ATOM     87  C   UNL A   1      32.779  21.984  24.705  1.00  0.00     0.114 C 
ATOM     88  H   UNL A   1      31.927  22.271  22.774  1.00  0.00     0.161 HD
ATOM     89  C   UNL A   1      36.318  23.167  24.589  1.00  0.00    -0.030 C 
ATOM     90  C   UNL A   1      35.339  22.092  24.239  1.00  0.00     0.034 C 
BRANCH  87  91
ATOM     91  C   UNL A   1      32.693  20.478  24.498  1.00  0.00    -0.022 A 
ATOM     92  C   UNL A   1      32.421  19.981  23.215  1.00  0.00     0.026 A 
ATOM     93  C   UNL A   1      32.868  19.547  25.528  1.00  0.00     0.026 A 
ATOM     94  C   UNL A   1      32.352  18.609  23.021  1.00  0.00     0.111 A 
ATOM     95  C   UNL A   1      32.799  18.194  25.232  1.00  0.00     0.111 A 
ATOM     96  N   UNL A   1      32.550  17.704  23.999  1.00  0.00    -0.265 NA
ENDBRANCH  87  91
ENDBRANCH  74  77
ENDBRANCH  72  73
ENDBRANCH  71  72
ENDBRANCH   1  71
TORSDOF 14
ENDMDL
MODEL 3
REMARK VINA RESULT:     -13.2      5.006     10.040
REMARK SMILES O=C(NCCCNC(=O)c1ccc2c(c1)[C@@H]1C=CC[C@@H]1[C@H](c1ccncc1)N2)c1ccc(-c2c3nc(c(-c4cc(S(=O)(=O)[O-])ccc4F)c4ccc([nH]4)c(-c4cc(S(=O)(=O)[O-])ccc4F)c4nc(c(-c5cc(S(=O)(=O)[O-])ccc5F)c5ccc2[nH]5)C=C4)C=C3)cc1
REMARK SMILES IDX 4 1 3 2 1 3 2 4 29 6 30 7 91 8 31 9 90 10 32 11 33 12 34 13
REMARK SMILES IDX 84 14 35 15 89 16 83 17 85 18 36 19 88 20 82 21 81 22 37 24
REMARK SMILES IDX 69 25 49 26 68 27 50 28 53 29 67 30 86 31 51 32 52 33 66 35
REMARK SMILES IDX 87 36 54 37 38 38 39 39 47 40 40 41 46 42 48 43 45 44 41 45
REMARK SMILES IDX 42 46 43 47 44 48 70 49 71 50 79 51 72 52 78 53 80 54 77 55
REMARK SMILES IDX 73 56 74 57 75 58 76 59 55 60 56 61 64 62 57 63 63 64 65 65
REMARK SMILES IDX 62 66 58 67 59 68 60 69 61 70 5 71 6 72 7 73 8 74 9 76 10 77
REMARK SMILES IDX 11 78 15 79 12 80 14 81 13 82 16 83 28 84 17 85 20 86 21 87
REMARK SMILES IDX 18 89 19 90 22 91 23 92 27 93 24 94 26 95 25 96
REMARK H PARENT 3 5 85 23 53 34 7 75 28 88
REMARK Flexibility Score: inf
ROOT
ATOM      1  C   UNL A   1      32.789  29.811  25.899  1.00  0.00     0.118 C 
ENDROOT
BRANCH   1   2
ATOM      2  N   UNL A   1      32.559  31.195  26.291  1.00  0.00    -0.352 N 
ATOM      3  O   UNL A   1      32.700  33.037  27.569  1.00  0.00    -0.269 OA
ATOM      4  C   UNL A   1      33.193  31.962  27.237  1.00  0.00     0.251 C 
ATOM      5  H   UNL A   1      31.837  31.652  25.802  1.00  0.00     0.163 HD
BRANCH   4   6
ATOM      6  C   UNL A   1      34.457  31.500  27.852  1.00  0.00     0.039 A 
ATOM      7  C   UNL A   1      35.532  32.376  28.019  1.00  0.00     0.014 A 
ATOM      8  C   UNL A   1      34.548  30.186  28.324  1.00  0.00     0.014 A 
ATOM      9  C   UNL A   1      36.735  31.912  28.538  1.00  0.00     0.010 A 
ATOM     10  C   UNL A   1      35.726  29.747  28.934  1.00  0.00     0.010 A 
ATOM     11  C   UNL A   1      36.831  30.605  29.037  1.00  0.00    -0.014 A 
BRANCH  11  12
ATOM     12  C   UNL A   1      38.054  30.205  29.776  1.00  0.00     0.031 A 
ATOM     13  C   UNL A   1      39.040  29.240  29.186  1.00  0.00     0.074 A 
ATOM     14  C   UNL A   1      38.251  30.732  31.002  1.00  0.00     0.049 A 
ATOM     15  N   UNL A   1      40.140  28.769  29.714  1.00  0.00    -0.248 NA
ATOM     16  C   UNL A   1      38.756  28.730  27.836  1.00  0.00     0.031 C 
ATOM     17  C   UNL A   1      37.341  31.670  31.669  1.00  0.00     0.029 A 
ATOM     18  N   UNL A   1      39.268  30.565  31.904  1.00  0.00    -0.354 N 
ATOM     19  C   UNL A   1      40.671  27.892  28.776  1.00  0.00     0.074 A 
ATOM     20  C   UNL A   1      39.763  27.886  27.648  1.00  0.00     0.031 C 
ATOM     21  C   UNL A   1      37.852  32.011  32.860  1.00  0.00     0.029 A 
ATOM     22  C   UNL A   1      39.083  31.262  33.076  1.00  0.00     0.049 A 
ATOM     23  H   UNL A   1      40.056  29.999  31.732  1.00  0.00     0.167 HD
ATOM     24  C   UNL A   1      41.811  27.164  28.857  1.00  0.00     0.034 A 
ATOM     25  C   UNL A   1      39.799  31.268  34.216  1.00  0.00     0.034 A 
ATOM     26  C   UNL A   1      42.710  27.205  29.987  1.00  0.00     0.049 A 
ATOM     27  C   UNL A   1      41.033  30.412  34.290  1.00  0.00     0.074 A 
ATOM     28  C   UNL A   1      43.940  26.586  30.129  1.00  0.00     0.029 A 
ATOM     29  N   UNL A   1      42.467  27.882  31.174  1.00  0.00    -0.354 N 
ATOM     30  N   UNL A   1      41.554  29.639  33.364  1.00  0.00    -0.248 NA
ATOM     31  C   UNL A   1      41.774  30.425  35.556  1.00  0.00     0.031 C 
ATOM     32  C   UNL A   1      44.405  26.829  31.426  1.00  0.00     0.029 A 
ATOM     33  C   UNL A   1      43.498  27.652  32.073  1.00  0.00     0.049 A 
ATOM     34  H   UNL A   1      41.679  28.444  31.352  1.00  0.00     0.167 HD
ATOM     35  C   UNL A   1      42.686  29.074  33.939  1.00  0.00     0.074 A 
ATOM     36  C   UNL A   1      42.789  29.620  35.277  1.00  0.00     0.031 C 
ATOM     37  C   UNL A   1      43.562  28.182  33.413  1.00  0.00     0.034 A 
BRANCH  24  38
ATOM     38  C   UNL A   1      42.136  26.225  27.725  1.00  0.00     0.023 A 
ATOM     39  C   UNL A   1      41.698  24.890  27.709  1.00  0.00     0.031 A 
ATOM     40  C   UNL A   1      42.873  26.692  26.620  1.00  0.00     0.131 A 
ATOM     41  C   UNL A   1      42.029  24.059  26.628  1.00  0.00     0.055 A 
ATOM     42  C   UNL A   1      43.151  25.877  25.523  1.00  0.00     0.041 A 
ATOM     43  F   UNL A   1      43.331  27.953  26.591  1.00  0.00    -0.206 F 
ATOM     44  C   UNL A   1      42.735  24.549  25.525  1.00  0.00     0.022 A 
BRANCH  41  45
ATOM     45  S   UNL A   1      41.592  22.300  26.711  1.00  0.00     0.124 S 
ATOM     46  O   UNL A   1      42.013  21.827  25.394  1.00  0.00    -0.237 OA
ATOM     47  O   UNL A   1      42.386  21.830  27.841  1.00  0.00    -0.237 OA
ATOM     48  O   UNL A   1      40.147  22.314  26.928  1.00  0.00    -0.744 OA
ENDBRANCH  41  45
ENDBRANCH  24  38
BRANCH  25  49
ATOM     49  C   UNL A   1      39.329  32.045  35.397  1.00  0.00     0.023 A 
ATOM     50  C   UNL A   1      39.722  33.376  35.597  1.00  0.00     0.031 A 
ATOM     51  C   UNL A   1      38.508  31.447  36.371  1.00  0.00     0.131 A 
ATOM     52  C   UNL A   1      39.330  34.052  36.762  1.00  0.00     0.055 A 
ATOM     53  C   UNL A   1      38.073  32.141  37.500  1.00  0.00     0.041 A 
ATOM     54  F   UNL A   1      38.102  30.174  36.229  1.00  0.00    -0.206 F 
ATOM     55  C   UNL A   1      38.497  33.448  37.708  1.00  0.00     0.022 A 
BRANCH  52  56
ATOM     56  S   UNL A   1      40.009  35.704  37.076  1.00  0.00     0.124 S 
ATOM     57  O   UNL A   1      39.297  36.096  38.287  1.00  0.00    -0.237 OA
ATOM     58  O   UNL A   1      41.432  35.420  37.233  1.00  0.00    -0.237 OA
ATOM     59  O   UNL A   1      39.653  36.453  35.873  1.00  0.00    -0.744 OA
ENDBRANCH  52  56
ENDBRANCH  25  49
BRANCH  37  60
ATOM     60  C   UNL A   1      44.702  27.758  34.299  1.00  0.00     0.023 A 
ATOM     61  C   UNL A   1      44.620  26.595  35.084  1.00  0.00     0.031 A 
ATOM     62  C   UNL A   1      45.870  28.537  34.379  1.00  0.00     0.131 A 
ATOM     63  C   UNL A   1      45.667  26.269  35.957  1.00  0.00     0.055 A 
ATOM     64  C   UNL A   1      46.932  28.177  35.209  1.00  0.00     0.041 A 
ATOM     65  F   UNL A   1      45.994  29.658  33.653  1.00  0.00    -0.206 F 
ATOM     66  C   UNL A   1      46.830  27.043  36.012  1.00  0.00     0.022 A 
BRANCH  63  67
ATOM     67  S   UNL A   1      45.461  24.855  37.073  1.00  0.00     0.124 S 
ATOM     68  O   UNL A   1      46.559  25.052  38.015  1.00  0.00    -0.237 OA
ATOM     69  O   UNL A   1      44.119  25.066  37.604  1.00  0.00    -0.237 OA
ATOM     70  O   UNL A   1      45.602  23.698  36.189  1.00  0.00    -0.744 OA
ENDBRANCH  63  67
ENDBRANCH  37  60
ENDBRANCH  11  12
ENDBRANCH   4   6
ENDBRANCH   1   2
BRANCH   1  71
ATOM     71  C   UNL A   1      31.502  29.097  25.520  1.00  0.00     0.042 C 
BRANCH  71  72
ATOM     72  C   UNL A   1      31.241  29.067  24.024  1.00  0.00     0.118 C 
BRANCH  72  73
ATOM     73  N   UNL A   1      32.460  29.213  23.235  1.00  0.00    -0.352 N 
ATOM     74  C   UNL A   1      33.360  28.255  22.834  1.00  0.00     0.251 C 
ATOM     75  H   UNL A   1      32.668  30.132  22.950  1.00  0.00     0.163 HD
ATOM     76  O   UNL A   1      34.426  28.577  22.316  1.00  0.00    -0.269 OA
BRANCH  74  77
ATOM     77  C   UNL A   1      33.042  26.829  23.035  1.00  0.00     0.040 A 
ATOM     78  C   UNL A   1      32.347  26.134  22.050  1.00  0.00     0.016 A 
ATOM     79  C   UNL A   1      33.481  26.169  24.183  1.00  0.00     0.020 A 
ATOM     80  C   UNL A   1      32.133  24.763  22.202  1.00  0.00     0.027 A 
ATOM     81  C   UNL A   1      33.366  24.776  24.283  1.00  0.00    -0.017 A 
ATOM     82  C   UNL A   1      32.624  24.073  23.321  1.00  0.00     0.038 A 
ATOM     83  C   UNL A   1      34.093  24.054  25.395  1.00  0.00     0.049 C 
ATOM     84  N   UNL A   1      32.451  22.697  23.405  1.00  0.00    -0.378 N 
ATOM     85  C   UNL A   1      35.582  24.319  25.376  1.00  0.00    -0.023 C 
ATOM     86  C   UNL A   1      34.083  22.523  25.244  1.00  0.00     0.031 C 
ATOM     87  C   UNL A   1      32.766  22.016  24.652  1.00  0.00     0.114 C 
ATOM     88  H   UNL A   1      32.119  22.189  22.630  1.00  0.00     0.161 HD
ATOM     89  C   UNL A   1      36.268  23.296  24.853  1.00  0.00    -0.030 C 
ATOM     90  C   UNL A   1      35.359  22.178  24.455  1.00  0.00     0.034 C 
BRANCH  87  91
ATOM     91  C   UNL A   1      32.739  20.501  24.511  1.00  0.00    -0.022 A 
ATOM     92  C   UNL A   1      32.527  19.937  23.245  1.00  0.00     0.026 A 
ATOM     93  C   UNL A   1      32.914  19.624  25.588  1.00  0.00     0.026 A 
ATOM     94  C   UNL A   1      32.512  18.557  23.111  1.00  0.00     0.111 A 
ATOM     95  C   UNL A   1      32.901  18.257  25.352  1.00  0.00     0.111 A 
ATOM     96  N   UNL A   1      32.709  17.704  24.135  1.00  0.00    -0.265 NA
ENDBRANCH  87  91
ENDBRANCH  74  77
ENDBRANCH  72  73
ENDBRANCH  71  72
ENDBRANCH   1  71
TORSDOF 14
ENDMDL
