MODEL 1
REMARK VINA RESULT:     -12.6      0.000      0.000
REMARK SMILES C=Cc1cc(Cl)cc2c1O[C@H](C(F)(F)F)C(C(=O)NCCCNC(=O)c1ccc(-c3c4nc(c(-c5cc(S(=O)(=O)[O-])ccc5F)c5ccc([nH]5)c(-c5cc(S(=O)(=O)[O-])ccc5F)c5nc(c(-c6cc(S(=O)(=O)[O-])ccc6F)c6ccc3[nH]6)C=C5)C=C4)cc1)=C2
REMARK SMILES IDX 22 1 21 2 20 3 19 4 17 5 18 6 16 8 3 9 4 10 9 11 5 12 8 13
REMARK SMILES IDX 10 14 6 15 7 16 89 17 11 18 2 19 1 20 12 21 13 22 14 23
REMARK SMILES IDX 15 24 23 25 24 26 25 28 26 29 27 30 88 31 28 32 87 33 29 34
REMARK SMILES IDX 30 35 31 36 81 37 32 38 86 39 80 40 82 41 33 42 85 43 79 44
REMARK SMILES IDX 78 45 34 47 66 48 46 49 65 50 47 51 50 52 64 53 83 54 48 55
REMARK SMILES IDX 49 56 63 58 84 59 51 60 35 61 36 62 44 63 37 64 43 65 45 66
REMARK SMILES IDX 42 67 38 68 39 69 40 70 41 71 67 72 68 73 76 74 69 75 75 76
REMARK SMILES IDX 77 77 74 78 70 79 71 80 72 81 73 82 52 83 53 84 61 85 54 86
REMARK SMILES IDX 60 87 62 88 59 89 55 90 56 91 57 92 58 93
REMARK H PARENT 19 7 23 27 82 46 50 57
REMARK Flexibility Score: inf
ROOT
ATOM      1  C   UNL A   1      36.403  22.431  25.358  1.00  0.00     0.118 C 
ENDROOT
BRANCH   1   2
ATOM      2  C   UNL A   1      35.190  22.319  26.275  1.00  0.00     0.042 C 
BRANCH   2   3
ATOM      3  C   UNL A   1      33.881  22.404  25.502  1.00  0.00     0.118 C 
BRANCH   3   4
ATOM      4  N   UNL A   1      34.106  22.623  24.080  1.00  0.00    -0.352 N 
ATOM      5  C   UNL A   1      33.831  23.579  23.163  1.00  0.00     0.251 C 
ATOM      6  O   UNL A   1      34.213  23.328  22.015  1.00  0.00    -0.270 OA
ATOM      7  H   UNL A   1      34.590  21.869  23.674  1.00  0.00     0.163 HD
BRANCH   5   8
ATOM      8  C   UNL A   1      33.139  24.869  23.443  1.00  0.00     0.067 C 
ATOM      9  C   UNL A   1      31.410  28.636  24.196  1.00  0.00     0.018 A 
ATOM     10  C   UNL A   1      31.927  29.420  25.237  1.00  0.00     0.032 A 
ATOM     11  C   UNL A   1      32.025  27.406  23.908  1.00  0.00     0.135 A 
ATOM     12  C   UNL A   1      33.050  28.992  25.945  1.00  0.00     0.042 A 
ATOM     13  C   UNL A   1      33.158  26.983  24.612  1.00  0.00     0.019 A 
ATOM     14  O   UNL A   1      31.514  26.660  22.877  1.00  0.00    -0.475 OA
ATOM     15  Cl  UNL A   1      33.671  29.964  27.222  1.00  0.00    -0.084 Cl
ATOM     16  C   UNL A   1      33.674  27.784  25.634  1.00  0.00     0.032 A 
ATOM     17  C   UNL A   1      33.796  25.722  24.253  1.00  0.00     0.025 C 
ATOM     18  C   UNL A   1      31.780  25.233  22.923  1.00  0.00     0.314 C 
BRANCH   9  19
ATOM     19  C   UNL A   1      30.205  29.055  23.463  1.00  0.00     0.004 C 
ATOM     20  C   UNL A   1      30.230  29.628  22.253  1.00  0.00     0.009 C 
ENDBRANCH   9  19
BRANCH  18  21
ATOM     21  C   UNL A   1      30.643  24.530  23.688  1.00  0.00     0.429 C 
ATOM     22  F   UNL A   1      29.531  25.305  23.711  1.00  0.00    -0.167 F 
ATOM     23  F   UNL A   1      30.282  23.354  23.123  1.00  0.00    -0.167 F 
ATOM     24  F   UNL A   1      30.971  24.258  24.972  1.00  0.00    -0.167 F 
ENDBRANCH  18  21
ENDBRANCH   5   8
ENDBRANCH   3   4
ENDBRANCH   2   3
ENDBRANCH   1   2
BRANCH   1  25
ATOM     25  N   UNL A   1      37.337  21.323  25.550  1.00  0.00    -0.352 N 
ATOM     26  C   UNL A   1      38.660  21.333  25.927  1.00  0.00     0.251 C 
ATOM     27  H   UNL A   1      36.960  20.428  25.384  1.00  0.00     0.163 HD
ATOM     28  O   UNL A   1      39.340  20.320  25.785  1.00  0.00    -0.269 OA
BRANCH  26  29
ATOM     29  C   UNL A   1      39.259  22.566  26.476  1.00  0.00     0.039 A 
ATOM     30  C   UNL A   1      38.772  23.812  26.083  1.00  0.00     0.014 A 
ATOM     31  C   UNL A   1      40.323  22.483  27.379  1.00  0.00     0.014 A 
ATOM     32  C   UNL A   1      39.475  24.960  26.417  1.00  0.00     0.010 A 
ATOM     33  C   UNL A   1      40.960  23.652  27.808  1.00  0.00     0.010 A 
ATOM     34  C   UNL A   1      40.577  24.897  27.285  1.00  0.00    -0.014 A 
BRANCH  34  35
ATOM     35  C   UNL A   1      41.292  26.154  27.630  1.00  0.00     0.031 A 
ATOM     36  C   UNL A   1      42.655  26.450  27.065  1.00  0.00     0.074 A 
ATOM     37  C   UNL A   1      40.664  27.068  28.396  1.00  0.00     0.049 A 
ATOM     38  N   UNL A   1      43.393  27.518  27.222  1.00  0.00    -0.248 NA
ATOM     39  C   UNL A   1      43.275  25.417  26.219  1.00  0.00     0.031 C 
ATOM     40  C   UNL A   1      39.335  26.886  28.985  1.00  0.00     0.029 A 
ATOM     41  N   UNL A   1      41.025  28.335  28.780  1.00  0.00    -0.354 N 
ATOM     42  C   UNL A   1      44.567  27.280  26.516  1.00  0.00     0.074 A 
ATOM     43  C   UNL A   1      44.459  25.953  25.954  1.00  0.00     0.031 C 
ATOM     44  C   UNL A   1      38.962  28.021  29.586  1.00  0.00     0.029 A 
ATOM     45  C   UNL A   1      40.056  28.986  29.508  1.00  0.00     0.049 A 
ATOM     46  H   UNL A   1      41.895  28.739  28.556  1.00  0.00     0.167 HD
ATOM     47  C   UNL A   1      45.630  28.103  26.345  1.00  0.00     0.034 A 
ATOM     48  C   UNL A   1      40.046  30.214  30.066  1.00  0.00     0.034 A 
ATOM     49  C   UNL A   1      45.707  29.435  26.889  1.00  0.00     0.049 A 
ATOM     50  C   UNL A   1      41.253  31.094  29.887  1.00  0.00     0.074 A 
ATOM     51  C   UNL A   1      46.727  30.358  26.742  1.00  0.00     0.029 A 
ATOM     52  N   UNL A   1      44.732  30.036  27.674  1.00  0.00    -0.354 N 
ATOM     53  N   UNL A   1      42.342  30.862  29.192  1.00  0.00    -0.248 NA
ATOM     54  C   UNL A   1      41.243  32.393  30.573  1.00  0.00     0.031 C 
ATOM     55  C   UNL A   1      46.396  31.493  27.484  1.00  0.00     0.029 A 
ATOM     56  C   UNL A   1      45.142  31.306  28.043  1.00  0.00     0.049 A 
ATOM     57  H   UNL A   1      43.878  29.621  27.930  1.00  0.00     0.167 HD
ATOM     58  C   UNL A   1      43.147  31.985  29.356  1.00  0.00     0.074 A 
ATOM     59  C   UNL A   1      42.402  32.911  30.186  1.00  0.00     0.031 C 
ATOM     60  C   UNL A   1      44.392  32.221  28.872  1.00  0.00     0.034 A 
BRANCH  47  61
ATOM     61  C   UNL A   1      46.803  27.614  25.532  1.00  0.00     0.023 A 
ATOM     62  C   UNL A   1      46.945  28.015  24.189  1.00  0.00     0.031 A 
ATOM     63  C   UNL A   1      47.700  26.657  26.038  1.00  0.00     0.131 A 
ATOM     64  C   UNL A   1      47.940  27.437  23.391  1.00  0.00     0.055 A 
ATOM     65  C   UNL A   1      48.712  26.110  25.249  1.00  0.00     0.041 A 
ATOM     66  F   UNL A   1      47.607  26.244  27.313  1.00  0.00    -0.206 F 
ATOM     67  C   UNL A   1      48.827  26.491  23.915  1.00  0.00     0.022 A 
BRANCH  64  68
ATOM     68  S   UNL A   1      48.086  27.844  21.630  1.00  0.00     0.124 S 
ATOM     69  O   UNL A   1      46.798  28.482  21.364  1.00  0.00    -0.237 OA
ATOM     70  O   UNL A   1      49.239  28.740  21.618  1.00  0.00    -0.237 OA
ATOM     71  O   UNL A   1      48.284  26.552  20.985  1.00  0.00    -0.744 OA
ENDBRANCH  64  68
ENDBRANCH  47  61
BRANCH  48  72
ATOM     72  C   UNL A   1      38.831  30.662  30.808  1.00  0.00     0.023 A 
ATOM     73  C   UNL A   1      37.825  31.405  30.161  1.00  0.00     0.031 A 
ATOM     74  C   UNL A   1      38.724  30.474  32.195  1.00  0.00     0.131 A 
ATOM     75  C   UNL A   1      36.814  32.015  30.914  1.00  0.00     0.055 A 
ATOM     76  C   UNL A   1      37.668  31.017  32.931  1.00  0.00     0.041 A 
ATOM     77  F   UNL A   1      39.662  29.782  32.859  1.00  0.00    -0.206 F 
ATOM     78  C   UNL A   1      36.719  31.812  32.293  1.00  0.00     0.022 A 
BRANCH  75  79
ATOM     79  S   UNL A   1      35.697  33.225  30.153  1.00  0.00     0.124 S 
ATOM     80  O   UNL A   1      35.449  34.147  31.256  1.00  0.00    -0.237 OA
ATOM     81  O   UNL A   1      36.518  33.749  29.064  1.00  0.00    -0.237 OA
ATOM     82  O   UNL A   1      34.554  32.421  29.732  1.00  0.00    -0.744 OA
ENDBRANCH  75  79
ENDBRANCH  48  72
BRANCH  60  83
ATOM     83  C   UNL A   1      45.066  33.520  29.232  1.00  0.00     0.023 A 
ATOM     84  C   UNL A   1      44.996  34.618  28.354  1.00  0.00     0.031 A 
ATOM     85  C   UNL A   1      45.904  33.615  30.355  1.00  0.00     0.131 A 
ATOM     86  C   UNL A   1      45.791  35.747  28.589  1.00  0.00     0.055 A 
ATOM     87  C   UNL A   1      46.659  34.760  30.611  1.00  0.00     0.041 A 
ATOM     88  F   UNL A   1      46.009  32.588  31.215  1.00  0.00    -0.206 F 
ATOM     89  C   UNL A   1      46.616  35.827  29.716  1.00  0.00     0.022 A 
BRANCH  86  90
ATOM     90  S   UNL A   1      45.848  37.116  27.400  1.00  0.00     0.124 S 
ATOM     91  O   UNL A   1      46.737  38.062  28.071  1.00  0.00    -0.237 OA
ATOM     92  O   UNL A   1      46.404  36.469  26.216  1.00  0.00    -0.237 OA
ATOM     93  O   UNL A   1      44.457  37.543  27.288  1.00  0.00    -0.744 OA
ENDBRANCH  86  90
ENDBRANCH  60  83
ENDBRANCH  34  35
ENDBRANCH  26  29
ENDBRANCH   1  25
TORSDOF 15
ENDMDL
MODEL 2
REMARK VINA RESULT:     -12.5      5.734     10.844
REMARK SMILES C=Cc1cc(Cl)cc2c1O[C@H](C(F)(F)F)C(C(=O)NCCCNC(=O)c1ccc(-c3c4nc(c(-c5cc(S(=O)(=O)[O-])ccc5F)c5ccc([nH]5)c(-c5cc(S(=O)(=O)[O-])ccc5F)c5nc(c(-c6cc(S(=O)(=O)[O-])ccc6F)c6ccc3[nH]6)C=C5)C=C4)cc1)=C2
REMARK SMILES IDX 22 1 21 2 20 3 19 4 17 5 18 6 16 8 3 9 4 10 9 11 5 12 8 13
REMARK SMILES IDX 10 14 6 15 7 16 89 17 11 18 2 19 1 20 12 21 13 22 14 23
REMARK SMILES IDX 15 24 23 25 24 26 25 28 26 29 27 30 88 31 28 32 87 33 29 34
REMARK SMILES IDX 30 35 31 36 81 37 32 38 86 39 80 40 82 41 33 42 85 43 79 44
REMARK SMILES IDX 78 45 34 47 66 48 46 49 65 50 47 51 50 52 64 53 83 54 48 55
REMARK SMILES IDX 49 56 63 58 84 59 51 60 35 61 36 62 44 63 37 64 43 65 45 66
REMARK SMILES IDX 42 67 38 68 39 69 40 70 41 71 67 72 68 73 76 74 69 75 75 76
REMARK SMILES IDX 77 77 74 78 70 79 71 80 72 81 73 82 52 83 53 84 61 85 54 86
REMARK SMILES IDX 60 87 62 88 59 89 55 90 56 91 57 92 58 93
REMARK H PARENT 19 7 23 27 82 46 50 57
REMARK Flexibility Score: inf
ROOT
ATOM      1  C   UNL A   1      32.888  32.534  27.503  1.00  0.00     0.118 C 
ENDROOT
BRANCH   1   2
ATOM      2  C   UNL A   1      31.680  31.881  26.840  1.00  0.00     0.042 C 
BRANCH   2   3
ATOM      3  C   UNL A   1      32.080  30.707  25.957  1.00  0.00     0.118 C 
BRANCH   3   4
ATOM      4  N   UNL A   1      33.378  30.164  26.333  1.00  0.00    -0.352 N 
ATOM      5  C   UNL A   1      34.044  28.995  26.203  1.00  0.00     0.251 C 
ATOM      6  O   UNL A   1      35.170  28.974  26.712  1.00  0.00    -0.270 OA
ATOM      7  H   UNL A   1      33.918  30.831  26.814  1.00  0.00     0.163 HD
BRANCH   5   8
ATOM      8  C   UNL A   1      33.533  27.784  25.499  1.00  0.00     0.067 C 
ATOM      9  C   UNL A   1      32.315  24.351  23.384  1.00  0.00     0.018 A 
ATOM     10  C   UNL A   1      32.298  24.392  21.983  1.00  0.00     0.032 A 
ATOM     11  C   UNL A   1      32.777  25.476  24.086  1.00  0.00     0.135 A 
ATOM     12  C   UNL A   1      32.764  25.522  21.309  1.00  0.00     0.042 A 
ATOM     13  C   UNL A   1      33.254  26.604  23.409  1.00  0.00     0.019 A 
ATOM     14  O   UNL A   1      32.800  25.412  25.456  1.00  0.00    -0.475 OA
ATOM     15  Cl  UNL A   1      32.734  25.558  19.588  1.00  0.00    -0.084 Cl
ATOM     16  C   UNL A   1      33.249  26.623  22.012  1.00  0.00     0.032 A 
ATOM     17  C   UNL A   1      33.769  27.735  24.174  1.00  0.00     0.025 C 
ATOM     18  C   UNL A   1      32.760  26.681  26.160  1.00  0.00     0.314 C 
BRANCH   9  19
ATOM     19  C   UNL A   1      31.794  23.183  24.110  1.00  0.00     0.004 C 
ATOM     20  C   UNL A   1      32.328  21.957  24.031  1.00  0.00     0.009 C 
ENDBRANCH   9  19
BRANCH  18  21
ATOM     21  C   UNL A   1      31.293  27.064  26.433  1.00  0.00     0.429 C 
ATOM     22  F   UNL A   1      30.790  27.792  25.405  1.00  0.00    -0.167 F 
ATOM     23  F   UNL A   1      30.489  25.984  26.571  1.00  0.00    -0.167 F 
ATOM     24  F   UNL A   1      31.148  27.802  27.558  1.00  0.00    -0.167 F 
ENDBRANCH  18  21
ENDBRANCH   5   8
ENDBRANCH   3   4
ENDBRANCH   2   3
ENDBRANCH   1   2
BRANCH   1  25
ATOM     25  N   UNL A   1      32.672  33.959  27.749  1.00  0.00    -0.352 N 
ATOM     26  C   UNL A   1      33.212  34.785  28.708  1.00  0.00     0.251 C 
ATOM     27  H   UNL A   1      32.043  34.397  27.131  1.00  0.00     0.163 HD
ATOM     28  O   UNL A   1      32.713  35.889  28.910  1.00  0.00    -0.269 OA
BRANCH  26  29
ATOM     29  C   UNL A   1      34.369  34.329  29.505  1.00  0.00     0.039 A 
ATOM     30  C   UNL A   1      35.665  34.595  29.067  1.00  0.00     0.014 A 
ATOM     31  C   UNL A   1      34.162  33.619  30.692  1.00  0.00     0.014 A 
ATOM     32  C   UNL A   1      36.740  33.976  29.688  1.00  0.00     0.010 A 
ATOM     33  C   UNL A   1      35.258  33.093  31.383  1.00  0.00     0.010 A 
ATOM     34  C   UNL A   1      36.552  33.218  30.856  1.00  0.00    -0.014 A 
BRANCH  34  35
ATOM     35  C   UNL A   1      37.734  32.585  31.499  1.00  0.00     0.031 A 
ATOM     36  C   UNL A   1      38.186  33.005  32.871  1.00  0.00     0.074 A 
ATOM     37  C   UNL A   1      38.348  31.566  30.866  1.00  0.00     0.049 A 
ATOM     38  N   UNL A   1      39.162  32.522  33.596  1.00  0.00    -0.248 NA
ATOM     39  C   UNL A   1      37.457  34.111  33.515  1.00  0.00     0.031 C 
ATOM     40  C   UNL A   1      37.981  31.072  29.537  1.00  0.00     0.029 A 
ATOM     41  N   UNL A   1      39.372  30.740  31.255  1.00  0.00    -0.354 N 
ATOM     42  C   UNL A   1      39.179  33.273  34.766  1.00  0.00     0.074 A 
ATOM     43  C   UNL A   1      38.136  34.266  34.644  1.00  0.00     0.031 C 
ATOM     44  C   UNL A   1      38.710  29.986  29.256  1.00  0.00     0.029 A 
ATOM     45  C   UNL A   1      39.661  29.754  30.340  1.00  0.00     0.049 A 
ATOM     46  H   UNL A   1      39.853  30.842  32.108  1.00  0.00     0.167 HD
ATOM     47  C   UNL A   1      39.984  33.134  35.846  1.00  0.00     0.034 A 
ATOM     48  C   UNL A   1      40.595  28.780  30.355  1.00  0.00     0.034 A 
ATOM     49  C   UNL A   1      40.999  32.117  35.962  1.00  0.00     0.049 A 
ATOM     50  C   UNL A   1      41.497  28.669  31.554  1.00  0.00     0.074 A 
ATOM     51  C   UNL A   1      41.843  31.875  37.031  1.00  0.00     0.029 A 
ATOM     52  N   UNL A   1      41.305  31.178  34.988  1.00  0.00    -0.354 N 
ATOM     53  N   UNL A   1      41.479  29.371  32.662  1.00  0.00    -0.248 NA
ATOM     54  C   UNL A   1      42.553  27.650  31.505  1.00  0.00     0.031 C 
ATOM     55  C   UNL A   1      42.696  30.826  36.682  1.00  0.00     0.029 A 
ATOM     56  C   UNL A   1      42.345  30.372  35.420  1.00  0.00     0.049 A 
ATOM     57  H   UNL A   1      40.850  31.096  34.119  1.00  0.00     0.167 HD
ATOM     58  C   UNL A   1      42.519  28.878  33.444  1.00  0.00     0.074 A 
ATOM     59  C   UNL A   1      43.122  27.795  32.695  1.00  0.00     0.031 C 
ATOM     60  C   UNL A   1      42.940  29.295  34.664  1.00  0.00     0.034 A 
BRANCH  47  61
ATOM     61  C   UNL A   1      39.813  34.083  37.006  1.00  0.00     0.023 A 
ATOM     62  C   UNL A   1      39.208  33.637  38.198  1.00  0.00     0.031 A 
ATOM     63  C   UNL A   1      40.125  35.449  36.890  1.00  0.00     0.131 A 
ATOM     64  C   UNL A   1      38.906  34.555  39.211  1.00  0.00     0.055 A 
ATOM     65  C   UNL A   1      39.854  36.354  37.918  1.00  0.00     0.041 A 
ATOM     66  F   UNL A   1      40.705  35.923  35.775  1.00  0.00    -0.206 F 
ATOM     67  C   UNL A   1      39.230  35.910  39.080  1.00  0.00     0.022 A 
BRANCH  64  68
ATOM     68  S   UNL A   1      38.029  34.041  40.714  1.00  0.00     0.124 S 
ATOM     69  O   UNL A   1      39.086  33.355  41.455  1.00  0.00    -0.237 OA
ATOM     70  O   UNL A   1      37.605  35.321  41.273  1.00  0.00    -0.237 OA
ATOM     71  O   UNL A   1      36.960  33.182  40.219  1.00  0.00    -0.744 OA
ENDBRANCH  64  68
ENDBRANCH  47  61
BRANCH  48  72
ATOM     72  C   UNL A   1      40.674  27.836  29.202  1.00  0.00     0.023 A 
ATOM     73  C   UNL A   1      41.616  28.032  28.174  1.00  0.00     0.031 A 
ATOM     74  C   UNL A   1      39.726  26.812  29.042  1.00  0.00     0.131 A 
ATOM     75  C   UNL A   1      41.527  27.284  26.994  1.00  0.00     0.055 A 
ATOM     76  C   UNL A   1      39.693  26.014  27.897  1.00  0.00     0.041 A 
ATOM     77  F   UNL A   1      38.802  26.591  29.989  1.00  0.00    -0.206 F 
ATOM     78  C   UNL A   1      40.582  26.265  26.855  1.00  0.00     0.022 A 
BRANCH  75  79
ATOM     79  S   UNL A   1      42.521  27.727  25.541  1.00  0.00     0.124 S 
ATOM     80  O   UNL A   1      43.843  27.927  26.126  1.00  0.00    -0.237 OA
ATOM     81  O   UNL A   1      42.373  26.540  24.703  1.00  0.00    -0.237 OA
ATOM     82  O   UNL A   1      41.867  28.928  25.031  1.00  0.00    -0.744 OA
ENDBRANCH  75  79
ENDBRANCH  48  72
BRANCH  60  83
ATOM     83  C   UNL A   1      44.129  28.606  35.285  1.00  0.00     0.023 A 
ATOM     84  C   UNL A   1      43.936  27.588  36.239  1.00  0.00     0.031 A 
ATOM     85  C   UNL A   1      45.435  29.066  35.054  1.00  0.00     0.131 A 
ATOM     86  C   UNL A   1      45.030  27.099  36.962  1.00  0.00     0.055 A 
ATOM     87  C   UNL A   1      46.529  28.542  35.744  1.00  0.00     0.041 A 
ATOM     88  F   UNL A   1      45.665  30.041  34.159  1.00  0.00    -0.206 F 
ATOM     89  C   UNL A   1      46.326  27.564  36.715  1.00  0.00     0.022 A 
BRANCH  86  90
ATOM     90  S   UNL A   1      44.803  25.903  38.308  1.00  0.00     0.124 S 
ATOM     91  O   UNL A   1      43.893  24.934  37.700  1.00  0.00    -0.237 OA
ATOM     92  O   UNL A   1      46.166  25.428  38.528  1.00  0.00    -0.237 OA
ATOM     93  O   UNL A   1      44.232  26.697  39.390  1.00  0.00    -0.744 OA
ENDBRANCH  86  90
ENDBRANCH  60  83
ENDBRANCH  34  35
ENDBRANCH  26  29
ENDBRANCH   1  25
TORSDOF 15
ENDMDL
MODEL 3
REMARK VINA RESULT:     -12.5      5.399     10.533
REMARK SMILES C=Cc1cc(Cl)cc2c1O[C@H](C(F)(F)F)C(C(=O)NCCCNC(=O)c1ccc(-c3c4nc(c(-c5cc(S(=O)(=O)[O-])ccc5F)c5ccc([nH]5)c(-c5cc(S(=O)(=O)[O-])ccc5F)c5nc(c(-c6cc(S(=O)(=O)[O-])ccc6F)c6ccc3[nH]6)C=C5)C=C4)cc1)=C2
REMARK SMILES IDX 22 1 21 2 20 3 19 4 17 5 18 6 16 8 3 9 4 10 9 11 5 12 8 13
REMARK SMILES IDX 10 14 6 15 7 16 89 17 11 18 2 19 1 20 12 21 13 22 14 23
REMARK SMILES IDX 15 24 23 25 24 26 25 28 26 29 27 30 88 31 28 32 87 33 29 34
REMARK SMILES IDX 30 35 31 36 81 37 32 38 86 39 80 40 82 41 33 42 85 43 79 44
REMARK SMILES IDX 78 45 34 47 66 48 46 49 65 50 47 51 50 52 64 53 83 54 48 55
REMARK SMILES IDX 49 56 63 58 84 59 51 60 35 61 36 62 44 63 37 64 43 65 45 66
REMARK SMILES IDX 42 67 38 68 39 69 40 70 41 71 67 72 68 73 76 74 69 75 75 76
REMARK SMILES IDX 77 77 74 78 70 79 71 80 72 81 73 82 52 83 53 84 61 85 54 86
REMARK SMILES IDX 60 87 62 88 59 89 55 90 56 91 57 92 58 93
REMARK H PARENT 19 7 23 27 82 46 50 57
REMARK Flexibility Score: inf
ROOT
ATOM      1  C   UNL A   1      32.189  31.958  27.118  1.00  0.00     0.118 C 
ENDROOT
BRANCH   1   2
ATOM      2  C   UNL A   1      31.166  31.696  26.018  1.00  0.00     0.042 C 
BRANCH   2   3
ATOM      3  C   UNL A   1      31.377  30.342  25.355  1.00  0.00     0.118 C 
BRANCH   3   4
ATOM      4  N   UNL A   1      30.597  30.210  24.132  1.00  0.00    -0.352 N 
ATOM      5  C   UNL A   1      30.276  29.232  23.255  1.00  0.00     0.251 C 
ATOM      6  O   UNL A   1      29.569  29.590  22.306  1.00  0.00    -0.270 OA
ATOM      7  H   UNL A   1      30.193  31.069  23.872  1.00  0.00     0.163 HD
BRANCH   5   8
ATOM      8  C   UNL A   1      30.692  27.805  23.364  1.00  0.00     0.067 C 
ATOM      9  C   UNL A   1      31.618  23.709  23.702  1.00  0.00     0.018 A 
ATOM     10  C   UNL A   1      31.228  23.022  24.860  1.00  0.00     0.032 A 
ATOM     11  C   UNL A   1      31.257  25.060  23.565  1.00  0.00     0.135 A 
ATOM     12  C   UNL A   1      30.470  23.669  25.836  1.00  0.00     0.042 A 
ATOM     13  C   UNL A   1      30.487  25.704  24.540  1.00  0.00     0.019 A 
ATOM     14  O   UNL A   1      31.634  25.711  22.418  1.00  0.00    -0.475 OA
ATOM     15  Cl  UNL A   1      30.002  22.813  27.254  1.00  0.00    -0.084 Cl
ATOM     16  C   UNL A   1      30.090  25.001  25.680  1.00  0.00     0.032 A 
ATOM     17  C   UNL A   1      30.094  27.094  24.340  1.00  0.00     0.025 C 
ATOM     18  C   UNL A   1      31.737  27.157  22.503  1.00  0.00     0.314 C 
BRANCH   9  19
ATOM     19  C   UNL A   1      32.447  23.053  22.679  1.00  0.00     0.004 C 
ATOM     20  C   UNL A   1      33.781  22.956  22.751  1.00  0.00     0.009 C 
ENDBRANCH   9  19
BRANCH  18  21
ATOM     21  C   UNL A   1      33.170  27.541  22.918  1.00  0.00     0.429 C 
ATOM     22  F   UNL A   1      34.053  26.591  22.522  1.00  0.00    -0.167 F 
ATOM     23  F   UNL A   1      33.580  28.705  22.362  1.00  0.00    -0.167 F 
ATOM     24  F   UNL A   1      33.304  27.682  24.257  1.00  0.00    -0.167 F 
ENDBRANCH  18  21
ENDBRANCH   5   8
ENDBRANCH   3   4
ENDBRANCH   2   3
ENDBRANCH   1   2
BRANCH   1  25
ATOM     25  N   UNL A   1      32.347  33.386  27.387  1.00  0.00    -0.352 N 
ATOM     26  C   UNL A   1      33.294  34.048  28.135  1.00  0.00     0.251 C 
ATOM     27  H   UNL A   1      31.671  33.966  26.966  1.00  0.00     0.163 HD
ATOM     28  O   UNL A   1      33.108  35.221  28.449  1.00  0.00    -0.269 OA
BRANCH  26  29
ATOM     29  C   UNL A   1      34.511  33.337  28.577  1.00  0.00     0.039 A 
ATOM     30  C   UNL A   1      34.402  32.125  29.256  1.00  0.00     0.014 A 
ATOM     31  C   UNL A   1      35.770  33.889  28.326  1.00  0.00     0.014 A 
ATOM     32  C   UNL A   1      35.521  31.577  29.866  1.00  0.00     0.010 A 
ATOM     33  C   UNL A   1      36.912  33.270  28.844  1.00  0.00     0.010 A 
ATOM     34  C   UNL A   1      36.792  32.140  29.668  1.00  0.00    -0.014 A 
BRANCH  34  35
ATOM     35  C   UNL A   1      37.967  31.511  30.326  1.00  0.00     0.031 A 
ATOM     36  C   UNL A   1      38.316  31.828  31.755  1.00  0.00     0.074 A 
ATOM     37  C   UNL A   1      38.672  30.585  29.647  1.00  0.00     0.049 A 
ATOM     38  N   UNL A   1      39.272  31.331  32.495  1.00  0.00    -0.248 NA
ATOM     39  C   UNL A   1      37.491  32.833  32.445  1.00  0.00     0.031 C 
ATOM     40  C   UNL A   1      38.411  30.195  28.259  1.00  0.00     0.029 A 
ATOM     41  N   UNL A   1      39.716  29.779  30.026  1.00  0.00    -0.354 N 
ATOM     42  C   UNL A   1      39.180  31.974  33.725  1.00  0.00     0.074 A 
ATOM     43  C   UNL A   1      38.093  32.920  33.624  1.00  0.00     0.031 C 
ATOM     44  C   UNL A   1      39.213  29.176  27.931  1.00  0.00     0.029 A 
ATOM     45  C   UNL A   1      40.111  28.896  29.048  1.00  0.00     0.049 A 
ATOM     46  H   UNL A   1      40.141  29.828  30.913  1.00  0.00     0.167 HD
ATOM     47  C   UNL A   1      39.928  31.778  34.837  1.00  0.00     0.034 A 
ATOM     48  C   UNL A   1      41.095  27.972  29.037  1.00  0.00     0.034 A 
ATOM     49  C   UNL A   1      40.990  30.807  34.927  1.00  0.00     0.049 A 
ATOM     50  C   UNL A   1      41.931  27.799  30.276  1.00  0.00     0.074 A 
ATOM     51  C   UNL A   1      41.782  30.512  36.021  1.00  0.00     0.029 A 
ATOM     52  N   UNL A   1      41.403  29.976  33.896  1.00  0.00    -0.354 N 
ATOM     53  N   UNL A   1      41.810  28.396  31.438  1.00  0.00    -0.248 NA
ATOM     54  C   UNL A   1      43.043  26.842  30.205  1.00  0.00     0.031 C 
ATOM     55  C   UNL A   1      42.711  29.543  35.636  1.00  0.00     0.029 A 
ATOM     56  C   UNL A   1      42.460  29.187  34.321  1.00  0.00     0.049 A 
ATOM     57  H   UNL A   1      41.004  29.950  32.997  1.00  0.00     0.167 HD
ATOM     58  C   UNL A   1      42.829  27.888  32.237  1.00  0.00     0.074 A 
ATOM     59  C   UNL A   1      43.534  26.907  31.436  1.00  0.00     0.031 C 
ATOM     60  C   UNL A   1      43.156  28.213  33.513  1.00  0.00     0.034 A 
BRANCH  47  61
ATOM     61  C   UNL A   1      39.638  32.609  36.062  1.00  0.00     0.023 A 
ATOM     62  C   UNL A   1      38.717  32.149  37.023  1.00  0.00     0.031 A 
ATOM     63  C   UNL A   1      40.167  33.903  36.214  1.00  0.00     0.131 A 
ATOM     64  C   UNL A   1      38.330  32.989  38.075  1.00  0.00     0.055 A 
ATOM     65  C   UNL A   1      39.805  34.723  37.284  1.00  0.00     0.041 A 
ATOM     66  F   UNL A   1      41.051  34.386  35.325  1.00  0.00    -0.206 F 
ATOM     67  C   UNL A   1      38.873  34.271  38.213  1.00  0.00     0.022 A 
BRANCH  64  68
ATOM     68  S   UNL A   1      37.066  32.476  39.270  1.00  0.00     0.124 S 
ATOM     69  O   UNL A   1      35.834  32.710  38.519  1.00  0.00    -0.237 OA
ATOM     70  O   UNL A   1      37.405  31.074  39.490  1.00  0.00    -0.237 OA
ATOM     71  O   UNL A   1      37.277  33.364  40.407  1.00  0.00    -0.744 OA
ENDBRANCH  64  68
ENDBRANCH  47  61
BRANCH  48  72
ATOM     72  C   UNL A   1      41.293  27.140  27.814  1.00  0.00     0.023 A 
ATOM     73  C   UNL A   1      40.878  25.795  27.784  1.00  0.00     0.031 A 
ATOM     74  C   UNL A   1      42.017  27.632  26.717  1.00  0.00     0.131 A 
ATOM     75  C   UNL A   1      41.275  24.965  26.728  1.00  0.00     0.055 A 
ATOM     76  C   UNL A   1      42.341  26.822  25.627  1.00  0.00     0.041 A 
ATOM     77  F   UNL A   1      42.442  28.904  26.702  1.00  0.00    -0.206 F 
ATOM     78  C   UNL A   1      41.991  25.474  25.640  1.00  0.00     0.022 A 
BRANCH  75  79
ATOM     79  S   UNL A   1      41.025  23.170  26.817  1.00  0.00     0.124 S 
ATOM     80  O   UNL A   1      41.452  22.871  28.180  1.00  0.00    -0.237 OA
ATOM     81  O   UNL A   1      39.591  23.054  26.564  1.00  0.00    -0.237 OA
ATOM     82  O   UNL A   1      41.884  22.650  25.758  1.00  0.00    -0.744 OA
ENDBRANCH  75  79
ENDBRANCH  48  72
BRANCH  60  83
ATOM     83  C   UNL A   1      44.342  27.531  34.144  1.00  0.00     0.023 A 
ATOM     84  C   UNL A   1      44.159  26.373  34.924  1.00  0.00     0.031 A 
ATOM     85  C   UNL A   1      45.618  28.117  34.108  1.00  0.00     0.131 A 
ATOM     86  C   UNL A   1      45.226  25.866  35.675  1.00  0.00     0.055 A 
ATOM     87  C   UNL A   1      46.691  27.580  34.822  1.00  0.00     0.041 A 
ATOM     88  F   UNL A   1      45.838  29.227  33.384  1.00  0.00    -0.206 F 
ATOM     89  C   UNL A   1      46.492  26.458  35.623  1.00  0.00     0.022 A 
BRANCH  86  90
ATOM     90  S   UNL A   1      44.990  24.472  36.813  1.00  0.00     0.124 S 
ATOM     91  O   UNL A   1      44.780  23.360  35.888  1.00  0.00    -0.237 OA
ATOM     92  O   UNL A   1      46.257  24.451  37.537  1.00  0.00    -0.237 OA
ATOM     93  O   UNL A   1      43.823  24.854  37.599  1.00  0.00    -0.744 OA
ENDBRANCH  86  90
ENDBRANCH  60  83
ENDBRANCH  34  35
ENDBRANCH  26  29
ENDBRANCH   1  25
TORSDOF 15
ENDMDL
