MODEL 1
REMARK VINA RESULT:     -12.8      0.000      0.000
REMARK SMILES N#Cc1ccc(C(=O)N2CCC(Oc3ccccc3)(C(=O)NCCCNC(=O)c3ccc(-c4c5nc(c(-c6cc(S(=O)(=O)[O-])ccc6F)c6ccc([nH]6)c(-c6cc(S(=O)(=O)[O-])ccc6F)c6nc(c(-c7cc(S(=O)(=O)[O-])ccc7F)c7ccc4[nH]7)C=C6)C=C5)cc3)CC2)cc1
REMARK SMILES IDX 24 1 23 2 22 3 20 4 21 5 12 7 7 8 8 9 9 10 10 11 93 12 11 13
REMARK SMILES IDX 92 14 6 15 3 16 4 17 95 18 5 19 94 20 2 21 1 22 13 23 14 24
REMARK SMILES IDX 15 25 19 26 16 27 18 28 17 29 25 30 26 31 27 32 28 34 29 35
REMARK SMILES IDX 30 36 91 37 31 38 90 39 32 40 33 41 34 42 84 43 35 44 89 45
REMARK SMILES IDX 83 46 85 47 36 48 88 49 82 50 81 51 37 53 69 54 49 55 68 56
REMARK SMILES IDX 50 57 53 58 67 59 86 60 51 61 52 62 66 64 87 65 54 66 38 67
REMARK SMILES IDX 39 68 47 69 40 70 46 71 48 72 45 73 41 74 42 75 43 76 44 77
REMARK SMILES IDX 70 78 71 79 79 80 72 81 78 82 80 83 77 84 73 85 74 86 75 87
REMARK SMILES IDX 76 88 55 89 56 90 64 91 57 92 63 93 65 94 62 95 58 96 59 97
REMARK SMILES IDX 60 98 61 99
REMARK H PARENT 22 6 26 33 85 52 53 63
REMARK Flexibility Score: inf
ROOT
ATOM      1  C   UNL A   1      37.574  19.822  25.029  1.00  0.00     0.042 C 
ENDROOT
BRANCH   1   2
ATOM      2  C   UNL A   1      36.425  20.802  24.838  1.00  0.00     0.118 C 
BRANCH   2   3
ATOM      3  N   UNL A   1      35.910  21.277  26.110  1.00  0.00    -0.353 N 
ATOM      4  C   UNL A   1      34.626  21.459  26.534  1.00  0.00     0.264 C 
ATOM      5  O   UNL A   1      34.494  21.810  27.711  1.00  0.00    -0.270 OA
ATOM      6  H   UNL A   1      36.600  21.506  26.773  1.00  0.00     0.163 HD
BRANCH   4   7
ATOM      7  C   UNL A   1      33.411  21.254  25.582  1.00  0.00     0.190 C 
ATOM      8  C   UNL A   1      32.377  24.899  23.761  1.00  0.00     0.253 C 
ATOM      9  O   UNL A   1      32.039  24.677  22.602  1.00  0.00    -0.269 OA
ATOM     10  N   UNL A   1      32.944  23.930  24.571  1.00  0.00    -0.338 N 
ATOM     11  C   UNL A   1      34.051  23.156  24.046  1.00  0.00     0.124 C 
ATOM     12  C   UNL A   1      32.465  23.621  25.914  1.00  0.00     0.124 C 
ATOM     13  C   UNL A   1      33.760  21.675  24.144  1.00  0.00     0.080 C 
ATOM     14  C   UNL A   1      32.225  22.115  26.091  1.00  0.00     0.080 C 
BRANCH   8  15
ATOM     15  C   UNL A   1      32.361  26.298  24.276  1.00  0.00     0.040 A 
ATOM     16  C   UNL A   1      32.343  28.793  25.562  1.00  0.00     0.052 A 
ATOM     17  C   UNL A   1      33.551  28.115  25.359  1.00  0.00     0.020 A 
ATOM     18  C   UNL A   1      31.147  28.225  25.118  1.00  0.00     0.020 A 
ATOM     19  C   UNL A   1      33.560  26.870  24.720  1.00  0.00     0.015 A 
ATOM     20  C   UNL A   1      31.155  26.979  24.489  1.00  0.00     0.015 A 
BRANCH  16  21
ATOM     21  C   UNL A   1      32.324  30.055  26.245  1.00  0.00     0.099 C 
ATOM     22  N   UNL A   1      32.302  31.076  26.790  1.00  0.00    -0.192 NA
ENDBRANCH  16  21
ENDBRANCH   8  15
BRANCH   7  23
ATOM     23  O   UNL A   1      33.141  19.840  25.768  1.00  0.00    -0.477 OA
BRANCH  23  24
ATOM     24  C   UNL A   1      33.289  18.994  24.710  1.00  0.00     0.120 A 
ATOM     25  C   UNL A   1      32.312  19.040  23.719  1.00  0.00     0.046 A 
ATOM     26  C   UNL A   1      34.273  18.010  24.667  1.00  0.00     0.046 A 
ATOM     27  C   UNL A   1      32.379  18.164  22.634  1.00  0.00     0.004 A 
ATOM     28  C   UNL A   1      34.362  17.156  23.569  1.00  0.00     0.004 A 
ATOM     29  C   UNL A   1      33.419  17.238  22.548  1.00  0.00     0.000 A 
ENDBRANCH  23  24
ENDBRANCH   7  23
ENDBRANCH   4   7
ENDBRANCH   2   3
ENDBRANCH   1   2
BRANCH   1  30
ATOM     30  C   UNL A   1      38.759  20.405  25.786  1.00  0.00     0.118 C 
BRANCH  30  31
ATOM     31  N   UNL A   1      39.829  19.437  25.973  1.00  0.00    -0.352 N 
ATOM     32  C   UNL A   1      41.173  19.631  26.172  1.00  0.00     0.251 C 
ATOM     33  H   UNL A   1      39.543  18.495  25.954  1.00  0.00     0.163 HD
ATOM     34  O   UNL A   1      41.933  18.671  26.076  1.00  0.00    -0.269 OA
BRANCH  32  35
ATOM     35  C   UNL A   1      41.705  20.978  26.477  1.00  0.00     0.039 A 
ATOM     36  C   UNL A   1      42.072  21.809  25.417  1.00  0.00     0.014 A 
ATOM     37  C   UNL A   1      41.870  21.416  27.794  1.00  0.00     0.014 A 
ATOM     38  C   UNL A   1      42.548  23.096  25.677  1.00  0.00     0.010 A 
ATOM     39  C   UNL A   1      42.252  22.731  28.049  1.00  0.00     0.010 A 
ATOM     40  C   UNL A   1      42.605  23.584  26.994  1.00  0.00    -0.014 A 
BRANCH  40  41
ATOM     41  C   UNL A   1      43.036  24.980  27.273  1.00  0.00     0.031 A 
ATOM     42  C   UNL A   1      42.103  25.945  27.955  1.00  0.00     0.074 A 
ATOM     43  C   UNL A   1      44.261  25.386  26.885  1.00  0.00     0.049 A 
ATOM     44  N   UNL A   1      42.293  27.204  28.256  1.00  0.00    -0.248 NA
ATOM     45  C   UNL A   1      40.775  25.435  28.325  1.00  0.00     0.031 C 
ATOM     46  C   UNL A   1      45.244  24.553  26.187  1.00  0.00     0.029 A 
ATOM     47  N   UNL A   1      44.896  26.596  27.022  1.00  0.00    -0.354 N 
ATOM     48  C   UNL A   1      41.110  27.636  28.848  1.00  0.00     0.074 A 
ATOM     49  C   UNL A   1      40.186  26.524  28.796  1.00  0.00     0.031 C 
ATOM     50  C   UNL A   1      46.368  25.261  25.999  1.00  0.00     0.029 A 
ATOM     51  C   UNL A   1      46.170  26.616  26.502  1.00  0.00     0.049 A 
ATOM     52  H   UNL A   1      44.478  27.376  27.453  1.00  0.00     0.167 HD
ATOM     53  C   UNL A   1      40.830  28.841  29.407  1.00  0.00     0.034 A 
ATOM     54  C   UNL A   1      47.073  27.614  26.425  1.00  0.00     0.034 A 
ATOM     55  C   UNL A   1      41.763  29.941  29.446  1.00  0.00     0.049 A 
ATOM     56  C   UNL A   1      46.714  28.963  26.999  1.00  0.00     0.074 A 
ATOM     57  C   UNL A   1      41.596  31.189  30.021  1.00  0.00     0.029 A 
ATOM     58  N   UNL A   1      43.031  29.935  28.878  1.00  0.00    -0.354 N 
ATOM     59  N   UNL A   1      45.607  29.339  27.596  1.00  0.00    -0.248 NA
ATOM     60  C   UNL A   1      47.731  30.015  26.895  1.00  0.00     0.031 C 
ATOM     61  C   UNL A   1      42.717  31.966  29.719  1.00  0.00     0.029 A 
ATOM     62  C   UNL A   1      43.636  31.171  29.051  1.00  0.00     0.049 A 
ATOM     63  H   UNL A   1      43.440  29.167  28.420  1.00  0.00     0.167 HD
ATOM     64  C   UNL A   1      45.812  30.665  27.974  1.00  0.00     0.074 A 
ATOM     65  C   UNL A   1      47.153  31.011  27.551  1.00  0.00     0.031 C 
ATOM     66  C   UNL A   1      44.971  31.514  28.616  1.00  0.00     0.034 A 
BRANCH  53  67
ATOM     67  C   UNL A   1      39.449  29.037  29.988  1.00  0.00     0.023 A 
ATOM     68  C   UNL A   1      38.426  29.678  29.267  1.00  0.00     0.031 A 
ATOM     69  C   UNL A   1      39.153  28.589  31.288  1.00  0.00     0.131 A 
ATOM     70  C   UNL A   1      37.186  29.923  29.876  1.00  0.00     0.055 A 
ATOM     71  C   UNL A   1      37.887  28.752  31.854  1.00  0.00     0.041 A 
ATOM     72  F   UNL A   1      40.094  27.994  32.037  1.00  0.00    -0.206 F 
ATOM     73  C   UNL A   1      36.898  29.437  31.153  1.00  0.00     0.022 A 
BRANCH  70  74
ATOM     74  S   UNL A   1      36.015  31.026  29.039  1.00  0.00     0.124 S 
ATOM     75  O   UNL A   1      35.302  30.093  28.170  1.00  0.00    -0.237 OA
ATOM     76  O   UNL A   1      35.249  31.577  30.151  1.00  0.00    -0.237 OA
ATOM     77  O   UNL A   1      36.879  31.977  28.343  1.00  0.00    -0.744 OA
ENDBRANCH  70  74
ENDBRANCH  53  67
BRANCH  54  78
ATOM     78  C   UNL A   1      48.394  27.393  25.767  1.00  0.00     0.023 A 
ATOM     79  C   UNL A   1      48.555  27.573  24.384  1.00  0.00     0.031 A 
ATOM     80  C   UNL A   1      49.505  26.945  26.504  1.00  0.00     0.131 A 
ATOM     81  C   UNL A   1      49.777  27.251  23.774  1.00  0.00     0.055 A 
ATOM     82  C   UNL A   1      50.739  26.693  25.904  1.00  0.00     0.041 A 
ATOM     83  F   UNL A   1      49.408  26.752  27.830  1.00  0.00    -0.206 F 
ATOM     84  C   UNL A   1      50.876  26.830  24.526  1.00  0.00     0.022 A 
BRANCH  81  85
ATOM     85  S   UNL A   1      49.877  27.276  21.963  1.00  0.00     0.124 S 
ATOM     86  O   UNL A   1      48.851  26.306  21.597  1.00  0.00    -0.237 OA
ATOM     87  O   UNL A   1      49.576  28.672  21.662  1.00  0.00    -0.237 OA
ATOM     88  O   UNL A   1      51.253  26.865  21.692  1.00  0.00    -0.744 OA
ENDBRANCH  81  85
ENDBRANCH  54  78
BRANCH  66  89
ATOM     89  C   UNL A   1      45.501  32.890  28.949  1.00  0.00     0.023 A 
ATOM     90  C   UNL A   1      45.317  33.988  28.091  1.00  0.00     0.031 A 
ATOM     91  C   UNL A   1      46.221  33.100  30.141  1.00  0.00     0.131 A 
ATOM     92  C   UNL A   1      45.906  35.224  28.400  1.00  0.00     0.055 A 
ATOM     93  C   UNL A   1      46.735  34.351  30.481  1.00  0.00     0.041 A 
ATOM     94  F   UNL A   1      46.437  32.089  30.997  1.00  0.00    -0.206 F 
ATOM     95  C   UNL A   1      46.594  35.419  29.600  1.00  0.00     0.022 A 
BRANCH  92  96
ATOM     96  S   UNL A   1      45.876  36.537  27.148  1.00  0.00     0.124 S 
ATOM     97  O   UNL A   1      44.445  36.794  27.017  1.00  0.00    -0.237 OA
ATOM     98  O   UNL A   1      46.658  37.592  27.783  1.00  0.00    -0.237 OA
ATOM     99  O   UNL A   1      46.503  35.914  25.984  1.00  0.00    -0.744 OA
ENDBRANCH  92  96
ENDBRANCH  66  89
ENDBRANCH  40  41
ENDBRANCH  32  35
ENDBRANCH  30  31
ENDBRANCH   1  30
TORSDOF 17
ENDMDL
MODEL 2
REMARK VINA RESULT:     -12.6      1.055      7.279
REMARK SMILES N#Cc1ccc(C(=O)N2CCC(Oc3ccccc3)(C(=O)NCCCNC(=O)c3ccc(-c4c5nc(c(-c6cc(S(=O)(=O)[O-])ccc6F)c6ccc([nH]6)c(-c6cc(S(=O)(=O)[O-])ccc6F)c6nc(c(-c7cc(S(=O)(=O)[O-])ccc7F)c7ccc4[nH]7)C=C6)C=C5)cc3)CC2)cc1
REMARK SMILES IDX 24 1 23 2 22 3 20 4 21 5 12 7 7 8 8 9 9 10 10 11 93 12 11 13
REMARK SMILES IDX 92 14 6 15 3 16 4 17 95 18 5 19 94 20 2 21 1 22 13 23 14 24
REMARK SMILES IDX 15 25 19 26 16 27 18 28 17 29 25 30 26 31 27 32 28 34 29 35
REMARK SMILES IDX 30 36 91 37 31 38 90 39 32 40 33 41 34 42 84 43 35 44 89 45
REMARK SMILES IDX 83 46 85 47 36 48 88 49 82 50 81 51 37 53 69 54 49 55 68 56
REMARK SMILES IDX 50 57 53 58 67 59 86 60 51 61 52 62 66 64 87 65 54 66 38 67
REMARK SMILES IDX 39 68 47 69 40 70 46 71 48 72 45 73 41 74 42 75 43 76 44 77
REMARK SMILES IDX 70 78 71 79 79 80 72 81 78 82 80 83 77 84 73 85 74 86 75 87
REMARK SMILES IDX 76 88 55 89 56 90 64 91 57 92 63 93 65 94 62 95 58 96 59 97
REMARK SMILES IDX 60 98 61 99
REMARK H PARENT 22 6 26 33 85 52 53 63
REMARK Flexibility Score: inf
ROOT
ATOM      1  C   UNL A   1      37.704  20.073  25.167  1.00  0.00     0.042 C 
ENDROOT
BRANCH   1   2
ATOM      2  C   UNL A   1      36.517  20.988  24.900  1.00  0.00     0.118 C 
BRANCH   2   3
ATOM      3  N   UNL A   1      35.951  21.505  26.133  1.00  0.00    -0.353 N 
ATOM      4  C   UNL A   1      34.651  21.661  26.516  1.00  0.00     0.264 C 
ATOM      5  O   UNL A   1      34.475  22.062  27.670  1.00  0.00    -0.270 OA
ATOM      6  H   UNL A   1      36.615  21.789  26.802  1.00  0.00     0.163 HD
BRANCH   4   7
ATOM      7  C   UNL A   1      33.470  21.368  25.544  1.00  0.00     0.190 C 
ATOM      8  C   UNL A   1      32.311  24.898  23.578  1.00  0.00     0.253 C 
ATOM      9  O   UNL A   1      32.011  24.621  22.420  1.00  0.00    -0.269 OA
ATOM     10  N   UNL A   1      32.903  23.983  24.433  1.00  0.00    -0.338 N 
ATOM     11  C   UNL A   1      34.057  23.246  23.959  1.00  0.00     0.124 C 
ATOM     12  C   UNL A   1      32.407  23.696  25.774  1.00  0.00     0.124 C 
ATOM     13  C   UNL A   1      33.834  21.757  24.100  1.00  0.00     0.080 C 
ATOM     14  C   UNL A   1      32.233  22.187  25.997  1.00  0.00     0.080 C 
BRANCH   8  15
ATOM     15  C   UNL A   1      32.217  26.310  24.045  1.00  0.00     0.040 A 
ATOM     16  C   UNL A   1      32.031  28.841  25.244  1.00  0.00     0.052 A 
ATOM     17  C   UNL A   1      33.268  28.192  25.162  1.00  0.00     0.020 A 
ATOM     18  C   UNL A   1      30.889  28.226  24.723  1.00  0.00     0.020 A 
ATOM     19  C   UNL A   1      33.361  26.929  24.565  1.00  0.00     0.015 A 
ATOM     20  C   UNL A   1      30.981  26.962  24.137  1.00  0.00     0.015 A 
BRANCH  16  21
ATOM     21  C   UNL A   1      31.923  30.121  25.883  1.00  0.00     0.099 C 
ATOM     22  N   UNL A   1      31.836  31.159  26.390  1.00  0.00    -0.192 NA
ENDBRANCH  16  21
ENDBRANCH   8  15
BRANCH   7  23
ATOM     23  O   UNL A   1      33.262  19.949  25.772  1.00  0.00    -0.477 OA
BRANCH  23  24
ATOM     24  C   UNL A   1      33.361  19.089  24.720  1.00  0.00     0.120 A 
ATOM     25  C   UNL A   1      32.321  19.094  23.794  1.00  0.00     0.046 A 
ATOM     26  C   UNL A   1      34.365  18.128  24.626  1.00  0.00     0.046 A 
ATOM     27  C   UNL A   1      32.338  18.202  22.721  1.00  0.00     0.004 A 
ATOM     28  C   UNL A   1      34.403  17.258  23.538  1.00  0.00     0.004 A 
ATOM     29  C   UNL A   1      33.393  17.300  22.580  1.00  0.00     0.000 A 
ENDBRANCH  23  24
ENDBRANCH   7  23
ENDBRANCH   4   7
ENDBRANCH   2   3
ENDBRANCH   1   2
BRANCH   1  30
ATOM     30  C   UNL A   1      38.911  20.790  25.757  1.00  0.00     0.118 C 
BRANCH  30  31
ATOM     31  N   UNL A   1      40.006  19.880  26.054  1.00  0.00    -0.352 N 
ATOM     32  C   UNL A   1      41.308  20.144  26.400  1.00  0.00     0.251 C 
ATOM     33  H   UNL A   1      39.777  18.924  25.998  1.00  0.00     0.163 HD
ATOM     34  O   UNL A   1      42.126  19.229  26.381  1.00  0.00    -0.269 OA
BRANCH  32  35
ATOM     35  C   UNL A   1      41.728  21.514  26.768  1.00  0.00     0.039 A 
ATOM     36  C   UNL A   1      41.903  22.457  25.754  1.00  0.00     0.014 A 
ATOM     37  C   UNL A   1      41.976  21.869  28.097  1.00  0.00     0.014 A 
ATOM     38  C   UNL A   1      42.269  23.765  26.078  1.00  0.00     0.010 A 
ATOM     39  C   UNL A   1      42.246  23.194  28.427  1.00  0.00     0.010 A 
ATOM     40  C   UNL A   1      42.405  24.157  27.421  1.00  0.00    -0.014 A 
BRANCH  40  41
ATOM     41  C   UNL A   1      42.718  25.567  27.778  1.00  0.00     0.031 A 
ATOM     42  C   UNL A   1      44.123  26.092  27.650  1.00  0.00     0.074 A 
ATOM     43  C   UNL A   1      41.739  26.366  28.246  1.00  0.00     0.049 A 
ATOM     44  N   UNL A   1      44.590  27.280  27.938  1.00  0.00    -0.248 NA
ATOM     45  C   UNL A   1      45.141  25.153  27.157  1.00  0.00     0.031 C 
ATOM     46  C   UNL A   1      40.344  25.962  28.446  1.00  0.00     0.029 A 
ATOM     47  N   UNL A   1      41.758  27.682  28.636  1.00  0.00    -0.354 N 
ATOM     48  C   UNL A   1      45.953  27.231  27.663  1.00  0.00     0.074 A 
ATOM     49  C   UNL A   1      46.248  25.874  27.256  1.00  0.00     0.031 C 
ATOM     50  C   UNL A   1      39.637  27.018  28.875  1.00  0.00     0.029 A 
ATOM     51  C   UNL A   1      40.533  28.157  29.045  1.00  0.00     0.049 A 
ATOM     52  H   UNL A   1      42.573  28.235  28.623  1.00  0.00     0.167 HD
ATOM     53  C   UNL A   1      46.868  28.231  27.720  1.00  0.00     0.034 A 
ATOM     54  C   UNL A   1      40.172  29.367  29.518  1.00  0.00     0.034 A 
ATOM     55  C   UNL A   1      46.558  29.578  28.133  1.00  0.00     0.049 A 
ATOM     56  C   UNL A   1      41.222  30.445  29.630  1.00  0.00     0.074 A 
ATOM     57  C   UNL A   1      47.399  30.676  28.190  1.00  0.00     0.029 A 
ATOM     58  N   UNL A   1      45.314  30.012  28.574  1.00  0.00    -0.354 N 
ATOM     59  N   UNL A   1      42.497  30.392  29.321  1.00  0.00    -0.248 NA
ATOM     60  C   UNL A   1      40.780  31.746  30.146  1.00  0.00     0.031 C 
ATOM     61  C   UNL A   1      46.694  31.742  28.752  1.00  0.00     0.029 A 
ATOM     62  C   UNL A   1      45.379  31.347  28.945  1.00  0.00     0.049 A 
ATOM     63  H   UNL A   1      44.504  29.454  28.617  1.00  0.00     0.167 HD
ATOM     64  C   UNL A   1      43.000  31.668  29.570  1.00  0.00     0.074 A 
ATOM     65  C   UNL A   1      41.886  32.467  30.036  1.00  0.00     0.031 C 
ATOM     66  C   UNL A   1      44.265  32.135  29.421  1.00  0.00     0.034 A 
BRANCH  53  67
ATOM     67  C   UNL A   1      48.296  27.892  27.358  1.00  0.00     0.023 A 
ATOM     68  C   UNL A   1      48.783  28.041  26.048  1.00  0.00     0.031 A 
ATOM     69  C   UNL A   1      49.181  27.401  28.335  1.00  0.00     0.131 A 
ATOM     70  C   UNL A   1      50.087  27.629  25.733  1.00  0.00     0.055 A 
ATOM     71  C   UNL A   1      50.507  27.081  28.035  1.00  0.00     0.041 A 
ATOM     72  F   UNL A   1      48.770  27.211  29.598  1.00  0.00    -0.206 F 
ATOM     73  C   UNL A   1      50.963  27.179  26.723  1.00  0.00     0.022 A 
BRANCH  70  74
ATOM     74  S   UNL A   1      50.565  27.536  23.986  1.00  0.00     0.124 S 
ATOM     75  O   UNL A   1      50.896  28.929  23.697  1.00  0.00    -0.237 OA
ATOM     76  O   UNL A   1      51.688  26.605  24.015  1.00  0.00    -0.237 OA
ATOM     77  O   UNL A   1      49.359  27.039  23.327  1.00  0.00    -0.744 OA
ENDBRANCH  70  74
ENDBRANCH  53  67
BRANCH  54  78
ATOM     78  C   UNL A   1      38.764  29.628  29.940  1.00  0.00     0.023 A 
ATOM     79  C   UNL A   1      37.847  30.238  29.069  1.00  0.00     0.031 A 
ATOM     80  C   UNL A   1      38.329  29.319  31.241  1.00  0.00     0.131 A 
ATOM     81  C   UNL A   1      36.564  30.574  29.528  1.00  0.00     0.055 A 
ATOM     82  C   UNL A   1      37.029  29.590  31.670  1.00  0.00     0.041 A 
ATOM     83  F   UNL A   1      39.164  28.737  32.117  1.00  0.00    -0.206 F 
ATOM     84  C   UNL A   1      36.142  30.237  30.816  1.00  0.00     0.022 A 
BRANCH  81  85
ATOM     85  S   UNL A   1      35.489  31.564  28.454  1.00  0.00     0.124 S 
ATOM     86  O   UNL A   1      35.113  30.591  27.435  1.00  0.00    -0.237 OA
ATOM     87  O   UNL A   1      34.432  31.971  29.374  1.00  0.00    -0.237 OA
ATOM     88  O   UNL A   1      36.365  32.642  27.998  1.00  0.00    -0.744 OA
ENDBRANCH  81  85
ENDBRANCH  54  78
BRANCH  66  89
ATOM     89  C   UNL A   1      44.499  33.600  29.716  1.00  0.00     0.023 A 
ATOM     90  C   UNL A   1      44.338  34.593  28.734  1.00  0.00     0.031 A 
ATOM     91  C   UNL A   1      44.910  34.005  31.000  1.00  0.00     0.131 A 
ATOM     92  C   UNL A   1      44.655  35.928  29.030  1.00  0.00     0.055 A 
ATOM     93  C   UNL A   1      45.145  35.345  31.311  1.00  0.00     0.041 A 
ATOM     94  F   UNL A   1      45.089  33.103  31.977  1.00  0.00    -0.206 F 
ATOM     95  C   UNL A   1      45.035  36.313  30.318  1.00  0.00     0.022 A 
BRANCH  92  96
ATOM     96  S   UNL A   1      44.693  37.132  27.674  1.00  0.00     0.124 S 
ATOM     97  O   UNL A   1      43.404  36.900  27.029  1.00  0.00    -0.237 OA
ATOM     98  O   UNL A   1      44.832  38.399  28.385  1.00  0.00    -0.237 OA
ATOM     99  O   UNL A   1      45.859  36.729  26.891  1.00  0.00    -0.744 OA
ENDBRANCH  92  96
ENDBRANCH  66  89
ENDBRANCH  40  41
ENDBRANCH  32  35
ENDBRANCH  30  31
ENDBRANCH   1  30
TORSDOF 17
ENDMDL
MODEL 3
REMARK VINA RESULT:     -12.5      3.174      7.948
REMARK SMILES N#Cc1ccc(C(=O)N2CCC(Oc3ccccc3)(C(=O)NCCCNC(=O)c3ccc(-c4c5nc(c(-c6cc(S(=O)(=O)[O-])ccc6F)c6ccc([nH]6)c(-c6cc(S(=O)(=O)[O-])ccc6F)c6nc(c(-c7cc(S(=O)(=O)[O-])ccc7F)c7ccc4[nH]7)C=C6)C=C5)cc3)CC2)cc1
REMARK SMILES IDX 24 1 23 2 22 3 20 4 21 5 12 7 7 8 8 9 9 10 10 11 93 12 11 13
REMARK SMILES IDX 92 14 6 15 3 16 4 17 95 18 5 19 94 20 2 21 1 22 13 23 14 24
REMARK SMILES IDX 15 25 19 26 16 27 18 28 17 29 25 30 26 31 27 32 28 34 29 35
REMARK SMILES IDX 30 36 91 37 31 38 90 39 32 40 33 41 34 42 84 43 35 44 89 45
REMARK SMILES IDX 83 46 85 47 36 48 88 49 82 50 81 51 37 53 69 54 49 55 68 56
REMARK SMILES IDX 50 57 53 58 67 59 86 60 51 61 52 62 66 64 87 65 54 66 38 67
REMARK SMILES IDX 39 68 47 69 40 70 46 71 48 72 45 73 41 74 42 75 43 76 44 77
REMARK SMILES IDX 70 78 71 79 79 80 72 81 78 82 80 83 77 84 73 85 74 86 75 87
REMARK SMILES IDX 76 88 55 89 56 90 64 91 57 92 63 93 65 94 62 95 58 96 59 97
REMARK SMILES IDX 60 98 61 99
REMARK H PARENT 22 6 26 33 85 52 53 63
REMARK Flexibility Score: inf
ROOT
ATOM      1  C   UNL A   1      37.594  21.854  24.943  1.00  0.00     0.042 C 
ENDROOT
BRANCH   1   2
ATOM      2  C   UNL A   1      36.489  20.927  25.431  1.00  0.00     0.118 C 
BRANCH   2   3
ATOM      3  N   UNL A   1      35.733  21.522  26.519  1.00  0.00    -0.353 N 
ATOM      4  C   UNL A   1      34.389  21.694  26.675  1.00  0.00     0.264 C 
ATOM      5  O   UNL A   1      34.030  22.171  27.756  1.00  0.00    -0.270 OA
ATOM      6  H   UNL A   1      36.281  21.855  27.266  1.00  0.00     0.163 HD
BRANCH   4   7
ATOM      7  C   UNL A   1      33.379  21.328  25.547  1.00  0.00     0.190 C 
ATOM      8  C   UNL A   1      32.397  24.758  23.324  1.00  0.00     0.253 C 
ATOM      9  O   UNL A   1      32.286  24.441  22.143  1.00  0.00    -0.269 OA
ATOM     10  N   UNL A   1      32.887  23.890  24.284  1.00  0.00    -0.338 N 
ATOM     11  C   UNL A   1      34.127  23.191  24.011  1.00  0.00     0.124 C 
ATOM     12  C   UNL A   1      32.206  23.615  25.545  1.00  0.00     0.124 C 
ATOM     13  C   UNL A   1      33.942  21.698  24.162  1.00  0.00     0.080 C 
ATOM     14  C   UNL A   1      32.059  22.105  25.784  1.00  0.00     0.080 C 
BRANCH   8  15
ATOM     15  C   UNL A   1      32.181  26.177  23.729  1.00  0.00     0.040 A 
ATOM     16  C   UNL A   1      31.767  28.730  24.816  1.00  0.00     0.052 A 
ATOM     17  C   UNL A   1      33.054  28.180  24.784  1.00  0.00     0.020 A 
ATOM     18  C   UNL A   1      30.690  28.005  24.300  1.00  0.00     0.020 A 
ATOM     19  C   UNL A   1      33.260  26.906  24.243  1.00  0.00     0.015 A 
ATOM     20  C   UNL A   1      30.894  26.730  23.770  1.00  0.00     0.015 A 
BRANCH  16  21
ATOM     21  C   UNL A   1      31.543  30.023  25.398  1.00  0.00     0.099 C 
ATOM     22  N   UNL A   1      31.357  31.068  25.860  1.00  0.00    -0.192 NA
ENDBRANCH  16  21
ENDBRANCH   8  15
BRANCH   7  23
ATOM     23  O   UNL A   1      33.193  19.908  25.783  1.00  0.00    -0.477 OA
BRANCH  23  24
ATOM     24  C   UNL A   1      33.346  19.039  24.745  1.00  0.00     0.120 A 
ATOM     25  C   UNL A   1      32.346  19.024  23.777  1.00  0.00     0.046 A 
ATOM     26  C   UNL A   1      34.363  18.088  24.704  1.00  0.00     0.046 A 
ATOM     27  C   UNL A   1      32.418  18.121  22.714  1.00  0.00     0.004 A 
ATOM     28  C   UNL A   1      34.457  17.209  23.627  1.00  0.00     0.004 A 
ATOM     29  C   UNL A   1      33.488  17.230  22.627  1.00  0.00     0.000 A 
ENDBRANCH  23  24
ENDBRANCH   7  23
ENDBRANCH   4   7
ENDBRANCH   2   3
ENDBRANCH   1   2
BRANCH   1  30
ATOM     30  C   UNL A   1      38.538  22.318  26.044  1.00  0.00     0.118 C 
BRANCH  30  31
ATOM     31  N   UNL A   1      39.853  21.705  25.942  1.00  0.00    -0.352 N 
ATOM     32  C   UNL A   1      41.101  22.264  26.062  1.00  0.00     0.251 C 
ATOM     33  H   UNL A   1      39.847  20.739  25.756  1.00  0.00     0.163 HD
ATOM     34  O   UNL A   1      42.081  21.612  25.711  1.00  0.00    -0.269 OA
BRANCH  32  35
ATOM     35  C   UNL A   1      41.266  23.637  26.587  1.00  0.00     0.039 A 
ATOM     36  C   UNL A   1      41.440  23.814  27.961  1.00  0.00     0.014 A 
ATOM     37  C   UNL A   1      41.224  24.751  25.743  1.00  0.00     0.014 A 
ATOM     38  C   UNL A   1      41.629  25.097  28.477  1.00  0.00     0.010 A 
ATOM     39  C   UNL A   1      41.508  26.018  26.245  1.00  0.00     0.010 A 
ATOM     40  C   UNL A   1      41.704  26.208  27.619  1.00  0.00    -0.014 A 
BRANCH  40  41
ATOM     41  C   UNL A   1      41.983  27.569  28.153  1.00  0.00     0.031 A 
ATOM     42  C   UNL A   1      43.396  28.083  28.232  1.00  0.00     0.074 A 
ATOM     43  C   UNL A   1      40.962  28.330  28.595  1.00  0.00     0.049 A 
ATOM     44  N   UNL A   1      43.833  29.227  28.691  1.00  0.00    -0.248 NA
ATOM     45  C   UNL A   1      44.457  27.184  27.754  1.00  0.00     0.031 C 
ATOM     46  C   UNL A   1      39.552  27.929  28.601  1.00  0.00     0.029 A 
ATOM     47  N   UNL A   1      40.945  29.598  29.121  1.00  0.00    -0.354 N 
ATOM     48  C   UNL A   1      45.218  29.186  28.560  1.00  0.00     0.074 A 
ATOM     49  C   UNL A   1      45.549  27.874  28.046  1.00  0.00     0.031 C 
ATOM     50  C   UNL A   1      38.807  28.945  29.062  1.00  0.00     0.029 A 
ATOM     51  C   UNL A   1      39.684  30.047  29.445  1.00  0.00     0.049 A 
ATOM     52  H   UNL A   1      41.758  30.136  29.253  1.00  0.00     0.167 HD
ATOM     53  C   UNL A   1      46.126  30.160  28.819  1.00  0.00     0.034 A 
ATOM     54  C   UNL A   1      39.279  31.206  30.000  1.00  0.00     0.034 A 
ATOM     55  C   UNL A   1      45.778  31.462  29.335  1.00  0.00     0.049 A 
ATOM     56  C   UNL A   1      40.315  32.250  30.337  1.00  0.00     0.074 A 
ATOM     57  C   UNL A   1      46.613  32.535  29.596  1.00  0.00     0.029 A 
ATOM     58  N   UNL A   1      44.495  31.867  29.684  1.00  0.00    -0.354 N 
ATOM     59  N   UNL A   1      41.616  32.210  30.162  1.00  0.00    -0.248 NA
ATOM     60  C   UNL A   1      39.826  33.497  30.936  1.00  0.00     0.031 C 
ATOM     61  C   UNL A   1      45.855  33.548  30.189  1.00  0.00     0.029 A 
ATOM     62  C   UNL A   1      44.525  33.155  30.198  1.00  0.00     0.049 A 
ATOM     63  H   UNL A   1      43.684  31.320  29.582  1.00  0.00     0.167 HD
ATOM     64  C   UNL A   1      42.095  33.445  30.596  1.00  0.00     0.074 A 
ATOM     65  C   UNL A   1      40.940  34.208  31.022  1.00  0.00     0.031 C 
ATOM     66  C   UNL A   1      43.371  33.906  30.633  1.00  0.00     0.034 A 
BRANCH  53  67
ATOM     67  C   UNL A   1      47.583  29.839  28.578  1.00  0.00     0.023 A 
ATOM     68  C   UNL A   1      48.382  29.237  29.565  1.00  0.00     0.031 A 
ATOM     69  C   UNL A   1      48.187  30.153  27.347  1.00  0.00     0.131 A 
ATOM     70  C   UNL A   1      49.752  29.039  29.336  1.00  0.00     0.055 A 
ATOM     71  C   UNL A   1      49.530  29.867  27.091  1.00  0.00     0.041 A 
ATOM     72  F   UNL A   1      47.486  30.753  26.373  1.00  0.00    -0.206 F 
ATOM     73  C   UNL A   1      50.326  29.321  28.094  1.00  0.00     0.022 A 
BRANCH  70  74
ATOM     74  S   UNL A   1      50.802  28.563  30.735  1.00  0.00     0.124 S 
ATOM     75  O   UNL A   1      51.065  29.857  31.360  1.00  0.00    -0.237 OA
ATOM     76  O   UNL A   1      49.940  27.655  31.483  1.00  0.00    -0.237 OA
ATOM     77  O   UNL A   1      51.961  27.941  30.097  1.00  0.00    -0.744 OA
ENDBRANCH  70  74
ENDBRANCH  53  67
BRANCH  54  78
ATOM     78  C   UNL A   1      37.835  31.443  30.295  1.00  0.00     0.023 A 
ATOM     79  C   UNL A   1      36.957  31.899  29.298  1.00  0.00     0.031 A 
ATOM     80  C   UNL A   1      37.322  31.268  31.593  1.00  0.00     0.131 A 
ATOM     81  C   UNL A   1      35.631  32.221  29.628  1.00  0.00     0.055 A 
ATOM     82  C   UNL A   1      35.985  31.523  31.900  1.00  0.00     0.041 A 
ATOM     83  F   UNL A   1      38.117  30.837  32.586  1.00  0.00    -0.206 F 
ATOM     84  C   UNL A   1      35.134  32.018  30.917  1.00  0.00     0.022 A 
BRANCH  81  85
ATOM     85  S   UNL A   1      34.595  33.022  28.374  1.00  0.00     0.124 S 
ATOM     86  O   UNL A   1      35.597  33.643  27.515  1.00  0.00    -0.237 OA
ATOM     87  O   UNL A   1      33.876  31.887  27.804  1.00  0.00    -0.237 OA
ATOM     88  O   UNL A   1      33.776  33.949  29.151  1.00  0.00    -0.744 OA
ENDBRANCH  81  85
ENDBRANCH  54  78
BRANCH  66  89
ATOM     89  C   UNL A   1      43.577  35.329  31.103  1.00  0.00     0.023 A 
ATOM     90  C   UNL A   1      43.604  35.666  32.467  1.00  0.00     0.031 A 
ATOM     91  C   UNL A   1      43.730  36.367  30.165  1.00  0.00     0.131 A 
ATOM     92  C   UNL A   1      43.707  37.012  32.853  1.00  0.00     0.055 A 
ATOM     93  C   UNL A   1      43.915  37.693  30.557  1.00  0.00     0.041 A 
ATOM     94  F   UNL A   1      43.706  36.109  28.848  1.00  0.00    -0.206 F 
ATOM     95  C   UNL A   1      43.885  38.025  31.908  1.00  0.00     0.022 A 
BRANCH  92  96
ATOM     96  S   UNL A   1      43.469  37.434  34.601  1.00  0.00     0.124 S 
ATOM     97  O   UNL A   1      43.422  38.892  34.555  1.00  0.00    -0.237 OA
ATOM     98  O   UNL A   1      42.211  36.765  34.916  1.00  0.00    -0.237 OA
ATOM     99  O   UNL A   1      44.651  36.872  35.253  1.00  0.00    -0.744 OA
ENDBRANCH  92  96
ENDBRANCH  66  89
ENDBRANCH  40  41
ENDBRANCH  32  35
ENDBRANCH  30  31
ENDBRANCH   1  30
TORSDOF 17
ENDMDL
