MODEL 1
REMARK VINA RESULT:     -12.3      0.000      0.000
REMARK SMILES Cc1cc(=O)c(Oc2ccc(C(=O)NCCCNC(=O)c3ccc(-c4c5nc(c(-c6cc(S(=O)(=O)[O-])ccc6F)c6ccc([nH]6)c(-c6cc(S(=O)(=O)[O-])ccc6F)c6nc(c(-c7cc(S(=O)(=O)[O-])ccc7F)c7ccc4[nH]7)C=C6)C=C5)cc3)cc2)c(-c2ccc(S(C)(=O)=O)cc2)o1
REMARK SMILES IDX 15 1 14 2 12 3 13 4 11 6 8 7 9 8 85 9 10 10 84 11 7 12 6 13
REMARK SMILES IDX 1 14 2 15 3 16 97 17 4 18 86 19 5 20 87 21 88 22 96 23 89 24
REMARK SMILES IDX 95 25 90 26 91 27 92 28 93 29 94 30 16 31 17 32 18 33 19 34
REMARK SMILES IDX 20 36 21 37 22 38 83 39 23 40 82 41 24 42 25 43 26 44 76 45
REMARK SMILES IDX 27 46 81 47 75 48 77 49 28 50 80 51 74 52 73 53 29 55 61 56
REMARK SMILES IDX 41 57 60 58 42 59 45 60 59 61 78 62 43 63 44 64 58 66 79 67
REMARK SMILES IDX 46 68 30 69 31 70 39 71 32 72 38 73 40 74 37 75 33 76 34 77
REMARK SMILES IDX 35 78 36 79 62 80 63 81 71 82 64 83 70 84 72 85 69 86 65 87
REMARK SMILES IDX 66 88 67 89 68 90 47 91 48 92 56 93 49 94 55 95 57 96 54 97
REMARK SMILES IDX 50 98 51 99 52 100 53 101
REMARK H PARENT 14 5 18 35 77 54 45 65
REMARK Flexibility Score: inf
ROOT
ATOM      1  C   UNL A   1      39.884  21.810  26.178  1.00  0.00     0.118 C 
ENDROOT
BRANCH   1   2
ATOM      2  N   UNL A   1      38.942  20.779  25.773  1.00  0.00    -0.352 N 
ATOM      3  C   UNL A   1      37.775  20.827  25.047  1.00  0.00     0.251 C 
ATOM      4  O   UNL A   1      37.252  19.768  24.704  1.00  0.00    -0.269 OA
ATOM      5  H   UNL A   1      39.186  19.874  26.075  1.00  0.00     0.163 HD
BRANCH   3   6
ATOM      6  C   UNL A   1      37.063  22.101  24.766  1.00  0.00     0.040 A 
ATOM      7  C   UNL A   1      35.196  24.089  24.216  1.00  0.00     0.127 A 
ATOM      8  C   UNL A   1      35.711  23.336  23.169  1.00  0.00     0.048 A 
ATOM      9  C   UNL A   1      35.786  24.019  25.476  1.00  0.00     0.048 A 
ATOM     10  C   UNL A   1      36.612  22.308  23.453  1.00  0.00     0.017 A 
ATOM     11  C   UNL A   1      36.757  23.054  25.736  1.00  0.00     0.017 A 
BRANCH   7  12
ATOM     12  O   UNL A   1      34.182  24.983  24.062  1.00  0.00    -0.449 OA
BRANCH  12  13
ATOM     13  C   UNL A   1      32.948  24.882  24.693  1.00  0.00     0.217 A 
ATOM     14  C   UNL A   1      29.011  25.177  26.450  1.00  0.00     0.088 C 
ATOM     15  C   UNL A   1      30.405  25.184  25.911  1.00  0.00     0.105 A 
ATOM     16  C   UNL A   1      31.113  26.304  25.752  1.00  0.00     0.098 A 
ATOM     17  O   UNL A   1      30.896  23.941  25.573  1.00  0.00    -0.457 OA
ATOM     18  C   UNL A   1      32.456  26.215  25.168  1.00  0.00     0.228 A 
ATOM     19  C   UNL A   1      32.147  23.816  24.970  1.00  0.00     0.180 A 
ATOM     20  O   UNL A   1      33.129  27.238  25.068  1.00  0.00    -0.285 OA
BRANCH  19  21
ATOM     21  C   UNL A   1      32.402  22.393  24.669  1.00  0.00     0.021 A 
ATOM     22  C   UNL A   1      32.919  21.556  25.676  1.00  0.00     0.013 A 
ATOM     23  C   UNL A   1      32.153  21.855  23.399  1.00  0.00     0.013 A 
ATOM     24  C   UNL A   1      33.098  20.190  25.446  1.00  0.00     0.021 A 
ATOM     25  C   UNL A   1      32.342  20.488  23.159  1.00  0.00     0.021 A 
ATOM     26  C   UNL A   1      32.798  19.660  24.188  1.00  0.00     0.067 A 
BRANCH  26  27
ATOM     27  S   UNL A   1      32.895  17.899  23.946  1.00  0.00     0.175 S 
ATOM     28  C   UNL A   1      34.588  17.517  24.297  1.00  0.00     0.163 C 
ATOM     29  O   UNL A   1      32.083  17.283  24.978  1.00  0.00    -0.224 OA
ATOM     30  O   UNL A   1      32.659  17.628  22.539  1.00  0.00    -0.224 OA
ENDBRANCH  26  27
ENDBRANCH  19  21
ENDBRANCH  12  13
ENDBRANCH   7  12
ENDBRANCH   3   6
ENDBRANCH   1   2
BRANCH   1  31
ATOM     31  C   UNL A   1      40.910  21.391  27.219  1.00  0.00     0.042 C 
BRANCH  31  32
ATOM     32  C   UNL A   1      41.154  19.899  27.345  1.00  0.00     0.118 C 
BRANCH  32  33
ATOM     33  N   UNL A   1      42.054  19.361  26.331  1.00  0.00    -0.352 N 
ATOM     34  C   UNL A   1      43.047  19.934  25.570  1.00  0.00     0.251 C 
ATOM     35  H   UNL A   1      41.925  18.400  26.157  1.00  0.00     0.163 HD
ATOM     36  O   UNL A   1      43.570  19.261  24.682  1.00  0.00    -0.269 OA
BRANCH  34  37
ATOM     37  C   UNL A   1      43.462  21.346  25.759  1.00  0.00     0.039 A 
ATOM     38  C   UNL A   1      44.124  21.765  26.907  1.00  0.00     0.014 A 
ATOM     39  C   UNL A   1      43.204  22.281  24.748  1.00  0.00     0.014 A 
ATOM     40  C   UNL A   1      44.291  23.122  27.158  1.00  0.00     0.010 A 
ATOM     41  C   UNL A   1      43.512  23.636  24.940  1.00  0.00     0.010 A 
ATOM     42  C   UNL A   1      43.998  24.083  26.176  1.00  0.00    -0.014 A 
BRANCH  42  43
ATOM     43  C   UNL A   1      44.249  25.521  26.480  1.00  0.00     0.031 A 
ATOM     44  C   UNL A   1      43.187  26.397  27.095  1.00  0.00     0.074 A 
ATOM     45  C   UNL A   1      45.487  26.021  26.278  1.00  0.00     0.049 A 
ATOM     46  N   UNL A   1      43.291  27.626  27.535  1.00  0.00    -0.248 NA
ATOM     47  C   UNL A   1      41.835  25.832  27.225  1.00  0.00     0.031 C 
ATOM     48  C   UNL A   1      46.592  25.281  25.666  1.00  0.00     0.029 A 
ATOM     49  N   UNL A   1      46.042  27.235  26.601  1.00  0.00    -0.354 N 
ATOM     50  C   UNL A   1      42.023  27.984  27.981  1.00  0.00     0.074 A 
ATOM     51  C   UNL A   1      41.154  26.861  27.713  1.00  0.00     0.031 C 
ATOM     52  C   UNL A   1      47.708  26.014  25.741  1.00  0.00     0.029 A 
ATOM     53  C   UNL A   1      47.389  27.315  26.324  1.00  0.00     0.049 A 
ATOM     54  H   UNL A   1      45.527  27.977  26.992  1.00  0.00     0.167 HD
ATOM     55  C   UNL A   1      41.626  29.136  28.578  1.00  0.00     0.034 A 
ATOM     56  C   UNL A   1      48.274  28.315  26.510  1.00  0.00     0.034 A 
ATOM     57  C   UNL A   1      42.507  30.246  28.853  1.00  0.00     0.049 A 
ATOM     58  C   UNL A   1      47.806  29.586  27.163  1.00  0.00     0.074 A 
ATOM     59  C   UNL A   1      42.206  31.438  29.489  1.00  0.00     0.029 A 
ATOM     60  N   UNL A   1      43.852  30.309  28.513  1.00  0.00    -0.354 N 
ATOM     61  N   UNL A   1      46.620  29.877  27.644  1.00  0.00    -0.248 NA
ATOM     62  C   UNL A   1      48.793  30.663  27.308  1.00  0.00     0.031 C 
ATOM     63  C   UNL A   1      43.341  32.249  29.465  1.00  0.00     0.029 A 
ATOM     64  C   UNL A   1      44.382  31.533  28.893  1.00  0.00     0.049 A 
ATOM     65  H   UNL A   1      44.356  29.591  28.067  1.00  0.00     0.167 HD
ATOM     66  C   UNL A   1      46.719  31.170  28.150  1.00  0.00     0.074 A 
ATOM     67  C   UNL A   1      48.095  31.581  27.964  1.00  0.00     0.031 C 
ATOM     68  C   UNL A   1      45.752  31.949  28.700  1.00  0.00     0.034 A 
BRANCH  55  69
ATOM     69  C   UNL A   1      40.180  29.273  29.002  1.00  0.00     0.023 A 
ATOM     70  C   UNL A   1      39.836  29.210  30.366  1.00  0.00     0.031 A 
ATOM     71  C   UNL A   1      39.137  29.324  28.059  1.00  0.00     0.131 A 
ATOM     72  C   UNL A   1      38.488  29.157  30.746  1.00  0.00     0.055 A 
ATOM     73  C   UNL A   1      37.795  29.324  28.445  1.00  0.00     0.041 A 
ATOM     74  F   UNL A   1      39.406  29.381  26.745  1.00  0.00    -0.206 F 
ATOM     75  C   UNL A   1      37.466  29.225  29.793  1.00  0.00     0.022 A 
BRANCH  72  76
ATOM     76  S   UNL A   1      38.007  28.916  32.478  1.00  0.00     0.124 S 
ATOM     77  O   UNL A   1      36.667  29.501  32.501  1.00  0.00    -0.237 OA
ATOM     78  O   UNL A   1      38.054  27.462  32.606  1.00  0.00    -0.237 OA
ATOM     79  O   UNL A   1      39.019  29.651  33.229  1.00  0.00    -0.744 OA
ENDBRANCH  72  76
ENDBRANCH  55  69
BRANCH  56  80
ATOM     80  C   UNL A   1      49.698  28.107  26.105  1.00  0.00     0.023 A 
ATOM     81  C   UNL A   1      50.131  28.438  24.807  1.00  0.00     0.031 A 
ATOM     82  C   UNL A   1      50.607  27.463  26.958  1.00  0.00     0.131 A 
ATOM     83  C   UNL A   1      51.401  28.040  24.372  1.00  0.00     0.055 A 
ATOM     84  C   UNL A   1      51.905  27.148  26.549  1.00  0.00     0.041 A 
ATOM     85  F   UNL A   1      50.241  27.115  28.201  1.00  0.00    -0.206 F 
ATOM     86  C   UNL A   1      52.300  27.416  25.242  1.00  0.00     0.022 A 
BRANCH  83  87
ATOM     87  S   UNL A   1      51.865  28.172  22.623  1.00  0.00     0.124 S 
ATOM     88  O   UNL A   1      51.108  29.345  22.194  1.00  0.00    -0.237 OA
ATOM     89  O   UNL A   1      53.312  28.352  22.713  1.00  0.00    -0.237 OA
ATOM     90  O   UNL A   1      51.433  26.899  22.055  1.00  0.00    -0.744 OA
ENDBRANCH  83  87
ENDBRANCH  56  80
BRANCH  68  91
ATOM     91  C   UNL A   1      46.124  33.351  29.132  1.00  0.00     0.023 A 
ATOM     92  C   UNL A   1      46.044  34.422  28.221  1.00  0.00     0.031 A 
ATOM     93  C   UNL A   1      46.667  33.607  30.405  1.00  0.00     0.131 A 
ATOM     94  C   UNL A   1      46.528  35.686  28.583  1.00  0.00     0.055 A 
ATOM     95  C   UNL A   1      47.092  34.882  30.781  1.00  0.00     0.041 A 
ATOM     96  F   UNL A   1      46.782  32.619  31.308  1.00  0.00    -0.206 F 
ATOM     97  C   UNL A   1      47.037  35.925  29.864  1.00  0.00     0.022 A 
BRANCH  94  98
ATOM     98  S   UNL A   1      46.602  37.043  27.380  1.00  0.00     0.124 S 
ATOM     99  O   UNL A   1      45.187  37.357  27.194  1.00  0.00    -0.237 OA
ATOM    100  O   UNL A   1      47.375  38.051  28.100  1.00  0.00    -0.237 OA
ATOM    101  O   UNL A   1      47.266  36.452  26.222  1.00  0.00    -0.744 OA
ENDBRANCH  94  98
ENDBRANCH  68  91
ENDBRANCH  42  43
ENDBRANCH  34  37
ENDBRANCH  32  33
ENDBRANCH  31  32
ENDBRANCH   1  31
TORSDOF 17
ENDMDL
MODEL 2
REMARK VINA RESULT:     -12.0      6.611     12.909
REMARK SMILES Cc1cc(=O)c(Oc2ccc(C(=O)NCCCNC(=O)c3ccc(-c4c5nc(c(-c6cc(S(=O)(=O)[O-])ccc6F)c6ccc([nH]6)c(-c6cc(S(=O)(=O)[O-])ccc6F)c6nc(c(-c7cc(S(=O)(=O)[O-])ccc7F)c7ccc4[nH]7)C=C6)C=C5)cc3)cc2)c(-c2ccc(S(C)(=O)=O)cc2)o1
REMARK SMILES IDX 15 1 14 2 12 3 13 4 11 6 8 7 9 8 85 9 10 10 84 11 7 12 6 13
REMARK SMILES IDX 1 14 2 15 3 16 97 17 4 18 86 19 5 20 87 21 88 22 96 23 89 24
REMARK SMILES IDX 95 25 90 26 91 27 92 28 93 29 94 30 16 31 17 32 18 33 19 34
REMARK SMILES IDX 20 36 21 37 22 38 83 39 23 40 82 41 24 42 25 43 26 44 76 45
REMARK SMILES IDX 27 46 81 47 75 48 77 49 28 50 80 51 74 52 73 53 29 55 61 56
REMARK SMILES IDX 41 57 60 58 42 59 45 60 59 61 78 62 43 63 44 64 58 66 79 67
REMARK SMILES IDX 46 68 30 69 31 70 39 71 32 72 38 73 40 74 37 75 33 76 34 77
REMARK SMILES IDX 35 78 36 79 62 80 63 81 71 82 64 83 70 84 72 85 69 86 65 87
REMARK SMILES IDX 66 88 67 89 68 90 47 91 48 92 56 93 49 94 55 95 57 96 54 97
REMARK SMILES IDX 50 98 51 99 52 100 53 101
REMARK H PARENT 14 5 18 35 77 54 45 65
REMARK Flexibility Score: inf
ROOT
ATOM      1  C   UNL A   1      39.634  33.825  38.610  1.00  0.00     0.118 C 
ENDROOT
BRANCH   1   2
ATOM      2  N   UNL A   1      38.233  33.679  38.250  1.00  0.00    -0.352 N 
ATOM      3  C   UNL A   1      37.608  33.411  37.054  1.00  0.00     0.251 C 
ATOM      4  O   UNL A   1      36.401  33.175  37.061  1.00  0.00    -0.269 OA
ATOM      5  H   UNL A   1      37.612  33.795  39.006  1.00  0.00     0.163 HD
BRANCH   3   6
ATOM      6  C   UNL A   1      38.310  33.511  35.748  1.00  0.00     0.040 A 
ATOM      7  C   UNL A   1      39.066  33.418  33.072  1.00  0.00     0.127 A 
ATOM      8  C   UNL A   1      39.226  32.285  33.860  1.00  0.00     0.048 A 
ATOM      9  C   UNL A   1      38.770  34.641  33.669  1.00  0.00     0.048 A 
ATOM     10  C   UNL A   1      38.802  32.320  35.190  1.00  0.00     0.017 A 
ATOM     11  C   UNL A   1      38.439  34.693  35.021  1.00  0.00     0.017 A 
BRANCH   7  12
ATOM     12  O   UNL A   1      39.277  33.425  31.728  1.00  0.00    -0.449 OA
BRANCH  12  13
ATOM     13  C   UNL A   1      38.722  32.505  30.846  1.00  0.00     0.217 A 
ATOM     14  C   UNL A   1      37.473  29.244  28.300  1.00  0.00     0.088 C 
ATOM     15  C   UNL A   1      38.025  30.363  29.123  1.00  0.00     0.105 A 
ATOM     16  C   UNL A   1      39.313  30.445  29.462  1.00  0.00     0.098 A 
ATOM     17  O   UNL A   1      37.092  31.297  29.522  1.00  0.00    -0.457 OA
ATOM     18  C   UNL A   1      39.752  31.554  30.315  1.00  0.00     0.228 A 
ATOM     19  C   UNL A   1      37.456  32.339  30.374  1.00  0.00     0.180 A 
ATOM     20  O   UNL A   1      40.946  31.660  30.585  1.00  0.00    -0.285 OA
BRANCH  19  21
ATOM     21  C   UNL A   1      36.264  33.154  30.681  1.00  0.00     0.021 A 
ATOM     22  C   UNL A   1      35.828  33.263  32.015  1.00  0.00     0.013 A 
ATOM     23  C   UNL A   1      35.545  33.813  29.675  1.00  0.00     0.013 A 
ATOM     24  C   UNL A   1      34.750  34.088  32.348  1.00  0.00     0.021 A 
ATOM     25  C   UNL A   1      34.457  34.632  30.002  1.00  0.00     0.021 A 
ATOM     26  C   UNL A   1      34.076  34.778  31.338  1.00  0.00     0.067 A 
BRANCH  26  27
ATOM     27  S   UNL A   1      32.797  35.933  31.785  1.00  0.00     0.175 S 
ATOM     28  C   UNL A   1      33.578  36.989  32.973  1.00  0.00     0.163 C 
ATOM     29  O   UNL A   1      32.514  36.731  30.607  1.00  0.00    -0.224 OA
ATOM     30  O   UNL A   1      31.747  35.196  32.466  1.00  0.00    -0.224 OA
ENDBRANCH  26  27
ENDBRANCH  19  21
ENDBRANCH  12  13
ENDBRANCH   7  12
ENDBRANCH   3   6
ENDBRANCH   1   2
BRANCH   1  31
ATOM     31  C   UNL A   1      39.942  34.912  39.626  1.00  0.00     0.042 C 
BRANCH  31  32
ATOM     32  C   UNL A   1      41.389  35.007  40.075  1.00  0.00     0.118 C 
BRANCH  32  33
ATOM     33  N   UNL A   1      41.990  36.317  39.853  1.00  0.00    -0.352 N 
ATOM     34  C   UNL A   1      42.629  36.877  38.769  1.00  0.00     0.251 C 
ATOM     35  H   UNL A   1      41.928  36.919  40.630  1.00  0.00     0.163 HD
ATOM     36  O   UNL A   1      43.163  37.976  38.905  1.00  0.00    -0.269 OA
BRANCH  34  37
ATOM     37  C   UNL A   1      42.733  36.167  37.470  1.00  0.00     0.039 A 
ATOM     38  C   UNL A   1      41.673  36.132  36.571  1.00  0.00     0.014 A 
ATOM     39  C   UNL A   1      43.934  35.535  37.123  1.00  0.00     0.014 A 
ATOM     40  C   UNL A   1      41.716  35.274  35.478  1.00  0.00     0.010 A 
ATOM     41  C   UNL A   1      44.027  34.789  35.939  1.00  0.00     0.010 A 
ATOM     42  C   UNL A   1      42.896  34.595  35.135  1.00  0.00    -0.014 A 
BRANCH  42  43
ATOM     43  C   UNL A   1      42.901  33.731  33.919  1.00  0.00     0.031 A 
ATOM     44  C   UNL A   1      43.093  34.308  32.540  1.00  0.00     0.074 A 
ATOM     45  C   UNL A   1      42.816  32.393  34.073  1.00  0.00     0.049 A 
ATOM     46  N   UNL A   1      43.250  33.679  31.401  1.00  0.00    -0.248 NA
ATOM     47  C   UNL A   1      43.103  35.774  32.414  1.00  0.00     0.031 C 
ATOM     48  C   UNL A   1      42.601  31.716  35.354  1.00  0.00     0.029 A 
ATOM     49  N   UNL A   1      42.945  31.363  33.173  1.00  0.00    -0.354 N 
ATOM     50  C   UNL A   1      43.364  34.666  30.428  1.00  0.00     0.074 A 
ATOM     51  C   UNL A   1      43.210  35.935  31.101  1.00  0.00     0.031 C 
ATOM     52  C   UNL A   1      42.706  30.394  35.176  1.00  0.00     0.029 A 
ATOM     53  C   UNL A   1      42.905  30.116  33.756  1.00  0.00     0.049 A 
ATOM     54  H   UNL A   1      43.054  31.503  32.205  1.00  0.00     0.167 HD
ATOM     55  C   UNL A   1      43.597  34.525  29.099  1.00  0.00     0.034 A 
ATOM     56  C   UNL A   1      43.012  28.883  33.219  1.00  0.00     0.034 A 
ATOM     57  C   UNL A   1      43.763  33.251  28.441  1.00  0.00     0.049 A 
ATOM     58  C   UNL A   1      43.259  28.754  31.741  1.00  0.00     0.074 A 
ATOM     59  C   UNL A   1      44.041  33.010  27.106  1.00  0.00     0.029 A 
ATOM     60  N   UNL A   1      43.666  32.009  29.055  1.00  0.00    -0.354 N 
ATOM     61  N   UNL A   1      43.437  29.701  30.849  1.00  0.00    -0.248 NA
ATOM     62  C   UNL A   1      43.326  27.394  31.193  1.00  0.00     0.031 C 
ATOM     63  C   UNL A   1      44.036  31.630  26.898  1.00  0.00     0.029 A 
ATOM     64  C   UNL A   1      43.843  31.001  28.119  1.00  0.00     0.049 A 
ATOM     65  H   UNL A   1      43.497  31.865  30.014  1.00  0.00     0.167 HD
ATOM     66  C   UNL A   1      43.639  29.051  29.636  1.00  0.00     0.074 A 
ATOM     67  C   UNL A   1      43.616  27.631  29.921  1.00  0.00     0.031 C 
ATOM     68  C   UNL A   1      43.811  29.583  28.398  1.00  0.00     0.034 A 
BRANCH  55  69
ATOM     69  C   UNL A   1      43.709  35.770  28.245  1.00  0.00     0.023 A 
ATOM     70  C   UNL A   1      44.962  36.383  28.054  1.00  0.00     0.031 A 
ATOM     71  C   UNL A   1      42.569  36.424  27.744  1.00  0.00     0.131 A 
ATOM     72  C   UNL A   1      45.041  37.628  27.416  1.00  0.00     0.055 A 
ATOM     73  C   UNL A   1      42.659  37.641  27.063  1.00  0.00     0.041 A 
ATOM     74  F   UNL A   1      41.348  35.888  27.902  1.00  0.00    -0.206 F 
ATOM     75  C   UNL A   1      43.897  38.255  26.911  1.00  0.00     0.022 A 
BRANCH  72  76
ATOM     76  S   UNL A   1      46.613  38.523  27.291  1.00  0.00     0.124 S 
ATOM     77  O   UNL A   1      46.858  38.499  25.849  1.00  0.00    -0.237 OA
ATOM     78  O   UNL A   1      46.264  39.830  27.842  1.00  0.00    -0.237 OA
ATOM     79  O   UNL A   1      47.536  37.725  28.091  1.00  0.00    -0.744 OA
ENDBRANCH  72  76
ENDBRANCH  55  69
BRANCH  56  80
ATOM     80  C   UNL A   1      42.930  27.692  34.118  1.00  0.00     0.023 A 
ATOM     81  C   UNL A   1      44.099  27.067  34.592  1.00  0.00     0.031 A 
ATOM     82  C   UNL A   1      41.697  27.090  34.413  1.00  0.00     0.131 A 
ATOM     83  C   UNL A   1      44.015  25.834  35.249  1.00  0.00     0.055 A 
ATOM     84  C   UNL A   1      41.612  25.905  35.147  1.00  0.00     0.041 A 
ATOM     85  F   UNL A   1      40.553  27.638  33.975  1.00  0.00    -0.206 F 
ATOM     86  C   UNL A   1      42.777  25.258  35.548  1.00  0.00     0.022 A 
BRANCH  83  87
ATOM     87  S   UNL A   1      45.508  24.860  35.588  1.00  0.00     0.124 S 
ATOM     88  O   UNL A   1      46.029  24.623  34.245  1.00  0.00    -0.237 OA
ATOM     89  O   UNL A   1      46.283  25.784  36.412  1.00  0.00    -0.237 OA
ATOM     90  O   UNL A   1      45.001  23.683  36.286  1.00  0.00    -0.744 OA
ENDBRANCH  83  87
ENDBRANCH  56  80
BRANCH  68  91
ATOM     91  C   UNL A   1      43.967  28.637  27.228  1.00  0.00     0.023 A 
ATOM     92  C   UNL A   1      45.236  28.412  26.659  1.00  0.00     0.031 A 
ATOM     93  C   UNL A   1      42.851  28.050  26.605  1.00  0.00     0.131 A 
ATOM     94  C   UNL A   1      45.352  27.651  25.488  1.00  0.00     0.055 A 
ATOM     95  C   UNL A   1      42.979  27.244  25.473  1.00  0.00     0.041 A 
ATOM     96  F   UNL A   1      41.616  28.245  27.096  1.00  0.00    -0.206 F 
ATOM     97  C   UNL A   1      44.232  27.054  24.901  1.00  0.00     0.022 A 
BRANCH  94  98
ATOM     98  S   UNL A   1      46.942  27.486  24.630  1.00  0.00     0.124 S 
ATOM     99  O   UNL A   1      46.963  26.061  24.306  1.00  0.00    -0.237 OA
ATOM    100  O   UNL A   1      46.772  28.382  23.490  1.00  0.00    -0.237 OA
ATOM    101  O   UNL A   1      47.924  27.913  25.622  1.00  0.00    -0.744 OA
ENDBRANCH  94  98
ENDBRANCH  68  91
ENDBRANCH  42  43
ENDBRANCH  34  37
ENDBRANCH  32  33
ENDBRANCH  31  32
ENDBRANCH   1  31
TORSDOF 17
ENDMDL
MODEL 3
REMARK VINA RESULT:     -11.9      5.591     10.865
REMARK SMILES Cc1cc(=O)c(Oc2ccc(C(=O)NCCCNC(=O)c3ccc(-c4c5nc(c(-c6cc(S(=O)(=O)[O-])ccc6F)c6ccc([nH]6)c(-c6cc(S(=O)(=O)[O-])ccc6F)c6nc(c(-c7cc(S(=O)(=O)[O-])ccc7F)c7ccc4[nH]7)C=C6)C=C5)cc3)cc2)c(-c2ccc(S(C)(=O)=O)cc2)o1
REMARK SMILES IDX 15 1 14 2 12 3 13 4 11 6 8 7 9 8 85 9 10 10 84 11 7 12 6 13
REMARK SMILES IDX 1 14 2 15 3 16 97 17 4 18 86 19 5 20 87 21 88 22 96 23 89 24
REMARK SMILES IDX 95 25 90 26 91 27 92 28 93 29 94 30 16 31 17 32 18 33 19 34
REMARK SMILES IDX 20 36 21 37 22 38 83 39 23 40 82 41 24 42 25 43 26 44 76 45
REMARK SMILES IDX 27 46 81 47 75 48 77 49 28 50 80 51 74 52 73 53 29 55 61 56
REMARK SMILES IDX 41 57 60 58 42 59 45 60 59 61 78 62 43 63 44 64 58 66 79 67
REMARK SMILES IDX 46 68 30 69 31 70 39 71 32 72 38 73 40 74 37 75 33 76 34 77
REMARK SMILES IDX 35 78 36 79 62 80 63 81 71 82 64 83 70 84 72 85 69 86 65 87
REMARK SMILES IDX 66 88 67 89 68 90 47 91 48 92 56 93 49 94 55 95 57 96 54 97
REMARK SMILES IDX 50 98 51 99 52 100 53 101
REMARK H PARENT 14 5 18 35 77 54 45 65
REMARK Flexibility Score: inf
ROOT
ATOM      1  C   UNL A   1      50.838  27.890  28.098  1.00  0.00     0.118 C 
ENDROOT
BRANCH   1   2
ATOM      2  N   UNL A   1      50.732  26.442  28.177  1.00  0.00    -0.352 N 
ATOM      3  C   UNL A   1      49.884  25.543  27.574  1.00  0.00     0.251 C 
ATOM      4  O   UNL A   1      50.121  24.341  27.690  1.00  0.00    -0.269 OA
ATOM      5  H   UNL A   1      51.392  26.025  28.777  1.00  0.00     0.163 HD
BRANCH   3   6
ATOM      6  C   UNL A   1      48.633  25.962  26.889  1.00  0.00     0.040 A 
ATOM      7  C   UNL A   1      46.329  26.140  25.340  1.00  0.00     0.127 A 
ATOM      8  C   UNL A   1      47.561  26.398  24.752  1.00  0.00     0.048 A 
ATOM      9  C   UNL A   1      46.229  26.043  26.725  1.00  0.00     0.048 A 
ATOM     10  C   UNL A   1      48.719  26.262  25.520  1.00  0.00     0.017 A 
ATOM     11  C   UNL A   1      47.383  26.003  27.505  1.00  0.00     0.017 A 
BRANCH   7  12
ATOM     12  O   UNL A   1      45.168  26.067  24.633  1.00  0.00    -0.449 OA
BRANCH  12  13
ATOM     13  C   UNL A   1      43.928  25.792  25.195  1.00  0.00     0.217 A 
ATOM     14  C   UNL A   1      39.877  25.499  26.674  1.00  0.00     0.088 C 
ATOM     15  C   UNL A   1      41.285  25.719  26.223  1.00  0.00     0.105 A 
ATOM     16  C   UNL A   1      41.792  26.933  25.999  1.00  0.00     0.098 A 
ATOM     17  O   UNL A   1      42.016  24.564  26.036  1.00  0.00    -0.457 OA
ATOM     18  C   UNL A   1      43.170  27.046  25.509  1.00  0.00     0.228 A 
ATOM     19  C   UNL A   1      43.311  24.623  25.525  1.00  0.00     0.180 A 
ATOM     20  O   UNL A   1      43.655  28.164  25.352  1.00  0.00    -0.285 OA
BRANCH  19  21
ATOM     21  C   UNL A   1      43.839  23.252  25.378  1.00  0.00     0.021 A 
ATOM     22  C   UNL A   1      43.121  22.174  25.929  1.00  0.00     0.013 A 
ATOM     23  C   UNL A   1      45.045  22.996  24.713  1.00  0.00     0.013 A 
ATOM     24  C   UNL A   1      43.553  20.858  25.741  1.00  0.00     0.021 A 
ATOM     25  C   UNL A   1      45.490  21.680  24.532  1.00  0.00     0.021 A 
ATOM     26  C   UNL A   1      44.733  20.618  25.032  1.00  0.00     0.067 A 
BRANCH  26  27
ATOM     27  S   UNL A   1      45.201  18.937  24.677  1.00  0.00     0.175 S 
ATOM     28  C   UNL A   1      46.614  18.665  25.709  1.00  0.00     0.163 C 
ATOM     29  O   UNL A   1      44.132  18.087  25.162  1.00  0.00    -0.224 OA
ATOM     30  O   UNL A   1      45.641  18.879  23.293  1.00  0.00    -0.224 OA
ENDBRANCH  26  27
ENDBRANCH  19  21
ENDBRANCH  12  13
ENDBRANCH   7  12
ENDBRANCH   3   6
ENDBRANCH   1   2
BRANCH   1  31
ATOM     31  C   UNL A   1      52.230  28.432  27.818  1.00  0.00     0.042 C 
BRANCH  31  32
ATOM     32  C   UNL A   1      52.800  29.367  28.868  1.00  0.00     0.118 C 
BRANCH  32  33
ATOM     33  N   UNL A   1      53.247  30.649  28.336  1.00  0.00    -0.352 N 
ATOM     34  C   UNL A   1      52.569  31.779  27.936  1.00  0.00     0.251 C 
ATOM     35  H   UNL A   1      54.226  30.721  28.246  1.00  0.00     0.163 HD
ATOM     36  O   UNL A   1      53.203  32.684  27.396  1.00  0.00    -0.269 OA
BRANCH  34  37
ATOM     37  C   UNL A   1      51.099  31.905  28.092  1.00  0.00     0.039 A 
ATOM     38  C   UNL A   1      50.526  32.356  29.275  1.00  0.00     0.014 A 
ATOM     39  C   UNL A   1      50.262  31.586  27.014  1.00  0.00     0.014 A 
ATOM     40  C   UNL A   1      49.155  32.244  29.471  1.00  0.00     0.010 A 
ATOM     41  C   UNL A   1      48.868  31.618  27.166  1.00  0.00     0.010 A 
ATOM     42  C   UNL A   1      48.298  31.883  28.419  1.00  0.00    -0.014 A 
BRANCH  42  43
ATOM     43  C   UNL A   1      46.829  31.834  28.672  1.00  0.00     0.031 A 
ATOM     44  C   UNL A   1      46.163  30.597  29.220  1.00  0.00     0.074 A 
ATOM     45  C   UNL A   1      46.100  32.954  28.486  1.00  0.00     0.049 A 
ATOM     46  N   UNL A   1      44.923  30.439  29.614  1.00  0.00    -0.248 NA
ATOM     47  C   UNL A   1      46.981  29.380  29.333  1.00  0.00     0.031 C 
ATOM     48  C   UNL A   1      46.625  34.205  27.936  1.00  0.00     0.029 A 
ATOM     49  N   UNL A   1      44.789  33.246  28.776  1.00  0.00    -0.354 N 
ATOM     50  C   UNL A   1      44.811  29.110  30.008  1.00  0.00     0.074 A 
ATOM     51  C   UNL A   1      46.093  28.492  29.761  1.00  0.00     0.031 C 
ATOM     52  C   UNL A   1      45.681  35.151  28.014  1.00  0.00     0.029 A 
ATOM     53  C   UNL A   1      44.452  34.559  28.535  1.00  0.00     0.049 A 
ATOM     54  H   UNL A   1      44.152  32.580  29.122  1.00  0.00     0.167 HD
ATOM     55  C   UNL A   1      43.742  28.472  30.547  1.00  0.00     0.034 A 
ATOM     56  C   UNL A   1      43.290  35.221  28.706  1.00  0.00     0.034 A 
ATOM     57  C   UNL A   1      42.470  29.105  30.803  1.00  0.00     0.049 A 
ATOM     58  C   UNL A   1      42.117  34.487  29.294  1.00  0.00     0.074 A 
ATOM     59  C   UNL A   1      41.341  28.550  31.381  1.00  0.00     0.029 A 
ATOM     60  N   UNL A   1      42.151  30.422  30.499  1.00  0.00    -0.354 N 
ATOM     61  N   UNL A   1      42.051  33.250  29.729  1.00  0.00    -0.248 NA
ATOM     62  C   UNL A   1      40.860  35.235  29.424  1.00  0.00     0.031 C 
ATOM     63  C   UNL A   1      40.322  29.502  31.357  1.00  0.00     0.029 A 
ATOM     64  C   UNL A   1      40.834  30.684  30.845  1.00  0.00     0.049 A 
ATOM     65  H   UNL A   1      42.769  31.075  30.097  1.00  0.00     0.167 HD
ATOM     66  C   UNL A   1      40.749  33.073  30.185  1.00  0.00     0.074 A 
ATOM     67  C   UNL A   1      40.078  34.346  30.023  1.00  0.00     0.031 C 
ATOM     68  C   UNL A   1      40.160  31.951  30.675  1.00  0.00     0.034 A 
BRANCH  55  69
ATOM     69  C   UNL A   1      43.882  27.012  30.923  1.00  0.00     0.023 A 
ATOM     70  C   UNL A   1      44.188  26.653  32.250  1.00  0.00     0.031 A 
ATOM     71  C   UNL A   1      43.852  25.995  29.952  1.00  0.00     0.131 A 
ATOM     72  C   UNL A   1      44.492  25.320  32.560  1.00  0.00     0.055 A 
ATOM     73  C   UNL A   1      44.106  24.660  30.277  1.00  0.00     0.041 A 
ATOM     74  F   UNL A   1      43.571  26.281  28.670  1.00  0.00    -0.206 F 
ATOM     75  C   UNL A   1      44.443  24.322  31.583  1.00  0.00     0.022 A 
BRANCH  72  76
ATOM     76  S   UNL A   1      45.045  24.844  34.220  1.00  0.00     0.124 S 
ATOM     77  O   UNL A   1      45.810  26.021  34.631  1.00  0.00    -0.237 OA
ATOM     78  O   UNL A   1      43.777  24.650  34.919  1.00  0.00    -0.237 OA
ATOM     79  O   UNL A   1      45.834  23.638  33.995  1.00  0.00    -0.744 OA
ENDBRANCH  72  76
ENDBRANCH  55  69
BRANCH  56  80
ATOM     80  C   UNL A   1      43.223  36.671  28.351  1.00  0.00     0.023 A 
ATOM     81  C   UNL A   1      43.534  37.660  29.303  1.00  0.00     0.031 A 
ATOM     82  C   UNL A   1      42.732  37.090  27.104  1.00  0.00     0.131 A 
ATOM     83  C   UNL A   1      43.260  39.005  29.028  1.00  0.00     0.055 A 
ATOM     84  C   UNL A   1      42.545  38.441  26.801  1.00  0.00     0.041 A 
ATOM     85  F   UNL A   1      42.409  36.188  26.165  1.00  0.00    -0.206 F 
ATOM     86  C   UNL A   1      42.787  39.405  27.775  1.00  0.00     0.022 A 
BRANCH  83  87
ATOM     87  S   UNL A   1      43.353  40.256  30.340  1.00  0.00     0.124 S 
ATOM     88  O   UNL A   1      44.547  41.006  29.962  1.00  0.00    -0.237 OA
ATOM     89  O   UNL A   1      42.084  40.960  30.168  1.00  0.00    -0.237 OA
ATOM     90  O   UNL A   1      43.462  39.466  31.562  1.00  0.00    -0.744 OA
ENDBRANCH  83  87
ENDBRANCH  56  80
BRANCH  68  91
ATOM     91  C   UNL A   1      38.699  32.022  31.061  1.00  0.00     0.023 A 
ATOM     92  C   UNL A   1      38.307  32.662  32.253  1.00  0.00     0.031 A 
ATOM     93  C   UNL A   1      37.709  31.358  30.313  1.00  0.00     0.131 A 
ATOM     94  C   UNL A   1      36.973  32.596  32.677  1.00  0.00     0.055 A 
ATOM     95  C   UNL A   1      36.371  31.346  30.709  1.00  0.00     0.041 A 
ATOM     96  F   UNL A   1      38.029  30.717  29.177  1.00  0.00    -0.206 F 
ATOM     97  C   UNL A   1      36.000  31.955  31.903  1.00  0.00     0.022 A 
BRANCH  94  98
ATOM     98  S   UNL A   1      36.466  33.257  34.289  1.00  0.00     0.124 S 
ATOM     99  O   UNL A   1      35.010  33.169  34.206  1.00  0.00    -0.237 OA
ATOM    100  O   UNL A   1      37.096  32.322  35.217  1.00  0.00    -0.237 OA
ATOM    101  O   UNL A   1      37.008  34.613  34.300  1.00  0.00    -0.744 OA
ENDBRANCH  94  98
ENDBRANCH  68  91
ENDBRANCH  42  43
ENDBRANCH  34  37
ENDBRANCH  32  33
ENDBRANCH  31  32
ENDBRANCH   1  31
TORSDOF 17
ENDMDL
