MODEL 1
REMARK VINA RESULT:     -12.6      0.000      0.000
REMARK SMILES O=C(Cc1cccc(-c2ccn(C(F)F)c(=O)c2)c1)NCCCNC(=O)c1ccc(-c2c3nc(c(-c4cc(S(=O)(=O)[O-])ccc4F)c4ccc([nH]4)c(-c4cc(S(=O)(=O)[O-])ccc4F)c4nc(c(-c5cc(S(=O)(=O)[O-])ccc5F)c5ccc2[nH]5)C=C4)C=C3)cc1
REMARK SMILES IDX 22 1 21 2 20 3 1 4 2 5 3 7 4 8 5 9 19 10 6 11 8 12 7 13 9 14
REMARK SMILES IDX 10 15 18 16 11 17 16 18 12 19 17 20 13 21 14 22 15 23 23 24
REMARK SMILES IDX 24 25 25 26 26 28 27 29 28 30 89 31 29 32 88 33 30 34 31 35
REMARK SMILES IDX 32 36 82 37 33 38 87 39 81 40 83 41 34 42 86 43 80 44 79 45
REMARK SMILES IDX 35 47 67 48 47 49 66 50 48 51 51 52 65 53 84 54 49 55 50 56
REMARK SMILES IDX 64 58 85 59 52 60 36 61 37 62 45 63 38 64 44 65 46 66 43 67
REMARK SMILES IDX 39 68 40 69 41 70 42 71 68 72 69 73 77 74 70 75 76 76 78 77
REMARK SMILES IDX 75 78 71 79 72 80 73 81 74 82 53 83 54 84 62 85 55 86 61 87
REMARK SMILES IDX 63 88 60 89 56 90 57 91 58 92 59 93
REMARK H PARENT 20 6 24 27 83 46 51 57
REMARK Flexibility Score: inf
ROOT
ATOM      1  C   UNL A   1      32.688  29.427  25.294  1.00  0.00     0.042 C 
ENDROOT
BRANCH   1   2
ATOM      2  C   UNL A   1      31.374  28.954  24.684  1.00  0.00     0.117 C 
BRANCH   2   3
ATOM      3  N   UNL A   1      31.133  27.543  24.908  1.00  0.00    -0.356 N 
ATOM      4  O   UNL A   1      29.587  27.266  23.228  1.00  0.00    -0.275 OA
ATOM      5  C   UNL A   1      30.271  26.795  24.131  1.00  0.00     0.224 C 
ATOM      6  H   UNL A   1      31.605  27.097  25.647  1.00  0.00     0.163 HD
BRANCH   5   7
ATOM      7  C   UNL A   1      30.221  25.318  24.499  1.00  0.00     0.135 C 
BRANCH   7   8
ATOM      8  C   UNL A   1      31.255  24.493  23.766  1.00  0.00    -0.038 A 
ATOM      9  C   UNL A   1      32.045  25.056  22.758  1.00  0.00     0.004 A 
ATOM     10  C   UNL A   1      31.413  23.133  24.074  1.00  0.00     0.013 A 
ATOM     11  C   UNL A   1      32.954  24.264  22.052  1.00  0.00     0.001 A 
ATOM     12  C   UNL A   1      32.309  22.329  23.359  1.00  0.00    -0.018 A 
ATOM     13  C   UNL A   1      33.080  22.904  22.344  1.00  0.00     0.009 A 
BRANCH  12  14
ATOM     14  C   UNL A   1      32.378  20.889  23.671  1.00  0.00    -0.011 A 
ATOM     15  C   UNL A   1      32.659  20.407  25.010  1.00  0.00     0.027 A 
ATOM     16  C   UNL A   1      32.240  20.000  22.673  1.00  0.00     0.080 A 
ATOM     17  C   UNL A   1      32.828  19.101  25.243  1.00  0.00     0.095 A 
ATOM     18  C   UNL A   1      32.408  18.541  22.921  1.00  0.00     0.255 A 
ATOM     19  N   UNL A   1      32.717  18.178  24.221  1.00  0.00    -0.258 N 
ATOM     20  O   UNL A   1      32.280  17.766  21.975  1.00  0.00    -0.269 OA
BRANCH  19  21
ATOM     21  C   UNL A   1      32.954  16.780  24.476  1.00  0.00     0.451 C 
ATOM     22  F   UNL A   1      33.932  16.289  23.677  1.00  0.00    -0.185 F 
ATOM     23  F   UNL A   1      33.328  16.580  25.764  1.00  0.00    -0.185 F 
ENDBRANCH  19  21
ENDBRANCH  12  14
ENDBRANCH   7   8
ENDBRANCH   5   7
ENDBRANCH   2   3
ENDBRANCH   1   2
BRANCH   1  24
ATOM     24  C   UNL A   1      32.601  29.835  26.763  1.00  0.00     0.118 C 
BRANCH  24  25
ATOM     25  N   UNL A   1      32.659  31.275  26.964  1.00  0.00    -0.352 N 
ATOM     26  C   UNL A   1      33.599  32.049  27.601  1.00  0.00     0.251 C 
ATOM     27  H   UNL A   1      31.903  31.775  26.581  1.00  0.00     0.163 HD
ATOM     28  O   UNL A   1      33.358  33.243  27.771  1.00  0.00    -0.269 OA
BRANCH  26  29
ATOM     29  C   UNL A   1      34.867  31.469  28.109  1.00  0.00     0.039 A 
ATOM     30  C   UNL A   1      35.993  32.294  28.177  1.00  0.00     0.014 A 
ATOM     31  C   UNL A   1      34.973  30.128  28.488  1.00  0.00     0.014 A 
ATOM     32  C   UNL A   1      37.197  31.795  28.683  1.00  0.00     0.010 A 
ATOM     33  C   UNL A   1      36.151  29.654  29.070  1.00  0.00     0.010 A 
ATOM     34  C   UNL A   1      37.279  30.481  29.175  1.00  0.00    -0.014 A 
BRANCH  34  35
ATOM     35  C   UNL A   1      38.531  29.991  29.819  1.00  0.00     0.031 A 
ATOM     36  C   UNL A   1      38.948  30.483  31.180  1.00  0.00     0.074 A 
ATOM     37  C   UNL A   1      39.310  29.111  29.156  1.00  0.00     0.049 A 
ATOM     38  N   UNL A   1      39.993  30.147  31.895  1.00  0.00    -0.248 NA
ATOM     39  C   UNL A   1      38.096  31.502  31.808  1.00  0.00     0.031 C 
ATOM     40  C   UNL A   1      39.045  28.601  27.808  1.00  0.00     0.029 A 
ATOM     41  N   UNL A   1      40.474  28.483  29.522  1.00  0.00    -0.354 N 
ATOM     42  C   UNL A   1      39.925  30.912  33.056  1.00  0.00     0.074 A 
ATOM     43  C   UNL A   1      38.774  31.779  32.912  1.00  0.00     0.031 C 
ATOM     44  C   UNL A   1      39.989  27.705  27.483  1.00  0.00     0.029 A 
ATOM     45  C   UNL A   1      40.954  27.610  28.571  1.00  0.00     0.049 A 
ATOM     46  H   UNL A   1      40.923  28.642  30.383  1.00  0.00     0.167 HD
ATOM     47  C   UNL A   1      40.732  30.878  34.147  1.00  0.00     0.034 A 
ATOM     48  C   UNL A   1      42.047  26.821  28.573  1.00  0.00     0.034 A 
ATOM     49  C   UNL A   1      41.879  30.010  34.274  1.00  0.00     0.049 A 
ATOM     50  C   UNL A   1      42.935  26.813  29.791  1.00  0.00     0.074 A 
ATOM     51  C   UNL A   1      42.735  29.863  35.353  1.00  0.00     0.029 A 
ATOM     52  N   UNL A   1      42.342  29.147  33.288  1.00  0.00    -0.354 N 
ATOM     53  N   UNL A   1      42.820  27.499  30.906  1.00  0.00    -0.248 NA
ATOM     54  C   UNL A   1      44.088  25.906  29.758  1.00  0.00     0.031 C 
ATOM     55  C   UNL A   1      43.756  28.977  34.990  1.00  0.00     0.029 A 
ATOM     56  C   UNL A   1      43.487  28.493  33.720  1.00  0.00     0.049 A 
ATOM     57  H   UNL A   1      41.919  29.018  32.408  1.00  0.00     0.167 HD
ATOM     58  C   UNL A   1      43.870  27.078  31.718  1.00  0.00     0.074 A 
ATOM     59  C   UNL A   1      44.586  26.062  30.975  1.00  0.00     0.031 C 
ATOM     60  C   UNL A   1      44.211  27.494  32.966  1.00  0.00     0.034 A 
BRANCH  47  61
ATOM     61  C   UNL A   1      40.412  31.829  35.280  1.00  0.00     0.023 A 
ATOM     62  C   UNL A   1      39.429  31.533  36.241  1.00  0.00     0.031 A 
ATOM     63  C   UNL A   1      41.088  33.058  35.395  1.00  0.00     0.131 A 
ATOM     64  C   UNL A   1      39.097  32.480  37.224  1.00  0.00     0.055 A 
ATOM     65  C   UNL A   1      40.815  33.958  36.428  1.00  0.00     0.041 A 
ATOM     66  F   UNL A   1      42.021  33.412  34.496  1.00  0.00    -0.206 F 
ATOM     67  C   UNL A   1      39.803  33.678  37.341  1.00  0.00     0.022 A 
BRANCH  64  68
ATOM     68  S   UNL A   1      37.628  32.187  38.248  1.00  0.00     0.124 S 
ATOM     69  O   UNL A   1      38.127  32.516  39.581  1.00  0.00    -0.237 OA
ATOM     70  O   UNL A   1      36.657  33.115  37.681  1.00  0.00    -0.237 OA
ATOM     71  O   UNL A   1      37.339  30.769  38.033  1.00  0.00    -0.744 OA
ENDBRANCH  64  68
ENDBRANCH  47  61
BRANCH  48  72
ATOM     72  C   UNL A   1      42.369  25.971  27.390  1.00  0.00     0.023 A 
ATOM     73  C   UNL A   1      41.966  24.627  27.328  1.00  0.00     0.031 A 
ATOM     74  C   UNL A   1      43.132  26.478  26.321  1.00  0.00     0.131 A 
ATOM     75  C   UNL A   1      42.370  23.823  26.250  1.00  0.00     0.055 A 
ATOM     76  C   UNL A   1      43.478  25.690  25.222  1.00  0.00     0.041 A 
ATOM     77  F   UNL A   1      43.542  27.757  26.326  1.00  0.00    -0.206 F 
ATOM     78  C   UNL A   1      43.109  24.350  25.190  1.00  0.00     0.022 A 
BRANCH  75  79
ATOM     79  S   UNL A   1      41.997  22.048  26.303  1.00  0.00     0.124 S 
ATOM     80  O   UNL A   1      42.827  21.539  25.217  1.00  0.00    -0.237 OA
ATOM     81  O   UNL A   1      42.416  21.691  27.654  1.00  0.00    -0.237 OA
ATOM     82  O   UNL A   1      40.556  21.996  26.065  1.00  0.00    -0.744 OA
ENDBRANCH  75  79
ENDBRANCH  48  72
BRANCH  60  83
ATOM     83  C   UNL A   1      45.391  26.805  33.615  1.00  0.00     0.023 A 
ATOM     84  C   UNL A   1      45.251  25.593  34.313  1.00  0.00     0.031 A 
ATOM     85  C   UNL A   1      46.666  27.400  33.583  1.00  0.00     0.131 A 
ATOM     86  C   UNL A   1      46.338  25.066  35.028  1.00  0.00     0.055 A 
ATOM     87  C   UNL A   1      47.764  26.826  34.227  1.00  0.00     0.041 A 
ATOM     88  F   UNL A   1      46.865  28.559  32.935  1.00  0.00    -0.206 F 
ATOM     89  C   UNL A   1      47.598  25.664  34.974  1.00  0.00     0.022 A 
BRANCH  86  90
ATOM     90  S   UNL A   1      46.042  23.675  36.155  1.00  0.00     0.124 S 
ATOM     91  O   UNL A   1      47.094  22.741  35.766  1.00  0.00    -0.237 OA
ATOM     92  O   UNL A   1      46.195  24.299  37.466  1.00  0.00    -0.237 OA
ATOM     93  O   UNL A   1      44.683  23.250  35.826  1.00  0.00    -0.744 OA
ENDBRANCH  86  90
ENDBRANCH  60  83
ENDBRANCH  34  35
ENDBRANCH  26  29
ENDBRANCH  24  25
ENDBRANCH   1  24
TORSDOF 16
ENDMDL
MODEL 2
REMARK VINA RESULT:     -12.5      1.758      2.074
REMARK SMILES O=C(Cc1cccc(-c2ccn(C(F)F)c(=O)c2)c1)NCCCNC(=O)c1ccc(-c2c3nc(c(-c4cc(S(=O)(=O)[O-])ccc4F)c4ccc([nH]4)c(-c4cc(S(=O)(=O)[O-])ccc4F)c4nc(c(-c5cc(S(=O)(=O)[O-])ccc5F)c5ccc2[nH]5)C=C4)C=C3)cc1
REMARK SMILES IDX 22 1 21 2 20 3 1 4 2 5 3 7 4 8 5 9 19 10 6 11 8 12 7 13 9 14
REMARK SMILES IDX 10 15 18 16 11 17 16 18 12 19 17 20 13 21 14 22 15 23 23 24
REMARK SMILES IDX 24 25 25 26 26 28 27 29 28 30 89 31 29 32 88 33 30 34 31 35
REMARK SMILES IDX 32 36 82 37 33 38 87 39 81 40 83 41 34 42 86 43 80 44 79 45
REMARK SMILES IDX 35 47 67 48 47 49 66 50 48 51 51 52 65 53 84 54 49 55 50 56
REMARK SMILES IDX 64 58 85 59 52 60 36 61 37 62 45 63 38 64 44 65 46 66 43 67
REMARK SMILES IDX 39 68 40 69 41 70 42 71 68 72 69 73 77 74 70 75 76 76 78 77
REMARK SMILES IDX 75 78 71 79 72 80 73 81 74 82 53 83 54 84 62 85 55 86 61 87
REMARK SMILES IDX 63 88 60 89 56 90 57 91 58 92 59 93
REMARK H PARENT 20 6 24 27 83 46 51 57
REMARK Flexibility Score: inf
ROOT
ATOM      1  C   UNL A   1      33.182  29.205  24.721  1.00  0.00     0.042 C 
ENDROOT
BRANCH   1   2
ATOM      2  C   UNL A   1      32.284  28.824  23.550  1.00  0.00     0.117 C 
BRANCH   2   3
ATOM      3  N   UNL A   1      32.227  27.393  23.335  1.00  0.00    -0.356 N 
ATOM      4  O   UNL A   1      33.864  27.299  21.723  1.00  0.00    -0.275 OA
ATOM      5  C   UNL A   1      33.055  26.732  22.451  1.00  0.00     0.224 C 
ATOM      6  H   UNL A   1      31.569  26.867  23.844  1.00  0.00     0.163 HD
BRANCH   5   7
ATOM      7  C   UNL A   1      32.871  25.220  22.433  1.00  0.00     0.135 C 
BRANCH   7   8
ATOM      8  C   UNL A   1      33.436  24.544  23.663  1.00  0.00    -0.038 A 
ATOM      9  C   UNL A   1      33.989  25.292  24.707  1.00  0.00     0.004 A 
ATOM     10  C   UNL A   1      33.435  23.144  23.756  1.00  0.00     0.013 A 
ATOM     11  C   UNL A   1      34.559  24.648  25.809  1.00  0.00     0.001 A 
ATOM     12  C   UNL A   1      34.020  22.491  24.848  1.00  0.00    -0.018 A 
ATOM     13  C   UNL A   1      34.583  23.253  25.876  1.00  0.00     0.009 A 
BRANCH  12  14
ATOM     14  C   UNL A   1      34.062  21.016  24.856  1.00  0.00    -0.011 A 
ATOM     15  C   UNL A   1      35.306  20.283  24.720  1.00  0.00     0.027 A 
ATOM     16  C   UNL A   1      32.906  20.335  24.925  1.00  0.00     0.080 A 
ATOM     17  C   UNL A   1      35.303  18.950  24.617  1.00  0.00     0.095 A 
ATOM     18  C   UNL A   1      32.889  18.848  24.830  1.00  0.00     0.255 A 
ATOM     19  N   UNL A   1      34.120  18.237  24.658  1.00  0.00    -0.258 N 
ATOM     20  O   UNL A   1      31.807  18.268  24.891  1.00  0.00    -0.269 OA
BRANCH  19  21
ATOM     21  C   UNL A   1      34.128  16.807  24.492  1.00  0.00     0.451 C 
ATOM     22  F   UNL A   1      34.493  16.455  23.235  1.00  0.00    -0.185 F 
ATOM     23  F   UNL A   1      34.995  16.224  25.357  1.00  0.00    -0.185 F 
ENDBRANCH  19  21
ENDBRANCH  12  14
ENDBRANCH   7   8
ENDBRANCH   5   7
ENDBRANCH   2   3
ENDBRANCH   1   2
BRANCH   1  24
ATOM     24  C   UNL A   1      32.445  29.470  26.032  1.00  0.00     0.118 C 
BRANCH  24  25
ATOM     25  N   UNL A   1      32.302  30.886  26.335  1.00  0.00    -0.352 N 
ATOM     26  C   UNL A   1      33.065  31.710  27.127  1.00  0.00     0.251 C 
ATOM     27  H   UNL A   1      31.535  31.325  25.902  1.00  0.00     0.163 HD
ATOM     28  O   UNL A   1      32.661  32.850  27.348  1.00  0.00    -0.269 OA
BRANCH  26  29
ATOM     29  C   UNL A   1      34.334  31.243  27.738  1.00  0.00     0.039 A 
ATOM     30  C   UNL A   1      35.333  32.186  27.997  1.00  0.00     0.014 A 
ATOM     31  C   UNL A   1      34.568  29.896  28.029  1.00  0.00     0.014 A 
ATOM     32  C   UNL A   1      36.528  31.790  28.603  1.00  0.00     0.010 A 
ATOM     33  C   UNL A   1      35.728  29.516  28.709  1.00  0.00     0.010 A 
ATOM     34  C   UNL A   1      36.723  30.458  29.006  1.00  0.00    -0.014 A 
BRANCH  34  35
ATOM     35  C   UNL A   1      37.950  30.066  29.755  1.00  0.00     0.031 A 
ATOM     36  C   UNL A   1      38.203  30.573  31.151  1.00  0.00     0.074 A 
ATOM     37  C   UNL A   1      38.856  29.263  29.159  1.00  0.00     0.049 A 
ATOM     38  N   UNL A   1      39.206  30.317  31.954  1.00  0.00    -0.248 NA
ATOM     39  C   UNL A   1      37.217  31.509  31.706  1.00  0.00     0.031 C 
ATOM     40  C   UNL A   1      38.754  28.750  27.790  1.00  0.00     0.029 A 
ATOM     41  N   UNL A   1      40.032  28.729  29.624  1.00  0.00    -0.354 N 
ATOM     42  C   UNL A   1      38.972  31.058  33.109  1.00  0.00     0.074 A 
ATOM     43  C   UNL A   1      37.769  31.827  32.868  1.00  0.00     0.031 C 
ATOM     44  C   UNL A   1      39.796  27.940  27.545  1.00  0.00     0.029 A 
ATOM     45  C   UNL A   1      40.666  27.911  28.715  1.00  0.00     0.049 A 
ATOM     46  H   UNL A   1      40.389  28.913  30.522  1.00  0.00     0.167 HD
ATOM     47  C   UNL A   1      39.679  31.077  34.267  1.00  0.00     0.034 A 
ATOM     48  C   UNL A   1      41.817  27.217  28.809  1.00  0.00     0.034 A 
ATOM     49  C   UNL A   1      40.880  30.305  34.491  1.00  0.00     0.049 A 
ATOM     50  C   UNL A   1      42.592  27.267  30.101  1.00  0.00     0.074 A 
ATOM     51  C   UNL A   1      41.648  30.217  35.640  1.00  0.00     0.029 A 
ATOM     52  N   UNL A   1      41.499  29.497  33.544  1.00  0.00    -0.354 N 
ATOM     53  N   UNL A   1      42.321  27.926  31.205  1.00  0.00    -0.248 NA
ATOM     54  C   UNL A   1      43.816  26.460  30.165  1.00  0.00     0.031 C 
ATOM     55  C   UNL A   1      42.767  29.423  35.364  1.00  0.00     0.029 A 
ATOM     56  C   UNL A   1      42.653  28.935  34.073  1.00  0.00     0.049 A 
ATOM     57  H   UNL A   1      41.167  29.345  32.629  1.00  0.00     0.167 HD
ATOM     58  C   UNL A   1      43.328  27.584  32.105  1.00  0.00     0.074 A 
ATOM     59  C   UNL A   1      44.190  26.641  31.422  1.00  0.00     0.031 C 
ATOM     60  C   UNL A   1      43.522  28.011  33.381  1.00  0.00     0.034 A 
BRANCH  47  61
ATOM     61  C   UNL A   1      39.182  31.983  35.373  1.00  0.00     0.023 A 
ATOM     62  C   UNL A   1      39.617  33.316  35.490  1.00  0.00     0.031 A 
ATOM     63  C   UNL A   1      38.273  31.506  36.334  1.00  0.00     0.131 A 
ATOM     64  C   UNL A   1      39.204  34.097  36.581  1.00  0.00     0.055 A 
ATOM     65  C   UNL A   1      37.797  32.316  37.368  1.00  0.00     0.041 A 
ATOM     66  F   UNL A   1      37.838  30.236  36.293  1.00  0.00    -0.206 F 
ATOM     67  C   UNL A   1      38.275  33.615  37.505  1.00  0.00     0.022 A 
BRANCH  64  68
ATOM     68  S   UNL A   1      40.018  35.694  36.860  1.00  0.00     0.124 S 
ATOM     69  O   UNL A   1      41.420  35.297  36.966  1.00  0.00    -0.237 OA
ATOM     70  O   UNL A   1      39.654  36.447  35.665  1.00  0.00    -0.237 OA
ATOM     71  O   UNL A   1      39.418  36.171  38.106  1.00  0.00    -0.744 OA
ENDBRANCH  64  68
ENDBRANCH  47  61
BRANCH  48  72
ATOM     72  C   UNL A   1      42.312  26.412  27.654  1.00  0.00     0.023 A 
ATOM     73  C   UNL A   1      41.901  25.082  27.464  1.00  0.00     0.031 A 
ATOM     74  C   UNL A   1      43.247  26.946  26.748  1.00  0.00     0.131 A 
ATOM     75  C   UNL A   1      42.461  24.317  26.429  1.00  0.00     0.055 A 
ATOM     76  C   UNL A   1      43.753  26.200  25.683  1.00  0.00     0.041 A 
ATOM     77  F   UNL A   1      43.673  28.213  26.880  1.00  0.00    -0.206 F 
ATOM     78  C   UNL A   1      43.372  24.872  25.528  1.00  0.00     0.022 A 
BRANCH  75  79
ATOM     79  S   UNL A   1      42.054  22.551  26.336  1.00  0.00     0.124 S 
ATOM     80  O   UNL A   1      40.596  22.584  26.320  1.00  0.00    -0.237 OA
ATOM     81  O   UNL A   1      42.701  22.157  25.089  1.00  0.00    -0.237 OA
ATOM     82  O   UNL A   1      42.654  22.000  27.549  1.00  0.00    -0.744 OA
ENDBRANCH  75  79
ENDBRANCH  48  72
BRANCH  60  83
ATOM     83  C   UNL A   1      44.694  27.414  34.128  1.00  0.00     0.023 A 
ATOM     84  C   UNL A   1      44.569  26.239  34.889  1.00  0.00     0.031 A 
ATOM     85  C   UNL A   1      45.943  28.063  34.124  1.00  0.00     0.131 A 
ATOM     86  C   UNL A   1      45.637  25.803  35.688  1.00  0.00     0.055 A 
ATOM     87  C   UNL A   1      47.028  27.577  34.855  1.00  0.00     0.041 A 
ATOM     88  F   UNL A   1      46.126  29.190  33.419  1.00  0.00    -0.206 F 
ATOM     89  C   UNL A   1      46.872  26.454  35.662  1.00  0.00     0.022 A 
BRANCH  86  90
ATOM     90  S   UNL A   1      45.341  24.467  36.880  1.00  0.00     0.124 S 
ATOM     91  O   UNL A   1      46.551  24.514  37.693  1.00  0.00    -0.237 OA
ATOM     92  O   UNL A   1      44.113  24.904  37.538  1.00  0.00    -0.237 OA
ATOM     93  O   UNL A   1      45.205  23.280  36.038  1.00  0.00    -0.744 OA
ENDBRANCH  86  90
ENDBRANCH  60  83
ENDBRANCH  34  35
ENDBRANCH  26  29
ENDBRANCH  24  25
ENDBRANCH   1  24
TORSDOF 16
ENDMDL
MODEL 3
REMARK VINA RESULT:     -12.5      5.683      8.456
REMARK SMILES O=C(Cc1cccc(-c2ccn(C(F)F)c(=O)c2)c1)NCCCNC(=O)c1ccc(-c2c3nc(c(-c4cc(S(=O)(=O)[O-])ccc4F)c4ccc([nH]4)c(-c4cc(S(=O)(=O)[O-])ccc4F)c4nc(c(-c5cc(S(=O)(=O)[O-])ccc5F)c5ccc2[nH]5)C=C4)C=C3)cc1
REMARK SMILES IDX 22 1 21 2 20 3 1 4 2 5 3 7 4 8 5 9 19 10 6 11 8 12 7 13 9 14
REMARK SMILES IDX 10 15 18 16 11 17 16 18 12 19 17 20 13 21 14 22 15 23 23 24
REMARK SMILES IDX 24 25 25 26 26 28 27 29 28 30 89 31 29 32 88 33 30 34 31 35
REMARK SMILES IDX 32 36 82 37 33 38 87 39 81 40 83 41 34 42 86 43 80 44 79 45
REMARK SMILES IDX 35 47 67 48 47 49 66 50 48 51 51 52 65 53 84 54 49 55 50 56
REMARK SMILES IDX 64 58 85 59 52 60 36 61 37 62 45 63 38 64 44 65 46 66 43 67
REMARK SMILES IDX 39 68 40 69 41 70 42 71 68 72 69 73 77 74 70 75 76 76 78 77
REMARK SMILES IDX 75 78 71 79 72 80 73 81 74 82 53 83 54 84 62 85 55 86 61 87
REMARK SMILES IDX 63 88 60 89 56 90 57 91 58 92 59 93
REMARK H PARENT 20 6 24 27 83 46 51 57
REMARK Flexibility Score: inf
ROOT
ATOM      1  C   UNL A   1      34.881  20.950  25.065  1.00  0.00     0.042 C 
ENDROOT
BRANCH   1   2
ATOM      2  C   UNL A   1      33.792  21.084  26.123  1.00  0.00     0.117 C 
BRANCH   2   3
ATOM      3  N   UNL A   1      32.594  21.716  25.611  1.00  0.00    -0.356 N 
ATOM      4  O   UNL A   1      32.983  23.796  26.510  1.00  0.00    -0.275 OA
ATOM      5  C   UNL A   1      32.297  23.047  25.821  1.00  0.00     0.224 C 
ATOM      6  H   UNL A   1      31.962  21.171  25.089  1.00  0.00     0.163 HD
BRANCH   5   7
ATOM      7  C   UNL A   1      31.021  23.519  25.136  1.00  0.00     0.135 C 
BRANCH   7   8
ATOM      8  C   UNL A   1      31.286  24.478  23.997  1.00  0.00    -0.038 A 
ATOM      9  C   UNL A   1      32.338  24.263  23.101  1.00  0.00     0.004 A 
ATOM     10  C   UNL A   1      30.486  25.621  23.844  1.00  0.00     0.013 A 
ATOM     11  C   UNL A   1      32.603  25.190  22.090  1.00  0.00     0.001 A 
ATOM     12  C   UNL A   1      30.756  26.565  22.845  1.00  0.00    -0.018 A 
ATOM     13  C   UNL A   1      31.821  26.342  21.967  1.00  0.00     0.009 A 
BRANCH  12  14
ATOM     14  C   UNL A   1      29.932  27.787  22.779  1.00  0.00    -0.011 A 
ATOM     15  C   UNL A   1      30.501  29.077  22.440  1.00  0.00     0.027 A 
ATOM     16  C   UNL A   1      28.632  27.711  23.107  1.00  0.00     0.080 A 
ATOM     17  C   UNL A   1      29.755  30.186  22.498  1.00  0.00     0.095 A 
ATOM     18  C   UNL A   1      27.785  28.936  23.159  1.00  0.00     0.255 A 
ATOM     19  N   UNL A   1      28.423  30.129  22.861  1.00  0.00    -0.258 N 
ATOM     20  O   UNL A   1      26.602  28.818  23.471  1.00  0.00    -0.269 OA
BRANCH  19  21
ATOM     21  C   UNL A   1      27.647  31.336  22.971  1.00  0.00     0.451 C 
ATOM     22  F   UNL A   1      27.283  31.577  24.254  1.00  0.00    -0.185 F 
ATOM     23  F   UNL A   1      28.353  32.407  22.530  1.00  0.00    -0.185 F 
ENDBRANCH  19  21
ENDBRANCH  12  14
ENDBRANCH   7   8
ENDBRANCH   5   7
ENDBRANCH   2   3
ENDBRANCH   1   2
BRANCH   1  24
ATOM     24  C   UNL A   1      36.229  21.554  25.454  1.00  0.00     0.118 C 
BRANCH  24  25
ATOM     25  N   UNL A   1      37.304  20.575  25.507  1.00  0.00    -0.352 N 
ATOM     26  C   UNL A   1      38.646  20.736  25.756  1.00  0.00     0.251 C 
ATOM     27  H   UNL A   1      37.024  19.646  25.339  1.00  0.00     0.163 HD
ATOM     28  O   UNL A   1      39.390  19.769  25.604  1.00  0.00    -0.269 OA
BRANCH  26  29
ATOM     29  C   UNL A   1      39.207  22.046  26.167  1.00  0.00     0.039 A 
ATOM     30  C   UNL A   1      40.351  22.055  26.970  1.00  0.00     0.014 A 
ATOM     31  C   UNL A   1      38.612  23.258  25.804  1.00  0.00     0.014 A 
ATOM     32  C   UNL A   1      40.930  23.270  27.349  1.00  0.00     0.010 A 
ATOM     33  C   UNL A   1      39.237  24.468  26.114  1.00  0.00     0.010 A 
ATOM     34  C   UNL A   1      40.405  24.490  26.890  1.00  0.00    -0.014 A 
BRANCH  34  35
ATOM     35  C   UNL A   1      41.094  25.775  27.201  1.00  0.00     0.031 A 
ATOM     36  C   UNL A   1      40.426  26.829  28.044  1.00  0.00     0.074 A 
ATOM     37  C   UNL A   1      42.326  25.999  26.698  1.00  0.00     0.049 A 
ATOM     38  N   UNL A   1      40.888  27.993  28.430  1.00  0.00    -0.248 NA
ATOM     39  C   UNL A   1      39.054  26.553  28.490  1.00  0.00     0.031 C 
ATOM     40  C   UNL A   1      43.057  25.080  25.821  1.00  0.00     0.029 A 
ATOM     41  N   UNL A   1      43.184  27.059  26.853  1.00  0.00    -0.354 N 
ATOM     42  C   UNL A   1      39.865  28.588  29.162  1.00  0.00     0.074 A 
ATOM     43  C   UNL A   1      38.736  27.683  29.104  1.00  0.00     0.031 C 
ATOM     44  C   UNL A   1      44.268  25.593  25.558  1.00  0.00     0.029 A 
ATOM     45  C   UNL A   1      44.387  26.896  26.202  1.00  0.00     0.049 A 
ATOM     46  H   UNL A   1      42.962  27.859  27.380  1.00  0.00     0.167 HD
ATOM     47  C   UNL A   1      39.874  29.765  29.839  1.00  0.00     0.034 A 
ATOM     48  C   UNL A   1      45.463  27.704  26.128  1.00  0.00     0.034 A 
ATOM     49  C   UNL A   1      41.008  30.659  29.885  1.00  0.00     0.049 A 
ATOM     50  C   UNL A   1      45.443  29.012  26.876  1.00  0.00     0.074 A 
ATOM     51  C   UNL A   1      41.140  31.852  30.576  1.00  0.00     0.029 A 
ATOM     52  N   UNL A   1      42.205  30.468  29.205  1.00  0.00    -0.354 N 
ATOM     53  N   UNL A   1      44.488  29.530  27.615  1.00  0.00    -0.248 NA
ATOM     54  C   UNL A   1      46.656  29.834  26.796  1.00  0.00     0.031 C 
ATOM     55  C   UNL A   1      42.377  32.417  30.251  1.00  0.00     0.029 A 
ATOM     56  C   UNL A   1      43.063  31.534  29.433  1.00  0.00     0.049 A 
ATOM     57  H   UNL A   1      42.414  29.688  28.640  1.00  0.00     0.167 HD
ATOM     58  C   UNL A   1      45.002  30.723  28.115  1.00  0.00     0.074 A 
ATOM     59  C   UNL A   1      46.357  30.831  27.615  1.00  0.00     0.031 C 
ATOM     60  C   UNL A   1      44.408  31.648  28.915  1.00  0.00     0.034 A 
BRANCH  47  61
ATOM     61  C   UNL A   1      38.606  30.163  30.564  1.00  0.00     0.023 A 
ATOM     62  C   UNL A   1      37.580  30.879  29.922  1.00  0.00     0.031 A 
ATOM     63  C   UNL A   1      38.425  29.836  31.920  1.00  0.00     0.131 A 
ATOM     64  C   UNL A   1      36.460  31.309  30.651  1.00  0.00     0.055 A 
ATOM     65  C   UNL A   1      37.268  30.191  32.618  1.00  0.00     0.041 A 
ATOM     66  F   UNL A   1      39.378  29.174  32.597  1.00  0.00    -0.206 F 
ATOM     67  C   UNL A   1      36.284  30.946  31.987  1.00  0.00     0.022 A 
BRANCH  64  68
ATOM     68  S   UNL A   1      35.315  32.480  29.870  1.00  0.00     0.124 S 
ATOM     69  O   UNL A   1      34.382  32.753  30.961  1.00  0.00    -0.237 OA
ATOM     70  O   UNL A   1      36.195  33.578  29.491  1.00  0.00    -0.237 OA
ATOM     71  O   UNL A   1      34.752  31.716  28.757  1.00  0.00    -0.744 OA
ENDBRANCH  64  68
ENDBRANCH  47  61
BRANCH  48  72
ATOM     72  C   UNL A   1      46.654  27.306  25.321  1.00  0.00     0.023 A 
ATOM     73  C   UNL A   1      46.871  27.831  24.037  1.00  0.00     0.031 A 
ATOM     74  C   UNL A   1      47.570  26.353  25.805  1.00  0.00     0.131 A 
ATOM     75  C   UNL A   1      47.943  27.362  23.260  1.00  0.00     0.055 A 
ATOM     76  C   UNL A   1      48.670  25.937  25.053  1.00  0.00     0.041 A 
ATOM     77  F   UNL A   1      47.413  25.820  27.028  1.00  0.00    -0.206 F 
ATOM     78  C   UNL A   1      48.852  26.432  23.766  1.00  0.00     0.022 A 
BRANCH  75  79
ATOM     79  S   UNL A   1      48.076  27.916  21.538  1.00  0.00     0.124 S 
ATOM     80  O   UNL A   1      48.281  26.654  20.836  1.00  0.00    -0.237 OA
ATOM     81  O   UNL A   1      46.786  28.566  21.329  1.00  0.00    -0.237 OA
ATOM     82  O   UNL A   1      49.228  28.815  21.558  1.00  0.00    -0.744 OA
ENDBRANCH  75  79
ENDBRANCH  48  72
BRANCH  60  83
ATOM     83  C   UNL A   1      45.252  32.832  29.331  1.00  0.00     0.023 A 
ATOM     84  C   UNL A   1      45.326  34.001  28.552  1.00  0.00     0.031 A 
ATOM     85  C   UNL A   1      46.039  32.770  30.495  1.00  0.00     0.131 A 
ATOM     86  C   UNL A   1      46.235  35.014  28.892  1.00  0.00     0.055 A 
ATOM     87  C   UNL A   1      46.880  33.817  30.874  1.00  0.00     0.041 A 
ATOM     88  F   UNL A   1      46.015  31.680  31.280  1.00  0.00    -0.206 F 
ATOM     89  C   UNL A   1      46.999  34.938  30.058  1.00  0.00     0.022 A 
BRANCH  86  90
ATOM     90  S   UNL A   1      46.519  36.359  27.707  1.00  0.00     0.124 S 
ATOM     91  O   UNL A   1      47.918  36.155  27.348  1.00  0.00    -0.237 OA
ATOM     92  O   UNL A   1      45.543  36.064  26.663  1.00  0.00    -0.237 OA
ATOM     93  O   UNL A   1      46.248  37.565  28.487  1.00  0.00    -0.744 OA
ENDBRANCH  86  90
ENDBRANCH  60  83
ENDBRANCH  34  35
ENDBRANCH  26  29
ENDBRANCH  24  25
ENDBRANCH   1  24
TORSDOF 16
ENDMDL
