MODEL 1
REMARK VINA RESULT:      -9.6      0.000      0.000
REMARK SMILES CCC(CC)C(O)(C(=O)NCCCNC(=O)c1ccc(-c2c3nc(c(-c4cc(S(=O)(=O)[O-])ccc4F)c4ccc([nH]4)c(-c4cc(S(=O)(=O)[O-])ccc4F)c4nc(c(-c5cc(S(=O)(=O)[O-])ccc5F)c5ccc2[nH]5)C=C4)C=C3)cc1)C(CC)CC
REMARK SMILES IDX 12 1 11 2 10 3 8 4 9 5 6 7 3 8 2 9 1 10 4 11 5 12 7 13 80 15
REMARK SMILES IDX 81 16 82 17 83 18 84 19 13 20 14 21 15 22 16 24 17 25 18 26
REMARK SMILES IDX 79 27 19 28 78 29 20 30 21 31 22 32 72 33 23 34 77 35 71 36
REMARK SMILES IDX 73 37 24 38 76 39 70 40 69 41 25 43 57 44 37 45 56 46 38 47
REMARK SMILES IDX 41 48 55 49 74 50 39 51 40 52 54 54 75 55 42 56 26 57 27 58
REMARK SMILES IDX 35 59 28 60 34 61 36 62 33 63 29 64 30 65 31 66 32 67 58 68
REMARK SMILES IDX 59 69 67 70 60 71 66 72 68 73 65 74 61 75 62 76 63 77 64 78
REMARK SMILES IDX 43 79 44 80 52 81 45 82 51 83 53 84 50 85 46 86 47 87 48 88
REMARK SMILES IDX 49 89
REMARK H PARENT 10 6 7 14 14 23 73 42 41 53
REMARK Flexibility Score: inf
ROOT
ATOM      1  C   UNL A   1      32.952  28.147  26.980  1.00  0.00     0.042 C 
ENDROOT
BRANCH   1   2
ATOM      2  C   UNL A   1      31.618  27.884  26.279  1.00  0.00     0.117 C 
BRANCH   2   3
ATOM      3  N   UNL A   1      30.952  26.658  26.693  1.00  0.00    -0.354 N 
ATOM      4  C   UNL A   1      30.885  25.404  26.143  1.00  0.00     0.252 C 
ATOM      5  O   UNL A   1      30.413  24.531  26.880  1.00  0.00    -0.272 OA
ATOM      6  H   UNL A   1      30.451  26.746  27.535  1.00  0.00     0.163 HD
BRANCH   4   7
ATOM      7  C   UNL A   1      31.307  25.096  24.656  1.00  0.00     0.148 C 
BRANCH   7   8
ATOM      8  C   UNL A   1      32.643  24.253  24.645  1.00  0.00     0.030 C 
BRANCH   8   9
ATOM      9  C   UNL A   1      33.757  24.832  25.545  1.00  0.00     0.004 C 
ATOM     10  C   UNL A   1      35.171  24.430  25.141  1.00  0.00     0.004 C 
ENDBRANCH   8   9
BRANCH   8  11
ATOM     11  C   UNL A   1      32.552  22.698  24.639  1.00  0.00     0.004 C 
ATOM     12  C   UNL A   1      33.008  21.888  23.448  1.00  0.00     0.004 C 
ENDBRANCH   8  11
ENDBRANCH   7   8
BRANCH   7  13
ATOM     13  O   UNL A   1      30.236  24.238  24.172  1.00  0.00    -0.379 OA
ATOM     14  H   UNL A   1      29.421  24.429  24.662  1.00  0.00     0.212 HD
ENDBRANCH   7  13
BRANCH   7  15
ATOM     15  C   UNL A   1      31.149  26.398  23.740  1.00  0.00     0.030 C 
BRANCH  15  16
ATOM     16  C   UNL A   1      32.027  26.512  22.464  1.00  0.00     0.004 C 
ATOM     17  C   UNL A   1      33.368  27.225  22.582  1.00  0.00     0.004 C 
ENDBRANCH  15  16
BRANCH  15  18
ATOM     18  C   UNL A   1      29.712  26.913  23.410  1.00  0.00     0.004 C 
ATOM     19  C   UNL A   1      29.552  28.389  23.080  1.00  0.00     0.004 C 
ENDBRANCH  15  18
ENDBRANCH   7  15
ENDBRANCH   4   7
ENDBRANCH   2   3
ENDBRANCH   1   2
BRANCH   1  20
ATOM     20  C   UNL A   1      33.889  29.105  26.246  1.00  0.00     0.118 C 
BRANCH  20  21
ATOM     21  N   UNL A   1      33.814  30.451  26.785  1.00  0.00    -0.352 N 
ATOM     22  C   UNL A   1      34.584  31.079  27.735  1.00  0.00     0.251 C 
ATOM     23  H   UNL A   1      33.095  31.007  26.406  1.00  0.00     0.163 HD
ATOM     24  O   UNL A   1      34.172  32.137  28.208  1.00  0.00    -0.269 OA
BRANCH  22  25
ATOM     25  C   UNL A   1      35.876  30.516  28.205  1.00  0.00     0.039 A 
ATOM     26  C   UNL A   1      35.865  29.703  29.345  1.00  0.00     0.014 A 
ATOM     27  C   UNL A   1      37.098  30.840  27.607  1.00  0.00     0.014 A 
ATOM     28  C   UNL A   1      37.062  29.191  29.859  1.00  0.00     0.010 A 
ATOM     29  C   UNL A   1      38.288  30.280  28.087  1.00  0.00     0.010 A 
ATOM     30  C   UNL A   1      38.285  29.457  29.223  1.00  0.00    -0.014 A 
BRANCH  30  31
ATOM     31  C   UNL A   1      39.551  28.877  29.753  1.00  0.00     0.031 A 
ATOM     32  C   UNL A   1      40.185  29.419  31.007  1.00  0.00     0.074 A 
ATOM     33  C   UNL A   1      40.144  27.865  29.090  1.00  0.00     0.049 A 
ATOM     34  N   UNL A   1      41.274  29.029  31.621  1.00  0.00    -0.248 NA
ATOM     35  C   UNL A   1      39.516  30.563  31.642  1.00  0.00     0.031 C 
ATOM     36  C   UNL A   1      39.659  27.280  27.837  1.00  0.00     0.029 A 
ATOM     37  N   UNL A   1      41.280  27.148  29.372  1.00  0.00    -0.354 N 
ATOM     38  C   UNL A   1      41.425  29.880  32.712  1.00  0.00     0.074 A 
ATOM     39  C   UNL A   1      40.345  30.842  32.638  1.00  0.00     0.031 C 
ATOM     40  C   UNL A   1      40.477  26.278  27.474  1.00  0.00     0.029 A 
ATOM     41  C   UNL A   1      41.558  26.168  28.448  1.00  0.00     0.049 A 
ATOM     42  H   UNL A   1      41.843  27.319  30.162  1.00  0.00     0.167 HD
ATOM     43  C   UNL A   1      42.362  29.849  33.694  1.00  0.00     0.034 A 
ATOM     44  C   UNL A   1      42.569  25.278  28.389  1.00  0.00     0.034 A 
ATOM     45  C   UNL A   1      43.434  28.882  33.760  1.00  0.00     0.049 A 
ATOM     46  C   UNL A   1      43.596  25.260  29.491  1.00  0.00     0.074 A 
ATOM     47  C   UNL A   1      44.405  28.734  34.738  1.00  0.00     0.029 A 
ATOM     48  N   UNL A   1      43.684  27.904  32.807  1.00  0.00    -0.354 N 
ATOM     49  N   UNL A   1      43.691  26.038  30.544  1.00  0.00    -0.248 NA
ATOM     50  C   UNL A   1      44.640  24.232  29.402  1.00  0.00     0.031 C 
ATOM     51  C   UNL A   1      45.273  27.707  34.346  1.00  0.00     0.029 A 
ATOM     52  C   UNL A   1      44.807  27.168  33.159  1.00  0.00     0.049 A 
ATOM     53  H   UNL A   1      43.143  27.753  31.999  1.00  0.00     0.167 HD
ATOM     54  C   UNL A   1      44.798  25.580  31.253  1.00  0.00     0.074 A 
ATOM     55  C   UNL A   1      45.318  24.442  30.520  1.00  0.00     0.031 C 
ATOM     56  C   UNL A   1      45.337  26.055  32.405  1.00  0.00     0.034 A 
BRANCH  43  57
ATOM     57  C   UNL A   1      42.278  30.914  34.763  1.00  0.00     0.023 A 
ATOM     58  C   UNL A   1      42.832  32.193  34.576  1.00  0.00     0.031 A 
ATOM     59  C   UNL A   1      41.657  30.643  35.995  1.00  0.00     0.131 A 
ATOM     60  C   UNL A   1      42.822  33.123  35.627  1.00  0.00     0.055 A 
ATOM     61  C   UNL A   1      41.580  31.599  37.010  1.00  0.00     0.041 A 
ATOM     62  F   UNL A   1      41.123  29.435  36.241  1.00  0.00    -0.206 F 
ATOM     63  C   UNL A   1      42.179  32.843  36.835  1.00  0.00     0.022 A 
BRANCH  60  64
ATOM     64  S   UNL A   1      43.783  34.651  35.442  1.00  0.00     0.124 S 
ATOM     65  O   UNL A   1      42.850  35.649  35.961  1.00  0.00    -0.237 OA
ATOM     66  O   UNL A   1      44.958  34.385  36.265  1.00  0.00    -0.237 OA
ATOM     67  O   UNL A   1      44.031  34.729  34.005  1.00  0.00    -0.744 OA
ENDBRANCH  60  64
ENDBRANCH  43  57
BRANCH  44  68
ATOM     68  C   UNL A   1      42.667  24.327  27.246  1.00  0.00     0.023 A 
ATOM     69  C   UNL A   1      42.065  23.061  27.304  1.00  0.00     0.031 A 
ATOM     70  C   UNL A   1      43.395  24.664  26.091  1.00  0.00     0.131 A 
ATOM     71  C   UNL A   1      42.237  22.158  26.243  1.00  0.00     0.055 A 
ATOM     72  C   UNL A   1      43.524  23.779  25.020  1.00  0.00     0.041 A 
ATOM     73  F   UNL A   1      43.980  25.867  25.984  1.00  0.00    -0.206 F 
ATOM     74  C   UNL A   1      42.953  22.513  25.097  1.00  0.00     0.022 A 
BRANCH  71  75
ATOM     75  S   UNL A   1      41.566  20.482  26.412  1.00  0.00     0.124 S 
ATOM     76  O   UNL A   1      41.906  20.162  27.794  1.00  0.00    -0.237 OA
ATOM     77  O   UNL A   1      40.150  20.694  26.132  1.00  0.00    -0.237 OA
ATOM     78  O   UNL A   1      42.292  19.721  25.397  1.00  0.00    -0.744 OA
ENDBRANCH  71  75
ENDBRANCH  44  68
BRANCH  56  79
ATOM     79  C   UNL A   1      46.543  25.322  32.941  1.00  0.00     0.023 A 
ATOM     80  C   UNL A   1      46.413  24.260  33.853  1.00  0.00     0.031 A 
ATOM     81  C   UNL A   1      47.840  25.719  32.570  1.00  0.00     0.131 A 
ATOM     82  C   UNL A   1      47.557  23.677  34.419  1.00  0.00     0.055 A 
ATOM     83  C   UNL A   1      48.975  25.097  33.090  1.00  0.00     0.041 A 
ATOM     84  F   UNL A   1      48.023  26.729  31.704  1.00  0.00    -0.206 F 
ATOM     85  C   UNL A   1      48.838  24.081  34.033  1.00  0.00     0.022 A 
BRANCH  82  86
ATOM     86  S   UNL A   1      47.349  22.464  35.751  1.00  0.00     0.124 S 
ATOM     87  O   UNL A   1      48.600  21.717  35.681  1.00  0.00    -0.237 OA
ATOM     88  O   UNL A   1      47.179  23.316  36.924  1.00  0.00    -0.237 OA
ATOM     89  O   UNL A   1      46.158  21.716  35.351  1.00  0.00    -0.744 OA
ENDBRANCH  82  86
ENDBRANCH  56  79
ENDBRANCH  30  31
ENDBRANCH  22  25
ENDBRANCH  20  21
ENDBRANCH   1  20
TORSDOF 20
ENDMDL
MODEL 2
REMARK VINA RESULT:      -9.6      4.452      9.375
REMARK SMILES CCC(CC)C(O)(C(=O)NCCCNC(=O)c1ccc(-c2c3nc(c(-c4cc(S(=O)(=O)[O-])ccc4F)c4ccc([nH]4)c(-c4cc(S(=O)(=O)[O-])ccc4F)c4nc(c(-c5cc(S(=O)(=O)[O-])ccc5F)c5ccc2[nH]5)C=C4)C=C3)cc1)C(CC)CC
REMARK SMILES IDX 12 1 11 2 10 3 8 4 9 5 6 7 3 8 2 9 1 10 4 11 5 12 7 13 80 15
REMARK SMILES IDX 81 16 82 17 83 18 84 19 13 20 14 21 15 22 16 24 17 25 18 26
REMARK SMILES IDX 79 27 19 28 78 29 20 30 21 31 22 32 72 33 23 34 77 35 71 36
REMARK SMILES IDX 73 37 24 38 76 39 70 40 69 41 25 43 57 44 37 45 56 46 38 47
REMARK SMILES IDX 41 48 55 49 74 50 39 51 40 52 54 54 75 55 42 56 26 57 27 58
REMARK SMILES IDX 35 59 28 60 34 61 36 62 33 63 29 64 30 65 31 66 32 67 58 68
REMARK SMILES IDX 59 69 67 70 60 71 66 72 68 73 65 74 61 75 62 76 63 77 64 78
REMARK SMILES IDX 43 79 44 80 52 81 45 82 51 83 53 84 50 85 46 86 47 87 48 88
REMARK SMILES IDX 49 89
REMARK H PARENT 10 6 7 14 14 23 73 42 41 53
REMARK Flexibility Score: inf
ROOT
ATOM      1  C   UNL A   1      36.377  21.910  25.771  1.00  0.00     0.042 C 
ENDROOT
BRANCH   1   2
ATOM      2  C   UNL A   1      35.560  23.133  26.190  1.00  0.00     0.117 C 
BRANCH   2   3
ATOM      3  N   UNL A   1      34.633  22.892  27.286  1.00  0.00    -0.354 N 
ATOM      4  C   UNL A   1      33.288  22.633  27.329  1.00  0.00     0.252 C 
ATOM      5  O   UNL A   1      32.860  22.253  28.425  1.00  0.00    -0.272 OA
ATOM      6  H   UNL A   1      35.058  22.920  28.174  1.00  0.00     0.163 HD
BRANCH   4   7
ATOM      7  C   UNL A   1      32.331  22.867  26.099  1.00  0.00     0.148 C 
BRANCH   7   8
ATOM      8  C   UNL A   1      32.771  21.942  24.896  1.00  0.00     0.030 C 
BRANCH   8   9
ATOM      9  C   UNL A   1      32.942  20.455  25.280  1.00  0.00     0.004 C 
ATOM     10  C   UNL A   1      32.520  19.469  24.196  1.00  0.00     0.004 C 
ENDBRANCH   8   9
BRANCH   8  11
ATOM     11  C   UNL A   1      32.145  22.186  23.491  1.00  0.00     0.004 C 
ATOM     12  C   UNL A   1      32.946  22.804  22.369  1.00  0.00     0.004 C 
ENDBRANCH   8  11
ENDBRANCH   7   8
BRANCH   7  13
ATOM     13  O   UNL A   1      31.042  22.389  26.579  1.00  0.00    -0.379 OA
ATOM     14  H   UNL A   1      30.438  22.278  25.829  1.00  0.00     0.212 HD
ENDBRANCH   7  13
BRANCH   7  15
ATOM     15  C   UNL A   1      32.061  24.428  25.879  1.00  0.00     0.030 C 
BRANCH  15  16
ATOM     16  C   UNL A   1      33.087  25.244  25.046  1.00  0.00     0.004 C 
ATOM     17  C   UNL A   1      33.746  26.448  25.707  1.00  0.00     0.004 C 
ENDBRANCH  15  16
BRANCH  15  18
ATOM     18  C   UNL A   1      30.620  24.893  25.497  1.00  0.00     0.004 C 
ATOM     19  C   UNL A   1      30.376  25.319  24.056  1.00  0.00     0.004 C 
ENDBRANCH  15  18
ENDBRANCH   7  15
ENDBRANCH   4   7
ENDBRANCH   2   3
ENDBRANCH   1   2
BRANCH   1  20
ATOM     20  C   UNL A   1      37.807  22.209  25.329  1.00  0.00     0.118 C 
BRANCH  20  21
ATOM     21  N   UNL A   1      38.767  21.333  25.977  1.00  0.00    -0.352 N 
ATOM     22  C   UNL A   1      39.953  21.617  26.611  1.00  0.00     0.251 C 
ATOM     23  H   UNL A   1      38.529  20.378  25.961  1.00  0.00     0.163 HD
ATOM     24  O   UNL A   1      40.716  20.686  26.861  1.00  0.00    -0.269 OA
BRANCH  22  25
ATOM     25  C   UNL A   1      40.336  23.003  26.987  1.00  0.00     0.039 A 
ATOM     26  C   UNL A   1      41.206  23.176  28.070  1.00  0.00     0.014 A 
ATOM     27  C   UNL A   1      39.790  24.129  26.362  1.00  0.00     0.014 A 
ATOM     28  C   UNL A   1      41.556  24.461  28.498  1.00  0.00     0.010 A 
ATOM     29  C   UNL A   1      40.186  25.414  26.753  1.00  0.00     0.010 A 
ATOM     30  C   UNL A   1      41.065  25.596  27.831  1.00  0.00    -0.014 A 
BRANCH  30  31
ATOM     31  C   UNL A   1      41.471  26.961  28.267  1.00  0.00     0.031 A 
ATOM     32  C   UNL A   1      42.915  27.387  28.231  1.00  0.00     0.074 A 
ATOM     33  C   UNL A   1      40.533  27.819  28.715  1.00  0.00     0.049 A 
ATOM     34  N   UNL A   1      43.448  28.537  28.557  1.00  0.00    -0.248 NA
ATOM     35  C   UNL A   1      43.889  26.378  27.790  1.00  0.00     0.031 C 
ATOM     36  C   UNL A   1      39.106  27.515  28.845  1.00  0.00     0.029 A 
ATOM     37  N   UNL A   1      40.635  29.119  29.143  1.00  0.00    -0.354 N 
ATOM     38  C   UNL A   1      44.819  28.393  28.364  1.00  0.00     0.074 A 
ATOM     39  C   UNL A   1      45.036  27.023  27.949  1.00  0.00     0.031 C 
ATOM     40  C   UNL A   1      38.464  28.605  29.296  1.00  0.00     0.029 A 
ATOM     41  C   UNL A   1      39.433  29.674  29.515  1.00  0.00     0.049 A 
ATOM     42  H   UNL A   1      41.489  29.608  29.181  1.00  0.00     0.167 HD
ATOM     43  C   UNL A   1      45.802  29.320  28.501  1.00  0.00     0.034 A 
ATOM     44  C   UNL A   1      39.140  30.905  29.980  1.00  0.00     0.034 A 
ATOM     45  C   UNL A   1      45.574  30.686  28.912  1.00  0.00     0.049 A 
ATOM     46  C   UNL A   1      40.245  31.918  30.120  1.00  0.00     0.074 A 
ATOM     47  C   UNL A   1      46.492  31.717  29.033  1.00  0.00     0.029 A 
ATOM     48  N   UNL A   1      44.343  31.213  29.279  1.00  0.00    -0.354 N 
ATOM     49  N   UNL A   1      41.529  31.779  29.880  1.00  0.00    -0.248 NA
ATOM     50  C   UNL A   1      39.856  33.258  30.576  1.00  0.00     0.031 C 
ATOM     51  C   UNL A   1      45.827  32.846  29.529  1.00  0.00     0.029 A 
ATOM     52  C   UNL A   1      44.482  32.543  29.653  1.00  0.00     0.049 A 
ATOM     53  H   UNL A   1      43.493  30.715  29.275  1.00  0.00     0.167 HD
ATOM     54  C   UNL A   1      42.098  33.023  30.142  1.00  0.00     0.074 A 
ATOM     55  C   UNL A   1      41.013  33.902  30.529  1.00  0.00     0.031 C 
ATOM     56  C   UNL A   1      43.399  33.404  30.068  1.00  0.00     0.034 A 
BRANCH  43  57
ATOM     57  C   UNL A   1      47.218  28.873  28.222  1.00  0.00     0.023 A 
ATOM     58  C   UNL A   1      47.695  28.707  26.910  1.00  0.00     0.031 A 
ATOM     59  C   UNL A   1      48.099  28.586  29.281  1.00  0.00     0.131 A 
ATOM     60  C   UNL A   1      48.983  28.195  26.690  1.00  0.00     0.055 A 
ATOM     61  C   UNL A   1      49.407  28.151  29.056  1.00  0.00     0.041 A 
ATOM     62  F   UNL A   1      47.697  28.709  30.556  1.00  0.00    -0.206 F 
ATOM     63  C   UNL A   1      49.851  27.939  27.754  1.00  0.00     0.022 A 
BRANCH  60  64
ATOM     64  S   UNL A   1      49.459  27.738  25.000  1.00  0.00     0.124 S 
ATOM     65  O   UNL A   1      50.562  28.661  24.745  1.00  0.00    -0.237 OA
ATOM     66  O   UNL A   1      49.821  26.332  25.145  1.00  0.00    -0.237 OA
ATOM     67  O   UNL A   1      48.250  27.994  24.222  1.00  0.00    -0.744 OA
ENDBRANCH  60  64
ENDBRANCH  43  57
BRANCH  44  68
ATOM     68  C   UNL A   1      37.739  31.253  30.350  1.00  0.00     0.023 A 
ATOM     69  C   UNL A   1      36.837  31.740  29.393  1.00  0.00     0.031 A 
ATOM     70  C   UNL A   1      37.297  31.136  31.679  1.00  0.00     0.131 A 
ATOM     71  C   UNL A   1      35.547  32.132  29.786  1.00  0.00     0.055 A 
ATOM     72  C   UNL A   1      35.999  31.483  32.056  1.00  0.00     0.041 A 
ATOM     73  F   UNL A   1      38.120  30.666  32.631  1.00  0.00    -0.206 F 
ATOM     74  C   UNL A   1      35.119  31.996  31.108  1.00  0.00     0.022 A 
BRANCH  71  75
ATOM     75  S   UNL A   1      34.456  32.887  28.550  1.00  0.00     0.124 S 
ATOM     76  O   UNL A   1      33.740  31.727  28.033  1.00  0.00    -0.237 OA
ATOM     77  O   UNL A   1      33.674  33.813  29.363  1.00  0.00    -0.237 OA
ATOM     78  O   UNL A   1      35.386  33.517  27.615  1.00  0.00    -0.744 OA
ENDBRANCH  71  75
ENDBRANCH  44  68
BRANCH  56  79
ATOM     79  C   UNL A   1      43.701  34.845  30.401  1.00  0.00     0.023 A 
ATOM     80  C   UNL A   1      43.693  35.310  31.728  1.00  0.00     0.031 A 
ATOM     81  C   UNL A   1      43.955  35.774  29.376  1.00  0.00     0.131 A 
ATOM     82  C   UNL A   1      43.864  36.678  31.992  1.00  0.00     0.055 A 
ATOM     83  C   UNL A   1      44.183  37.123  29.649  1.00  0.00     0.041 A 
ATOM     84  F   UNL A   1      43.973  35.385  28.091  1.00  0.00    -0.206 F 
ATOM     85  C   UNL A   1      44.122  37.586  30.961  1.00  0.00     0.022 A 
BRANCH  82  86
ATOM     86  S   UNL A   1      43.629  37.273  33.689  1.00  0.00     0.124 S 
ATOM     87  O   UNL A   1      42.502  36.465  34.142  1.00  0.00    -0.237 OA
ATOM     88  O   UNL A   1      44.918  36.973  34.305  1.00  0.00    -0.237 OA
ATOM     89  O   UNL A   1      43.341  38.696  33.518  1.00  0.00    -0.744 OA
ENDBRANCH  82  86
ENDBRANCH  56  79
ENDBRANCH  30  31
ENDBRANCH  22  25
ENDBRANCH  20  21
ENDBRANCH   1  20
TORSDOF 20
ENDMDL
MODEL 3
REMARK VINA RESULT:      -9.6      3.532      8.732
REMARK SMILES CCC(CC)C(O)(C(=O)NCCCNC(=O)c1ccc(-c2c3nc(c(-c4cc(S(=O)(=O)[O-])ccc4F)c4ccc([nH]4)c(-c4cc(S(=O)(=O)[O-])ccc4F)c4nc(c(-c5cc(S(=O)(=O)[O-])ccc5F)c5ccc2[nH]5)C=C4)C=C3)cc1)C(CC)CC
REMARK SMILES IDX 12 1 11 2 10 3 8 4 9 5 6 7 3 8 2 9 1 10 4 11 5 12 7 13 80 15
REMARK SMILES IDX 81 16 82 17 83 18 84 19 13 20 14 21 15 22 16 24 17 25 18 26
REMARK SMILES IDX 79 27 19 28 78 29 20 30 21 31 22 32 72 33 23 34 77 35 71 36
REMARK SMILES IDX 73 37 24 38 76 39 70 40 69 41 25 43 57 44 37 45 56 46 38 47
REMARK SMILES IDX 41 48 55 49 74 50 39 51 40 52 54 54 75 55 42 56 26 57 27 58
REMARK SMILES IDX 35 59 28 60 34 61 36 62 33 63 29 64 30 65 31 66 32 67 58 68
REMARK SMILES IDX 59 69 67 70 60 71 66 72 68 73 65 74 61 75 62 76 63 77 64 78
REMARK SMILES IDX 43 79 44 80 52 81 45 82 51 83 53 84 50 85 46 86 47 87 48 88
REMARK SMILES IDX 49 89
REMARK H PARENT 10 6 7 14 14 23 73 42 41 53
REMARK Flexibility Score: inf
ROOT
ATOM      1  C   UNL A   1      31.264  31.835  26.206  1.00  0.00     0.042 C 
ENDROOT
BRANCH   1   2
ATOM      2  C   UNL A   1      31.273  30.413  25.641  1.00  0.00     0.117 C 
BRANCH   2   3
ATOM      3  N   UNL A   1      32.347  30.149  24.695  1.00  0.00    -0.354 N 
ATOM      4  C   UNL A   1      32.743  29.018  24.029  1.00  0.00     0.252 C 
ATOM      5  O   UNL A   1      33.564  29.203  23.122  1.00  0.00    -0.272 OA
ATOM      6  H   UNL A   1      32.898  30.939  24.494  1.00  0.00     0.163 HD
BRANCH   4   7
ATOM      7  C   UNL A   1      32.254  27.574  24.425  1.00  0.00     0.148 C 
BRANCH   7   8
ATOM      8  C   UNL A   1      30.706  27.438  24.139  1.00  0.00     0.030 C 
BRANCH   8   9
ATOM      9  C   UNL A   1      30.255  28.087  22.811  1.00  0.00     0.004 C 
ATOM     10  C   UNL A   1      29.083  29.054  22.945  1.00  0.00     0.004 C 
ENDBRANCH   8   9
BRANCH   8  11
ATOM     11  C   UNL A   1      29.991  26.098  24.485  1.00  0.00     0.004 C 
ATOM     12  C   UNL A   1      29.750  25.683  25.918  1.00  0.00     0.004 C 
ENDBRANCH   8  11
ENDBRANCH   7   8
BRANCH   7  13
ATOM     13  O   UNL A   1      32.957  26.711  23.487  1.00  0.00    -0.379 OA
ATOM     14  H   UNL A   1      33.879  26.609  23.769  1.00  0.00     0.212 HD
ENDBRANCH   7  13
BRANCH   7  15
ATOM     15  C   UNL A   1      32.871  27.131  25.832  1.00  0.00     0.030 C 
BRANCH  15  16
ATOM     16  C   UNL A   1      34.031  26.098  25.837  1.00  0.00     0.004 C 
ATOM     17  C   UNL A   1      33.674  24.626  26.004  1.00  0.00     0.004 C 
ENDBRANCH  15  16
BRANCH  15  18
ATOM     18  C   UNL A   1      33.175  28.233  26.897  1.00  0.00     0.004 C 
ATOM     19  C   UNL A   1      34.623  28.666  27.069  1.00  0.00     0.004 C 
ENDBRANCH  15  18
ENDBRANCH   7  15
ENDBRANCH   4   7
ENDBRANCH   2   3
ENDBRANCH   1   2
BRANCH   1  20
ATOM     20  C   UNL A   1      32.495  32.211  27.028  1.00  0.00     0.118 C 
BRANCH  20  21
ATOM     21  N   UNL A   1      32.473  33.609  27.424  1.00  0.00    -0.352 N 
ATOM     22  C   UNL A   1      33.182  34.274  28.395  1.00  0.00     0.251 C 
ATOM     23  H   UNL A   1      31.848  34.172  26.913  1.00  0.00     0.163 HD
ATOM     24  O   UNL A   1      32.810  35.402  28.714  1.00  0.00    -0.269 OA
BRANCH  22  25
ATOM     25  C   UNL A   1      34.363  33.672  29.065  1.00  0.00     0.039 A 
ATOM     26  C   UNL A   1      34.139  32.764  30.107  1.00  0.00     0.014 A 
ATOM     27  C   UNL A   1      35.675  34.046  28.755  1.00  0.00     0.014 A 
ATOM     28  C   UNL A   1      35.217  32.208  30.804  1.00  0.00     0.010 A 
ATOM     29  C   UNL A   1      36.754  33.446  29.414  1.00  0.00     0.010 A 
ATOM     30  C   UNL A   1      36.538  32.528  30.452  1.00  0.00    -0.014 A 
BRANCH  30  31
ATOM     31  C   UNL A   1      37.682  31.904  31.174  1.00  0.00     0.031 A 
ATOM     32  C   UNL A   1      38.463  30.774  30.555  1.00  0.00     0.074 A 
ATOM     33  C   UNL A   1      38.011  32.347  32.403  1.00  0.00     0.049 A 
ATOM     34  N   UNL A   1      39.495  30.123  31.030  1.00  0.00    -0.248 NA
ATOM     35  C   UNL A   1      38.009  30.301  29.240  1.00  0.00     0.031 C 
ATOM     36  C   UNL A   1      37.306  33.403  33.135  1.00  0.00     0.029 A 
ATOM     37  N   UNL A   1      39.018  31.970  33.256  1.00  0.00    -0.354 N 
ATOM     38  C   UNL A   1      39.814  29.161  30.076  1.00  0.00     0.074 A 
ATOM     39  C   UNL A   1      38.826  29.280  29.023  1.00  0.00     0.031 C 
ATOM     40  C   UNL A   1      37.918  33.606  34.313  1.00  0.00     0.029 A 
ATOM     41  C   UNL A   1      39.037  32.677  34.435  1.00  0.00     0.049 A 
ATOM     42  H   UNL A   1      39.666  31.260  33.044  1.00  0.00     0.167 HD
ATOM     43  C   UNL A   1      40.844  28.277  30.066  1.00  0.00     0.034 A 
ATOM     44  C   UNL A   1      39.862  32.592  35.498  1.00  0.00     0.034 A 
ATOM     45  C   UNL A   1      41.827  28.169  31.120  1.00  0.00     0.049 A 
ATOM     46  C   UNL A   1      41.001  31.606  35.465  1.00  0.00     0.074 A 
ATOM     47  C   UNL A   1      42.937  27.342  31.185  1.00  0.00     0.029 A 
ATOM     48  N   UNL A   1      41.815  28.902  32.299  1.00  0.00    -0.354 N 
ATOM     49  N   UNL A   1      41.319  30.743  34.528  1.00  0.00    -0.248 NA
ATOM     50  C   UNL A   1      41.900  31.598  36.625  1.00  0.00     0.031 C 
ATOM     51  C   UNL A   1      43.560  27.534  32.425  1.00  0.00     0.029 A 
ATOM     52  C   UNL A   1      42.880  28.529  33.107  1.00  0.00     0.049 A 
ATOM     53  H   UNL A   1      41.148  29.589  32.528  1.00  0.00     0.167 HD
ATOM     54  C   UNL A   1      42.468  30.100  34.982  1.00  0.00     0.074 A 
ATOM     55  C   UNL A   1      42.799  30.697  36.260  1.00  0.00     0.031 C 
ATOM     56  C   UNL A   1      43.185  29.107  34.395  1.00  0.00     0.034 A 
BRANCH  43  57
ATOM     57  C   UNL A   1      40.941  27.340  28.884  1.00  0.00     0.023 A 
ATOM     58  C   UNL A   1      41.923  27.505  27.891  1.00  0.00     0.031 A 
ATOM     59  C   UNL A   1      40.028  26.281  28.734  1.00  0.00     0.131 A 
ATOM     60  C   UNL A   1      41.921  26.677  26.758  1.00  0.00     0.055 A 
ATOM     61  C   UNL A   1      40.079  25.411  27.643  1.00  0.00     0.041 A 
ATOM     62  F   UNL A   1      39.057  26.082  29.640  1.00  0.00    -0.206 F 
ATOM     63  C   UNL A   1      41.021  25.616  26.638  1.00  0.00     0.022 A 
BRANCH  60  64
ATOM     64  S   UNL A   1      43.023  27.093  25.378  1.00  0.00     0.124 S 
ATOM     65  O   UNL A   1      44.242  27.485  26.082  1.00  0.00    -0.237 OA
ATOM     66  O   UNL A   1      43.087  25.838  24.637  1.00  0.00    -0.237 OA
ATOM     67  O   UNL A   1      42.327  28.184  24.700  1.00  0.00    -0.744 OA
ENDBRANCH  60  64
ENDBRANCH  43  57
BRANCH  44  68
ATOM     68  C   UNL A   1      39.647  33.462  36.688  1.00  0.00     0.023 A 
ATOM     69  C   UNL A   1      39.028  32.966  37.845  1.00  0.00     0.031 A 
ATOM     70  C   UNL A   1      40.029  34.815  36.667  1.00  0.00     0.131 A 
ATOM     71  C   UNL A   1      38.770  33.829  38.922  1.00  0.00     0.055 A 
ATOM     72  C   UNL A   1      39.811  35.657  37.759  1.00  0.00     0.041 A 
ATOM     73  F   UNL A   1      40.633  35.334  35.586  1.00  0.00    -0.206 F 
ATOM     74  C   UNL A   1      39.167  35.168  38.890  1.00  0.00     0.022 A 
BRANCH  71  75
ATOM     75  S   UNL A   1      37.843  33.189  40.344  1.00  0.00     0.124 S 
ATOM     76  O   UNL A   1      38.643  32.031  40.726  1.00  0.00    -0.237 OA
ATOM     77  O   UNL A   1      37.876  34.324  41.261  1.00  0.00    -0.237 OA
ATOM     78  O   UNL A   1      36.529  32.884  39.783  1.00  0.00    -0.744 OA
ENDBRANCH  71  75
ENDBRANCH  44  68
BRANCH  56  79
ATOM     79  C   UNL A   1      44.407  28.626  35.138  1.00  0.00     0.023 A 
ATOM     80  C   UNL A   1      44.340  27.561  36.054  1.00  0.00     0.031 A 
ATOM     81  C   UNL A   1      45.645  29.270  34.964  1.00  0.00     0.131 A 
ATOM     82  C   UNL A   1      45.469  27.216  36.813  1.00  0.00     0.055 A 
ATOM     83  C   UNL A   1      46.780  28.884  35.678  1.00  0.00     0.041 A 
ATOM     84  F   UNL A   1      45.767  30.295  34.105  1.00  0.00    -0.206 F 
ATOM     85  C   UNL A   1      46.693  27.863  36.620  1.00  0.00     0.022 A 
BRANCH  82  86
ATOM     86  S   UNL A   1      45.287  25.988  38.135  1.00  0.00     0.124 S 
ATOM     87  O   UNL A   1      45.294  26.825  39.330  1.00  0.00    -0.237 OA
ATOM     88  O   UNL A   1      44.013  25.359  37.803  1.00  0.00    -0.237 OA
ATOM     89  O   UNL A   1      46.462  25.132  37.972  1.00  0.00    -0.744 OA
ENDBRANCH  82  86
ENDBRANCH  56  79
ENDBRANCH  30  31
ENDBRANCH  22  25
ENDBRANCH  20  21
ENDBRANCH   1  20
TORSDOF 20
ENDMDL
