MODEL 1
REMARK VINA RESULT:     -12.0      0.000      0.000
REMARK SMILES CCOC(=O)c1c(NC(=O)c2ncccc2C(=O)NCCCNC(=O)c2ccc(-c3c4nc(c(-c5cc(S(=O)(=O)[O-])ccc5F)c5ccc([nH]5)c(-c5cc(S(=O)(=O)[O-])ccc5F)c5nc(c(-c6cc(S(=O)(=O)[O-])ccc6F)c6ccc3[nH]6)C=C5)C=C4)cc2)sc2c1CC[C@H](C)C2
REMARK SMILES IDX 20 1 19 2 17 3 18 4 16 6 11 7 12 8 13 9 15 10 14 11 9 12
REMARK SMILES IDX 8 13 10 15 7 16 6 17 91 18 89 19 90 20 92 21 96 22 93 23
REMARK SMILES IDX 94 24 95 25 4 26 5 27 3 28 2 29 1 30 21 31 22 32 23 33 24 34
REMARK SMILES IDX 25 36 26 37 27 38 88 39 28 40 87 41 29 42 30 43 31 44 81 45
REMARK SMILES IDX 32 46 86 47 80 48 82 49 33 50 85 51 79 52 78 53 34 55 66 56
REMARK SMILES IDX 46 57 65 58 47 59 50 60 64 61 83 62 48 63 49 64 63 66 84 67
REMARK SMILES IDX 51 68 35 69 36 70 44 71 37 72 43 73 45 74 42 75 38 76 39 77
REMARK SMILES IDX 40 78 41 79 67 80 68 81 76 82 69 83 75 84 77 85 74 86 70 87
REMARK SMILES IDX 71 88 72 89 73 90 52 91 53 92 61 93 54 94 60 95 62 96 59 97
REMARK SMILES IDX 55 98 56 99 57 100 58 101
REMARK H PARENT 19 5 8 14 23 35 82 54 50 65
REMARK Flexibility Score: inf
ROOT
ATOM      1  C   UNL A   1      36.938  21.331  24.323  1.00  0.00     0.118 C 
ENDROOT
BRANCH   1   2
ATOM      2  N   UNL A   1      37.172  22.629  24.954  1.00  0.00    -0.352 N 
ATOM      3  C   UNL A   1      36.328  23.483  25.628  1.00  0.00     0.253 C 
ATOM      4  O   UNL A   1      36.779  24.520  26.103  1.00  0.00    -0.269 OA
ATOM      5  H   UNL A   1      38.099  22.951  24.884  1.00  0.00     0.163 HD
BRANCH   3   6
ATOM      6  C   UNL A   1      34.900  23.169  25.822  1.00  0.00     0.071 A 
ATOM      7  C   UNL A   1      33.946  23.364  24.824  1.00  0.00     0.141 A 
ATOM      8  N   UNL A   1      32.603  23.160  25.029  1.00  0.00    -0.250 NA
ATOM      9  C   UNL A   1      32.201  22.779  26.256  1.00  0.00     0.112 A 
ATOM     10  C   UNL A   1      34.429  22.793  27.088  1.00  0.00     0.018 A 
ATOM     11  C   UNL A   1      33.070  22.569  27.304  1.00  0.00     0.021 A 
BRANCH   7  12
ATOM     12  C   UNL A   1      34.216  24.016  23.523  1.00  0.00     0.275 C 
ATOM     13  N   UNL A   1      33.821  25.274  23.170  1.00  0.00    -0.311 N 
ATOM     14  H   UNL A   1      34.011  25.470  22.225  1.00  0.00     0.171 HD
ATOM     15  O   UNL A   1      34.836  23.358  22.678  1.00  0.00    -0.267 OA
BRANCH  13  16
ATOM     16  C   UNL A   1      33.225  26.330  23.804  1.00  0.00     0.110 A 
ATOM     17  C   UNL A   1      32.058  27.079  23.774  1.00  0.00     0.098 A 
ATOM     18  C   UNL A   1      32.175  28.215  24.690  1.00  0.00    -0.017 A 
ATOM     19  S   UNL A   1      34.320  26.862  25.010  1.00  0.00    -0.122 S 
ATOM     20  C   UNL A   1      33.375  28.205  25.375  1.00  0.00     0.011 A 
ATOM     21  C   UNL A   1      31.152  29.286  24.975  1.00  0.00     0.038 C 
ATOM     22  C   UNL A   1      33.854  29.242  26.344  1.00  0.00     0.050 C 
ATOM     23  C   UNL A   1      31.786  30.519  25.657  1.00  0.00     0.008 C 
ATOM     24  C   UNL A   1      32.672  30.089  26.847  1.00  0.00    -0.009 C 
ATOM     25  C   UNL A   1      33.188  31.279  27.649  1.00  0.00     0.008 C 
BRANCH  17  26
ATOM     26  C   UNL A   1      30.883  26.815  22.960  1.00  0.00     0.341 C 
ATOM     27  O   UNL A   1      30.624  27.472  21.948  1.00  0.00    -0.246 OA
BRANCH  26  28
ATOM     28  O   UNL A   1      30.091  25.823  23.433  1.00  0.00    -0.462 OA
BRANCH  28  29
ATOM     29  C   UNL A   1      29.231  26.105  24.555  1.00  0.00     0.230 C 
ATOM     30  C   UNL A   1      29.671  25.580  25.915  1.00  0.00     0.049 C 
ENDBRANCH  28  29
ENDBRANCH  26  28
ENDBRANCH  17  26
ENDBRANCH  13  16
ENDBRANCH   7  12
ENDBRANCH   3   6
ENDBRANCH   1   2
BRANCH   1  31
ATOM     31  C   UNL A   1      37.614  20.157  25.025  1.00  0.00     0.042 C 
BRANCH  31  32
ATOM     32  C   UNL A   1      38.910  20.501  25.719  1.00  0.00     0.118 C 
BRANCH  32  33
ATOM     33  N   UNL A   1      39.874  19.406  25.750  1.00  0.00    -0.352 N 
ATOM     34  C   UNL A   1      41.233  19.504  25.996  1.00  0.00     0.251 C 
ATOM     35  H   UNL A   1      39.520  18.504  25.578  1.00  0.00     0.163 HD
ATOM     36  O   UNL A   1      41.984  18.582  25.700  1.00  0.00    -0.269 OA
BRANCH  34  37
ATOM     37  C   UNL A   1      41.752  20.757  26.584  1.00  0.00     0.039 A 
ATOM     38  C   UNL A   1      42.031  21.869  25.786  1.00  0.00     0.014 A 
ATOM     39  C   UNL A   1      41.875  20.835  27.968  1.00  0.00     0.014 A 
ATOM     40  C   UNL A   1      42.342  23.080  26.407  1.00  0.00     0.010 A 
ATOM     41  C   UNL A   1      42.000  22.060  28.575  1.00  0.00     0.010 A 
ATOM     42  C   UNL A   1      42.291  23.182  27.808  1.00  0.00    -0.014 A 
BRANCH  42  43
ATOM     43  C   UNL A   1      42.435  24.481  28.471  1.00  0.00     0.031 A 
ATOM     44  C   UNL A   1      41.317  25.442  28.244  1.00  0.00     0.074 A 
ATOM     45  C   UNL A   1      43.384  24.750  29.397  1.00  0.00     0.049 A 
ATOM     46  N   UNL A   1      41.374  26.609  27.698  1.00  0.00    -0.248 NA
ATOM     47  C   UNL A   1      39.947  25.015  28.570  1.00  0.00     0.031 C 
ATOM     48  C   UNL A   1      44.391  23.843  29.961  1.00  0.00     0.029 A 
ATOM     49  N   UNL A   1      43.576  25.888  30.123  1.00  0.00    -0.354 N 
ATOM     50  C   UNL A   1      40.099  27.160  27.801  1.00  0.00     0.074 A 
ATOM     51  C   UNL A   1      39.236  26.088  28.219  1.00  0.00     0.031 C 
ATOM     52  C   UNL A   1      44.910  24.378  31.088  1.00  0.00     0.029 A 
ATOM     53  C   UNL A   1      44.421  25.737  31.219  1.00  0.00     0.049 A 
ATOM     54  H   UNL A   1      43.151  26.746  29.892  1.00  0.00     0.167 HD
ATOM     55  C   UNL A   1      39.901  28.505  27.711  1.00  0.00     0.034 A 
ATOM     56  C   UNL A   1      44.713  26.652  32.179  1.00  0.00     0.034 A 
ATOM     57  C   UNL A   1      41.028  29.153  27.078  1.00  0.00     0.049 A 
ATOM     58  C   UNL A   1      44.433  27.984  31.594  1.00  0.00     0.074 A 
ATOM     59  C   UNL A   1      41.652  29.002  25.853  1.00  0.00     0.029 A 
ATOM     60  N   UNL A   1      41.938  29.814  27.870  1.00  0.00    -0.354 N 
ATOM     61  N   UNL A   1      45.095  28.474  30.583  1.00  0.00    -0.248 NA
ATOM     62  C   UNL A   1      43.119  28.567  31.812  1.00  0.00     0.031 C 
ATOM     63  C   UNL A   1      43.047  29.075  26.148  1.00  0.00     0.029 A 
ATOM     64  C   UNL A   1      43.186  29.363  27.508  1.00  0.00     0.049 A 
ATOM     65  H   UNL A   1      41.735  30.482  28.564  1.00  0.00     0.167 HD
ATOM     66  C   UNL A   1      44.137  29.081  29.787  1.00  0.00     0.074 A 
ATOM     67  C   UNL A   1      42.960  29.200  30.647  1.00  0.00     0.031 C 
ATOM     68  C   UNL A   1      44.291  29.177  28.433  1.00  0.00     0.034 A 
BRANCH  55  69
ATOM     69  C   UNL A   1      38.839  29.276  28.459  1.00  0.00     0.023 A 
ATOM     70  C   UNL A   1      38.976  29.400  29.857  1.00  0.00     0.031 A 
ATOM     71  C   UNL A   1      37.581  29.646  27.931  1.00  0.00     0.131 A 
ATOM     72  C   UNL A   1      37.887  29.787  30.660  1.00  0.00     0.055 A 
ATOM     73  C   UNL A   1      36.523  30.096  28.726  1.00  0.00     0.041 A 
ATOM     74  F   UNL A   1      37.275  29.503  26.635  1.00  0.00    -0.206 F 
ATOM     75  C   UNL A   1      36.662  30.141  30.103  1.00  0.00     0.022 A 
BRANCH  72  76
ATOM     76  S   UNL A   1      38.048  29.647  32.460  1.00  0.00     0.124 S 
ATOM     77  O   UNL A   1      39.445  29.254  32.603  1.00  0.00    -0.237 OA
ATOM     78  O   UNL A   1      37.711  30.999  32.896  1.00  0.00    -0.237 OA
ATOM     79  O   UNL A   1      37.072  28.619  32.809  1.00  0.00    -0.744 OA
ENDBRANCH  72  76
ENDBRANCH  55  69
BRANCH  56  80
ATOM     80  C   UNL A   1      44.935  26.406  33.629  1.00  0.00     0.023 A 
ATOM     81  C   UNL A   1      43.927  26.591  34.600  1.00  0.00     0.031 A 
ATOM     82  C   UNL A   1      46.107  25.738  34.051  1.00  0.00     0.131 A 
ATOM     83  C   UNL A   1      44.114  26.113  35.919  1.00  0.00     0.055 A 
ATOM     84  C   UNL A   1      46.289  25.273  35.355  1.00  0.00     0.041 A 
ATOM     85  F   UNL A   1      47.084  25.434  33.180  1.00  0.00    -0.206 F 
ATOM     86  C   UNL A   1      45.286  25.451  36.294  1.00  0.00     0.022 A 
BRANCH  83  87
ATOM     87  S   UNL A   1      42.777  26.255  37.150  1.00  0.00     0.124 S 
ATOM     88  O   UNL A   1      42.066  27.446  36.700  1.00  0.00    -0.237 OA
ATOM     89  O   UNL A   1      42.077  24.984  37.000  1.00  0.00    -0.237 OA
ATOM     90  O   UNL A   1      43.495  26.409  38.417  1.00  0.00    -0.744 OA
ENDBRANCH  83  87
ENDBRANCH  56  80
BRANCH  68  91
ATOM     91  C   UNL A   1      45.649  28.856  27.828  1.00  0.00     0.023 A 
ATOM     92  C   UNL A   1      45.996  27.632  27.207  1.00  0.00     0.031 A 
ATOM     93  C   UNL A   1      46.595  29.897  27.775  1.00  0.00     0.131 A 
ATOM     94  C   UNL A   1      47.250  27.487  26.579  1.00  0.00     0.055 A 
ATOM     95  C   UNL A   1      47.824  29.757  27.132  1.00  0.00     0.041 A 
ATOM     96  F   UNL A   1      46.321  31.094  28.323  1.00  0.00    -0.206 F 
ATOM     97  C   UNL A   1      48.160  28.549  26.536  1.00  0.00     0.022 A 
BRANCH  94  98
ATOM     98  S   UNL A   1      47.736  25.903  25.815  1.00  0.00     0.124 S 
ATOM     99  O   UNL A   1      49.116  26.130  25.401  1.00  0.00    -0.237 OA
ATOM    100  O   UNL A   1      47.543  24.952  26.907  1.00  0.00    -0.237 OA
ATOM    101  O   UNL A   1      46.788  25.755  24.708  1.00  0.00    -0.744 OA
ENDBRANCH  94  98
ENDBRANCH  68  91
ENDBRANCH  42  43
ENDBRANCH  34  37
ENDBRANCH  32  33
ENDBRANCH  31  32
ENDBRANCH   1  31
TORSDOF 18
ENDMDL
MODEL 2
REMARK VINA RESULT:     -11.9      1.755      2.338
REMARK SMILES CCOC(=O)c1c(NC(=O)c2ncccc2C(=O)NCCCNC(=O)c2ccc(-c3c4nc(c(-c5cc(S(=O)(=O)[O-])ccc5F)c5ccc([nH]5)c(-c5cc(S(=O)(=O)[O-])ccc5F)c5nc(c(-c6cc(S(=O)(=O)[O-])ccc6F)c6ccc3[nH]6)C=C5)C=C4)cc2)sc2c1CC[C@H](C)C2
REMARK SMILES IDX 20 1 19 2 17 3 18 4 16 6 11 7 12 8 13 9 15 10 14 11 9 12
REMARK SMILES IDX 8 13 10 15 7 16 6 17 91 18 89 19 90 20 92 21 96 22 93 23
REMARK SMILES IDX 94 24 95 25 4 26 5 27 3 28 2 29 1 30 21 31 22 32 23 33 24 34
REMARK SMILES IDX 25 36 26 37 27 38 88 39 28 40 87 41 29 42 30 43 31 44 81 45
REMARK SMILES IDX 32 46 86 47 80 48 82 49 33 50 85 51 79 52 78 53 34 55 66 56
REMARK SMILES IDX 46 57 65 58 47 59 50 60 64 61 83 62 48 63 49 64 63 66 84 67
REMARK SMILES IDX 51 68 35 69 36 70 44 71 37 72 43 73 45 74 42 75 38 76 39 77
REMARK SMILES IDX 40 78 41 79 67 80 68 81 76 82 69 83 75 84 77 85 74 86 70 87
REMARK SMILES IDX 71 88 72 89 73 90 52 91 53 92 61 93 54 94 60 95 62 96 59 97
REMARK SMILES IDX 55 98 56 99 57 100 58 101
REMARK H PARENT 19 5 8 14 23 35 82 54 50 65
REMARK Flexibility Score: inf
ROOT
ATOM      1  C   UNL A   1      36.702  20.971  25.146  1.00  0.00     0.118 C 
ENDROOT
BRANCH   1   2
ATOM      2  N   UNL A   1      36.469  21.859  24.007  1.00  0.00    -0.352 N 
ATOM      3  C   UNL A   1      35.339  22.516  23.578  1.00  0.00     0.253 C 
ATOM      4  O   UNL A   1      35.407  23.244  22.593  1.00  0.00    -0.269 OA
ATOM      5  H   UNL A   1      37.264  22.014  23.447  1.00  0.00     0.163 HD
BRANCH   3   6
ATOM      6  C   UNL A   1      34.052  22.393  24.288  1.00  0.00     0.071 A 
ATOM      7  C   UNL A   1      33.570  23.380  25.146  1.00  0.00     0.141 A 
ATOM      8  N   UNL A   1      32.419  23.230  25.879  1.00  0.00    -0.250 NA
ATOM      9  C   UNL A   1      31.748  22.067  25.774  1.00  0.00     0.112 A 
ATOM     10  C   UNL A   1      33.330  21.192  24.229  1.00  0.00     0.018 A 
ATOM     11  C   UNL A   1      32.151  21.034  24.956  1.00  0.00     0.021 A 
BRANCH   7  12
ATOM     12  C   UNL A   1      34.330  24.585  25.547  1.00  0.00     0.275 C 
ATOM     13  N   UNL A   1      33.973  25.875  25.272  1.00  0.00    -0.311 N 
ATOM     14  H   UNL A   1      34.672  26.516  25.535  1.00  0.00     0.171 HD
ATOM     15  O   UNL A   1      35.386  24.409  26.165  1.00  0.00    -0.267 OA
BRANCH  13  16
ATOM     16  C   UNL A   1      32.886  26.496  24.721  1.00  0.00     0.110 A 
ATOM     17  C   UNL A   1      31.911  26.294  23.755  1.00  0.00     0.098 A 
ATOM     18  C   UNL A   1      31.120  27.514  23.589  1.00  0.00    -0.017 A 
ATOM     19  S   UNL A   1      32.728  28.006  25.513  1.00  0.00    -0.122 S 
ATOM     20  C   UNL A   1      31.509  28.507  24.468  1.00  0.00     0.011 A 
ATOM     21  C   UNL A   1      29.962  27.748  22.651  1.00  0.00     0.038 C 
ATOM     22  C   UNL A   1      30.960  29.899  24.536  1.00  0.00     0.050 C 
ATOM     23  C   UNL A   1      29.670  29.254  22.464  1.00  0.00     0.008 C 
ATOM     24  C   UNL A   1      29.595  29.969  23.830  1.00  0.00    -0.009 C 
ATOM     25  C   UNL A   1      29.149  31.422  23.704  1.00  0.00     0.008 C 
BRANCH  17  26
ATOM     26  C   UNL A   1      31.689  25.077  22.993  1.00  0.00     0.341 C 
ATOM     27  O   UNL A   1      30.725  24.336  23.203  1.00  0.00    -0.246 OA
BRANCH  26  28
ATOM     28  O   UNL A   1      32.649  24.816  22.072  1.00  0.00    -0.462 OA
BRANCH  28  29
ATOM     29  C   UNL A   1      32.898  25.792  21.042  1.00  0.00     0.230 C 
ATOM     30  C   UNL A   1      32.531  25.404  19.616  1.00  0.00     0.049 C 
ENDBRANCH  28  29
ENDBRANCH  26  28
ENDBRANCH  17  26
ENDBRANCH  13  16
ENDBRANCH   7  12
ENDBRANCH   3   6
ENDBRANCH   1   2
BRANCH   1  31
ATOM     31  C   UNL A   1      37.867  20.003  24.964  1.00  0.00     0.042 C 
BRANCH  31  32
ATOM     32  C   UNL A   1      39.020  20.219  25.914  1.00  0.00     0.118 C 
BRANCH  32  33
ATOM     33  N   UNL A   1      40.121  19.280  25.734  1.00  0.00    -0.352 N 
ATOM     34  C   UNL A   1      41.474  19.558  25.828  1.00  0.00     0.251 C 
ATOM     35  H   UNL A   1      39.876  18.350  25.523  1.00  0.00     0.163 HD
ATOM     36  O   UNL A   1      42.300  18.781  25.365  1.00  0.00    -0.269 OA
BRANCH  34  37
ATOM     37  C   UNL A   1      41.887  20.829  26.463  1.00  0.00     0.039 A 
ATOM     38  C   UNL A   1      42.125  21.974  25.700  1.00  0.00     0.014 A 
ATOM     39  C   UNL A   1      41.950  20.882  27.852  1.00  0.00     0.014 A 
ATOM     40  C   UNL A   1      42.332  23.187  26.358  1.00  0.00     0.010 A 
ATOM     41  C   UNL A   1      41.971  22.098  28.488  1.00  0.00     0.010 A 
ATOM     42  C   UNL A   1      42.218  23.254  27.758  1.00  0.00    -0.014 A 
BRANCH  42  43
ATOM     43  C   UNL A   1      42.251  24.543  28.453  1.00  0.00     0.031 A 
ATOM     44  C   UNL A   1      40.992  25.340  28.382  1.00  0.00     0.074 A 
ATOM     45  C   UNL A   1      43.250  24.923  29.284  1.00  0.00     0.049 A 
ATOM     46  N   UNL A   1      40.826  26.516  27.880  1.00  0.00    -0.248 NA
ATOM     47  C   UNL A   1      39.740  24.713  28.833  1.00  0.00     0.031 C 
ATOM     48  C   UNL A   1      44.429  24.156  29.703  1.00  0.00     0.029 A 
ATOM     49  N   UNL A   1      43.359  26.059  30.030  1.00  0.00    -0.354 N 
ATOM     50  C   UNL A   1      39.505  26.876  28.138  1.00  0.00     0.074 A 
ATOM     51  C   UNL A   1      38.851  25.682  28.602  1.00  0.00     0.031 C 
ATOM     52  C   UNL A   1      44.988  24.732  30.789  1.00  0.00     0.029 A 
ATOM     53  C   UNL A   1      44.332  26.003  31.024  1.00  0.00     0.049 A 
ATOM     54  H   UNL A   1      42.796  26.853  29.879  1.00  0.00     0.167 HD
ATOM     55  C   UNL A   1      39.112  28.180  28.122  1.00  0.00     0.034 A 
ATOM     56  C   UNL A   1      44.596  26.928  31.984  1.00  0.00     0.034 A 
ATOM     57  C   UNL A   1      40.062  28.998  27.401  1.00  0.00     0.049 A 
ATOM     58  C   UNL A   1      44.071  28.219  31.485  1.00  0.00     0.074 A 
ATOM     59  C   UNL A   1      40.563  28.968  26.112  1.00  0.00     0.029 A 
ATOM     60  N   UNL A   1      40.952  29.764  28.119  1.00  0.00    -0.354 N 
ATOM     61  N   UNL A   1      44.543  28.824  30.429  1.00  0.00    -0.248 NA
ATOM     62  C   UNL A   1      42.720  28.603  31.862  1.00  0.00     0.031 C 
ATOM     63  C   UNL A   1      41.957  29.233  26.262  1.00  0.00     0.029 A 
ATOM     64  C   UNL A   1      42.203  29.505  27.610  1.00  0.00     0.049 A 
ATOM     65  H   UNL A   1      40.735  30.378  28.856  1.00  0.00     0.167 HD
ATOM     66  C   UNL A   1      43.428  29.306  29.763  1.00  0.00     0.074 A 
ATOM     67  C   UNL A   1      42.347  29.235  30.746  1.00  0.00     0.031 C 
ATOM     68  C   UNL A   1      43.418  29.457  28.405  1.00  0.00     0.034 A 
BRANCH  55  69
ATOM     69  C   UNL A   1      38.042  28.773  29.008  1.00  0.00     0.023 A 
ATOM     70  C   UNL A   1      37.084  29.617  28.412  1.00  0.00     0.031 A 
ATOM     71  C   UNL A   1      38.074  28.784  30.422  1.00  0.00     0.131 A 
ATOM     72  C   UNL A   1      36.282  30.470  29.193  1.00  0.00     0.055 A 
ATOM     73  C   UNL A   1      37.228  29.583  31.197  1.00  0.00     0.041 A 
ATOM     74  F   UNL A   1      38.984  28.101  31.127  1.00  0.00    -0.206 F 
ATOM     75  C   UNL A   1      36.345  30.455  30.583  1.00  0.00     0.022 A 
BRANCH  72  76
ATOM     76  S   UNL A   1      35.284  31.727  28.353  1.00  0.00     0.124 S 
ATOM     77  O   UNL A   1      34.553  30.924  27.379  1.00  0.00    -0.237 OA
ATOM     78  O   UNL A   1      34.499  32.273  29.456  1.00  0.00    -0.237 OA
ATOM     79  O   UNL A   1      36.282  32.633  27.790  1.00  0.00    -0.744 OA
ENDBRANCH  72  76
ENDBRANCH  55  69
BRANCH  56  80
ATOM     80  C   UNL A   1      45.008  26.681  33.392  1.00  0.00     0.023 A 
ATOM     81  C   UNL A   1      44.081  26.462  34.433  1.00  0.00     0.031 A 
ATOM     82  C   UNL A   1      46.365  26.414  33.684  1.00  0.00     0.131 A 
ATOM     83  C   UNL A   1      44.525  25.993  35.693  1.00  0.00     0.055 A 
ATOM     84  C   UNL A   1      46.798  25.957  34.930  1.00  0.00     0.041 A 
ATOM     85  F   UNL A   1      47.310  26.503  32.733  1.00  0.00    -0.206 F 
ATOM     86  C   UNL A   1      45.875  25.735  35.940  1.00  0.00     0.022 A 
BRANCH  83  87
ATOM     87  S   UNL A   1      43.323  25.610  37.010  1.00  0.00     0.124 S 
ATOM     88  O   UNL A   1      42.877  26.937  37.419  1.00  0.00    -0.237 OA
ATOM     89  O   UNL A   1      42.346  24.782  36.310  1.00  0.00    -0.237 OA
ATOM     90  O   UNL A   1      44.124  24.897  38.005  1.00  0.00    -0.744 OA
ENDBRANCH  83  87
ENDBRANCH  56  80
BRANCH  68  91
ATOM     91  C   UNL A   1      44.733  29.348  27.649  1.00  0.00     0.023 A 
ATOM     92  C   UNL A   1      45.273  28.151  27.121  1.00  0.00     0.031 A 
ATOM     93  C   UNL A   1      45.405  30.547  27.347  1.00  0.00     0.131 A 
ATOM     94  C   UNL A   1      46.445  28.187  26.337  1.00  0.00     0.055 A 
ATOM     95  C   UNL A   1      46.550  30.581  26.553  1.00  0.00     0.041 A 
ATOM     96  F   UNL A   1      44.934  31.723  27.796  1.00  0.00    -0.206 F 
ATOM     97  C   UNL A   1      47.079  29.400  26.049  1.00  0.00     0.022 A 
BRANCH  94  98
ATOM     98  S   UNL A   1      47.185  26.651  25.688  1.00  0.00     0.124 S 
ATOM     99  O   UNL A   1      46.762  26.630  24.293  1.00  0.00    -0.237 OA
ATOM    100  O   UNL A   1      48.611  26.861  25.922  1.00  0.00    -0.237 OA
ATOM    101  O   UNL A   1      46.582  25.606  26.520  1.00  0.00    -0.744 OA
ENDBRANCH  94  98
ENDBRANCH  68  91
ENDBRANCH  42  43
ENDBRANCH  34  37
ENDBRANCH  32  33
ENDBRANCH  31  32
ENDBRANCH   1  31
TORSDOF 18
ENDMDL
MODEL 3
REMARK VINA RESULT:     -11.8      3.064      8.598
REMARK SMILES CCOC(=O)c1c(NC(=O)c2ncccc2C(=O)NCCCNC(=O)c2ccc(-c3c4nc(c(-c5cc(S(=O)(=O)[O-])ccc5F)c5ccc([nH]5)c(-c5cc(S(=O)(=O)[O-])ccc5F)c5nc(c(-c6cc(S(=O)(=O)[O-])ccc6F)c6ccc3[nH]6)C=C5)C=C4)cc2)sc2c1CC[C@H](C)C2
REMARK SMILES IDX 20 1 19 2 17 3 18 4 16 6 11 7 12 8 13 9 15 10 14 11 9 12
REMARK SMILES IDX 8 13 10 15 7 16 6 17 91 18 89 19 90 20 92 21 96 22 93 23
REMARK SMILES IDX 94 24 95 25 4 26 5 27 3 28 2 29 1 30 21 31 22 32 23 33 24 34
REMARK SMILES IDX 25 36 26 37 27 38 88 39 28 40 87 41 29 42 30 43 31 44 81 45
REMARK SMILES IDX 32 46 86 47 80 48 82 49 33 50 85 51 79 52 78 53 34 55 66 56
REMARK SMILES IDX 46 57 65 58 47 59 50 60 64 61 83 62 48 63 49 64 63 66 84 67
REMARK SMILES IDX 51 68 35 69 36 70 44 71 37 72 43 73 45 74 42 75 38 76 39 77
REMARK SMILES IDX 40 78 41 79 67 80 68 81 76 82 69 83 75 84 77 85 74 86 70 87
REMARK SMILES IDX 71 88 72 89 73 90 52 91 53 92 61 93 54 94 60 95 62 96 59 97
REMARK SMILES IDX 55 98 56 99 57 100 58 101
REMARK H PARENT 19 5 8 14 23 35 82 54 50 65
REMARK Flexibility Score: inf
ROOT
ATOM      1  C   UNL A   1      34.082  27.940  25.991  1.00  0.00     0.118 C 
ENDROOT
BRANCH   1   2
ATOM      2  N   UNL A   1      34.029  28.642  24.710  1.00  0.00    -0.352 N 
ATOM      3  C   UNL A   1      33.147  28.557  23.656  1.00  0.00     0.253 C 
ATOM      4  O   UNL A   1      33.301  29.290  22.685  1.00  0.00    -0.269 OA
ATOM      5  H   UNL A   1      34.755  29.294  24.576  1.00  0.00     0.163 HD
BRANCH   3   6
ATOM      6  C   UNL A   1      32.002  27.627  23.676  1.00  0.00     0.071 A 
ATOM      7  C   UNL A   1      32.036  26.380  23.054  1.00  0.00     0.141 A 
ATOM      8  N   UNL A   1      30.943  25.551  22.992  1.00  0.00    -0.250 NA
ATOM      9  C   UNL A   1      29.790  25.980  23.538  1.00  0.00     0.112 A 
ATOM     10  C   UNL A   1      30.773  28.038  24.212  1.00  0.00     0.018 A 
ATOM     11  C   UNL A   1      29.661  27.199  24.169  1.00  0.00     0.021 A 
BRANCH   7  12
ATOM     12  C   UNL A   1      33.148  25.899  22.204  1.00  0.00     0.275 C 
ATOM     13  N   UNL A   1      33.855  24.747  22.401  1.00  0.00    -0.311 N 
ATOM     14  H   UNL A   1      34.618  24.672  21.784  1.00  0.00     0.171 HD
ATOM     15  O   UNL A   1      33.476  26.609  21.245  1.00  0.00    -0.267 OA
BRANCH  13  16
ATOM     16  C   UNL A   1      33.766  23.672  23.243  1.00  0.00     0.110 A 
ATOM     17  C   UNL A   1      34.231  23.235  24.475  1.00  0.00     0.098 A 
ATOM     18  C   UNL A   1      33.831  21.843  24.688  1.00  0.00    -0.017 A 
ATOM     19  S   UNL A   1      32.745  22.530  22.478  1.00  0.00    -0.122 S 
ATOM     20  C   UNL A   1      33.056  21.362  23.648  1.00  0.00     0.011 A 
ATOM     21  C   UNL A   1      34.118  20.967  25.882  1.00  0.00     0.038 C 
ATOM     22  C   UNL A   1      32.525  19.970  23.506  1.00  0.00     0.050 C 
ATOM     23  C   UNL A   1      33.905  19.471  25.561  1.00  0.00     0.008 C 
ATOM     24  C   UNL A   1      32.545  19.249  24.865  1.00  0.00    -0.009 C 
ATOM     25  C   UNL A   1      32.220  17.771  24.676  1.00  0.00     0.008 C 
BRANCH  17  26
ATOM     26  C   UNL A   1      35.012  24.006  25.428  1.00  0.00     0.341 C 
ATOM     27  O   UNL A   1      34.536  24.412  26.492  1.00  0.00    -0.246 OA
BRANCH  26  28
ATOM     28  O   UNL A   1      36.278  24.268  25.024  1.00  0.00    -0.462 OA
BRANCH  28  29
ATOM     29  C   UNL A   1      37.336  23.395  25.468  1.00  0.00     0.230 C 
ATOM     30  C   UNL A   1      38.340  23.970  26.457  1.00  0.00     0.049 C 
ENDBRANCH  28  29
ENDBRANCH  26  28
ENDBRANCH  17  26
ENDBRANCH  13  16
ENDBRANCH   7  12
ENDBRANCH   3   6
ENDBRANCH   1   2
BRANCH   1  31
ATOM     31  C   UNL A   1      34.029  28.852  27.213  1.00  0.00     0.042 C 
BRANCH  31  32
ATOM     32  C   UNL A   1      35.357  29.453  27.606  1.00  0.00     0.118 C 
BRANCH  32  33
ATOM     33  N   UNL A   1      35.398  29.959  28.974  1.00  0.00    -0.352 N 
ATOM     34  C   UNL A   1      36.375  29.710  29.923  1.00  0.00     0.251 C 
ATOM     35  H   UNL A   1      34.652  30.538  29.251  1.00  0.00     0.163 HD
ATOM     36  O   UNL A   1      36.157  29.929  31.108  1.00  0.00    -0.269 OA
BRANCH  34  37
ATOM     37  C   UNL A   1      37.663  29.141  29.472  1.00  0.00     0.039 A 
ATOM     38  C   UNL A   1      38.366  29.700  28.403  1.00  0.00     0.014 A 
ATOM     39  C   UNL A   1      38.205  28.082  30.193  1.00  0.00     0.014 A 
ATOM     40  C   UNL A   1      39.657  29.243  28.135  1.00  0.00     0.010 A 
ATOM     41  C   UNL A   1      39.532  27.763  30.046  1.00  0.00     0.010 A 
ATOM     42  C   UNL A   1      40.254  28.294  28.984  1.00  0.00    -0.014 A 
BRANCH  42  43
ATOM     43  C   UNL A   1      41.666  27.934  28.831  1.00  0.00     0.031 A 
ATOM     44  C   UNL A   1      41.928  26.699  28.038  1.00  0.00     0.074 A 
ATOM     45  C   UNL A   1      42.691  28.746  29.183  1.00  0.00     0.049 A 
ATOM     46  N   UNL A   1      42.518  25.619  28.425  1.00  0.00    -0.248 NA
ATOM     47  C   UNL A   1      41.379  26.610  26.676  1.00  0.00     0.031 C 
ATOM     48  C   UNL A   1      42.629  30.114  29.711  1.00  0.00     0.029 A 
ATOM     49  N   UNL A   1      44.031  28.550  29.031  1.00  0.00    -0.354 N 
ATOM     50  C   UNL A   1      42.612  24.793  27.307  1.00  0.00     0.074 A 
ATOM     51  C   UNL A   1      41.778  25.393  26.300  1.00  0.00     0.031 C 
ATOM     52  C   UNL A   1      43.841  30.701  29.603  1.00  0.00     0.029 A 
ATOM     53  C   UNL A   1      44.802  29.699  29.185  1.00  0.00     0.049 A 
ATOM     54  H   UNL A   1      44.422  27.669  28.828  1.00  0.00     0.167 HD
ATOM     55  C   UNL A   1      43.521  23.781  27.250  1.00  0.00     0.034 A 
ATOM     56  C   UNL A   1      46.138  29.838  28.987  1.00  0.00     0.034 A 
ATOM     57  C   UNL A   1      43.989  23.430  28.572  1.00  0.00     0.049 A 
ATOM     58  C   UNL A   1      46.729  28.486  29.113  1.00  0.00     0.074 A 
ATOM     59  C   UNL A   1      43.357  23.010  29.729  1.00  0.00     0.029 A 
ATOM     60  N   UNL A   1      45.223  23.887  28.978  1.00  0.00    -0.354 N 
ATOM     61  N   UNL A   1      46.719  27.802  30.224  1.00  0.00    -0.248 NA
ATOM     62  C   UNL A   1      46.901  27.696  27.905  1.00  0.00     0.031 C 
ATOM     63  C   UNL A   1      44.003  23.735  30.776  1.00  0.00     0.029 A 
ATOM     64  C   UNL A   1      45.048  24.471  30.211  1.00  0.00     0.049 A 
ATOM     65  H   UNL A   1      46.068  23.810  28.481  1.00  0.00     0.167 HD
ATOM     66  C   UNL A   1      46.432  26.501  29.842  1.00  0.00     0.074 A 
ATOM     67  C   UNL A   1      46.664  26.478  28.398  1.00  0.00     0.031 C 
ATOM     68  C   UNL A   1      45.772  25.642  30.674  1.00  0.00     0.034 A 
BRANCH  55  69
ATOM     69  C   UNL A   1      44.219  23.313  25.994  1.00  0.00     0.023 A 
ATOM     70  C   UNL A   1      44.124  21.948  25.656  1.00  0.00     0.031 A 
ATOM     71  C   UNL A   1      45.185  24.057  25.278  1.00  0.00     0.131 A 
ATOM     72  C   UNL A   1      45.005  21.370  24.724  1.00  0.00     0.055 A 
ATOM     73  C   UNL A   1      46.012  23.492  24.303  1.00  0.00     0.041 A 
ATOM     74  F   UNL A   1      45.448  25.342  25.547  1.00  0.00    -0.206 F 
ATOM     75  C   UNL A   1      45.946  22.134  24.042  1.00  0.00     0.022 A 
BRANCH  72  76
ATOM     76  S   UNL A   1      45.019  19.565  24.552  1.00  0.00     0.124 S 
ATOM     77  O   UNL A   1      46.418  19.253  24.823  1.00  0.00    -0.237 OA
ATOM     78  O   UNL A   1      44.059  19.159  25.575  1.00  0.00    -0.237 OA
ATOM     79  O   UNL A   1      44.588  19.353  23.173  1.00  0.00    -0.744 OA
ENDBRANCH  72  76
ENDBRANCH  55  69
BRANCH  56  80
ATOM     80  C   UNL A   1      46.854  31.013  28.421  1.00  0.00     0.023 A 
ATOM     81  C   UNL A   1      46.287  31.856  27.441  1.00  0.00     0.031 A 
ATOM     82  C   UNL A   1      48.045  31.465  29.034  1.00  0.00     0.131 A 
ATOM     83  C   UNL A   1      46.904  33.088  27.118  1.00  0.00     0.055 A 
ATOM     84  C   UNL A   1      48.653  32.680  28.708  1.00  0.00     0.041 A 
ATOM     85  F   UNL A   1      48.610  30.780  30.041  1.00  0.00    -0.206 F 
ATOM     86  C   UNL A   1      48.078  33.502  27.753  1.00  0.00     0.022 A 
BRANCH  83  87
ATOM     87  S   UNL A   1      46.123  34.228  25.930  1.00  0.00     0.124 S 
ATOM     88  O   UNL A   1      45.144  33.370  25.273  1.00  0.00    -0.237 OA
ATOM     89  O   UNL A   1      45.591  35.272  26.800  1.00  0.00    -0.237 OA
ATOM     90  O   UNL A   1      47.237  34.652  25.081  1.00  0.00    -0.744 OA
ENDBRANCH  83  87
ENDBRANCH  56  80
BRANCH  68  91
ATOM     91  C   UNL A   1      45.588  26.034  32.132  1.00  0.00     0.023 A 
ATOM     92  C   UNL A   1      44.447  26.677  32.666  1.00  0.00     0.031 A 
ATOM     93  C   UNL A   1      46.578  25.618  33.042  1.00  0.00     0.131 A 
ATOM     94  C   UNL A   1      44.337  26.891  34.056  1.00  0.00     0.055 A 
ATOM     95  C   UNL A   1      46.456  25.809  34.417  1.00  0.00     0.041 A 
ATOM     96  F   UNL A   1      47.678  24.978  32.606  1.00  0.00    -0.206 F 
ATOM     97  C   UNL A   1      45.337  26.452  34.930  1.00  0.00     0.022 A 
BRANCH  94  98
ATOM     98  S   UNL A   1      42.897  27.761  34.759  1.00  0.00     0.124 S 
ATOM     99  O   UNL A   1      41.833  27.496  33.798  1.00  0.00    -0.237 OA
ATOM    100  O   UNL A   1      42.751  27.129  36.067  1.00  0.00    -0.237 OA
ATOM    101  O   UNL A   1      43.335  29.159  34.807  1.00  0.00    -0.744 OA
ENDBRANCH  94  98
ENDBRANCH  68  91
ENDBRANCH  42  43
ENDBRANCH  34  37
ENDBRANCH  32  33
ENDBRANCH  31  32
ENDBRANCH   1  31
TORSDOF 18
ENDMDL
