MODEL 1
REMARK VINA RESULT:     -11.7      0.000      0.000
REMARK SMILES COc1ccc([C@@H]2[C@@H](C(=O)c3cccc4c3CCCC4)[C@H](C(=O)NCCCNC(=O)c3ccc(-c4c5nc(c(-c6cc(S(=O)(=O)[O-])ccc6F)c6ccc([nH]6)c(-c6cc(S(=O)(=O)[O-])ccc6F)c6nc(c(-c7cc(S(=O)(=O)[O-])ccc7F)c7ccc4[nH]7)C=C6)C=C5)cc3)SC3=NC(=O)S[C@H]32)cc1
REMARK SMILES IDX 26 1 25 2 24 3 22 4 23 5 21 7 7 8 8 9 100 10 95 11 99 12
REMARK SMILES IDX 94 13 96 14 97 15 98 16 6 17 3 18 4 19 102 20 5 21 101 22
REMARK SMILES IDX 2 23 1 24 9 25 10 26 11 27 12 28 16 29 13 30 15 31 17 32
REMARK SMILES IDX 14 33 20 34 18 35 19 36 27 37 28 38 29 39 30 41 31 42 32 43
REMARK SMILES IDX 93 44 33 45 92 46 34 47 35 48 36 49 86 50 37 51 91 52 85 53
REMARK SMILES IDX 87 54 38 55 90 56 84 57 83 58 39 60 71 61 51 62 70 63 52 64
REMARK SMILES IDX 55 65 69 66 88 67 53 68 54 69 68 71 89 72 56 73 40 74 41 75
REMARK SMILES IDX 49 76 42 77 48 78 50 79 47 80 43 81 44 82 45 83 46 84 72 85
REMARK SMILES IDX 73 86 81 87 74 88 80 89 82 90 79 91 75 92 76 93 77 94 78 95
REMARK SMILES IDX 57 96 58 97 66 98 59 99 65 100 67 101 64 102 60 103 61 104
REMARK SMILES IDX 62 105 63 106
REMARK H PARENT 24 6 28 40 87 59 55 70
REMARK Flexibility Score: inf
ROOT
ATOM      1  C   UNL A   1      32.652  30.066  25.945  1.00  0.00     0.042 C 
ENDROOT
BRANCH   1   2
ATOM      2  C   UNL A   1      33.614  28.886  25.906  1.00  0.00     0.117 C 
BRANCH   2   3
ATOM      3  N   UNL A   1      34.482  28.908  24.738  1.00  0.00    -0.355 N 
ATOM      4  C   UNL A   1      34.266  28.562  23.434  1.00  0.00     0.234 C 
ATOM      5  O   UNL A   1      35.170  28.783  22.624  1.00  0.00    -0.274 OA
ATOM      6  H   UNL A   1      35.393  29.231  24.921  1.00  0.00     0.163 HD
BRANCH   4   7
ATOM      7  C   UNL A   1      32.935  27.955  22.957  1.00  0.00     0.153 C 
ATOM      8  C   UNL A   1      30.982  26.375  23.698  1.00  0.00     0.052 C 
ATOM      9  C   UNL A   1      32.495  26.749  23.819  1.00  0.00     0.093 C 
ATOM     10  C   UNL A   1      30.049  27.596  23.886  1.00  0.00     0.121 C 
ATOM     11  C   UNL A   1      30.252  28.641  22.831  1.00  0.00     0.093 C 
ATOM     12  S   UNL A   1      28.264  27.218  23.682  1.00  0.00    -0.052 SA
ATOM     13  S   UNL A   1      31.804  29.369  22.668  1.00  0.00    -0.095 SA
ATOM     14  N   UNL A   1      29.271  29.079  22.121  1.00  0.00    -0.200 NA
ATOM     15  C   UNL A   1      28.093  28.461  22.449  1.00  0.00     0.306 C 
ATOM     16  O   UNL A   1      27.012  28.718  21.962  1.00  0.00    -0.259 OA
BRANCH   8  17
ATOM     17  C   UNL A   1      30.568  25.309  24.721  1.00  0.00    -0.042 A 
ATOM     18  C   UNL A   1      29.919  23.401  26.698  1.00  0.00     0.118 A 
ATOM     19  C   UNL A   1      29.706  24.755  26.931  1.00  0.00     0.047 A 
ATOM     20  C   UNL A   1      30.453  22.992  25.478  1.00  0.00     0.047 A 
ATOM     21  C   UNL A   1      30.070  25.700  25.973  1.00  0.00     0.008 A 
ATOM     22  C   UNL A   1      30.764  23.937  24.493  1.00  0.00     0.008 A 
BRANCH  18  23
ATOM     23  O   UNL A   1      29.527  22.565  27.705  1.00  0.00    -0.497 OA
ATOM     24  C   UNL A   1      28.217  22.025  27.566  1.00  0.00     0.278 C 
ENDBRANCH  18  23
ENDBRANCH   8  17
BRANCH   9  25
ATOM     25  C   UNL A   1      33.526  25.585  23.592  1.00  0.00     0.168 C 
ATOM     26  O   UNL A   1      33.688  25.107  22.470  1.00  0.00    -0.294 OA
BRANCH  25  27
ATOM     27  C   UNL A   1      34.244  24.935  24.733  1.00  0.00     0.021 A 
ATOM     28  C   UNL A   1      33.810  25.208  26.016  1.00  0.00     0.012 A 
ATOM     29  C   UNL A   1      34.912  23.729  24.522  1.00  0.00    -0.034 A 
ATOM     30  C   UNL A   1      33.643  24.146  26.906  1.00  0.00     0.001 A 
ATOM     31  C   UNL A   1      34.489  22.608  25.247  1.00  0.00    -0.044 A 
ATOM     32  C   UNL A   1      36.462  23.784  24.527  1.00  0.00     0.036 C 
ATOM     33  C   UNL A   1      33.859  22.831  26.471  1.00  0.00     0.004 A 
ATOM     34  C   UNL A   1      34.945  21.251  24.781  1.00  0.00     0.036 C 
ATOM     35  C   UNL A   1      37.130  22.431  24.243  1.00  0.00     0.005 C 
ATOM     36  C   UNL A   1      36.135  21.355  23.812  1.00  0.00     0.005 C 
ENDBRANCH  25  27
ENDBRANCH   9  25
ENDBRANCH   4   7
ENDBRANCH   2   3
ENDBRANCH   1   2
BRANCH   1  37
ATOM     37  C   UNL A   1      32.553  30.755  27.300  1.00  0.00     0.118 C 
BRANCH  37  38
ATOM     38  N   UNL A   1      32.811  32.184  27.230  1.00  0.00    -0.352 N 
ATOM     39  C   UNL A   1      33.894  32.909  27.668  1.00  0.00     0.251 C 
ATOM     40  H   UNL A   1      32.100  32.715  26.802  1.00  0.00     0.163 HD
ATOM     41  O   UNL A   1      33.832  34.136  27.656  1.00  0.00    -0.269 OA
BRANCH  39  42
ATOM     42  C   UNL A   1      35.108  32.228  28.179  1.00  0.00     0.039 A 
ATOM     43  C   UNL A   1      36.291  32.964  28.298  1.00  0.00     0.014 A 
ATOM     44  C   UNL A   1      35.097  30.875  28.526  1.00  0.00     0.014 A 
ATOM     45  C   UNL A   1      37.434  32.362  28.831  1.00  0.00     0.010 A 
ATOM     46  C   UNL A   1      36.209  30.303  29.141  1.00  0.00     0.010 A 
ATOM     47  C   UNL A   1      37.394  31.038  29.297  1.00  0.00    -0.014 A 
BRANCH  47  48
ATOM     48  C   UNL A   1      38.582  30.409  29.938  1.00  0.00     0.031 A 
ATOM     49  C   UNL A   1      39.004  30.820  31.324  1.00  0.00     0.074 A 
ATOM     50  C   UNL A   1      39.302  29.493  29.258  1.00  0.00     0.049 A 
ATOM     51  N   UNL A   1      40.033  30.422  32.029  1.00  0.00    -0.248 NA
ATOM     52  C   UNL A   1      38.175  31.833  31.995  1.00  0.00     0.031 C 
ATOM     53  C   UNL A   1      39.016  29.034  27.897  1.00  0.00     0.029 A 
ATOM     54  N   UNL A   1      40.420  28.782  29.615  1.00  0.00    -0.354 N 
ATOM     55  C   UNL A   1      39.973  31.132  33.224  1.00  0.00     0.074 A 
ATOM     56  C   UNL A   1      38.854  32.043  33.113  1.00  0.00     0.031 C 
ATOM     57  C   UNL A   1      39.908  28.092  27.552  1.00  0.00     0.029 A 
ATOM     58  C   UNL A   1      40.863  27.915  28.642  1.00  0.00     0.049 A 
ATOM     59  H   UNL A   1      40.865  28.882  30.488  1.00  0.00     0.167 HD
ATOM     60  C   UNL A   1      40.758  31.016  34.326  1.00  0.00     0.034 A 
ATOM     61  C   UNL A   1      41.919  27.078  28.625  1.00  0.00     0.034 A 
ATOM     62  C   UNL A   1      41.875  30.106  34.423  1.00  0.00     0.049 A 
ATOM     63  C   UNL A   1      42.809  27.007  29.843  1.00  0.00     0.074 A 
ATOM     64  C   UNL A   1      42.725  29.896  35.496  1.00  0.00     0.029 A 
ATOM     65  N   UNL A   1      42.300  29.256  33.410  1.00  0.00    -0.354 N 
ATOM     66  N   UNL A   1      42.715  27.661  30.978  1.00  0.00    -0.248 NA
ATOM     67  C   UNL A   1      43.937  26.069  29.781  1.00  0.00     0.031 C 
ATOM     68  C   UNL A   1      43.702  28.973  35.109  1.00  0.00     0.029 A 
ATOM     69  C   UNL A   1      43.413  28.538  33.826  1.00  0.00     0.049 A 
ATOM     70  H   UNL A   1      41.875  29.175  32.526  1.00  0.00     0.167 HD
ATOM     71  C   UNL A   1      43.746  27.177  31.780  1.00  0.00     0.074 A 
ATOM     72  C   UNL A   1      44.433  26.165  31.004  1.00  0.00     0.031 C 
ATOM     73  C   UNL A   1      44.092  27.531  33.045  1.00  0.00     0.034 A 
BRANCH  60  74
ATOM     74  C   UNL A   1      40.439  31.909  35.502  1.00  0.00     0.023 A 
ATOM     75  C   UNL A   1      39.391  31.607  36.391  1.00  0.00     0.031 A 
ATOM     76  C   UNL A   1      41.173  33.086  35.731  1.00  0.00     0.131 A 
ATOM     77  C   UNL A   1      39.058  32.504  37.416  1.00  0.00     0.055 A 
ATOM     78  C   UNL A   1      40.893  33.932  36.808  1.00  0.00     0.041 A 
ATOM     79  F   UNL A   1      42.171  33.442  34.907  1.00  0.00    -0.206 F 
ATOM     80  C   UNL A   1      39.819  33.652  37.648  1.00  0.00     0.022 A 
BRANCH  77  81
ATOM     81  S   UNL A   1      37.525  32.226  38.345  1.00  0.00     0.124 S 
ATOM     82  O   UNL A   1      37.311  30.795  38.135  1.00  0.00    -0.237 OA
ATOM     83  O   UNL A   1      37.897  32.625  39.696  1.00  0.00    -0.237 OA
ATOM     84  O   UNL A   1      36.558  33.097  37.679  1.00  0.00    -0.744 OA
ENDBRANCH  77  81
ENDBRANCH  60  74
BRANCH  61  85
ATOM     85  C   UNL A   1      42.210  26.235  27.427  1.00  0.00     0.023 A 
ATOM     86  C   UNL A   1      41.781  24.900  27.366  1.00  0.00     0.031 A 
ATOM     87  C   UNL A   1      42.985  26.726  26.361  1.00  0.00     0.131 A 
ATOM     88  C   UNL A   1      42.187  24.082  26.300  1.00  0.00     0.055 A 
ATOM     89  C   UNL A   1      43.329  25.927  25.269  1.00  0.00     0.041 A 
ATOM     90  F   UNL A   1      43.420  27.996  26.363  1.00  0.00    -0.206 F 
ATOM     91  C   UNL A   1      42.945  24.590  25.244  1.00  0.00     0.022 A 
BRANCH  88  92
ATOM     92  S   UNL A   1      41.811  22.309  26.377  1.00  0.00     0.124 S 
ATOM     93  O   UNL A   1      42.557  21.799  25.233  1.00  0.00    -0.237 OA
ATOM     94  O   UNL A   1      42.327  21.947  27.692  1.00  0.00    -0.237 OA
ATOM     95  O   UNL A   1      40.356  22.264  26.245  1.00  0.00    -0.744 OA
ENDBRANCH  88  92
ENDBRANCH  61  85
BRANCH  73  96
ATOM     96  C   UNL A   1      45.226  26.765  33.686  1.00  0.00     0.023 A 
ATOM     97  C   UNL A   1      45.000  25.641  34.501  1.00  0.00     0.031 A 
ATOM     98  C   UNL A   1      46.554  27.191  33.507  1.00  0.00     0.131 A 
ATOM     99  C   UNL A   1      46.074  25.034  35.169  1.00  0.00     0.055 A 
ATOM    100  C   UNL A   1      47.627  26.535  34.113  1.00  0.00     0.041 A 
ATOM    101  F   UNL A   1      46.833  28.259  32.743  1.00  0.00    -0.206 F 
ATOM    102  C   UNL A   1      47.389  25.462  34.965  1.00  0.00     0.022 A 
BRANCH  99 103
ATOM    103  S   UNL A   1      45.717  23.760  36.410  1.00  0.00     0.124 S 
ATOM    104  O   UNL A   1      47.053  23.419  36.887  1.00  0.00    -0.237 OA
ATOM    105  O   UNL A   1      44.867  24.475  37.356  1.00  0.00    -0.237 OA
ATOM    106  O   UNL A   1      45.046  22.712  35.643  1.00  0.00    -0.744 OA
ENDBRANCH  99 103
ENDBRANCH  73  96
ENDBRANCH  47  48
ENDBRANCH  39  42
ENDBRANCH  37  38
ENDBRANCH   1  37
TORSDOF 17
ENDMDL
MODEL 2
REMARK VINA RESULT:     -11.6      5.599     11.672
REMARK SMILES COc1ccc([C@@H]2[C@@H](C(=O)c3cccc4c3CCCC4)[C@H](C(=O)NCCCNC(=O)c3ccc(-c4c5nc(c(-c6cc(S(=O)(=O)[O-])ccc6F)c6ccc([nH]6)c(-c6cc(S(=O)(=O)[O-])ccc6F)c6nc(c(-c7cc(S(=O)(=O)[O-])ccc7F)c7ccc4[nH]7)C=C6)C=C5)cc3)SC3=NC(=O)S[C@H]32)cc1
REMARK SMILES IDX 26 1 25 2 24 3 22 4 23 5 21 7 7 8 8 9 100 10 95 11 99 12
REMARK SMILES IDX 94 13 96 14 97 15 98 16 6 17 3 18 4 19 102 20 5 21 101 22
REMARK SMILES IDX 2 23 1 24 9 25 10 26 11 27 12 28 16 29 13 30 15 31 17 32
REMARK SMILES IDX 14 33 20 34 18 35 19 36 27 37 28 38 29 39 30 41 31 42 32 43
REMARK SMILES IDX 93 44 33 45 92 46 34 47 35 48 36 49 86 50 37 51 91 52 85 53
REMARK SMILES IDX 87 54 38 55 90 56 84 57 83 58 39 60 71 61 51 62 70 63 52 64
REMARK SMILES IDX 55 65 69 66 88 67 53 68 54 69 68 71 89 72 56 73 40 74 41 75
REMARK SMILES IDX 49 76 42 77 48 78 50 79 47 80 43 81 44 82 45 83 46 84 72 85
REMARK SMILES IDX 73 86 81 87 74 88 80 89 82 90 79 91 75 92 76 93 77 94 78 95
REMARK SMILES IDX 57 96 58 97 66 98 59 99 65 100 67 101 64 102 60 103 61 104
REMARK SMILES IDX 62 105 63 106
REMARK H PARENT 24 6 28 40 87 59 55 70
REMARK Flexibility Score: inf
ROOT
ATOM      1  C   UNL A   1      44.579  37.528  32.259  1.00  0.00     0.042 C 
ENDROOT
BRANCH   1   2
ATOM      2  C   UNL A   1      43.405  37.728  33.209  1.00  0.00     0.117 C 
BRANCH   2   3
ATOM      3  N   UNL A   1      43.678  37.233  34.551  1.00  0.00    -0.355 N 
ATOM      4  C   UNL A   1      43.182  36.168  35.249  1.00  0.00     0.234 C 
ATOM      5  O   UNL A   1      43.678  35.925  36.352  1.00  0.00    -0.274 OA
ATOM      6  H   UNL A   1      44.343  37.763  35.046  1.00  0.00     0.163 HD
BRANCH   4   7
ATOM      7  C   UNL A   1      42.073  35.264  34.685  1.00  0.00     0.153 C 
ATOM      8  C   UNL A   1      41.252  32.778  34.606  1.00  0.00     0.052 C 
ATOM      9  C   UNL A   1      42.457  33.766  34.724  1.00  0.00     0.093 C 
ATOM     10  C   UNL A   1      40.108  33.111  35.594  1.00  0.00     0.121 C 
ATOM     11  C   UNL A   1      39.501  34.458  35.338  1.00  0.00     0.093 C 
ATOM     12  S   UNL A   1      38.639  32.019  35.441  1.00  0.00    -0.052 SA
ATOM     13  S   UNL A   1      40.506  35.854  35.431  1.00  0.00    -0.095 SA
ATOM     14  N   UNL A   1      38.235  34.601  35.155  1.00  0.00    -0.200 NA
ATOM     15  C   UNL A   1      37.576  33.401  35.209  1.00  0.00     0.306 C 
ATOM     16  O   UNL A   1      36.375  33.260  35.111  1.00  0.00    -0.259 OA
BRANCH   8  17
ATOM     17  C   UNL A   1      41.672  31.323  34.851  1.00  0.00    -0.042 A 
ATOM     18  C   UNL A   1      42.301  28.602  35.260  1.00  0.00     0.118 A 
ATOM     19  C   UNL A   1      42.041  29.078  33.980  1.00  0.00     0.047 A 
ATOM     20  C   UNL A   1      42.253  29.479  36.341  1.00  0.00     0.047 A 
ATOM     21  C   UNL A   1      41.685  30.412  33.784  1.00  0.00     0.008 A 
ATOM     22  C   UNL A   1      41.952  30.832  36.136  1.00  0.00     0.008 A 
BRANCH  18  23
ATOM     23  O   UNL A   1      42.638  27.280  35.336  1.00  0.00    -0.497 OA
ATOM     24  C   UNL A   1      41.717  26.462  36.051  1.00  0.00     0.278 C 
ENDBRANCH  18  23
ENDBRANCH   8  17
BRANCH   9  25
ATOM     25  C   UNL A   1      43.649  33.542  33.725  1.00  0.00     0.168 C 
ATOM     26  O   UNL A   1      43.543  33.876  32.545  1.00  0.00    -0.294 OA
BRANCH  25  27
ATOM     27  C   UNL A   1      44.889  32.810  34.130  1.00  0.00     0.021 A 
ATOM     28  C   UNL A   1      45.238  32.810  35.467  1.00  0.00     0.012 A 
ATOM     29  C   UNL A   1      45.344  31.750  33.347  1.00  0.00    -0.034 A 
ATOM     30  C   UNL A   1      45.610  31.604  36.062  1.00  0.00     0.001 A 
ATOM     31  C   UNL A   1      45.412  30.480  33.935  1.00  0.00    -0.044 A 
ATOM     32  C   UNL A   1      46.633  32.000  32.522  1.00  0.00     0.036 C 
ATOM     33  C   UNL A   1      45.566  30.417  35.319  1.00  0.00     0.004 A 
ATOM     34  C   UNL A   1      45.550  29.287  33.026  1.00  0.00     0.036 C 
ATOM     35  C   UNL A   1      47.049  30.807  31.648  1.00  0.00     0.005 C 
ATOM     36  C   UNL A   1      45.998  29.699  31.613  1.00  0.00     0.005 C 
ENDBRANCH  25  27
ENDBRANCH   9  25
ENDBRANCH   4   7
ENDBRANCH   2   3
ENDBRANCH   1   2
BRANCH   1  37
ATOM     37  C   UNL A   1      44.320  37.992  30.832  1.00  0.00     0.118 C 
BRANCH  37  38
ATOM     38  N   UNL A   1      45.526  38.023  30.019  1.00  0.00    -0.352 N 
ATOM     39  C   UNL A   1      46.157  37.011  29.335  1.00  0.00     0.251 C 
ATOM     40  H   UNL A   1      45.957  38.906  29.947  1.00  0.00     0.163 HD
ATOM     41  O   UNL A   1      47.263  37.224  28.844  1.00  0.00    -0.269 OA
BRANCH  39  42
ATOM     42  C   UNL A   1      45.534  35.670  29.217  1.00  0.00     0.039 A 
ATOM     43  C   UNL A   1      44.618  35.444  28.186  1.00  0.00     0.014 A 
ATOM     44  C   UNL A   1      45.832  34.643  30.116  1.00  0.00     0.014 A 
ATOM     45  C   UNL A   1      44.060  34.173  28.016  1.00  0.00     0.010 A 
ATOM     46  C   UNL A   1      45.346  33.356  29.891  1.00  0.00     0.010 A 
ATOM     47  C   UNL A   1      44.450  33.106  28.842  1.00  0.00    -0.014 A 
BRANCH  47  48
ATOM     48  C   UNL A   1      43.923  31.730  28.624  1.00  0.00     0.031 A 
ATOM     49  C   UNL A   1      42.584  31.331  29.186  1.00  0.00     0.074 A 
ATOM     50  C   UNL A   1      44.667  30.829  27.951  1.00  0.00     0.049 A 
ATOM     51  N   UNL A   1      41.979  30.171  29.142  1.00  0.00    -0.248 NA
ATOM     52  C   UNL A   1      41.839  32.367  29.919  1.00  0.00     0.031 C 
ATOM     53  C   UNL A   1      45.994  31.081  27.386  1.00  0.00     0.029 A 
ATOM     54  N   UNL A   1      44.416  29.519  27.624  1.00  0.00    -0.354 N 
ATOM     55  C   UNL A   1      40.785  30.337  29.836  1.00  0.00     0.074 A 
ATOM     56  C   UNL A   1      40.791  31.687  30.359  1.00  0.00     0.031 C 
ATOM     57  C   UNL A   1      46.420  29.979  26.749  1.00  0.00     0.029 A 
ATOM     58  C   UNL A   1      45.425  28.922  26.904  1.00  0.00     0.049 A 
ATOM     59  H   UNL A   1      43.590  29.049  27.882  1.00  0.00     0.167 HD
ATOM     60  C   UNL A   1      39.762  29.459  29.998  1.00  0.00     0.034 A 
ATOM     61  C   UNL A   1      45.541  27.666  26.428  1.00  0.00     0.034 A 
ATOM     62  C   UNL A   1      39.769  28.114  29.474  1.00  0.00     0.049 A 
ATOM     63  C   UNL A   1      44.413  26.691  26.668  1.00  0.00     0.074 A 
ATOM     64  C   UNL A   1      38.781  27.148  29.565  1.00  0.00     0.029 A 
ATOM     65  N   UNL A   1      40.817  27.542  28.763  1.00  0.00    -0.354 N 
ATOM     66  N   UNL A   1      43.275  26.879  27.297  1.00  0.00    -0.248 NA
ATOM     67  C   UNL A   1      44.580  25.341  26.116  1.00  0.00     0.031 C 
ATOM     68  C   UNL A   1      39.258  25.974  28.972  1.00  0.00     0.029 A 
ATOM     69  C   UNL A   1      40.507  26.230  28.431  1.00  0.00     0.049 A 
ATOM     70  H   UNL A   1      41.657  27.999  28.529  1.00  0.00     0.167 HD
ATOM     71  C   UNL A   1      42.574  25.681  27.174  1.00  0.00     0.074 A 
ATOM     72  C   UNL A   1      43.409  24.791  26.395  1.00  0.00     0.031 C 
ATOM     73  C   UNL A   1      41.348  25.349  27.655  1.00  0.00     0.034 A 
BRANCH  60  74
ATOM     74  C   UNL A   1      38.562  29.929  30.786  1.00  0.00     0.023 A 
ATOM     75  C   UNL A   1      37.635  30.838  30.243  1.00  0.00     0.031 A 
ATOM     76  C   UNL A   1      38.347  29.484  32.102  1.00  0.00     0.131 A 
ATOM     77  C   UNL A   1      36.587  31.329  31.033  1.00  0.00     0.055 A 
ATOM     78  C   UNL A   1      37.250  29.909  32.855  1.00  0.00     0.041 A 
ATOM     79  F   UNL A   1      39.207  28.633  32.686  1.00  0.00    -0.206 F 
ATOM     80  C   UNL A   1      36.371  30.850  32.327  1.00  0.00     0.022 A 
BRANCH  77  81
ATOM     81  S   UNL A   1      35.600  32.712  30.399  1.00  0.00     0.124 S 
ATOM     82  O   UNL A   1      35.434  32.335  28.996  1.00  0.00    -0.237 OA
ATOM     83  O   UNL A   1      34.401  32.650  31.224  1.00  0.00    -0.237 OA
ATOM     84  O   UNL A   1      36.456  33.876  30.625  1.00  0.00    -0.744 OA
ENDBRANCH  77  81
ENDBRANCH  60  74
BRANCH  61  85
ATOM     85  C   UNL A   1      46.760  27.240  25.678  1.00  0.00     0.023 A 
ATOM     86  C   UNL A   1      47.017  27.727  24.386  1.00  0.00     0.031 A 
ATOM     87  C   UNL A   1      47.645  26.284  26.207  1.00  0.00     0.131 A 
ATOM     88  C   UNL A   1      48.086  27.207  23.640  1.00  0.00     0.055 A 
ATOM     89  C   UNL A   1      48.747  25.819  25.486  1.00  0.00     0.041 A 
ATOM     90  F   UNL A   1      47.452  25.785  27.438  1.00  0.00    -0.206 F 
ATOM     91  C   UNL A   1      48.961  26.267  24.187  1.00  0.00     0.022 A 
BRANCH  88  92
ATOM     92  S   UNL A   1      48.242  27.687  21.898  1.00  0.00     0.124 S 
ATOM     93  O   UNL A   1      46.957  28.334  21.654  1.00  0.00    -0.237 OA
ATOM     94  O   UNL A   1      49.406  28.565  21.929  1.00  0.00    -0.237 OA
ATOM     95  O   UNL A   1      48.441  26.413  21.211  1.00  0.00    -0.744 OA
ENDBRANCH  88  92
ENDBRANCH  61  85
BRANCH  73  96
ATOM     96  C   UNL A   1      40.815  23.982  27.290  1.00  0.00     0.023 A 
ATOM     97  C   UNL A   1      39.711  23.816  26.435  1.00  0.00     0.031 A 
ATOM     98  C   UNL A   1      41.403  22.827  27.838  1.00  0.00     0.131 A 
ATOM     99  C   UNL A   1      39.180  22.535  26.219  1.00  0.00     0.055 A 
ATOM    100  C   UNL A   1      40.918  21.549  27.557  1.00  0.00     0.041 A 
ATOM    101  F   UNL A   1      42.458  22.922  28.663  1.00  0.00    -0.206 F 
ATOM    102  C   UNL A   1      39.789  21.398  26.759  1.00  0.00     0.022 A 
BRANCH  99 103
ATOM    103  S   UNL A   1      37.607  22.385  25.328  1.00  0.00     0.124 S 
ATOM    104  O   UNL A   1      37.841  21.210  24.495  1.00  0.00    -0.237 OA
ATOM    105  O   UNL A   1      36.649  22.214  26.415  1.00  0.00    -0.237 OA
ATOM    106  O   UNL A   1      37.502  23.650  24.602  1.00  0.00    -0.744 OA
ENDBRANCH  99 103
ENDBRANCH  73  96
ENDBRANCH  47  48
ENDBRANCH  39  42
ENDBRANCH  37  38
ENDBRANCH   1  37
TORSDOF 17
ENDMDL
MODEL 3
REMARK VINA RESULT:     -11.4      6.258     13.218
REMARK SMILES COc1ccc([C@@H]2[C@@H](C(=O)c3cccc4c3CCCC4)[C@H](C(=O)NCCCNC(=O)c3ccc(-c4c5nc(c(-c6cc(S(=O)(=O)[O-])ccc6F)c6ccc([nH]6)c(-c6cc(S(=O)(=O)[O-])ccc6F)c6nc(c(-c7cc(S(=O)(=O)[O-])ccc7F)c7ccc4[nH]7)C=C6)C=C5)cc3)SC3=NC(=O)S[C@H]32)cc1
REMARK SMILES IDX 26 1 25 2 24 3 22 4 23 5 21 7 7 8 8 9 100 10 95 11 99 12
REMARK SMILES IDX 94 13 96 14 97 15 98 16 6 17 3 18 4 19 102 20 5 21 101 22
REMARK SMILES IDX 2 23 1 24 9 25 10 26 11 27 12 28 16 29 13 30 15 31 17 32
REMARK SMILES IDX 14 33 20 34 18 35 19 36 27 37 28 38 29 39 30 41 31 42 32 43
REMARK SMILES IDX 93 44 33 45 92 46 34 47 35 48 36 49 86 50 37 51 91 52 85 53
REMARK SMILES IDX 87 54 38 55 90 56 84 57 83 58 39 60 71 61 51 62 70 63 52 64
REMARK SMILES IDX 55 65 69 66 88 67 53 68 54 69 68 71 89 72 56 73 40 74 41 75
REMARK SMILES IDX 49 76 42 77 48 78 50 79 47 80 43 81 44 82 45 83 46 84 72 85
REMARK SMILES IDX 73 86 81 87 74 88 80 89 82 90 79 91 75 92 76 93 77 94 78 95
REMARK SMILES IDX 57 96 58 97 66 98 59 99 65 100 67 101 64 102 60 103 61 104
REMARK SMILES IDX 62 105 63 106
REMARK H PARENT 24 6 28 40 87 59 55 70
REMARK Flexibility Score: inf
ROOT
ATOM      1  C   UNL A   1      44.027  37.282  32.017  1.00  0.00     0.042 C 
ENDROOT
BRANCH   1   2
ATOM      2  C   UNL A   1      44.903  37.920  33.088  1.00  0.00     0.117 C 
BRANCH   2   3
ATOM      3  N   UNL A   1      45.553  36.937  33.941  1.00  0.00    -0.355 N 
ATOM      4  C   UNL A   1      45.399  36.631  35.264  1.00  0.00     0.234 C 
ATOM      5  O   UNL A   1      46.024  35.664  35.706  1.00  0.00    -0.274 OA
ATOM      6  H   UNL A   1      46.229  36.390  33.480  1.00  0.00     0.163 HD
BRANCH   4   7
ATOM      7  C   UNL A   1      44.454  37.424  36.183  1.00  0.00     0.153 C 
ATOM      8  C   UNL A   1      42.473  37.146  37.873  1.00  0.00     0.052 C 
ATOM      9  C   UNL A   1      43.220  36.598  36.614  1.00  0.00     0.093 C 
ATOM     10  C   UNL A   1      43.428  37.428  39.058  1.00  0.00     0.121 C 
ATOM     11  C   UNL A   1      44.437  38.490  38.743  1.00  0.00     0.093 C 
ATOM     12  S   UNL A   1      42.603  38.141  40.536  1.00  0.00    -0.052 SA
ATOM     13  S   UNL A   1      45.522  38.242  37.428  1.00  0.00    -0.095 SA
ATOM     14  N   UNL A   1      44.578  39.527  39.492  1.00  0.00    -0.200 NA
ATOM     15  C   UNL A   1      43.701  39.515  40.545  1.00  0.00     0.306 C 
ATOM     16  O   UNL A   1      43.654  40.351  41.422  1.00  0.00    -0.259 OA
BRANCH   8  17
ATOM     17  C   UNL A   1      41.388  36.179  38.366  1.00  0.00    -0.042 A 
ATOM     18  C   UNL A   1      39.450  34.292  39.174  1.00  0.00     0.118 A 
ATOM     19  C   UNL A   1      40.795  34.084  39.458  1.00  0.00     0.047 A 
ATOM     20  C   UNL A   1      39.065  35.443  38.491  1.00  0.00     0.047 A 
ATOM     21  C   UNL A   1      41.757  34.992  39.017  1.00  0.00     0.008 A 
ATOM     22  C   UNL A   1      40.025  36.385  38.100  1.00  0.00     0.008 A 
BRANCH  18  23
ATOM     23  O   UNL A   1      38.597  33.338  39.651  1.00  0.00    -0.497 OA
ATOM     24  C   UNL A   1      39.009  32.710  40.861  1.00  0.00     0.278 C 
ENDBRANCH  18  23
ENDBRANCH   8  17
BRANCH   9  25
ATOM     25  C   UNL A   1      42.343  36.329  35.338  1.00  0.00     0.168 C 
ATOM     26  O   UNL A   1      41.882  37.268  34.691  1.00  0.00    -0.294 OA
BRANCH  25  27
ATOM     27  C   UNL A   1      41.933  34.946  34.942  1.00  0.00     0.021 A 
ATOM     28  C   UNL A   1      42.605  33.880  35.509  1.00  0.00     0.012 A 
ATOM     29  C   UNL A   1      40.632  34.721  34.492  1.00  0.00    -0.034 A 
ATOM     30  C   UNL A   1      41.861  32.810  36.010  1.00  0.00     0.001 A 
ATOM     31  C   UNL A   1      39.824  33.845  35.228  1.00  0.00    -0.044 A 
ATOM     32  C   UNL A   1      40.463  34.423  32.980  1.00  0.00     0.036 C 
ATOM     33  C   UNL A   1      40.461  32.861  35.984  1.00  0.00     0.004 A 
ATOM     34  C   UNL A   1      38.341  33.868  34.973  1.00  0.00     0.036 C 
ATOM     35  C   UNL A   1      39.001  34.231  32.547  1.00  0.00     0.005 C 
ATOM     36  C   UNL A   1      38.004  34.578  33.650  1.00  0.00     0.005 C 
ENDBRANCH  25  27
ENDBRANCH   9  25
ENDBRANCH   4   7
ENDBRANCH   2   3
ENDBRANCH   1   2
BRANCH   1  37
ATOM     37  C   UNL A   1      44.030  38.015  30.682  1.00  0.00     0.118 C 
BRANCH  37  38
ATOM     38  N   UNL A   1      45.365  38.187  30.132  1.00  0.00    -0.352 N 
ATOM     39  C   UNL A   1      46.206  37.268  29.549  1.00  0.00     0.251 C 
ATOM     40  H   UNL A   1      45.723  39.103  30.185  1.00  0.00     0.163 HD
ATOM     41  O   UNL A   1      47.364  37.595  29.302  1.00  0.00    -0.269 OA
BRANCH  39  42
ATOM     42  C   UNL A   1      45.739  35.892  29.253  1.00  0.00     0.039 A 
ATOM     43  C   UNL A   1      46.081  34.862  30.134  1.00  0.00     0.014 A 
ATOM     44  C   UNL A   1      44.984  35.604  28.113  1.00  0.00     0.014 A 
ATOM     45  C   UNL A   1      45.606  33.567  29.910  1.00  0.00     0.010 A 
ATOM     46  C   UNL A   1      44.437  34.335  27.940  1.00  0.00     0.010 A 
ATOM     47  C   UNL A   1      44.745  33.299  28.834  1.00  0.00    -0.014 A 
BRANCH  47  48
ATOM     48  C   UNL A   1      44.169  31.940  28.627  1.00  0.00     0.031 A 
ATOM     49  C   UNL A   1      42.843  31.576  29.242  1.00  0.00     0.074 A 
ATOM     50  C   UNL A   1      44.857  31.024  27.916  1.00  0.00     0.049 A 
ATOM     51  N   UNL A   1      42.202  30.434  29.214  1.00  0.00    -0.248 NA
ATOM     52  C   UNL A   1      42.160  32.625  30.014  1.00  0.00     0.031 C 
ATOM     53  C   UNL A   1      46.166  31.243  27.297  1.00  0.00     0.029 A 
ATOM     54  N   UNL A   1      44.554  29.725  27.590  1.00  0.00    -0.354 N 
ATOM     55  C   UNL A   1      41.044  30.629  29.959  1.00  0.00     0.074 A 
ATOM     56  C   UNL A   1      41.112  31.973  30.492  1.00  0.00     0.031 C 
ATOM     57  C   UNL A   1      46.532  30.135  26.634  1.00  0.00     0.029 A 
ATOM     58  C   UNL A   1      45.514  29.106  26.823  1.00  0.00     0.049 A 
ATOM     59  H   UNL A   1      43.725  29.278  27.878  1.00  0.00     0.167 HD
ATOM     60  C   UNL A   1      40.004  29.779  30.156  1.00  0.00     0.034 A 
ATOM     61  C   UNL A   1      45.573  27.852  26.332  1.00  0.00     0.034 A 
ATOM     62  C   UNL A   1      39.949  28.439  29.622  1.00  0.00     0.049 A 
ATOM     63  C   UNL A   1      44.427  26.908  26.611  1.00  0.00     0.074 A 
ATOM     64  C   UNL A   1      38.938  27.501  29.746  1.00  0.00     0.029 A 
ATOM     65  N   UNL A   1      40.949  27.843  28.863  1.00  0.00    -0.354 N 
ATOM     66  N   UNL A   1      43.323  27.123  27.289  1.00  0.00    -0.248 NA
ATOM     67  C   UNL A   1      44.531  25.559  26.042  1.00  0.00     0.031 C 
ATOM     68  C   UNL A   1      39.354  26.320  29.125  1.00  0.00     0.029 A 
ATOM     69  C   UNL A   1      40.587  26.544  28.534  1.00  0.00     0.049 A 
ATOM     70  H   UNL A   1      41.792  28.278  28.598  1.00  0.00     0.167 HD
ATOM     71  C   UNL A   1      42.582  25.948  27.186  1.00  0.00     0.074 A 
ATOM     72  C   UNL A   1      43.357  25.040  26.366  1.00  0.00     0.031 C 
ATOM     73  C   UNL A   1      41.368  25.646  27.716  1.00  0.00     0.034 A 
BRANCH  60  74
ATOM     74  C   UNL A   1      38.853  30.277  30.999  1.00  0.00     0.023 A 
ATOM     75  C   UNL A   1      37.742  30.920  30.421  1.00  0.00     0.031 A 
ATOM     76  C   UNL A   1      38.867  30.128  32.396  1.00  0.00     0.131 A 
ATOM     77  C   UNL A   1      36.736  31.455  31.237  1.00  0.00     0.055 A 
ATOM     78  C   UNL A   1      37.818  30.585  33.198  1.00  0.00     0.041 A 
ATOM     79  F   UNL A   1      39.907  29.543  33.012  1.00  0.00    -0.206 F 
ATOM     80  C   UNL A   1      36.752  31.269  32.621  1.00  0.00     0.022 A 
BRANCH  77  81
ATOM     81  S   UNL A   1      35.486  32.529  30.478  1.00  0.00     0.124 S 
ATOM     82  O   UNL A   1      36.181  33.814  30.450  1.00  0.00    -0.237 OA
ATOM     83  O   UNL A   1      35.267  31.893  29.185  1.00  0.00    -0.237 OA
ATOM     84  O   UNL A   1      34.362  32.457  31.409  1.00  0.00    -0.744 OA
ENDBRANCH  77  81
ENDBRANCH  60  74
BRANCH  61  85
ATOM     85  C   UNL A   1      46.746  27.397  25.528  1.00  0.00     0.023 A 
ATOM     86  C   UNL A   1      46.960  27.885  24.228  1.00  0.00     0.031 A 
ATOM     87  C   UNL A   1      47.626  26.415  26.013  1.00  0.00     0.131 A 
ATOM     88  C   UNL A   1      47.981  27.341  23.435  1.00  0.00     0.055 A 
ATOM     89  C   UNL A   1      48.683  25.925  25.243  1.00  0.00     0.041 A 
ATOM     90  F   UNL A   1      47.473  25.913  27.249  1.00  0.00    -0.206 F 
ATOM     91  C   UNL A   1      48.854  26.375  23.938  1.00  0.00     0.022 A 
BRANCH  88  92
ATOM     92  S   UNL A   1      48.075  27.827  21.690  1.00  0.00     0.124 S 
ATOM     93  O   UNL A   1      49.217  28.734  21.697  1.00  0.00    -0.237 OA
ATOM     94  O   UNL A   1      48.278  26.544  21.028  1.00  0.00    -0.237 OA
ATOM     95  O   UNL A   1      46.779  28.456  21.442  1.00  0.00    -0.744 OA
ENDBRANCH  88  92
ENDBRANCH  61  85
BRANCH  73  96
ATOM     96  C   UNL A   1      40.780  24.299  27.362  1.00  0.00     0.023 A 
ATOM     97  C   UNL A   1      39.652  24.172  26.533  1.00  0.00     0.031 A 
ATOM     98  C   UNL A   1      41.340  23.124  27.897  1.00  0.00     0.131 A 
ATOM     99  C   UNL A   1      39.073  22.910  26.328  1.00  0.00     0.055 A 
ATOM    100  C   UNL A   1      40.805  21.864  27.626  1.00  0.00     0.041 A 
ATOM    101  F   UNL A   1      42.416  23.182  28.698  1.00  0.00    -0.206 F 
ATOM    102  C   UNL A   1      39.653  21.753  26.854  1.00  0.00     0.022 A 
BRANCH  99 103
ATOM    103  S   UNL A   1      37.476  22.816  25.473  1.00  0.00     0.124 S 
ATOM    104  O   UNL A   1      37.401  21.401  25.127  1.00  0.00    -0.237 OA
ATOM    105  O   UNL A   1      36.545  23.270  26.501  1.00  0.00    -0.237 OA
ATOM    106  O   UNL A   1      37.638  23.725  24.340  1.00  0.00    -0.744 OA
ENDBRANCH  99 103
ENDBRANCH  73  96
ENDBRANCH  47  48
ENDBRANCH  39  42
ENDBRANCH  37  38
ENDBRANCH   1  37
TORSDOF 17
ENDMDL
