MODEL 1
REMARK VINA RESULT:     -11.6      0.000      0.000
REMARK SMILES O=C(CCCN1C(=O)/C(=C/c2cc(Br)ccc2O)SC1=S)NCCCNC(=O)c1ccc(-c2c3nc(c(-c4cc(S(=O)(=O)[O-])ccc4F)c4ccc([nH]4)c(-c4cc(S(=O)(=O)[O-])ccc4F)c4nc(c(-c5cc(S(=O)(=O)[O-])ccc5F)c5ccc2[nH]5)C=C4)C=C3)cc1
REMARK SMILES IDX 23 1 22 2 1 3 2 4 3 6 4 7 5 8 6 9 7 10 20 11 8 12 9 13 19 14
REMARK SMILES IDX 21 15 10 16 11 17 12 18 17 19 13 20 16 21 14 22 15 23 18 24
REMARK SMILES IDX 24 26 25 27 26 28 27 29 28 31 29 32 30 33 91 34 31 35 90 36
REMARK SMILES IDX 32 37 33 38 34 39 84 40 35 41 89 42 83 43 85 44 36 45 88 46
REMARK SMILES IDX 82 47 81 48 37 50 69 51 49 52 68 53 50 54 53 55 67 56 86 57
REMARK SMILES IDX 51 58 52 59 66 61 87 62 54 63 38 64 39 65 47 66 40 67 46 68
REMARK SMILES IDX 48 69 45 70 41 71 42 72 43 73 44 74 70 75 71 76 79 77 72 78
REMARK SMILES IDX 78 79 80 80 77 81 73 82 74 83 75 84 76 85 55 86 56 87 64 88
REMARK SMILES IDX 57 89 63 90 65 91 62 92 58 93 59 94 60 95 61 96
REMARK H PARENT 22 5 18 25 26 30 85 49 53 60
REMARK Flexibility Score: inf
ROOT
ATOM      1  C   UNL A   1      31.700  30.483  26.778  1.00  0.00     0.117 C 
ENDROOT
BRANCH   1   2
ATOM      2  N   UNL A   1      31.984  30.056  25.422  1.00  0.00    -0.356 N 
ATOM      3  O   UNL A   1      34.067  29.200  25.882  1.00  0.00    -0.275 OA
ATOM      4  C   UNL A   1      33.163  29.434  25.088  1.00  0.00     0.220 C 
ATOM      5  H   UNL A   1      31.313  30.218  24.719  1.00  0.00     0.163 HD
BRANCH   4   6
ATOM      6  C   UNL A   1      33.248  29.021  23.637  1.00  0.00     0.102 C 
BRANCH   6   7
ATOM      7  C   UNL A   1      31.866  28.899  22.996  1.00  0.00     0.032 C 
BRANCH   7   8
ATOM      8  C   UNL A   1      31.419  27.476  22.624  1.00  0.00     0.128 C 
BRANCH   8   9
ATOM      9  N   UNL A   1      32.091  26.347  23.287  1.00  0.00    -0.293 N 
ATOM     10  C   UNL A   1      33.194  25.731  22.720  1.00  0.00     0.266 C 
ATOM     11  C   UNL A   1      31.803  25.958  24.586  1.00  0.00     0.148 C 
ATOM     12  O   UNL A   1      33.775  26.069  21.699  1.00  0.00    -0.268 OA
ATOM     13  C   UNL A   1      33.622  24.572  23.544  1.00  0.00     0.081 C 
ATOM     14  S   UNL A   1      32.816  24.600  25.054  1.00  0.00    -0.054 SA
ATOM     15  S   UNL A   1      30.681  26.617  25.629  1.00  0.00    -0.052 S 
ATOM     16  C   UNL A   1      34.508  23.685  23.076  1.00  0.00     0.033 C 
BRANCH  16  17
ATOM     17  C   UNL A   1      35.014  22.499  23.779  1.00  0.00     0.019 A 
ATOM     18  C   UNL A   1      34.111  21.458  24.031  1.00  0.00     0.027 A 
ATOM     19  C   UNL A   1      36.334  22.381  24.242  1.00  0.00     0.122 A 
ATOM     20  C   UNL A   1      34.533  20.315  24.710  1.00  0.00     0.018 A 
ATOM     21  C   UNL A   1      36.755  21.232  24.913  1.00  0.00     0.048 A 
ATOM     22  Br  UNL A   1      33.299  18.923  25.049  1.00  0.00    -0.051 Br
ATOM     23  C   UNL A   1      35.851  20.194  25.145  1.00  0.00     0.019 A 
BRANCH  19  24
ATOM     24  O   UNL A   1      37.211  23.415  24.053  1.00  0.00    -0.507 OA
ATOM     25  H   UNL A   1      38.116  23.309  24.272  1.00  0.00     0.293 HD
ENDBRANCH  19  24
ENDBRANCH  16  17
ENDBRANCH   8   9
ENDBRANCH   7   8
ENDBRANCH   6   7
ENDBRANCH   4   6
ENDBRANCH   1   2
BRANCH   1  26
ATOM     26  C   UNL A   1      31.413  31.976  26.875  1.00  0.00     0.042 C 
BRANCH  26  27
ATOM     27  C   UNL A   1      32.648  32.873  26.854  1.00  0.00     0.118 C 
BRANCH  27  28
ATOM     28  N   UNL A   1      32.494  34.081  27.648  1.00  0.00    -0.352 N 
ATOM     29  C   UNL A   1      33.216  34.510  28.737  1.00  0.00     0.251 C 
ATOM     30  H   UNL A   1      31.767  34.681  27.363  1.00  0.00     0.163 HD
ATOM     31  O   UNL A   1      32.842  35.496  29.365  1.00  0.00    -0.269 OA
BRANCH  29  32
ATOM     32  C   UNL A   1      34.412  33.756  29.176  1.00  0.00     0.039 A 
ATOM     33  C   UNL A   1      35.677  34.252  28.848  1.00  0.00     0.014 A 
ATOM     34  C   UNL A   1      34.292  32.578  29.917  1.00  0.00     0.014 A 
ATOM     35  C   UNL A   1      36.820  33.615  29.337  1.00  0.00     0.010 A 
ATOM     36  C   UNL A   1      35.430  31.981  30.457  1.00  0.00     0.010 A 
ATOM     37  C   UNL A   1      36.705  32.502  30.185  1.00  0.00    -0.014 A 
BRANCH  37  38
ATOM     38  C   UNL A   1      37.902  31.879  30.814  1.00  0.00     0.031 A 
ATOM     39  C   UNL A   1      38.674  30.818  30.081  1.00  0.00     0.074 A 
ATOM     40  C   UNL A   1      38.243  32.213  32.074  1.00  0.00     0.049 A 
ATOM     41  N   UNL A   1      39.660  30.069  30.505  1.00  0.00    -0.248 NA
ATOM     42  C   UNL A   1      38.260  30.542  28.697  1.00  0.00     0.031 C 
ATOM     43  C   UNL A   1      37.556  33.210  32.901  1.00  0.00     0.029 A 
ATOM     44  N   UNL A   1      39.241  31.741  32.891  1.00  0.00    -0.354 N 
ATOM     45  C   UNL A   1      39.977  29.223  29.448  1.00  0.00     0.074 A 
ATOM     46  C   UNL A   1      39.039  29.517  28.383  1.00  0.00     0.031 C 
ATOM     47  C   UNL A   1      38.161  33.282  34.098  1.00  0.00     0.029 A 
ATOM     48  C   UNL A   1      39.244  32.306  34.146  1.00  0.00     0.049 A 
ATOM     49  H   UNL A   1      39.893  31.062  32.605  1.00  0.00     0.167 HD
ATOM     50  C   UNL A   1      40.968  28.302  29.367  1.00  0.00     0.034 A 
ATOM     51  C   UNL A   1      40.016  32.051  35.222  1.00  0.00     0.034 A 
ATOM     52  C   UNL A   1      41.906  28.032  30.431  1.00  0.00     0.049 A 
ATOM     53  C   UNL A   1      41.090  30.997  35.120  1.00  0.00     0.074 A 
ATOM     54  C   UNL A   1      42.981  27.159  30.431  1.00  0.00     0.029 A 
ATOM     55  N   UNL A   1      41.879  28.626  31.686  1.00  0.00    -0.354 N 
ATOM     56  N   UNL A   1      41.397  30.230  34.101  1.00  0.00    -0.248 NA
ATOM     57  C   UNL A   1      41.921  30.779  36.312  1.00  0.00     0.031 C 
ATOM     58  C   UNL A   1      43.561  27.176  31.705  1.00  0.00     0.029 A 
ATOM     59  C   UNL A   1      42.896  28.115  32.478  1.00  0.00     0.049 A 
ATOM     60  H   UNL A   1      41.231  29.310  31.972  1.00  0.00     0.167 HD
ATOM     61  C   UNL A   1      42.481  29.462  34.519  1.00  0.00     0.074 A 
ATOM     62  C   UNL A   1      42.775  29.864  35.878  1.00  0.00     0.031 C 
ATOM     63  C   UNL A   1      43.175  28.518  33.836  1.00  0.00     0.034 A 
BRANCH  50  64
ATOM     64  C   UNL A   1      41.067  27.499  28.091  1.00  0.00     0.023 A 
ATOM     65  C   UNL A   1      40.593  26.180  28.010  1.00  0.00     0.031 A 
ATOM     66  C   UNL A   1      41.666  28.054  26.946  1.00  0.00     0.131 A 
ATOM     67  C   UNL A   1      40.794  25.433  26.839  1.00  0.00     0.055 A 
ATOM     68  C   UNL A   1      41.788  27.334  25.756  1.00  0.00     0.041 A 
ATOM     69  F   UNL A   1      42.157  29.303  26.969  1.00  0.00    -0.206 F 
ATOM     70  C   UNL A   1      41.366  26.009  25.703  1.00  0.00     0.022 A 
BRANCH  67  71
ATOM     71  S   UNL A   1      40.430  23.657  26.874  1.00  0.00     0.124 S 
ATOM     72  O   UNL A   1      39.075  23.625  26.329  1.00  0.00    -0.237 OA
ATOM     73  O   UNL A   1      41.475  23.104  26.023  1.00  0.00    -0.237 OA
ATOM     74  O   UNL A   1      40.531  23.315  28.292  1.00  0.00    -0.744 OA
ENDBRANCH  67  71
ENDBRANCH  50  64
BRANCH  51  75
ATOM     75  C   UNL A   1      39.793  32.787  36.500  1.00  0.00     0.023 A 
ATOM     76  C   UNL A   1      38.899  32.300  37.467  1.00  0.00     0.031 A 
ATOM     77  C   UNL A   1      40.439  34.011  36.754  1.00  0.00     0.131 A 
ATOM     78  C   UNL A   1      38.642  33.054  38.623  1.00  0.00     0.055 A 
ATOM     79  C   UNL A   1      40.219  34.730  37.931  1.00  0.00     0.041 A 
ATOM     80  F   UNL A   1      41.306  34.518  35.864  1.00  0.00    -0.206 F 
ATOM     81  C   UNL A   1      39.306  34.259  38.868  1.00  0.00     0.022 A 
BRANCH  78  82
ATOM     82  S   UNL A   1      37.360  32.475  39.768  1.00  0.00     0.124 S 
ATOM     83  O   UNL A   1      38.034  31.364  40.431  1.00  0.00    -0.237 OA
ATOM     84  O   UNL A   1      37.125  33.662  40.583  1.00  0.00    -0.237 OA
ATOM     85  O   UNL A   1      36.258  32.100  38.885  1.00  0.00    -0.744 OA
ENDBRANCH  78  82
ENDBRANCH  51  75
BRANCH  63  86
ATOM     86  C   UNL A   1      44.355  27.891  34.535  1.00  0.00     0.023 A 
ATOM     87  C   UNL A   1      44.245  26.677  35.235  1.00  0.00     0.031 A 
ATOM     88  C   UNL A   1      45.613  28.520  34.493  1.00  0.00     0.131 A 
ATOM     89  C   UNL A   1      45.363  26.150  35.900  1.00  0.00     0.055 A 
ATOM     90  C   UNL A   1      46.733  27.965  35.112  1.00  0.00     0.041 A 
ATOM     91  F   UNL A   1      45.773  29.682  33.839  1.00  0.00    -0.206 F 
ATOM     92  C   UNL A   1      46.610  26.778  35.829  1.00  0.00     0.022 A 
BRANCH  89  93
ATOM     93  S   UNL A   1      45.153  24.664  36.917  1.00  0.00     0.124 S 
ATOM     94  O   UNL A   1      44.526  25.204  38.118  1.00  0.00    -0.237 OA
ATOM     95  O   UNL A   1      44.303  23.827  36.076  1.00  0.00    -0.237 OA
ATOM     96  O   UNL A   1      46.519  24.174  37.096  1.00  0.00    -0.744 OA
ENDBRANCH  89  93
ENDBRANCH  63  86
ENDBRANCH  37  38
ENDBRANCH  29  32
ENDBRANCH  27  28
ENDBRANCH  26  27
ENDBRANCH   1  26
TORSDOF 18
ENDMDL
MODEL 2
REMARK VINA RESULT:     -11.5      1.397      1.584
REMARK SMILES O=C(CCCN1C(=O)/C(=C/c2cc(Br)ccc2O)SC1=S)NCCCNC(=O)c1ccc(-c2c3nc(c(-c4cc(S(=O)(=O)[O-])ccc4F)c4ccc([nH]4)c(-c4cc(S(=O)(=O)[O-])ccc4F)c4nc(c(-c5cc(S(=O)(=O)[O-])ccc5F)c5ccc2[nH]5)C=C4)C=C3)cc1
REMARK SMILES IDX 23 1 22 2 1 3 2 4 3 6 4 7 5 8 6 9 7 10 20 11 8 12 9 13 19 14
REMARK SMILES IDX 21 15 10 16 11 17 12 18 17 19 13 20 16 21 14 22 15 23 18 24
REMARK SMILES IDX 24 26 25 27 26 28 27 29 28 31 29 32 30 33 91 34 31 35 90 36
REMARK SMILES IDX 32 37 33 38 34 39 84 40 35 41 89 42 83 43 85 44 36 45 88 46
REMARK SMILES IDX 82 47 81 48 37 50 69 51 49 52 68 53 50 54 53 55 67 56 86 57
REMARK SMILES IDX 51 58 52 59 66 61 87 62 54 63 38 64 39 65 47 66 40 67 46 68
REMARK SMILES IDX 48 69 45 70 41 71 42 72 43 73 44 74 70 75 71 76 79 77 72 78
REMARK SMILES IDX 78 79 80 80 77 81 73 82 74 83 75 84 76 85 55 86 56 87 64 88
REMARK SMILES IDX 57 89 63 90 65 91 62 92 58 93 59 94 60 95 61 96
REMARK H PARENT 22 5 18 25 26 30 85 49 53 60
REMARK Flexibility Score: inf
ROOT
ATOM      1  C   UNL A   1      31.779  30.390  26.569  1.00  0.00     0.117 C 
ENDROOT
BRANCH   1   2
ATOM      2  N   UNL A   1      31.918  30.110  25.153  1.00  0.00    -0.356 N 
ATOM      3  O   UNL A   1      33.724  28.704  25.374  1.00  0.00    -0.275 OA
ATOM      4  C   UNL A   1      32.894  29.270  24.672  1.00  0.00     0.220 C 
ATOM      5  H   UNL A   1      31.296  30.535  24.518  1.00  0.00     0.163 HD
BRANCH   4   6
ATOM      6  C   UNL A   1      32.842  29.067  23.175  1.00  0.00     0.102 C 
BRANCH   6   7
ATOM      7  C   UNL A   1      31.426  28.758  22.688  1.00  0.00     0.032 C 
BRANCH   7   8
ATOM      8  C   UNL A   1      31.182  27.322  22.197  1.00  0.00     0.128 C 
BRANCH   8   9
ATOM      9  N   UNL A   1      31.839  26.224  22.922  1.00  0.00    -0.293 N 
ATOM     10  C   UNL A   1      33.015  25.657  22.459  1.00  0.00     0.266 C 
ATOM     11  C   UNL A   1      31.452  25.821  24.190  1.00  0.00     0.148 C 
ATOM     12  O   UNL A   1      33.671  26.021  21.494  1.00  0.00    -0.268 OA
ATOM     13  C   UNL A   1      33.417  24.518  23.323  1.00  0.00     0.081 C 
ATOM     14  S   UNL A   1      32.476  24.508  24.753  1.00  0.00    -0.054 SA
ATOM     15  S   UNL A   1      30.211  26.429  25.125  1.00  0.00    -0.052 S 
ATOM     16  C   UNL A   1      34.380  23.671  22.940  1.00  0.00     0.033 C 
BRANCH  16  17
ATOM     17  C   UNL A   1      34.872  22.508  23.690  1.00  0.00     0.019 A 
ATOM     18  C   UNL A   1      33.940  21.525  24.050  1.00  0.00     0.027 A 
ATOM     19  C   UNL A   1      36.207  22.360  24.094  1.00  0.00     0.122 A 
ATOM     20  C   UNL A   1      34.349  20.407  24.777  1.00  0.00     0.018 A 
ATOM     21  C   UNL A   1      36.615  21.235  24.814  1.00  0.00     0.048 A 
ATOM     22  Br  UNL A   1      33.076  19.095  25.261  1.00  0.00    -0.051 Br
ATOM     23  C   UNL A   1      35.680  20.254  25.154  1.00  0.00     0.019 A 
BRANCH  19  24
ATOM     24  O   UNL A   1      37.116  23.340  23.799  1.00  0.00    -0.507 OA
ATOM     25  H   UNL A   1      37.866  23.465  24.347  1.00  0.00     0.293 HD
ENDBRANCH  19  24
ENDBRANCH  16  17
ENDBRANCH   8   9
ENDBRANCH   7   8
ENDBRANCH   6   7
ENDBRANCH   4   6
ENDBRANCH   1   2
BRANCH   1  26
ATOM     26  C   UNL A   1      31.520  31.864  26.853  1.00  0.00     0.042 C 
BRANCH  26  27
ATOM     27  C   UNL A   1      32.773  32.727  26.971  1.00  0.00     0.118 C 
BRANCH  27  28
ATOM     28  N   UNL A   1      32.551  33.967  27.698  1.00  0.00    -0.352 N 
ATOM     29  C   UNL A   1      33.211  34.469  28.794  1.00  0.00     0.251 C 
ATOM     30  H   UNL A   1      31.820  34.530  27.353  1.00  0.00     0.163 HD
ATOM     31  O   UNL A   1      32.782  35.472  29.356  1.00  0.00    -0.269 OA
BRANCH  29  32
ATOM     32  C   UNL A   1      34.406  33.773  29.321  1.00  0.00     0.039 A 
ATOM     33  C   UNL A   1      35.672  34.272  28.997  1.00  0.00     0.014 A 
ATOM     34  C   UNL A   1      34.286  32.648  30.140  1.00  0.00     0.014 A 
ATOM     35  C   UNL A   1      36.811  33.695  29.563  1.00  0.00     0.010 A 
ATOM     36  C   UNL A   1      35.418  32.115  30.755  1.00  0.00     0.010 A 
ATOM     37  C   UNL A   1      36.691  32.642  30.484  1.00  0.00    -0.014 A 
BRANCH  37  38
ATOM     38  C   UNL A   1      37.879  32.091  31.192  1.00  0.00     0.031 A 
ATOM     39  C   UNL A   1      38.675  30.975  30.574  1.00  0.00     0.074 A 
ATOM     40  C   UNL A   1      38.191  32.541  32.423  1.00  0.00     0.049 A 
ATOM     41  N   UNL A   1      39.657  30.277  31.084  1.00  0.00    -0.248 NA
ATOM     42  C   UNL A   1      38.292  30.571  29.213  1.00  0.00     0.031 C 
ATOM     43  C   UNL A   1      37.480  33.602  33.141  1.00  0.00     0.029 A 
ATOM     44  N   UNL A   1      39.176  32.155  33.298  1.00  0.00    -0.354 N 
ATOM     45  C   UNL A   1      40.003  29.342  30.115  1.00  0.00     0.074 A 
ATOM     46  C   UNL A   1      39.085  29.529  29.009  1.00  0.00     0.031 C 
ATOM     47  C   UNL A   1      38.059  33.789  34.338  1.00  0.00     0.029 A 
ATOM     48  C   UNL A   1      39.148  32.831  34.497  1.00  0.00     0.049 A 
ATOM     49  H   UNL A   1      39.839  31.458  33.089  1.00  0.00     0.167 HD
ATOM     50  C   UNL A   1      41.003  28.427  30.137  1.00  0.00     0.034 A 
ATOM     51  C   UNL A   1      39.899  32.683  35.607  1.00  0.00     0.034 A 
ATOM     52  C   UNL A   1      41.920  28.263  31.240  1.00  0.00     0.049 A 
ATOM     53  C   UNL A   1      40.983  31.634  35.623  1.00  0.00     0.074 A 
ATOM     54  C   UNL A   1      43.001  27.405  31.342  1.00  0.00     0.029 A 
ATOM     55  N   UNL A   1      41.862  28.969  32.435  1.00  0.00    -0.354 N 
ATOM     56  N   UNL A   1      41.318  30.780  34.684  1.00  0.00    -0.248 NA
ATOM     57  C   UNL A   1      41.791  31.533  36.846  1.00  0.00     0.031 C 
ATOM     58  C   UNL A   1      43.555  27.543  32.619  1.00  0.00     0.029 A 
ATOM     59  C   UNL A   1      42.867  28.541  33.291  1.00  0.00     0.049 A 
ATOM     60  H   UNL A   1      41.204  29.670  32.645  1.00  0.00     0.167 HD
ATOM     61  C   UNL A   1      42.399  30.064  35.192  1.00  0.00     0.074 A 
ATOM     62  C   UNL A   1      42.661  30.591  36.515  1.00  0.00     0.031 C 
ATOM     63  C   UNL A   1      43.114  29.068  34.611  1.00  0.00     0.034 A 
BRANCH  50  64
ATOM     64  C   UNL A   1      41.135  27.513  28.942  1.00  0.00     0.023 A 
ATOM     65  C   UNL A   1      42.142  27.695  27.980  1.00  0.00     0.031 A 
ATOM     66  C   UNL A   1      40.226  26.457  28.749  1.00  0.00     0.131 A 
ATOM     67  C   UNL A   1      42.170  26.889  26.832  1.00  0.00     0.055 A 
ATOM     68  C   UNL A   1      40.309  25.604  27.647  1.00  0.00     0.041 A 
ATOM     69  F   UNL A   1      39.229  26.245  29.624  1.00  0.00    -0.206 F 
ATOM     70  C   UNL A   1      41.276  25.828  26.672  1.00  0.00     0.022 A 
BRANCH  67  71
ATOM     71  S   UNL A   1      43.299  27.340  25.487  1.00  0.00     0.124 S 
ATOM     72  O   UNL A   1      42.407  28.071  24.589  1.00  0.00    -0.237 OA
ATOM     73  O   UNL A   1      44.307  28.136  26.174  1.00  0.00    -0.237 OA
ATOM     74  O   UNL A   1      43.759  26.049  24.979  1.00  0.00    -0.744 OA
ENDBRANCH  67  71
ENDBRANCH  50  64
BRANCH  51  75
ATOM     75  C   UNL A   1      39.644  33.529  36.808  1.00  0.00     0.023 A 
ATOM     76  C   UNL A   1      39.089  32.979  37.974  1.00  0.00     0.031 A 
ATOM     77  C   UNL A   1      39.911  34.910  36.792  1.00  0.00     0.131 A 
ATOM     78  C   UNL A   1      38.779  33.812  39.061  1.00  0.00     0.055 A 
ATOM     79  C   UNL A   1      39.650  35.725  37.895  1.00  0.00     0.041 A 
ATOM     80  F   UNL A   1      40.445  35.485  35.703  1.00  0.00    -0.206 F 
ATOM     81  C   UNL A   1      39.067  35.179  39.034  1.00  0.00     0.022 A 
BRANCH  78  82
ATOM     82  S   UNL A   1      37.913  33.095  40.484  1.00  0.00     0.124 S 
ATOM     83  O   UNL A   1      38.438  31.734  40.496  1.00  0.00    -0.237 OA
ATOM     84  O   UNL A   1      38.351  33.963  41.572  1.00  0.00    -0.237 OA
ATOM     85  O   UNL A   1      36.503  33.217  40.121  1.00  0.00    -0.744 OA
ENDBRANCH  78  82
ENDBRANCH  51  75
BRANCH  63  86
ATOM     86  C   UNL A   1      44.284  28.519  35.389  1.00  0.00     0.023 A 
ATOM     87  C   UNL A   1      44.128  27.501  36.345  1.00  0.00     0.031 A 
ATOM     88  C   UNL A   1      45.578  29.022  35.160  1.00  0.00     0.131 A 
ATOM     89  C   UNL A   1      45.242  27.047  37.068  1.00  0.00     0.055 A 
ATOM     90  C   UNL A   1      46.689  28.530  35.845  1.00  0.00     0.041 A 
ATOM     91  F   UNL A   1      45.782  29.996  34.259  1.00  0.00    -0.206 F 
ATOM     92  C   UNL A   1      46.523  27.543  36.813  1.00  0.00     0.022 A 
BRANCH  89  93
ATOM     93  S   UNL A   1      44.985  25.840  38.398  1.00  0.00     0.124 S 
ATOM     94  O   UNL A   1      44.612  26.699  39.518  1.00  0.00    -0.237 OA
ATOM     95  O   UNL A   1      43.921  25.000  37.857  1.00  0.00    -0.237 OA
ATOM     96  O   UNL A   1      46.286  25.186  38.524  1.00  0.00    -0.744 OA
ENDBRANCH  89  93
ENDBRANCH  63  86
ENDBRANCH  37  38
ENDBRANCH  29  32
ENDBRANCH  27  28
ENDBRANCH  26  27
ENDBRANCH   1  26
TORSDOF 18
ENDMDL
MODEL 3
REMARK VINA RESULT:     -10.9      2.179      2.807
REMARK SMILES O=C(CCCN1C(=O)/C(=C/c2cc(Br)ccc2O)SC1=S)NCCCNC(=O)c1ccc(-c2c3nc(c(-c4cc(S(=O)(=O)[O-])ccc4F)c4ccc([nH]4)c(-c4cc(S(=O)(=O)[O-])ccc4F)c4nc(c(-c5cc(S(=O)(=O)[O-])ccc5F)c5ccc2[nH]5)C=C4)C=C3)cc1
REMARK SMILES IDX 23 1 22 2 1 3 2 4 3 6 4 7 5 8 6 9 7 10 20 11 8 12 9 13 19 14
REMARK SMILES IDX 21 15 10 16 11 17 12 18 17 19 13 20 16 21 14 22 15 23 18 24
REMARK SMILES IDX 24 26 25 27 26 28 27 29 28 31 29 32 30 33 91 34 31 35 90 36
REMARK SMILES IDX 32 37 33 38 34 39 84 40 35 41 89 42 83 43 85 44 36 45 88 46
REMARK SMILES IDX 82 47 81 48 37 50 69 51 49 52 68 53 50 54 53 55 67 56 86 57
REMARK SMILES IDX 51 58 52 59 66 61 87 62 54 63 38 64 39 65 47 66 40 67 46 68
REMARK SMILES IDX 48 69 45 70 41 71 42 72 43 73 44 74 70 75 71 76 79 77 72 78
REMARK SMILES IDX 78 79 80 80 77 81 73 82 74 83 75 84 76 85 55 86 56 87 64 88
REMARK SMILES IDX 57 89 63 90 65 91 62 92 58 93 59 94 60 95 61 96
REMARK H PARENT 22 5 18 25 26 30 85 49 53 60
REMARK Flexibility Score: inf
ROOT
ATOM      1  C   UNL A   1      32.154  27.978  26.913  1.00  0.00     0.117 C 
ENDROOT
BRANCH   1   2
ATOM      2  N   UNL A   1      31.078  27.392  26.138  1.00  0.00    -0.356 N 
ATOM      3  O   UNL A   1      31.370  25.251  26.923  1.00  0.00    -0.275 OA
ATOM      4  C   UNL A   1      30.771  26.055  26.218  1.00  0.00     0.220 C 
ATOM      5  H   UNL A   1      30.554  27.968  25.536  1.00  0.00     0.163 HD
BRANCH   4   6
ATOM      6  C   UNL A   1      29.586  25.648  25.372  1.00  0.00     0.102 C 
BRANCH   6   7
ATOM      7  C   UNL A   1      29.891  25.742  23.877  1.00  0.00     0.032 C 
BRANCH   7   8
ATOM      8  C   UNL A   1      30.394  24.452  23.210  1.00  0.00     0.128 C 
BRANCH   8   9
ATOM      9  N   UNL A   1      31.807  24.086  23.396  1.00  0.00    -0.293 N 
ATOM     10  C   UNL A   1      32.189  23.132  24.325  1.00  0.00     0.266 C 
ATOM     11  C   UNL A   1      32.812  24.510  22.541  1.00  0.00     0.148 C 
ATOM     12  O   UNL A   1      31.448  22.448  25.015  1.00  0.00    -0.268 OA
ATOM     13  C   UNL A   1      33.668  23.018  24.372  1.00  0.00     0.081 C 
ATOM     14  S   UNL A   1      34.363  23.857  23.052  1.00  0.00    -0.054 SA
ATOM     15  S   UNL A   1      32.672  25.492  21.200  1.00  0.00    -0.052 S 
ATOM     16  C   UNL A   1      34.275  22.341  25.354  1.00  0.00     0.033 C 
BRANCH  16  17
ATOM     17  C   UNL A   1      35.721  22.151  25.524  1.00  0.00     0.019 A 
ATOM     18  C   UNL A   1      36.481  23.260  25.918  1.00  0.00     0.027 A 
ATOM     19  C   UNL A   1      36.374  20.935  25.270  1.00  0.00     0.122 A 
ATOM     20  C   UNL A   1      37.861  23.141  26.078  1.00  0.00     0.018 A 
ATOM     21  C   UNL A   1      37.755  20.817  25.440  1.00  0.00     0.048 A 
ATOM     22  Br  UNL A   1      38.872  24.650  26.602  1.00  0.00    -0.051 Br
ATOM     23  C   UNL A   1      38.500  21.925  25.848  1.00  0.00     0.019 A 
BRANCH  19  24
ATOM     24  O   UNL A   1      35.652  19.859  24.829  1.00  0.00    -0.507 OA
ATOM     25  H   UNL A   1      35.008  19.970  24.157  1.00  0.00     0.293 HD
ENDBRANCH  19  24
ENDBRANCH  16  17
ENDBRANCH   8   9
ENDBRANCH   7   8
ENDBRANCH   6   7
ENDBRANCH   4   6
ENDBRANCH   1   2
BRANCH   1  26
ATOM     26  C   UNL A   1      33.507  27.858  26.224  1.00  0.00     0.042 C 
BRANCH  26  27
ATOM     27  C   UNL A   1      34.020  29.145  25.584  1.00  0.00     0.118 C 
BRANCH  27  28
ATOM     28  N   UNL A   1      33.264  30.323  25.978  1.00  0.00    -0.352 N 
ATOM     29  C   UNL A   1      33.494  31.206  27.007  1.00  0.00     0.251 C 
ATOM     30  H   UNL A   1      32.473  30.518  25.427  1.00  0.00     0.163 HD
ATOM     31  O   UNL A   1      32.658  32.064  27.270  1.00  0.00    -0.269 OA
BRANCH  29  32
ATOM     32  C   UNL A   1      34.723  31.088  27.823  1.00  0.00     0.039 A 
ATOM     33  C   UNL A   1      34.897  29.949  28.616  1.00  0.00     0.014 A 
ATOM     34  C   UNL A   1      35.706  32.081  27.799  1.00  0.00     0.014 A 
ATOM     35  C   UNL A   1      36.093  29.766  29.315  1.00  0.00     0.010 A 
ATOM     36  C   UNL A   1      36.923  31.866  28.443  1.00  0.00     0.010 A 
ATOM     37  C   UNL A   1      37.135  30.700  29.197  1.00  0.00    -0.014 A 
BRANCH  37  38
ATOM     38  C   UNL A   1      38.460  30.469  29.834  1.00  0.00     0.031 A 
ATOM     39  C   UNL A   1      39.475  29.584  29.166  1.00  0.00     0.074 A 
ATOM     40  C   UNL A   1      38.716  30.991  31.049  1.00  0.00     0.049 A 
ATOM     41  N   UNL A   1      40.627  29.159  29.616  1.00  0.00    -0.248 NA
ATOM     42  C   UNL A   1      39.131  29.088  27.824  1.00  0.00     0.031 C 
ATOM     43  C   UNL A   1      37.802  31.844  31.814  1.00  0.00     0.029 A 
ATOM     44  N   UNL A   1      39.812  30.870  31.867  1.00  0.00    -0.354 N 
ATOM     45  C   UNL A   1      41.143  28.334  28.623  1.00  0.00     0.074 A 
ATOM     46  C   UNL A   1      40.148  28.277  27.570  1.00  0.00     0.031 C 
ATOM     47  C   UNL A   1      38.380  32.178  32.978  1.00  0.00     0.029 A 
ATOM     48  C   UNL A   1      39.682  31.526  33.071  1.00  0.00     0.049 A 
ATOM     49  H   UNL A   1      40.617  30.361  31.616  1.00  0.00     0.167 HD
ATOM     50  C   UNL A   1      42.340  27.698  28.584  1.00  0.00     0.034 A 
ATOM     51  C   UNL A   1      40.506  31.578  34.137  1.00  0.00     0.034 A 
ATOM     52  C   UNL A   1      43.328  27.778  29.633  1.00  0.00     0.049 A 
ATOM     53  C   UNL A   1      41.817  30.835  34.086  1.00  0.00     0.074 A 
ATOM     54  C   UNL A   1      44.594  27.219  29.669  1.00  0.00     0.029 A 
ATOM     55  N   UNL A   1      43.161  28.454  30.835  1.00  0.00    -0.354 N 
ATOM     56  N   UNL A   1      42.303  30.086  33.123  1.00  0.00    -0.248 NA
ATOM     57  C   UNL A   1      42.690  30.947  35.261  1.00  0.00     0.031 C 
ATOM     58  C   UNL A   1      45.164  27.500  30.916  1.00  0.00     0.029 A 
ATOM     59  C   UNL A   1      44.286  28.298  31.631  1.00  0.00     0.049 A 
ATOM     60  H   UNL A   1      42.360  28.969  31.086  1.00  0.00     0.167 HD
ATOM     61  C   UNL A   1      43.556  29.667  33.566  1.00  0.00     0.074 A 
ATOM     62  C   UNL A   1      43.750  30.252  34.877  1.00  0.00     0.031 C 
ATOM     63  C   UNL A   1      44.465  28.879  32.940  1.00  0.00     0.034 A 
BRANCH  50  64
ATOM     64  C   UNL A   1      42.632  26.839  27.376  1.00  0.00     0.023 A 
ATOM     65  C   UNL A   1      42.438  25.448  27.396  1.00  0.00     0.031 A 
ATOM     66  C   UNL A   1      43.132  27.416  26.196  1.00  0.00     0.131 A 
ATOM     67  C   UNL A   1      42.815  24.671  26.290  1.00  0.00     0.055 A 
ATOM     68  C   UNL A   1      43.427  26.648  25.067  1.00  0.00     0.041 A 
ATOM     69  F   UNL A   1      43.358  28.737  26.123  1.00  0.00    -0.206 F 
ATOM     70  C   UNL A   1      43.285  25.265  25.116  1.00  0.00     0.022 A 
BRANCH  67  71
ATOM     71  S   UNL A   1      42.820  22.866  26.462  1.00  0.00     0.124 S 
ATOM     72  O   UNL A   1      41.684  22.654  27.356  1.00  0.00    -0.237 OA
ATOM     73  O   UNL A   1      42.645  22.417  25.087  1.00  0.00    -0.237 OA
ATOM     74  O   UNL A   1      44.127  22.583  27.051  1.00  0.00    -0.744 OA
ENDBRANCH  67  71
ENDBRANCH  50  64
BRANCH  51  75
ATOM     75  C   UNL A   1      40.112  32.341  35.356  1.00  0.00     0.023 A 
ATOM     76  C   UNL A   1      39.204  31.805  36.281  1.00  0.00     0.031 A 
ATOM     77  C   UNL A   1      40.608  33.636  35.592  1.00  0.00     0.131 A 
ATOM     78  C   UNL A   1      38.784  32.577  37.376  1.00  0.00     0.055 A 
ATOM     79  C   UNL A   1      40.228  34.379  36.711  1.00  0.00     0.041 A 
ATOM     80  F   UNL A   1      41.483  34.193  34.740  1.00  0.00    -0.206 F 
ATOM     81  C   UNL A   1      39.299  33.855  37.604  1.00  0.00     0.022 A 
BRANCH  78  82
ATOM     82  S   UNL A   1      37.486  31.916  38.456  1.00  0.00     0.124 S 
ATOM     83  O   UNL A   1      36.356  32.777  38.123  1.00  0.00    -0.237 OA
ATOM     84  O   UNL A   1      37.393  30.532  38.006  1.00  0.00    -0.237 OA
ATOM     85  O   UNL A   1      38.034  32.097  39.799  1.00  0.00    -0.744 OA
ENDBRANCH  78  82
ENDBRANCH  51  75
BRANCH  63  86
ATOM     86  C   UNL A   1      45.776  28.646  33.648  1.00  0.00     0.023 A 
ATOM     87  C   UNL A   1      45.975  27.546  34.500  1.00  0.00     0.031 A 
ATOM     88  C   UNL A   1      46.846  29.540  33.459  1.00  0.00     0.131 A 
ATOM     89  C   UNL A   1      47.201  27.390  35.164  1.00  0.00     0.055 A 
ATOM     90  C   UNL A   1      48.080  29.351  34.081  1.00  0.00     0.041 A 
ATOM     91  F   UNL A   1      46.709  30.607  32.656  1.00  0.00    -0.206 F 
ATOM     92  C   UNL A   1      48.260  28.277  34.948  1.00  0.00     0.022 A 
BRANCH  89  93
ATOM     93  S   UNL A   1      47.376  26.047  36.371  1.00  0.00     0.124 S 
ATOM     94  O   UNL A   1      46.024  25.946  36.910  1.00  0.00    -0.237 OA
ATOM     95  O   UNL A   1      47.814  24.932  35.536  1.00  0.00    -0.237 OA
ATOM     96  O   UNL A   1      48.380  26.553  37.305  1.00  0.00    -0.744 OA
ENDBRANCH  89  93
ENDBRANCH  63  86
ENDBRANCH  37  38
ENDBRANCH  29  32
ENDBRANCH  27  28
ENDBRANCH  26  27
ENDBRANCH   1  26
TORSDOF 18
ENDMDL
