MODEL 1
REMARK VINA RESULT:     -16.5      0.000      0.000
REMARK SMILES CC(C)[C@H]1C(=O)Nc2ccccc2N1C(=O)N[C@H](Cc1ccccc1)C(=O)NCCCNC(=O)c1ccc(-c2c3nc(c(-c4cc(S(=O)(=O)[O-])ccc4F)c4ccc([nH]4)c(-c4cc(S(=O)(=O)[O-])ccc4F)c4nc(c(-c5cc(S(=O)(=O)[O-])ccc5F)c5ccc2[nH]5)C=C4)C=C3)cc1
REMARK SMILES IDX 30 1 29 2 28 3 26 4 27 5 18 7 17 8 15 9 16 10 14 12 4 13
REMARK SMILES IDX 5 14 6 15 7 16 13 17 8 18 12 20 9 21 11 22 10 23 2 24 1 25
REMARK SMILES IDX 3 26 19 27 20 28 21 29 25 30 22 31 24 32 23 33 31 34 32 35
REMARK SMILES IDX 33 36 34 38 35 39 36 40 97 41 37 42 96 43 38 44 39 45 40 46
REMARK SMILES IDX 90 47 41 48 95 49 89 50 91 51 42 52 94 53 88 54 87 55 43 57
REMARK SMILES IDX 75 58 55 59 74 60 56 61 59 62 73 63 92 64 57 65 58 66 72 68
REMARK SMILES IDX 93 69 60 70 44 71 45 72 53 73 46 74 52 75 54 76 51 77 47 78
REMARK SMILES IDX 48 79 49 80 50 81 76 82 77 83 85 84 78 85 84 86 86 87 83 88
REMARK SMILES IDX 79 89 80 90 81 91 82 92 61 93 62 94 70 95 63 96 69 97 71 98
REMARK SMILES IDX 68 99 64 100 65 101 66 102 67 103
REMARK H PARENT 28 6 17 11 7 19 32 37 91 56 59 67
REMARK Flexibility Score: inf
ROOT
ATOM      1  C   UNL A   1      32.949  31.099  27.132  1.00  0.00     0.042 C 
ENDROOT
BRANCH   1   2
ATOM      2  C   UNL A   1      32.120  29.123  27.286  1.00  0.00     0.117 C 
BRANCH   2   3
ATOM      3  N   UNL A   1      31.167  28.149  26.017  1.00  0.00    -0.354 N 
ATOM      4  C   UNL A   1      31.416  26.897  25.056  1.00  0.00     0.242 C 
ATOM      5  O   UNL A   1      30.400  26.351  24.602  1.00  0.00    -0.273 OA
ATOM      6  H   UNL A   1      30.256  28.504  25.908  1.00  0.00     0.163 HD
BRANCH   4   7
ATOM      7  C   UNL A   1      33.128  26.383  24.365  1.00  0.00     0.177 C 
BRANCH   7   8
ATOM      8  N   UNL A   1      33.429  25.444  22.791  1.00  0.00    -0.326 N 
ATOM      9  C   UNL A   1      33.654  23.844  22.327  1.00  0.00     0.323 C 
ATOM     10  O   UNL A   1      33.402  23.532  21.164  1.00  0.00    -0.248 OA
ATOM     11  H   UNL A   1      33.467  26.049  22.016  1.00  0.00     0.166 HD
BRANCH   9  12
ATOM     12  N   UNL A   1      33.916  22.746  23.531  1.00  0.00    -0.280 N 
ATOM     13  C   UNL A   1      32.556  21.659  24.108  1.00  0.00     0.184 C 
ATOM     14  C   UNL A   1      32.862  19.883  24.960  1.00  0.00     0.247 C 
ATOM     15  O   UNL A   1      31.988  19.079  25.314  1.00  0.00    -0.272 OA
ATOM     16  N   UNL A   1      34.609  19.583  25.279  1.00  0.00    -0.322 N 
ATOM     17  C   UNL A   1      35.550  22.244  23.994  1.00  0.00     0.070 A 
ATOM     18  C   UNL A   1      35.897  20.743  24.802  1.00  0.00     0.065 A 
ATOM     19  H   UNL A   1      34.869  18.750  25.734  1.00  0.00     0.170 HD
ATOM     20  C   UNL A   1      36.584  23.127  23.818  1.00  0.00     0.028 A 
ATOM     21  C   UNL A   1      37.116  20.568  25.412  1.00  0.00     0.028 A 
ATOM     22  C   UNL A   1      37.792  22.804  24.472  1.00  0.00     0.002 A 
ATOM     23  C   UNL A   1      38.025  21.624  25.265  1.00  0.00     0.002 A 
BRANCH  13  24
ATOM     24  C   UNL A   1      32.077  21.933  22.784  1.00  0.00     0.015 C 
ATOM     25  C   UNL A   1      32.072  20.314  22.217  1.00  0.00     0.010 C 
ATOM     26  C   UNL A   1      30.579  23.297  22.925  1.00  0.00     0.010 C 
ENDBRANCH  13  24
ENDBRANCH   9  12
ENDBRANCH   7   8
BRANCH   7  27
ATOM     27  C   UNL A   1      33.905  25.859  25.631  1.00  0.00     0.070 C 
BRANCH  27  28
ATOM     28  C   UNL A   1      33.585  24.551  26.302  1.00  0.00    -0.045 A 
ATOM     29  C   UNL A   1      32.231  24.236  26.543  1.00  0.00     0.004 A 
ATOM     30  C   UNL A   1      34.572  23.701  26.800  1.00  0.00     0.004 A 
ATOM     31  C   UNL A   1      31.873  23.100  27.265  1.00  0.00     0.000 A 
ATOM     32  C   UNL A   1      34.210  22.564  27.528  1.00  0.00     0.000 A 
ATOM     33  C   UNL A   1      32.866  22.266  27.765  1.00  0.00     0.000 A 
ENDBRANCH  27  28
ENDBRANCH   7  27
ENDBRANCH   4   7
ENDBRANCH   2   3
ENDBRANCH   1   2
BRANCH   1  34
ATOM     34  C   UNL A   1      32.249  32.668  27.267  1.00  0.00     0.118 C 
BRANCH  34  35
ATOM     35  N   UNL A   1      33.123  33.762  27.665  1.00  0.00    -0.352 N 
ATOM     36  C   UNL A   1      33.456  34.073  28.957  1.00  0.00     0.251 C 
ATOM     37  H   UNL A   1      33.505  34.321  26.951  1.00  0.00     0.163 HD
ATOM     38  O   UNL A   1      32.791  34.744  29.726  1.00  0.00    -0.269 OA
BRANCH  36  39
ATOM     39  C   UNL A   1      34.731  33.461  29.294  1.00  0.00     0.039 A 
ATOM     40  C   UNL A   1      35.889  34.209  29.069  1.00  0.00     0.014 A 
ATOM     41  C   UNL A   1      34.662  32.399  30.197  1.00  0.00     0.014 A 
ATOM     42  C   UNL A   1      37.016  33.893  29.806  1.00  0.00     0.010 A 
ATOM     43  C   UNL A   1      35.734  32.186  31.017  1.00  0.00     0.010 A 
ATOM     44  C   UNL A   1      36.921  32.899  30.787  1.00  0.00    -0.014 A 
BRANCH  44  45
ATOM     45  C   UNL A   1      38.091  32.415  31.519  1.00  0.00     0.031 A 
ATOM     46  C   UNL A   1      38.879  31.333  30.847  1.00  0.00     0.074 A 
ATOM     47  C   UNL A   1      38.286  32.819  32.781  1.00  0.00     0.049 A 
ATOM     48  N   UNL A   1      39.745  30.506  31.352  1.00  0.00    -0.248 NA
ATOM     49  C   UNL A   1      38.547  31.074  29.432  1.00  0.00     0.031 C 
ATOM     50  C   UNL A   1      37.485  33.820  33.491  1.00  0.00     0.029 A 
ATOM     51  N   UNL A   1      39.205  32.409  33.699  1.00  0.00    -0.354 N 
ATOM     52  C   UNL A   1      40.007  29.594  30.337  1.00  0.00     0.074 A 
ATOM     53  C   UNL A   1      39.125  29.902  29.239  1.00  0.00     0.031 C 
ATOM     54  C   UNL A   1      37.970  33.963  34.736  1.00  0.00     0.029 A 
ATOM     55  C   UNL A   1      39.077  33.032  34.916  1.00  0.00     0.049 A 
ATOM     56  H   UNL A   1      39.894  31.732  33.509  1.00  0.00     0.167 HD
ATOM     57  C   UNL A   1      40.941  28.616  30.326  1.00  0.00     0.034 A 
ATOM     58  C   UNL A   1      39.790  32.842  36.039  1.00  0.00     0.034 A 
ATOM     59  C   UNL A   1      41.829  28.420  31.441  1.00  0.00     0.049 A 
ATOM     60  C   UNL A   1      40.887  31.812  35.981  1.00  0.00     0.074 A 
ATOM     61  C   UNL A   1      42.894  27.552  31.566  1.00  0.00     0.029 A 
ATOM     62  N   UNL A   1      41.751  29.136  32.635  1.00  0.00    -0.354 N 
ATOM     63  N   UNL A   1      41.192  30.985  35.003  1.00  0.00    -0.248 NA
ATOM     64  C   UNL A   1      41.750  31.703  37.158  1.00  0.00     0.031 C 
ATOM     65  C   UNL A   1      43.426  27.709  32.851  1.00  0.00     0.029 A 
ATOM     66  C   UNL A   1      42.741  28.724  33.506  1.00  0.00     0.049 A 
ATOM     67  H   UNL A   1      41.085  29.835  32.829  1.00  0.00     0.167 HD
ATOM     68  C   UNL A   1      42.298  30.267  35.438  1.00  0.00     0.074 A 
ATOM     69  C   UNL A   1      42.615  30.782  36.759  1.00  0.00     0.031 C 
ATOM     70  C   UNL A   1      42.993  29.275  34.820  1.00  0.00     0.034 A 
BRANCH  57  71
ATOM     71  C   UNL A   1      41.012  27.733  29.100  1.00  0.00     0.023 A 
ATOM     72  C   UNL A   1      42.026  27.883  28.133  1.00  0.00     0.031 A 
ATOM     73  C   UNL A   1      40.000  26.795  28.837  1.00  0.00     0.131 A 
ATOM     74  C   UNL A   1      41.939  27.208  26.907  1.00  0.00     0.055 A 
ATOM     75  C   UNL A   1      39.978  26.045  27.657  1.00  0.00     0.041 A 
ATOM     76  F   UNL A   1      38.989  26.618  29.702  1.00  0.00    -0.206 F 
ATOM     77  C   UNL A   1      40.937  26.266  26.672  1.00  0.00     0.022 A 
BRANCH  74  78
ATOM     78  S   UNL A   1      43.039  27.722  25.556  1.00  0.00     0.124 S 
ATOM     79  O   UNL A   1      43.985  28.586  26.260  1.00  0.00    -0.237 OA
ATOM     80  O   UNL A   1      43.570  26.450  25.080  1.00  0.00    -0.237 OA
ATOM     81  O   UNL A   1      42.145  28.413  24.630  1.00  0.00    -0.744 OA
ENDBRANCH  74  78
ENDBRANCH  57  71
BRANCH  58  82
ATOM     82  C   UNL A   1      39.516  33.663  37.249  1.00  0.00     0.023 A 
ATOM     83  C   UNL A   1      38.954  33.081  38.395  1.00  0.00     0.031 A 
ATOM     84  C   UNL A   1      39.845  35.029  37.298  1.00  0.00     0.131 A 
ATOM     85  C   UNL A   1      38.711  33.865  39.534  1.00  0.00     0.055 A 
ATOM     86  C   UNL A   1      39.638  35.797  38.447  1.00  0.00     0.041 A 
ATOM     87  F   UNL A   1      40.407  35.631  36.238  1.00  0.00    -0.206 F 
ATOM     88  C   UNL A   1      39.059  35.216  39.571  1.00  0.00     0.022 A 
BRANCH  85  89
ATOM     89  S   UNL A   1      37.884  33.099  40.953  1.00  0.00     0.124 S 
ATOM     90  O   UNL A   1      38.505  33.796  42.074  1.00  0.00    -0.237 OA
ATOM     91  O   UNL A   1      36.483  33.419  40.696  1.00  0.00    -0.237 OA
ATOM     92  O   UNL A   1      38.231  31.685  40.828  1.00  0.00    -0.744 OA
ENDBRANCH  85  89
ENDBRANCH  58  82
BRANCH  70  93
ATOM     93  C   UNL A   1      44.169  28.722  35.575  1.00  0.00     0.023 A 
ATOM     94  C   UNL A   1      44.022  27.644  36.463  1.00  0.00     0.031 A 
ATOM     95  C   UNL A   1      45.447  29.279  35.402  1.00  0.00     0.131 A 
ATOM     96  C   UNL A   1      45.126  27.198  37.198  1.00  0.00     0.055 A 
ATOM     97  C   UNL A   1      46.557  28.783  36.082  1.00  0.00     0.041 A 
ATOM     98  F   UNL A   1      45.636  30.310  34.562  1.00  0.00    -0.206 F 
ATOM     99  C   UNL A   1      46.396  27.746  36.998  1.00  0.00     0.022 A 
BRANCH  96 100
ATOM    100  S   UNL A   1      44.852  25.968  38.498  1.00  0.00     0.124 S 
ATOM    101  O   UNL A   1      46.169  25.893  39.124  1.00  0.00    -0.237 OA
ATOM    102  O   UNL A   1      43.801  26.587  39.298  1.00  0.00    -0.237 OA
ATOM    103  O   UNL A   1      44.447  24.774  37.758  1.00  0.00    -0.744 OA
ENDBRANCH  96 100
ENDBRANCH  70  93
ENDBRANCH  44  45
ENDBRANCH  36  39
ENDBRANCH  34  35
ENDBRANCH   1  34
TORSDOF 18
ENDMDL
MODEL 2
REMARK VINA RESULT:     -16.5      3.337      8.432
REMARK SMILES CC(C)[C@H]1C(=O)Nc2ccccc2N1C(=O)N[C@H](Cc1ccccc1)C(=O)NCCCNC(=O)c1ccc(-c2c3nc(c(-c4cc(S(=O)(=O)[O-])ccc4F)c4ccc([nH]4)c(-c4cc(S(=O)(=O)[O-])ccc4F)c4nc(c(-c5cc(S(=O)(=O)[O-])ccc5F)c5ccc2[nH]5)C=C4)C=C3)cc1
REMARK SMILES IDX 30 1 29 2 28 3 26 4 27 5 18 7 17 8 15 9 16 10 14 12 4 13
REMARK SMILES IDX 5 14 6 15 7 16 13 17 8 18 12 20 9 21 11 22 10 23 2 24 1 25
REMARK SMILES IDX 3 26 19 27 20 28 21 29 25 30 22 31 24 32 23 33 31 34 32 35
REMARK SMILES IDX 33 36 34 38 35 39 36 40 97 41 37 42 96 43 38 44 39 45 40 46
REMARK SMILES IDX 90 47 41 48 95 49 89 50 91 51 42 52 94 53 88 54 87 55 43 57
REMARK SMILES IDX 75 58 55 59 74 60 56 61 59 62 73 63 92 64 57 65 58 66 72 68
REMARK SMILES IDX 93 69 60 70 44 71 45 72 53 73 46 74 52 75 54 76 51 77 47 78
REMARK SMILES IDX 48 79 49 80 50 81 76 82 77 83 85 84 78 85 84 86 86 87 83 88
REMARK SMILES IDX 79 89 80 90 81 91 82 92 61 93 62 94 70 95 63 96 69 97 71 98
REMARK SMILES IDX 68 99 64 100 65 101 66 102 67 103
REMARK H PARENT 28 6 17 11 7 19 32 37 91 56 59 67
REMARK Flexibility Score: inf
ROOT
ATOM      1  C   UNL A   1      32.130  30.684  26.412  1.00  0.00     0.042 C 
ENDROOT
BRANCH   1   2
ATOM      2  C   UNL A   1      31.968  29.490  24.633  1.00  0.00     0.117 C 
BRANCH   2   3
ATOM      3  N   UNL A   1      33.255  29.143  23.333  1.00  0.00    -0.354 N 
ATOM      4  C   UNL A   1      33.671  27.935  22.373  1.00  0.00     0.242 C 
ATOM      5  O   UNL A   1      34.387  28.232  21.407  1.00  0.00    -0.273 OA
ATOM      6  H   UNL A   1      33.843  29.921  23.199  1.00  0.00     0.163 HD
BRANCH   4   7
ATOM      7  C   UNL A   1      33.374  26.084  22.769  1.00  0.00     0.177 C 
BRANCH   7   8
ATOM      8  N   UNL A   1      31.745  25.197  22.665  1.00  0.00    -0.326 N 
ATOM      9  C   UNL A   1      30.994  23.894  23.415  1.00  0.00     0.323 C 
ATOM     10  O   UNL A   1      29.765  23.844  23.407  1.00  0.00    -0.248 OA
ATOM     11  H   UNL A   1      31.162  25.601  21.983  1.00  0.00     0.166 HD
BRANCH   9  12
ATOM     12  N   UNL A   1      31.941  22.930  24.362  1.00  0.00    -0.280 N 
ATOM     13  C   UNL A   1      32.412  23.463  26.052  1.00  0.00     0.184 C 
ATOM     14  C   UNL A   1      32.882  22.187  27.511  1.00  0.00     0.247 C 
ATOM     15  O   UNL A   1      33.148  22.482  28.685  1.00  0.00    -0.272 OA
ATOM     16  N   UNL A   1      32.991  20.493  26.911  1.00  0.00    -0.322 N 
ATOM     17  C   UNL A   1      32.161  21.208  24.010  1.00  0.00     0.070 A 
ATOM     18  C   UNL A   1      32.636  20.040  25.209  1.00  0.00     0.065 A 
ATOM     19  H   UNL A   1      33.255  19.785  27.543  1.00  0.00     0.170 HD
ATOM     20  C   UNL A   1      32.070  20.786  22.709  1.00  0.00     0.028 A 
ATOM     21  C   UNL A   1      33.097  18.808  24.809  1.00  0.00     0.028 A 
ATOM     22  C   UNL A   1      32.548  19.484  22.446  1.00  0.00     0.002 A 
ATOM     23  C   UNL A   1      33.078  18.573  23.428  1.00  0.00     0.002 A 
BRANCH  13  24
ATOM     24  C   UNL A   1      31.210  24.230  25.903  1.00  0.00     0.015 C 
ATOM     25  C   UNL A   1      30.168  23.167  26.756  1.00  0.00     0.010 C 
ATOM     26  C   UNL A   1      31.664  26.184  26.221  1.00  0.00     0.010 C 
ENDBRANCH  13  24
ENDBRANCH   9  12
ENDBRANCH   7   8
BRANCH   7  27
ATOM     27  C   UNL A   1      34.200  25.841  24.088  1.00  0.00     0.070 C 
BRANCH  27  28
ATOM     28  C   UNL A   1      34.986  24.583  24.339  1.00  0.00    -0.045 A 
ATOM     29  C   UNL A   1      35.039  23.612  23.317  1.00  0.00     0.004 A 
ATOM     30  C   UNL A   1      35.559  24.289  25.575  1.00  0.00     0.004 A 
ATOM     31  C   UNL A   1      35.648  22.377  23.527  1.00  0.00     0.000 A 
ATOM     32  C   UNL A   1      36.166  23.048  25.786  1.00  0.00     0.000 A 
ATOM     33  C   UNL A   1      36.207  22.092  24.768  1.00  0.00     0.000 A 
ENDBRANCH  27  28
ENDBRANCH   7  27
ENDBRANCH   4   7
ENDBRANCH   2   3
ENDBRANCH   1   2
BRANCH   1  34
ATOM     34  C   UNL A   1      33.339  30.792  27.635  1.00  0.00     0.118 C 
BRANCH  34  35
ATOM     35  N   UNL A   1      34.675  31.199  27.225  1.00  0.00    -0.352 N 
ATOM     36  C   UNL A   1      35.441  32.140  27.860  1.00  0.00     0.251 C 
ATOM     37  H   UNL A   1      35.058  30.764  26.429  1.00  0.00     0.163 HD
ATOM     38  O   UNL A   1      35.369  33.346  27.705  1.00  0.00    -0.269 OA
BRANCH  36  39
ATOM     39  C   UNL A   1      36.356  31.484  28.781  1.00  0.00     0.039 A 
ATOM     40  C   UNL A   1      35.985  30.236  29.284  1.00  0.00     0.014 A 
ATOM     41  C   UNL A   1      37.677  31.934  28.731  1.00  0.00     0.014 A 
ATOM     42  C   UNL A   1      36.988  29.393  29.728  1.00  0.00     0.010 A 
ATOM     43  C   UNL A   1      38.667  31.045  29.040  1.00  0.00     0.010 A 
ATOM     44  C   UNL A   1      38.320  29.798  29.583  1.00  0.00    -0.014 A 
BRANCH  44  45
ATOM     45  C   UNL A   1      39.432  29.029  30.140  1.00  0.00     0.031 A 
ATOM     46  C   UNL A   1      40.025  29.564  31.406  1.00  0.00     0.074 A 
ATOM     47  C   UNL A   1      39.960  28.028  29.422  1.00  0.00     0.049 A 
ATOM     48  N   UNL A   1      41.174  29.305  31.955  1.00  0.00    -0.248 NA
ATOM     49  C   UNL A   1      39.260  30.633  32.078  1.00  0.00     0.031 C 
ATOM     50  C   UNL A   1      39.447  27.532  28.142  1.00  0.00     0.029 A 
ATOM     51  N   UNL A   1      41.067  27.270  29.658  1.00  0.00    -0.354 N 
ATOM     52  C   UNL A   1      41.294  30.223  32.992  1.00  0.00     0.074 A 
ATOM     53  C   UNL A   1      40.161  31.111  32.917  1.00  0.00     0.031 C 
ATOM     54  C   UNL A   1      40.232  26.528  27.717  1.00  0.00     0.029 A 
ATOM     55  C   UNL A   1      41.320  26.352  28.671  1.00  0.00     0.049 A 
ATOM     56  H   UNL A   1      41.630  27.372  30.459  1.00  0.00     0.167 HD
ATOM     57  C   UNL A   1      42.255  30.275  33.942  1.00  0.00     0.034 A 
ATOM     58  C   UNL A   1      42.337  25.478  28.574  1.00  0.00     0.034 A 
ATOM     59  C   UNL A   1      43.317  29.304  33.983  1.00  0.00     0.049 A 
ATOM     60  C   UNL A   1      43.350  25.488  29.689  1.00  0.00     0.074 A 
ATOM     61  C   UNL A   1      44.313  29.141  34.924  1.00  0.00     0.029 A 
ATOM     62  N   UNL A   1      43.500  28.308  33.024  1.00  0.00    -0.354 N 
ATOM     63  N   UNL A   1      43.440  26.309  30.714  1.00  0.00    -0.248 NA
ATOM     64  C   UNL A   1      44.379  24.448  29.653  1.00  0.00     0.031 C 
ATOM     65  C   UNL A   1      45.124  28.080  34.507  1.00  0.00     0.029 A 
ATOM     66  C   UNL A   1      44.597  27.533  33.344  1.00  0.00     0.049 A 
ATOM     67  H   UNL A   1      42.928  28.177  32.234  1.00  0.00     0.167 HD
ATOM     68  C   UNL A   1      44.527  25.872  31.461  1.00  0.00     0.074 A 
ATOM     69  C   UNL A   1      45.040  24.699  30.773  1.00  0.00     0.031 C 
ATOM     70  C   UNL A   1      45.063  26.381  32.603  1.00  0.00     0.034 A 
BRANCH  57  71
ATOM     71  C   UNL A   1      42.174  31.395  34.954  1.00  0.00     0.023 A 
ATOM     72  C   UNL A   1      41.156  31.446  35.927  1.00  0.00     0.031 A 
ATOM     73  C   UNL A   1      43.061  32.482  34.889  1.00  0.00     0.131 A 
ATOM     74  C   UNL A   1      40.975  32.601  36.703  1.00  0.00     0.055 A 
ATOM     75  C   UNL A   1      42.941  33.586  35.739  1.00  0.00     0.041 A 
ATOM     76  F   UNL A   1      44.039  32.513  33.970  1.00  0.00    -0.206 F 
ATOM     77  C   UNL A   1      41.879  33.661  36.637  1.00  0.00     0.022 A 
BRANCH  74  78
ATOM     78  S   UNL A   1      39.436  32.774  37.651  1.00  0.00     0.124 S 
ATOM     79  O   UNL A   1      39.942  32.859  39.019  1.00  0.00    -0.237 OA
ATOM     80  O   UNL A   1      38.866  34.001  37.106  1.00  0.00    -0.237 OA
ATOM     81  O   UNL A   1      38.701  31.551  37.340  1.00  0.00    -0.744 OA
ENDBRANCH  74  78
ENDBRANCH  57  71
BRANCH  58  82
ATOM     82  C   UNL A   1      42.403  24.527  27.432  1.00  0.00     0.023 A 
ATOM     83  C   UNL A   1      41.660  23.337  27.450  1.00  0.00     0.031 A 
ATOM     84  C   UNL A   1      43.174  24.804  26.290  1.00  0.00     0.131 A 
ATOM     85  C   UNL A   1      41.724  22.453  26.362  1.00  0.00     0.055 A 
ATOM     86  C   UNL A   1      43.204  23.941  25.192  1.00  0.00     0.041 A 
ATOM     87  F   UNL A   1      43.885  25.940  26.210  1.00  0.00    -0.206 F 
ATOM     88  C   UNL A   1      42.481  22.752  25.228  1.00  0.00     0.022 A 
BRANCH  85  89
ATOM     89  S   UNL A   1      40.834  20.877  26.472  1.00  0.00     0.124 S 
ATOM     90  O   UNL A   1      41.695  19.992  25.694  1.00  0.00    -0.237 OA
ATOM     91  O   UNL A   1      40.810  20.644  27.913  1.00  0.00    -0.237 OA
ATOM     92  O   UNL A   1      39.537  21.174  25.869  1.00  0.00    -0.744 OA
ENDBRANCH  85  89
ENDBRANCH  58  82
BRANCH  70  93
ATOM     93  C   UNL A   1      46.242  25.639  33.167  1.00  0.00     0.023 A 
ATOM     94  C   UNL A   1      47.539  25.852  32.675  1.00  0.00     0.031 A 
ATOM     95  C   UNL A   1      46.064  24.713  34.209  1.00  0.00     0.131 A 
ATOM     96  C   UNL A   1      48.603  25.097  33.179  1.00  0.00     0.055 A 
ATOM     97  C   UNL A   1      47.137  24.016  34.757  1.00  0.00     0.041 A 
ATOM     98  F   UNL A   1      44.841  24.478  34.713  1.00  0.00    -0.206 F 
ATOM     99  C   UNL A   1      48.415  24.196  34.231  1.00  0.00     0.022 A 
BRANCH  96 100
ATOM    100  S   UNL A   1      50.214  25.229  32.363  1.00  0.00     0.124 S 
ATOM    101  O   UNL A   1      49.891  26.029  31.186  1.00  0.00    -0.237 OA
ATOM    102  O   UNL A   1      51.026  25.890  33.380  1.00  0.00    -0.237 OA
ATOM    103  O   UNL A   1      50.573  23.838  32.090  1.00  0.00    -0.744 OA
ENDBRANCH  96 100
ENDBRANCH  70  93
ENDBRANCH  44  45
ENDBRANCH  36  39
ENDBRANCH  34  35
ENDBRANCH   1  34
TORSDOF 18
ENDMDL
MODEL 3
REMARK VINA RESULT:     -16.1      1.256      2.379
REMARK SMILES CC(C)[C@H]1C(=O)Nc2ccccc2N1C(=O)N[C@H](Cc1ccccc1)C(=O)NCCCNC(=O)c1ccc(-c2c3nc(c(-c4cc(S(=O)(=O)[O-])ccc4F)c4ccc([nH]4)c(-c4cc(S(=O)(=O)[O-])ccc4F)c4nc(c(-c5cc(S(=O)(=O)[O-])ccc5F)c5ccc2[nH]5)C=C4)C=C3)cc1
REMARK SMILES IDX 30 1 29 2 28 3 26 4 27 5 18 7 17 8 15 9 16 10 14 12 4 13
REMARK SMILES IDX 5 14 6 15 7 16 13 17 8 18 12 20 9 21 11 22 10 23 2 24 1 25
REMARK SMILES IDX 3 26 19 27 20 28 21 29 25 30 22 31 24 32 23 33 31 34 32 35
REMARK SMILES IDX 33 36 34 38 35 39 36 40 97 41 37 42 96 43 38 44 39 45 40 46
REMARK SMILES IDX 90 47 41 48 95 49 89 50 91 51 42 52 94 53 88 54 87 55 43 57
REMARK SMILES IDX 75 58 55 59 74 60 56 61 59 62 73 63 92 64 57 65 58 66 72 68
REMARK SMILES IDX 93 69 60 70 44 71 45 72 53 73 46 74 52 75 54 76 51 77 47 78
REMARK SMILES IDX 48 79 49 80 50 81 76 82 77 83 85 84 78 85 84 86 86 87 83 88
REMARK SMILES IDX 79 89 80 90 81 91 82 92 61 93 62 94 70 95 63 96 69 97 71 98
REMARK SMILES IDX 68 99 64 100 65 101 66 102 67 103
REMARK H PARENT 28 6 17 11 7 19 32 37 91 56 59 67
REMARK Flexibility Score: inf
ROOT
ATOM      1  C   UNL A   1      31.868  30.886  26.279  1.00  0.00     0.042 C 
ENDROOT
BRANCH   1   2
ATOM      2  C   UNL A   1      31.903  29.394  24.733  1.00  0.00     0.117 C 
BRANCH   2   3
ATOM      3  N   UNL A   1      33.187  29.098  23.418  1.00  0.00    -0.354 N 
ATOM      4  C   UNL A   1      33.617  27.920  22.428  1.00  0.00     0.242 C 
ATOM      5  O   UNL A   1      34.322  28.251  21.465  1.00  0.00    -0.273 OA
ATOM      6  H   UNL A   1      33.762  29.888  23.299  1.00  0.00     0.163 HD
BRANCH   4   7
ATOM      7  C   UNL A   1      33.351  26.056  22.782  1.00  0.00     0.177 C 
BRANCH   7   8
ATOM      8  N   UNL A   1      31.738  25.143  22.657  1.00  0.00    -0.326 N 
ATOM      9  C   UNL A   1      31.003  23.819  23.387  1.00  0.00     0.323 C 
ATOM     10  O   UNL A   1      29.776  23.749  23.370  1.00  0.00    -0.248 OA
ATOM     11  H   UNL A   1      31.153  25.545  21.976  1.00  0.00     0.166 HD
BRANCH   9  12
ATOM     12  N   UNL A   1      31.960  22.860  24.330  1.00  0.00    -0.280 N 
ATOM     13  C   UNL A   1      32.447  23.402  26.013  1.00  0.00     0.184 C 
ATOM     14  C   UNL A   1      32.931  22.133  27.473  1.00  0.00     0.247 C 
ATOM     15  O   UNL A   1      33.209  22.434  28.644  1.00  0.00    -0.272 OA
ATOM     16  N   UNL A   1      33.035  20.436  26.881  1.00  0.00    -0.322 N 
ATOM     17  C   UNL A   1      32.177  21.136  23.985  1.00  0.00     0.070 A 
ATOM     18  C   UNL A   1      32.664  19.974  25.185  1.00  0.00     0.065 A 
ATOM     19  H   UNL A   1      33.305  19.732  27.514  1.00  0.00     0.170 HD
ATOM     20  C   UNL A   1      32.074  20.707  22.686  1.00  0.00     0.028 A 
ATOM     21  C   UNL A   1      33.121  18.741  24.786  1.00  0.00     0.028 A 
ATOM     22  C   UNL A   1      32.549  19.404  22.425  1.00  0.00     0.002 A 
ATOM     23  C   UNL A   1      33.089  18.498  23.407  1.00  0.00     0.002 A 
BRANCH  13  24
ATOM     24  C   UNL A   1      31.243  24.168  25.871  1.00  0.00     0.015 C 
ATOM     25  C   UNL A   1      30.209  23.108  26.738  1.00  0.00     0.010 C 
ATOM     26  C   UNL A   1      31.700  26.123  26.176  1.00  0.00     0.010 C 
ENDBRANCH  13  24
ENDBRANCH   9  12
ENDBRANCH   7   8
BRANCH   7  27
ATOM     27  C   UNL A   1      34.180  25.798  24.097  1.00  0.00     0.070 C 
BRANCH  27  28
ATOM     28  C   UNL A   1      35.020  24.567  24.304  1.00  0.00    -0.045 A 
ATOM     29  C   UNL A   1      35.034  23.587  23.289  1.00  0.00     0.004 A 
ATOM     30  C   UNL A   1      35.683  24.303  25.502  1.00  0.00     0.004 A 
ATOM     31  C   UNL A   1      35.694  22.374  23.467  1.00  0.00     0.000 A 
ATOM     32  C   UNL A   1      36.341  23.083  25.680  1.00  0.00     0.000 A 
ATOM     33  C   UNL A   1      36.343  22.119  24.670  1.00  0.00     0.000 A 
ENDBRANCH  27  28
ENDBRANCH   7  27
ENDBRANCH   4   7
ENDBRANCH   2   3
ENDBRANCH   1   2
BRANCH   1  34
ATOM     34  C   UNL A   1      32.967  31.272  27.549  1.00  0.00     0.118 C 
BRANCH  34  35
ATOM     35  N   UNL A   1      33.676  32.540  27.462  1.00  0.00    -0.352 N 
ATOM     36  C   UNL A   1      33.558  33.571  28.357  1.00  0.00     0.251 C 
ATOM     37  H   UNL A   1      34.288  32.667  26.702  1.00  0.00     0.163 HD
ATOM     38  O   UNL A   1      32.685  34.420  28.359  1.00  0.00    -0.269 OA
BRANCH  36  39
ATOM     39  C   UNL A   1      34.630  33.494  29.336  1.00  0.00     0.039 A 
ATOM     40  C   UNL A   1      34.400  32.745  30.492  1.00  0.00     0.014 A 
ATOM     41  C   UNL A   1      35.905  33.788  28.848  1.00  0.00     0.014 A 
ATOM     42  C   UNL A   1      35.498  32.246  31.169  1.00  0.00     0.010 A 
ATOM     43  C   UNL A   1      36.973  33.176  29.442  1.00  0.00     0.010 A 
ATOM     44  C   UNL A   1      36.772  32.449  30.626  1.00  0.00    -0.014 A 
BRANCH  44  45
ATOM     45  C   UNL A   1      37.991  32.070  31.339  1.00  0.00     0.031 A 
ATOM     46  C   UNL A   1      38.816  30.999  30.696  1.00  0.00     0.074 A 
ATOM     47  C   UNL A   1      38.204  32.551  32.571  1.00  0.00     0.049 A 
ATOM     48  N   UNL A   1      39.744  30.248  31.211  1.00  0.00    -0.248 NA
ATOM     49  C   UNL A   1      38.453  30.647  29.309  1.00  0.00     0.031 C 
ATOM     50  C   UNL A   1      37.372  33.543  33.257  1.00  0.00     0.029 A 
ATOM     51  N   UNL A   1      39.175  32.242  33.475  1.00  0.00    -0.354 N 
ATOM     52  C   UNL A   1      40.024  29.299  30.235  1.00  0.00     0.074 A 
ATOM     53  C   UNL A   1      39.090  29.500  29.155  1.00  0.00     0.031 C 
ATOM     54  C   UNL A   1      37.888  33.779  34.474  1.00  0.00     0.029 A 
ATOM     55  C   UNL A   1      39.052  32.921  34.662  1.00  0.00     0.049 A 
ATOM     56  H   UNL A   1      39.895  31.595  33.296  1.00  0.00     0.167 HD
ATOM     57  C   UNL A   1      41.011  28.375  30.241  1.00  0.00     0.034 A 
ATOM     58  C   UNL A   1      39.811  32.831  35.767  1.00  0.00     0.034 A 
ATOM     59  C   UNL A   1      41.945  28.288  31.332  1.00  0.00     0.049 A 
ATOM     60  C   UNL A   1      40.963  31.861  35.723  1.00  0.00     0.074 A 
ATOM     61  C   UNL A   1      43.061  27.488  31.463  1.00  0.00     0.029 A 
ATOM     62  N   UNL A   1      41.866  29.062  32.490  1.00  0.00    -0.354 N 
ATOM     63  N   UNL A   1      41.281  31.001  34.778  1.00  0.00    -0.248 NA
ATOM     64  C   UNL A   1      41.869  31.862  36.872  1.00  0.00     0.031 C 
ATOM     65  C   UNL A   1      43.626  27.743  32.718  1.00  0.00     0.029 A 
ATOM     66  C   UNL A   1      42.906  28.752  33.345  1.00  0.00     0.049 A 
ATOM     67  H   UNL A   1      41.168  29.733  32.671  1.00  0.00     0.167 HD
ATOM     68  C   UNL A   1      42.441  30.368  35.209  1.00  0.00     0.074 A 
ATOM     69  C   UNL A   1      42.772  30.970  36.490  1.00  0.00     0.031 C 
ATOM     70  C   UNL A   1      43.170  29.385  34.619  1.00  0.00     0.034 A 
BRANCH  57  71
ATOM     71  C   UNL A   1      41.091  27.434  29.061  1.00  0.00     0.023 A 
ATOM     72  C   UNL A   1      42.102  27.548  28.085  1.00  0.00     0.031 A 
ATOM     73  C   UNL A   1      40.090  26.471  28.846  1.00  0.00     0.131 A 
ATOM     74  C   UNL A   1      42.022  26.811  26.894  1.00  0.00     0.055 A 
ATOM     75  C   UNL A   1      40.076  25.663  27.705  1.00  0.00     0.041 A 
ATOM     76  F   UNL A   1      39.082  26.325  29.720  1.00  0.00    -0.206 F 
ATOM     77  C   UNL A   1      41.032  25.847  26.708  1.00  0.00     0.022 A 
BRANCH  74  78
ATOM     78  S   UNL A   1      43.114  27.271  25.518  1.00  0.00     0.124 S 
ATOM     79  O   UNL A   1      43.441  25.963  24.953  1.00  0.00    -0.237 OA
ATOM     80  O   UNL A   1      42.253  28.120  24.702  1.00  0.00    -0.237 OA
ATOM     81  O   UNL A   1      44.226  27.954  26.174  1.00  0.00    -0.744 OA
ENDBRANCH  74  78
ENDBRANCH  57  71
BRANCH  58  82
ATOM     82  C   UNL A   1      39.532  33.698  36.943  1.00  0.00     0.023 A 
ATOM     83  C   UNL A   1      38.873  33.185  38.069  1.00  0.00     0.031 A 
ATOM     84  C   UNL A   1      39.950  35.040  36.980  1.00  0.00     0.131 A 
ATOM     85  C   UNL A   1      38.624  34.012  39.175  1.00  0.00     0.055 A 
ATOM     86  C   UNL A   1      39.737  35.850  38.098  1.00  0.00     0.041 A 
ATOM     87  F   UNL A   1      40.607  35.576  35.938  1.00  0.00    -0.206 F 
ATOM     88  C   UNL A   1      39.061  35.338  39.202  1.00  0.00     0.022 A 
BRANCH  85  89
ATOM     89  S   UNL A   1      37.674  33.340  40.565  1.00  0.00     0.124 S 
ATOM     90  O   UNL A   1      38.612  32.377  41.131  1.00  0.00    -0.237 OA
ATOM     91  O   UNL A   1      37.420  34.534  41.365  1.00  0.00    -0.237 OA
ATOM     92  O   UNL A   1      36.496  32.761  39.924  1.00  0.00    -0.744 OA
ENDBRANCH  85  89
ENDBRANCH  58  82
BRANCH  70  93
ATOM     93  C   UNL A   1      44.400  28.938  35.358  1.00  0.00     0.023 A 
ATOM     94  C   UNL A   1      44.326  27.975  36.376  1.00  0.00     0.031 A 
ATOM     95  C   UNL A   1      45.655  29.482  35.039  1.00  0.00     0.131 A 
ATOM     96  C   UNL A   1      45.481  27.631  37.088  1.00  0.00     0.055 A 
ATOM     97  C   UNL A   1      46.813  29.083  35.701  1.00  0.00     0.041 A 
ATOM     98  F   UNL A   1      45.774  30.406  34.070  1.00  0.00    -0.206 F 
ATOM     99  C   UNL A   1      46.727  28.162  36.743  1.00  0.00     0.022 A 
BRANCH  96 100
ATOM    100  S   UNL A   1      45.310  26.565  38.541  1.00  0.00     0.124 S 
ATOM    101  O   UNL A   1      43.862  26.522  38.715  1.00  0.00    -0.237 OA
ATOM    102  O   UNL A   1      45.935  25.324  38.094  1.00  0.00    -0.237 OA
ATOM    103  O   UNL A   1      46.040  27.287  39.582  1.00  0.00    -0.744 OA
ENDBRANCH  96 100
ENDBRANCH  70  93
ENDBRANCH  44  45
ENDBRANCH  36  39
ENDBRANCH  34  35
ENDBRANCH   1  34
TORSDOF 18
ENDMDL
