MODEL 1
REMARK VINA RESULT:     -11.3      0.000      0.000
REMARK SMILES CCCc1cc(OCC(=O)NCCCNC(=O)c2ccc(-c3c4nc(c(-c5cc(S(=O)(=O)[O-])ccc5F)c5ccc([nH]5)c(-c5cc(S(=O)(=O)[O-])ccc5F)c5nc(c(-c6cc(S(=O)(=O)[O-])ccc6F)c6ccc3[nH]6)C=C5)C=C4)cc2)nc(Nc2ccc(C#N)cc2)n1
REMARK SMILES IDX 12 1 11 2 9 3 10 4 8 6 7 7 6 8 4 9 5 10 92 11 82 12 81 13
REMARK SMILES IDX 3 14 2 15 1 16 83 17 84 19 85 20 91 21 86 22 90 23 87 24
REMARK SMILES IDX 88 25 89 26 13 27 14 28 15 29 16 30 17 32 18 33 19 34 80 35
REMARK SMILES IDX 20 36 79 37 21 38 22 39 23 40 73 41 24 42 78 43 72 44 74 45
REMARK SMILES IDX 25 46 77 47 71 48 70 49 26 51 58 52 38 53 57 54 39 55 42 56
REMARK SMILES IDX 56 57 75 58 40 59 41 60 55 62 76 63 43 64 27 65 28 66 36 67
REMARK SMILES IDX 29 68 35 69 37 70 34 71 30 72 31 73 32 74 33 75 59 76 60 77
REMARK SMILES IDX 68 78 61 79 67 80 69 81 66 82 62 83 63 84 64 85 65 86 44 87
REMARK SMILES IDX 45 88 53 89 46 90 52 91 54 92 51 93 47 94 48 95 49 96 50 97
REMARK H PARENT 11 5 83 18 15 31 74 50 42 61
REMARK Flexibility Score: inf
ROOT
ATOM      1  C   UNL A   1      31.914  30.667  26.871  1.00  0.00     0.117 C 
ENDROOT
BRANCH   1   2
ATOM      2  N   UNL A   1      33.210  30.335  27.426  1.00  0.00    -0.353 N 
ATOM      3  C   UNL A   1      33.964  29.230  27.174  1.00  0.00     0.258 C 
ATOM      4  O   UNL A   1      35.093  29.154  27.661  1.00  0.00    -0.271 OA
ATOM      5  H   UNL A   1      33.591  30.984  28.062  1.00  0.00     0.163 HD
BRANCH   3   6
ATOM      6  C   UNL A   1      33.397  28.113  26.284  1.00  0.00     0.331 C 
BRANCH   6   7
ATOM      7  O   UNL A   1      32.373  27.306  26.845  1.00  0.00    -0.467 OA
BRANCH   7   8
ATOM      8  C   UNL A   1      31.773  26.378  26.035  1.00  0.00     0.218 A 
ATOM      9  C   UNL A   1      31.268  24.214  25.282  1.00  0.00     0.050 A 
ATOM     10  C   UNL A   1      31.963  25.023  26.141  1.00  0.00     0.092 A 
ATOM     11  N   UNL A   1      30.408  24.735  24.390  1.00  0.00    -0.218 NA
ATOM     12  C   UNL A   1      30.277  26.073  24.328  1.00  0.00     0.230 A 
ATOM     13  N   UNL A   1      30.952  26.918  25.121  1.00  0.00    -0.177 NA
BRANCH   9  14
ATOM     14  C   UNL A   1      31.367  22.709  25.341  1.00  0.00     0.056 C 
BRANCH  14  15
ATOM     15  C   UNL A   1      32.557  22.046  24.624  1.00  0.00     0.003 C 
ATOM     16  C   UNL A   1      32.369  20.572  24.270  1.00  0.00     0.004 C 
ENDBRANCH  14  15
ENDBRANCH   9  14
BRANCH  12  17
ATOM     17  N   UNL A   1      29.462  26.641  23.353  1.00  0.00    -0.324 N 
ATOM     18  H   UNL A   1      29.012  26.000  22.757  1.00  0.00     0.170 HD
BRANCH  17  19
ATOM     19  C   UNL A   1      29.187  27.987  23.097  1.00  0.00     0.041 A 
ATOM     20  C   UNL A   1      30.152  28.787  22.475  1.00  0.00     0.027 A 
ATOM     21  C   UNL A   1      27.933  28.551  23.370  1.00  0.00     0.027 A 
ATOM     22  C   UNL A   1      29.866  30.111  22.117  1.00  0.00     0.021 A 
ATOM     23  C   UNL A   1      27.650  29.880  23.043  1.00  0.00     0.021 A 
ATOM     24  C   UNL A   1      28.612  30.659  22.398  1.00  0.00     0.052 A 
BRANCH  24  25
ATOM     25  C   UNL A   1      28.303  32.001  21.992  1.00  0.00     0.099 C 
ATOM     26  N   UNL A   1      28.032  33.067  21.630  1.00  0.00    -0.192 NA
ENDBRANCH  24  25
ENDBRANCH  17  19
ENDBRANCH  12  17
ENDBRANCH   7   8
ENDBRANCH   6   7
ENDBRANCH   3   6
ENDBRANCH   1   2
BRANCH   1  27
ATOM     27  C   UNL A   1      31.619  32.158  26.919  1.00  0.00     0.042 C 
BRANCH  27  28
ATOM     28  C   UNL A   1      32.864  33.035  26.989  1.00  0.00     0.118 C 
BRANCH  28  29
ATOM     29  N   UNL A   1      32.638  34.276  27.720  1.00  0.00    -0.352 N 
ATOM     30  C   UNL A   1      33.205  34.731  28.885  1.00  0.00     0.251 C 
ATOM     31  H   UNL A   1      31.976  34.883  27.315  1.00  0.00     0.163 HD
ATOM     32  O   UNL A   1      32.717  35.705  29.453  1.00  0.00    -0.269 OA
BRANCH  30  33
ATOM     33  C   UNL A   1      34.377  34.038  29.457  1.00  0.00     0.039 A 
ATOM     34  C   UNL A   1      35.659  34.412  29.047  1.00  0.00     0.014 A 
ATOM     35  C   UNL A   1      34.213  33.018  30.397  1.00  0.00     0.014 A 
ATOM     36  C   UNL A   1      36.776  33.813  29.636  1.00  0.00     0.010 A 
ATOM     37  C   UNL A   1      35.323  32.493  31.049  1.00  0.00     0.010 A 
ATOM     38  C   UNL A   1      36.618  32.879  30.673  1.00  0.00    -0.014 A 
BRANCH  38  39
ATOM     39  C   UNL A   1      37.788  32.277  31.366  1.00  0.00     0.031 A 
ATOM     40  C   UNL A   1      38.525  31.131  30.729  1.00  0.00     0.074 A 
ATOM     41  C   UNL A   1      38.142  32.715  32.590  1.00  0.00     0.049 A 
ATOM     42  N   UNL A   1      39.499  30.402  31.212  1.00  0.00    -0.248 NA
ATOM     43  C   UNL A   1      38.091  30.734  29.382  1.00  0.00     0.031 C 
ATOM     44  C   UNL A   1      37.490  33.803  33.322  1.00  0.00     0.029 A 
ATOM     45  N   UNL A   1      39.133  32.294  33.443  1.00  0.00    -0.354 N 
ATOM     46  C   UNL A   1      39.783  29.454  30.235  1.00  0.00     0.074 A 
ATOM     47  C   UNL A   1      38.832  29.659  29.164  1.00  0.00     0.031 C 
ATOM     48  C   UNL A   1      38.116  33.982  34.495  1.00  0.00     0.029 A 
ATOM     49  C   UNL A   1      39.171  32.984  34.634  1.00  0.00     0.049 A 
ATOM     50  H   UNL A   1      39.759  31.566  33.223  1.00  0.00     0.167 HD
ATOM     51  C   UNL A   1      40.762  28.517  30.223  1.00  0.00     0.034 A 
ATOM     52  C   UNL A   1      39.950  32.817  35.721  1.00  0.00     0.034 A 
ATOM     53  C   UNL A   1      41.702  28.327  31.300  1.00  0.00     0.049 A 
ATOM     54  C   UNL A   1      40.989  31.722  35.710  1.00  0.00     0.074 A 
ATOM     55  C   UNL A   1      42.757  27.435  31.373  1.00  0.00     0.029 A 
ATOM     56  N   UNL A   1      41.693  29.030  32.499  1.00  0.00    -0.354 N 
ATOM     57  N   UNL A   1      41.270  30.858  34.763  1.00  0.00    -0.248 NA
ATOM     58  C   UNL A   1      41.820  31.586  36.913  1.00  0.00     0.031 C 
ATOM     59  C   UNL A   1      43.325  27.532  32.647  1.00  0.00     0.029 A 
ATOM     60  C   UNL A   1      42.699  28.561  33.332  1.00  0.00     0.049 A 
ATOM     61  H   UNL A   1      41.067  29.755  32.724  1.00  0.00     0.167 HD
ATOM     62  C   UNL A   1      42.340  30.104  35.241  1.00  0.00     0.074 A 
ATOM     63  C   UNL A   1      42.656  30.623  36.555  1.00  0.00     0.031 C 
ATOM     64  C   UNL A   1      43.005  29.082  34.644  1.00  0.00     0.034 A 
BRANCH  51  65
ATOM     65  C   UNL A   1      40.838  27.604  29.021  1.00  0.00     0.023 A 
ATOM     66  C   UNL A   1      41.787  27.799  28.001  1.00  0.00     0.031 A 
ATOM     67  C   UNL A   1      39.936  26.535  28.879  1.00  0.00     0.131 A 
ATOM     68  C   UNL A   1      41.757  26.996  26.853  1.00  0.00     0.055 A 
ATOM     69  C   UNL A   1      39.974  25.678  27.778  1.00  0.00     0.041 A 
ATOM     70  F   UNL A   1      38.988  26.312  29.805  1.00  0.00    -0.206 F 
ATOM     71  C   UNL A   1      40.878  25.915  26.747  1.00  0.00     0.022 A 
BRANCH  68  72
ATOM     72  S   UNL A   1      42.769  27.486  25.430  1.00  0.00     0.124 S 
ATOM     73  O   UNL A   1      42.740  26.272  24.617  1.00  0.00    -0.237 OA
ATOM     74  O   UNL A   1      42.036  28.629  24.898  1.00  0.00    -0.237 OA
ATOM     75  O   UNL A   1      44.068  27.797  26.023  1.00  0.00    -0.744 OA
ENDBRANCH  68  72
ENDBRANCH  51  65
BRANCH  52  76
ATOM     76  C   UNL A   1      39.772  33.684  36.922  1.00  0.00     0.023 A 
ATOM     77  C   UNL A   1      40.622  34.775  37.162  1.00  0.00     0.031 A 
ATOM     78  C   UNL A   1      38.781  33.402  37.882  1.00  0.00     0.131 A 
ATOM     79  C   UNL A   1      40.505  35.508  38.353  1.00  0.00     0.055 A 
ATOM     80  C   UNL A   1      38.624  34.176  39.032  1.00  0.00     0.041 A 
ATOM     81  F   UNL A   1      37.941  32.369  37.708  1.00  0.00    -0.206 F 
ATOM     82  C   UNL A   1      39.499  35.228  39.281  1.00  0.00     0.022 A 
BRANCH  79  83
ATOM     83  S   UNL A   1      41.760  36.764  38.728  1.00  0.00     0.124 S 
ATOM     84  O   UNL A   1      40.938  37.865  39.216  1.00  0.00    -0.237 OA
ATOM     85  O   UNL A   1      42.581  36.083  39.723  1.00  0.00    -0.237 OA
ATOM     86  O   UNL A   1      42.408  36.990  37.438  1.00  0.00    -0.744 OA
ENDBRANCH  79  83
ENDBRANCH  52  76
BRANCH  64  87
ATOM     87  C   UNL A   1      44.189  28.498  35.380  1.00  0.00     0.023 A 
ATOM     88  C   UNL A   1      44.050  27.463  36.321  1.00  0.00     0.031 A 
ATOM     89  C   UNL A   1      45.484  28.990  35.128  1.00  0.00     0.131 A 
ATOM     90  C   UNL A   1      45.176  26.997  37.018  1.00  0.00     0.055 A 
ATOM     91  C   UNL A   1      46.608  28.469  35.768  1.00  0.00     0.041 A 
ATOM     92  F   UNL A   1      45.678  29.985  34.247  1.00  0.00    -0.206 F 
ATOM     93  C   UNL A   1      46.456  27.476  36.731  1.00  0.00     0.022 A 
BRANCH  90  94
ATOM     94  S   UNL A   1      44.932  25.836  38.390  1.00  0.00     0.124 S 
ATOM     95  O   UNL A   1      46.305  25.558  38.799  1.00  0.00    -0.237 OA
ATOM     96  O   UNL A   1      44.134  26.621  39.326  1.00  0.00    -0.237 OA
ATOM     97  O   UNL A   1      44.231  24.714  37.768  1.00  0.00    -0.744 OA
ENDBRANCH  90  94
ENDBRANCH  64  87
ENDBRANCH  38  39
ENDBRANCH  30  33
ENDBRANCH  28  29
ENDBRANCH  27  28
ENDBRANCH   1  27
TORSDOF 20
ENDMDL
MODEL 2
REMARK VINA RESULT:     -11.2      5.406      8.739
REMARK SMILES CCCc1cc(OCC(=O)NCCCNC(=O)c2ccc(-c3c4nc(c(-c5cc(S(=O)(=O)[O-])ccc5F)c5ccc([nH]5)c(-c5cc(S(=O)(=O)[O-])ccc5F)c5nc(c(-c6cc(S(=O)(=O)[O-])ccc6F)c6ccc3[nH]6)C=C5)C=C4)cc2)nc(Nc2ccc(C#N)cc2)n1
REMARK SMILES IDX 12 1 11 2 9 3 10 4 8 6 7 7 6 8 4 9 5 10 92 11 82 12 81 13
REMARK SMILES IDX 3 14 2 15 1 16 83 17 84 19 85 20 91 21 86 22 90 23 87 24
REMARK SMILES IDX 88 25 89 26 13 27 14 28 15 29 16 30 17 32 18 33 19 34 80 35
REMARK SMILES IDX 20 36 79 37 21 38 22 39 23 40 73 41 24 42 78 43 72 44 74 45
REMARK SMILES IDX 25 46 77 47 71 48 70 49 26 51 58 52 38 53 57 54 39 55 42 56
REMARK SMILES IDX 56 57 75 58 40 59 41 60 55 62 76 63 43 64 27 65 28 66 36 67
REMARK SMILES IDX 29 68 35 69 37 70 34 71 30 72 31 73 32 74 33 75 59 76 60 77
REMARK SMILES IDX 68 78 61 79 67 80 69 81 66 82 62 83 63 84 64 85 65 86 44 87
REMARK SMILES IDX 45 88 53 89 46 90 52 91 54 92 51 93 47 94 48 95 49 96 50 97
REMARK H PARENT 11 5 83 18 15 31 74 50 42 61
REMARK Flexibility Score: inf
ROOT
ATOM      1  C   UNL A   1      35.172  21.491  25.044  1.00  0.00     0.117 C 
ENDROOT
BRANCH   1   2
ATOM      2  N   UNL A   1      34.049  21.048  24.244  1.00  0.00    -0.353 N 
ATOM      3  C   UNL A   1      33.020  21.801  23.766  1.00  0.00     0.258 C 
ATOM      4  O   UNL A   1      32.195  21.277  23.015  1.00  0.00    -0.271 OA
ATOM      5  H   UNL A   1      34.025  20.089  24.019  1.00  0.00     0.163 HD
BRANCH   3   6
ATOM      6  C   UNL A   1      32.916  23.281  24.163  1.00  0.00     0.331 C 
BRANCH   6   7
ATOM      7  O   UNL A   1      32.101  23.587  25.285  1.00  0.00    -0.467 OA
BRANCH   7   8
ATOM      8  C   UNL A   1      31.666  24.878  25.427  1.00  0.00     0.218 A 
ATOM      9  C   UNL A   1      31.558  26.993  26.438  1.00  0.00     0.050 A 
ATOM     10  C   UNL A   1      32.049  25.714  26.445  1.00  0.00     0.092 A 
ATOM     11  N   UNL A   1      30.754  27.415  25.447  1.00  0.00    -0.218 NA
ATOM     12  C   UNL A   1      30.406  26.542  24.485  1.00  0.00     0.230 A 
ATOM     13  N   UNL A   1      30.830  25.270  24.453  1.00  0.00    -0.177 NA
BRANCH   9  14
ATOM     14  C   UNL A   1      31.949  28.008  27.485  1.00  0.00     0.056 C 
BRANCH  14  15
ATOM     15  C   UNL A   1      32.803  29.205  27.030  1.00  0.00     0.003 C 
ATOM     16  C   UNL A   1      34.264  29.174  27.477  1.00  0.00     0.004 C 
ENDBRANCH  14  15
ENDBRANCH   9  14
BRANCH  12  17
ATOM     17  N   UNL A   1      29.504  26.928  23.497  1.00  0.00    -0.324 N 
ATOM     18  H   UNL A   1      29.038  26.190  23.043  1.00  0.00     0.170 HD
BRANCH  17  19
ATOM     19  C   UNL A   1      29.161  28.209  23.057  1.00  0.00     0.041 A 
ATOM     20  C   UNL A   1      30.098  28.977  22.355  1.00  0.00     0.027 A 
ATOM     21  C   UNL A   1      27.869  28.728  23.223  1.00  0.00     0.027 A 
ATOM     22  C   UNL A   1      29.749  30.221  21.817  1.00  0.00     0.021 A 
ATOM     23  C   UNL A   1      27.521  29.982  22.714  1.00  0.00     0.021 A 
ATOM     24  C   UNL A   1      28.457  30.726  21.993  1.00  0.00     0.052 A 
BRANCH  24  25
ATOM     25  C   UNL A   1      28.085  31.981  21.404  1.00  0.00     0.099 C 
ATOM     26  N   UNL A   1      27.759  33.002  20.964  1.00  0.00    -0.192 NA
ENDBRANCH  24  25
ENDBRANCH  17  19
ENDBRANCH  12  17
ENDBRANCH   7   8
ENDBRANCH   6   7
ENDBRANCH   3   6
ENDBRANCH   1   2
BRANCH   1  27
ATOM     27  C   UNL A   1      36.372  20.562  24.938  1.00  0.00     0.042 C 
BRANCH  27  28
ATOM     28  C   UNL A   1      37.704  21.232  25.251  1.00  0.00     0.118 C 
BRANCH  28  29
ATOM     29  N   UNL A   1      38.684  20.305  25.804  1.00  0.00    -0.352 N 
ATOM     30  C   UNL A   1      39.901  20.553  26.391  1.00  0.00     0.251 C 
ATOM     31  H   UNL A   1      38.435  19.354  25.748  1.00  0.00     0.163 HD
ATOM     32  O   UNL A   1      40.674  19.620  26.592  1.00  0.00    -0.269 OA
BRANCH  30  33
ATOM     33  C   UNL A   1      40.280  21.933  26.754  1.00  0.00     0.039 A 
ATOM     34  C   UNL A   1      41.229  22.139  27.759  1.00  0.00     0.014 A 
ATOM     35  C   UNL A   1      39.700  23.025  26.106  1.00  0.00     0.014 A 
ATOM     36  C   UNL A   1      41.647  23.438  28.059  1.00  0.00     0.010 A 
ATOM     37  C   UNL A   1      40.186  24.307  26.338  1.00  0.00     0.010 A 
ATOM     38  C   UNL A   1      41.161  24.530  27.322  1.00  0.00    -0.014 A 
BRANCH  38  39
ATOM     39  C   UNL A   1      41.640  25.915  27.571  1.00  0.00     0.031 A 
ATOM     40  C   UNL A   1      42.992  26.340  27.068  1.00  0.00     0.074 A 
ATOM     41  C   UNL A   1      40.891  26.765  28.302  1.00  0.00     0.049 A 
ATOM     42  N   UNL A   1      43.635  27.463  27.268  1.00  0.00    -0.248 NA
ATOM     43  C   UNL A   1      43.732  25.363  26.256  1.00  0.00     0.031 C 
ATOM     44  C   UNL A   1      39.574  26.461  28.865  1.00  0.00     0.029 A 
ATOM     45  N   UNL A   1      41.133  28.054  28.708  1.00  0.00    -0.354 N 
ATOM     46  C   UNL A   1      44.858  27.320  26.619  1.00  0.00     0.074 A 
ATOM     47  C   UNL A   1      44.891  25.977  26.080  1.00  0.00     0.031 C 
ATOM     48  C   UNL A   1      39.113  27.542  29.514  1.00  0.00     0.029 A 
ATOM     49  C   UNL A   1      40.124  28.593  29.473  1.00  0.00     0.049 A 
ATOM     50  H   UNL A   1      41.952  28.548  28.473  1.00  0.00     0.167 HD
ATOM     51  C   UNL A   1      45.848  28.231  26.467  1.00  0.00     0.034 A 
ATOM     52  C   UNL A   1      40.032  29.788  30.090  1.00  0.00     0.034 A 
ATOM     53  C   UNL A   1      45.797  29.567  27.011  1.00  0.00     0.049 A 
ATOM     54  C   UNL A   1      41.178  30.763  29.962  1.00  0.00     0.074 A 
ATOM     55  C   UNL A   1      46.727  30.584  26.882  1.00  0.00     0.029 A 
ATOM     56  N   UNL A   1      44.769  30.068  27.800  1.00  0.00    -0.354 N 
ATOM     57  N   UNL A   1      42.311  30.626  29.313  1.00  0.00    -0.248 NA
ATOM     58  C   UNL A   1      41.027  32.055  30.644  1.00  0.00     0.031 C 
ATOM     59  C   UNL A   1      46.308  31.661  27.667  1.00  0.00     0.029 A 
ATOM     60  C   UNL A   1      45.063  31.363  28.198  1.00  0.00     0.049 A 
ATOM     61  H   UNL A   1      43.951  29.575  28.040  1.00  0.00     0.167 HD
ATOM     62  C   UNL A   1      42.989  31.834  29.474  1.00  0.00     0.074 A 
ATOM     63  C   UNL A   1      42.132  32.685  30.273  1.00  0.00     0.031 C 
ATOM     64  C   UNL A   1      44.204  32.205  28.998  1.00  0.00     0.034 A 
BRANCH  51  65
ATOM     65  C   UNL A   1      47.084  27.800  25.711  1.00  0.00     0.023 A 
ATOM     66  C   UNL A   1      47.252  28.082  24.344  1.00  0.00     0.031 A 
ATOM     67  C   UNL A   1      48.100  27.077  26.360  1.00  0.00     0.131 A 
ATOM     68  C   UNL A   1      48.361  27.573  23.654  1.00  0.00     0.055 A 
ATOM     69  C   UNL A   1      49.250  26.657  25.690  1.00  0.00     0.041 A 
ATOM     70  F   UNL A   1      47.987  26.753  27.659  1.00  0.00    -0.206 F 
ATOM     71  C   UNL A   1      49.379  26.890  24.325  1.00  0.00     0.022 A 
BRANCH  68  72
ATOM     72  S   UNL A   1      48.374  27.673  21.844  1.00  0.00     0.124 S 
ATOM     73  O   UNL A   1      48.581  26.274  21.474  1.00  0.00    -0.237 OA
ATOM     74  O   UNL A   1      47.057  28.225  21.548  1.00  0.00    -0.237 OA
ATOM     75  O   UNL A   1      49.502  28.558  21.557  1.00  0.00    -0.744 OA
ENDBRANCH  68  72
ENDBRANCH  51  65
BRANCH  52  76
ATOM     76  C   UNL A   1      38.829  30.131  30.905  1.00  0.00     0.023 A 
ATOM     77  C   UNL A   1      37.805  30.937  30.383  1.00  0.00     0.031 A 
ATOM     78  C   UNL A   1      38.711  29.704  32.241  1.00  0.00     0.131 A 
ATOM     79  C   UNL A   1      36.739  31.337  31.204  1.00  0.00     0.055 A 
ATOM     80  C   UNL A   1      37.614  30.048  33.033  1.00  0.00     0.041 A 
ATOM     81  F   UNL A   1      39.662  28.935  32.796  1.00  0.00    -0.206 F 
ATOM     82  C   UNL A   1      36.628  30.882  32.520  1.00  0.00     0.022 A 
BRANCH  79  83
ATOM     83  S   UNL A   1      35.558  32.555  30.562  1.00  0.00     0.124 S 
ATOM     84  O   UNL A   1      35.423  32.131  29.174  1.00  0.00    -0.237 OA
ATOM     85  O   UNL A   1      34.398  32.332  31.419  1.00  0.00    -0.237 OA
ATOM     86  O   UNL A   1      36.243  33.830  30.763  1.00  0.00    -0.744 OA
ENDBRANCH  79  83
ENDBRANCH  52  76
BRANCH  64  87
ATOM     87  C   UNL A   1      44.655  33.622  29.271  1.00  0.00     0.023 A 
ATOM     88  C   UNL A   1      44.252  34.704  28.468  1.00  0.00     0.031 A 
ATOM     89  C   UNL A   1      45.504  33.892  30.359  1.00  0.00     0.131 A 
ATOM     90  C   UNL A   1      44.747  35.991  28.730  1.00  0.00     0.055 A 
ATOM     91  C   UNL A   1      45.931  35.185  30.661  1.00  0.00     0.041 A 
ATOM     92  F   UNL A   1      45.931  32.898  31.157  1.00  0.00    -0.206 F 
ATOM     93  C   UNL A   1      45.564  36.242  29.835  1.00  0.00     0.022 A 
BRANCH  90  94
ATOM     94  S   UNL A   1      44.403  37.316  27.539  1.00  0.00     0.124 S 
ATOM     95  O   UNL A   1      43.463  36.667  26.630  1.00  0.00    -0.237 OA
ATOM     96  O   UNL A   1      43.848  38.363  28.390  1.00  0.00    -0.237 OA
ATOM     97  O   UNL A   1      45.715  37.612  26.967  1.00  0.00    -0.744 OA
ENDBRANCH  90  94
ENDBRANCH  64  87
ENDBRANCH  38  39
ENDBRANCH  30  33
ENDBRANCH  28  29
ENDBRANCH  27  28
ENDBRANCH   1  27
TORSDOF 20
ENDMDL
MODEL 3
REMARK VINA RESULT:     -11.0      1.639      8.263
REMARK SMILES CCCc1cc(OCC(=O)NCCCNC(=O)c2ccc(-c3c4nc(c(-c5cc(S(=O)(=O)[O-])ccc5F)c5ccc([nH]5)c(-c5cc(S(=O)(=O)[O-])ccc5F)c5nc(c(-c6cc(S(=O)(=O)[O-])ccc6F)c6ccc3[nH]6)C=C5)C=C4)cc2)nc(Nc2ccc(C#N)cc2)n1
REMARK SMILES IDX 12 1 11 2 9 3 10 4 8 6 7 7 6 8 4 9 5 10 92 11 82 12 81 13
REMARK SMILES IDX 3 14 2 15 1 16 83 17 84 19 85 20 91 21 86 22 90 23 87 24
REMARK SMILES IDX 88 25 89 26 13 27 14 28 15 29 16 30 17 32 18 33 19 34 80 35
REMARK SMILES IDX 20 36 79 37 21 38 22 39 23 40 73 41 24 42 78 43 72 44 74 45
REMARK SMILES IDX 25 46 77 47 71 48 70 49 26 51 58 52 38 53 57 54 39 55 42 56
REMARK SMILES IDX 56 57 75 58 40 59 41 60 55 62 76 63 43 64 27 65 28 66 36 67
REMARK SMILES IDX 29 68 35 69 37 70 34 71 30 72 31 73 32 74 33 75 59 76 60 77
REMARK SMILES IDX 68 78 61 79 67 80 69 81 66 82 62 83 63 84 64 85 65 86 44 87
REMARK SMILES IDX 45 88 53 89 46 90 52 91 54 92 51 93 47 94 48 95 49 96 50 97
REMARK H PARENT 11 5 83 18 15 31 74 50 42 61
REMARK Flexibility Score: inf
ROOT
ATOM      1  C   UNL A   1      31.978  31.172  26.890  1.00  0.00     0.117 C 
ENDROOT
BRANCH   1   2
ATOM      2  N   UNL A   1      33.235  30.716  27.448  1.00  0.00    -0.353 N 
ATOM      3  C   UNL A   1      34.011  29.685  27.015  1.00  0.00     0.258 C 
ATOM      4  O   UNL A   1      35.105  29.496  27.550  1.00  0.00    -0.271 OA
ATOM      5  H   UNL A   1      33.567  31.210  28.232  1.00  0.00     0.163 HD
BRANCH   3   6
ATOM      6  C   UNL A   1      33.513  28.791  25.869  1.00  0.00     0.331 C 
BRANCH   6   7
ATOM      7  O   UNL A   1      32.397  27.957  26.147  1.00  0.00    -0.467 OA
BRANCH   7   8
ATOM      8  C   UNL A   1      31.515  27.708  25.128  1.00  0.00     0.218 A 
ATOM      9  C   UNL A   1      30.140  28.275  23.313  1.00  0.00     0.050 A 
ATOM     10  C   UNL A   1      30.984  28.677  24.314  1.00  0.00     0.092 A 
ATOM     11  N   UNL A   1      29.872  26.971  23.122  1.00  0.00    -0.218 NA
ATOM     12  C   UNL A   1      30.416  26.073  23.963  1.00  0.00     0.230 A 
ATOM     13  N   UNL A   1      31.225  26.407  24.979  1.00  0.00    -0.177 NA
BRANCH   9  14
ATOM     14  C   UNL A   1      29.534  29.251  22.334  1.00  0.00     0.056 C 
BRANCH  14  15
ATOM     15  C   UNL A   1      28.045  29.597  22.504  1.00  0.00     0.003 C 
ATOM     16  C   UNL A   1      27.749  30.772  23.435  1.00  0.00     0.004 C 
ENDBRANCH  14  15
ENDBRANCH   9  14
BRANCH  12  17
ATOM     17  N   UNL A   1      30.083  24.726  23.842  1.00  0.00    -0.324 N 
ATOM     18  H   UNL A   1      29.148  24.546  23.594  1.00  0.00     0.170 HD
BRANCH  17  19
ATOM     19  C   UNL A   1      30.881  23.593  24.018  1.00  0.00     0.041 A 
ATOM     20  C   UNL A   1      31.677  23.132  22.962  1.00  0.00     0.027 A 
ATOM     21  C   UNL A   1      30.979  22.942  25.255  1.00  0.00     0.027 A 
ATOM     22  C   UNL A   1      32.561  22.061  23.143  1.00  0.00     0.021 A 
ATOM     23  C   UNL A   1      31.836  21.853  25.436  1.00  0.00     0.021 A 
ATOM     24  C   UNL A   1      32.644  21.420  24.382  1.00  0.00     0.052 A 
BRANCH  24  25
ATOM     25  C   UNL A   1      33.581  20.351  24.581  1.00  0.00     0.099 C 
ATOM     26  N   UNL A   1      34.369  19.518  24.744  1.00  0.00    -0.192 NA
ENDBRANCH  24  25
ENDBRANCH  17  19
ENDBRANCH  12  17
ENDBRANCH   7   8
ENDBRANCH   6   7
ENDBRANCH   3   6
ENDBRANCH   1   2
BRANCH   1  27
ATOM     27  C   UNL A   1      31.780  32.673  27.036  1.00  0.00     0.042 C 
BRANCH  27  28
ATOM     28  C   UNL A   1      33.067  33.446  27.301  1.00  0.00     0.118 C 
BRANCH  28  29
ATOM     29  N   UNL A   1      32.873  34.566  28.213  1.00  0.00    -0.352 N 
ATOM     30  C   UNL A   1      33.434  34.809  29.443  1.00  0.00     0.251 C 
ATOM     31  H   UNL A   1      32.244  35.254  27.899  1.00  0.00     0.163 HD
ATOM     32  O   UNL A   1      32.972  35.702  30.150  1.00  0.00    -0.269 OA
BRANCH  30  33
ATOM     33  C   UNL A   1      34.567  33.989  29.916  1.00  0.00     0.039 A 
ATOM     34  C   UNL A   1      35.866  34.329  29.529  1.00  0.00     0.014 A 
ATOM     35  C   UNL A   1      34.350  32.882  30.740  1.00  0.00     0.014 A 
ATOM     36  C   UNL A   1      36.949  33.603  30.030  1.00  0.00     0.010 A 
ATOM     37  C   UNL A   1      35.432  32.223  31.312  1.00  0.00     0.010 A 
ATOM     38  C   UNL A   1      36.744  32.570  30.960  1.00  0.00    -0.014 A 
BRANCH  38  39
ATOM     39  C   UNL A   1      37.882  31.827  31.563  1.00  0.00     0.031 A 
ATOM     40  C   UNL A   1      38.392  32.217  32.924  1.00  0.00     0.074 A 
ATOM     41  C   UNL A   1      38.494  30.851  30.864  1.00  0.00     0.049 A 
ATOM     42  N   UNL A   1      39.432  31.767  33.578  1.00  0.00    -0.248 NA
ATOM     43  C   UNL A   1      37.650  33.272  33.629  1.00  0.00     0.031 C 
ATOM     44  C   UNL A   1      38.107  30.398  29.526  1.00  0.00     0.029 A 
ATOM     45  N   UNL A   1      39.578  30.068  31.175  1.00  0.00    -0.354 N 
ATOM     46  C   UNL A   1      39.477  32.494  34.764  1.00  0.00     0.074 A 
ATOM     47  C   UNL A   1      38.400  33.459  34.703  1.00  0.00     0.031 C 
ATOM     48  C   UNL A   1      38.920  29.400  29.147  1.00  0.00     0.029 A 
ATOM     49  C   UNL A   1      39.927  29.182  30.180  1.00  0.00     0.049 A 
ATOM     50  H   UNL A   1      40.062  30.133  32.030  1.00  0.00     0.167 HD
ATOM     51  C   UNL A   1      40.322  32.353  35.813  1.00  0.00     0.034 A 
ATOM     52  C   UNL A   1      40.953  28.312  30.099  1.00  0.00     0.034 A 
ATOM     53  C   UNL A   1      41.390  31.384  35.856  1.00  0.00     0.049 A 
ATOM     54  C   UNL A   1      41.921  28.218  31.254  1.00  0.00     0.074 A 
ATOM     55  C   UNL A   1      42.278  31.128  36.886  1.00  0.00     0.029 A 
ATOM     56  N   UNL A   1      41.726  30.521  34.820  1.00  0.00    -0.354 N 
ATOM     57  N   UNL A   1      41.927  28.887  32.384  1.00  0.00    -0.248 NA
ATOM     58  C   UNL A   1      43.016  27.249  31.124  1.00  0.00     0.031 C 
ATOM     59  C   UNL A   1      43.205  30.182  36.439  1.00  0.00     0.029 A 
ATOM     60  C   UNL A   1      42.833  29.763  35.172  1.00  0.00     0.049 A 
ATOM     61  H   UNL A   1      41.247  30.456  33.962  1.00  0.00     0.167 HD
ATOM     62  C   UNL A   1      43.001  28.385  33.116  1.00  0.00     0.074 A 
ATOM     63  C   UNL A   1      43.612  27.355  32.302  1.00  0.00     0.031 C 
ATOM     64  C   UNL A   1      43.438  28.739  34.352  1.00  0.00     0.034 A 
BRANCH  51  65
ATOM     65  C   UNL A   1      40.144  33.292  36.984  1.00  0.00     0.023 A 
ATOM     66  C   UNL A   1      39.428  32.915  38.134  1.00  0.00     0.031 A 
ATOM     67  C   UNL A   1      40.678  34.592  36.942  1.00  0.00     0.131 A 
ATOM     68  C   UNL A   1      39.195  33.850  39.152  1.00  0.00     0.055 A 
ATOM     69  C   UNL A   1      40.526  35.487  38.002  1.00  0.00     0.041 A 
ATOM     70  F   UNL A   1      41.349  35.022  35.860  1.00  0.00    -0.206 F 
ATOM     71  C   UNL A   1      39.766  35.124  39.110  1.00  0.00     0.022 A 
BRANCH  68  72
ATOM     72  S   UNL A   1      38.000  33.433  40.450  1.00  0.00     0.124 S 
ATOM     73  O   UNL A   1      37.823  34.724  41.112  1.00  0.00    -0.237 OA
ATOM     74  O   UNL A   1      36.858  32.945  39.686  1.00  0.00    -0.237 OA
ATOM     75  O   UNL A   1      38.696  32.425  41.248  1.00  0.00    -0.744 OA
ENDBRANCH  68  72
ENDBRANCH  51  65
BRANCH  52  76
ATOM     76  C   UNL A   1      41.141  27.471  28.880  1.00  0.00     0.023 A 
ATOM     77  C   UNL A   1      42.158  27.753  27.955  1.00  0.00     0.031 A 
ATOM     78  C   UNL A   1      40.268  26.405  28.591  1.00  0.00     0.131 A 
ATOM     79  C   UNL A   1      42.245  27.018  26.762  1.00  0.00     0.055 A 
ATOM     80  C   UNL A   1      40.401  25.633  27.436  1.00  0.00     0.041 A 
ATOM     81  F   UNL A   1      39.274  26.092  29.437  1.00  0.00    -0.206 F 
ATOM     82  C   UNL A   1      41.385  25.948  26.505  1.00  0.00     0.022 A 
BRANCH  79  83
ATOM     83  S   UNL A   1      43.428  27.555  25.495  1.00  0.00     0.124 S 
ATOM     84  O   UNL A   1      43.991  28.753  26.107  1.00  0.00    -0.237 OA
ATOM     85  O   UNL A   1      44.316  26.401  25.402  1.00  0.00    -0.237 OA
ATOM     86  O   UNL A   1      42.586  27.788  24.323  1.00  0.00    -0.744 OA
ENDBRANCH  79  83
ENDBRANCH  52  76
BRANCH  64  87
ATOM     87  C   UNL A   1      44.595  27.959  34.932  1.00  0.00     0.023 A 
ATOM     88  C   UNL A   1      44.408  26.761  35.644  1.00  0.00     0.031 A 
ATOM     89  C   UNL A   1      45.911  28.426  34.764  1.00  0.00     0.131 A 
ATOM     90  C   UNL A   1      45.512  26.107  36.213  1.00  0.00     0.055 A 
ATOM     91  C   UNL A   1      47.011  27.730  35.265  1.00  0.00     0.041 A 
ATOM     92  F   UNL A   1      46.152  29.569  34.101  1.00  0.00    -0.206 F 
ATOM     93  C   UNL A   1      46.814  26.570  36.007  1.00  0.00     0.022 A 
BRANCH  90  94
ATOM     94  S   UNL A   1      45.216  24.703  37.323  1.00  0.00     0.124 S 
ATOM     95  O   UNL A   1      44.586  23.738  36.428  1.00  0.00    -0.237 OA
ATOM     96  O   UNL A   1      46.564  24.371  37.774  1.00  0.00    -0.237 OA
ATOM     97  O   UNL A   1      44.338  25.259  38.351  1.00  0.00    -0.744 OA
ENDBRANCH  90  94
ENDBRANCH  64  87
ENDBRANCH  38  39
ENDBRANCH  30  33
ENDBRANCH  28  29
ENDBRANCH  27  28
ENDBRANCH   1  27
TORSDOF 20
ENDMDL
