MODEL 1
REMARK VINA RESULT:     -10.6      0.000      0.000
REMARK SMILES [NH3+][C@@H](Cc1ccc(OC(F)F)cc1)C(=O)NCCCNC(=O)c1ccc(-c2c3nc(c(-c4cc(S(=O)(=O)[O-])ccc4F)c4ccc([nH]4)c(-c4cc(S(=O)(=O)[O-])ccc4F)c4nc(c(-c5cc(S(=O)(=O)[O-])ccc5F)c5ccc2[nH]5)C=C4)C=C3)cc1
REMARK SMILES IDX 17 1 16 2 14 3 15 4 2 6 1 7 3 11 4 12 5 13 13 14 6 15 12 16
REMARK SMILES IDX 7 17 8 18 9 19 10 20 11 21 18 22 19 23 20 24 21 25 22 27
REMARK SMILES IDX 23 28 24 29 85 30 25 31 84 32 26 33 27 34 28 35 78 36 29 37
REMARK SMILES IDX 83 38 77 39 79 40 30 41 82 42 76 43 75 44 31 46 63 47 43 48
REMARK SMILES IDX 62 49 44 50 47 51 61 52 80 53 45 54 46 55 60 57 81 58 48 59
REMARK SMILES IDX 32 60 33 61 41 62 34 63 40 64 42 65 39 66 35 67 36 68 37 69
REMARK SMILES IDX 38 70 64 71 65 72 73 73 66 74 72 75 74 76 71 77 67 78 68 79
REMARK SMILES IDX 69 80 70 81 49 82 50 83 58 84 51 85 57 86 59 87 56 88 52 89
REMARK SMILES IDX 53 90 54 91 55 92
REMARK H PARENT 16 5 1 8 1 9 1 10 20 26 79 45 47 56
REMARK Flexibility Score: inf
ROOT
ATOM      1  C   UNL A   1      33.049  35.835  29.434  1.00  0.00     0.118 C 
ENDROOT
BRANCH   1   2
ATOM      2  N   UNL A   1      33.007  37.012  30.269  1.00  0.00    -0.351 N 
ATOM      3  C   UNL A   1      33.042  37.081  31.634  1.00  0.00     0.278 C 
ATOM      4  O   UNL A   1      33.342  38.172  32.134  1.00  0.00    -0.268 OA
ATOM      5  H   UNL A   1      32.946  37.873  29.795  1.00  0.00     0.163 HD
BRANCH   3   6
ATOM      6  C   UNL A   1      32.716  35.866  32.546  1.00  0.00     0.275 C 
BRANCH   6   7
ATOM      7  N   UNL A   1      31.272  35.796  32.864  1.00  0.00    -0.347 N 
ATOM      8  H   UNL A   1      31.054  34.880  33.256  1.00  0.00     0.345 HD
ATOM      9  H   UNL A   1      30.730  35.940  32.012  1.00  0.00     0.345 HD
ATOM     10  H   UNL A   1      31.038  36.521  33.542  1.00  0.00     0.345 HD
ENDBRANCH   6   7
BRANCH   6  11
ATOM     11  C   UNL A   1      33.428  34.529  32.201  1.00  0.00     0.111 C 
BRANCH  11  12
ATOM     12  C   UNL A   1      34.832  34.284  32.707  1.00  0.00    -0.041 A 
ATOM     13  C   UNL A   1      35.041  33.900  34.039  1.00  0.00     0.008 A 
ATOM     14  C   UNL A   1      35.954  34.502  31.893  1.00  0.00     0.008 A 
ATOM     15  C   UNL A   1      36.334  33.861  34.572  1.00  0.00     0.047 A 
ATOM     16  C   UNL A   1      37.246  34.491  32.436  1.00  0.00     0.047 A 
ATOM     17  C   UNL A   1      37.433  34.218  33.791  1.00  0.00     0.126 A 
BRANCH  17  18
ATOM     18  O   UNL A   1      38.625  34.263  34.455  1.00  0.00    -0.435 OA
BRANCH  18  19
ATOM     19  C   UNL A   1      39.699  34.951  33.818  1.00  0.00     0.542 C 
ATOM     20  F   UNL A   1      40.358  35.695  34.741  1.00  0.00    -0.167 F 
ATOM     21  F   UNL A   1      40.581  34.070  33.283  1.00  0.00    -0.167 F 
ENDBRANCH  18  19
ENDBRANCH  17  18
ENDBRANCH  11  12
ENDBRANCH   6  11
ENDBRANCH   3   6
ENDBRANCH   1   2
BRANCH   1  22
ATOM     22  C   UNL A   1      34.199  35.757  28.457  1.00  0.00     0.042 C 
BRANCH  22  23
ATOM     23  C   UNL A   1      34.844  34.385  28.379  1.00  0.00     0.118 C 
BRANCH  23  24
ATOM     24  N   UNL A   1      33.919  33.332  27.963  1.00  0.00    -0.352 N 
ATOM     25  C   UNL A   1      34.085  31.976  27.793  1.00  0.00     0.251 C 
ATOM     26  H   UNL A   1      33.007  33.652  27.770  1.00  0.00     0.163 HD
ATOM     27  O   UNL A   1      33.202  31.336  27.233  1.00  0.00    -0.269 OA
BRANCH  25  28
ATOM     28  C   UNL A   1      35.328  31.295  28.230  1.00  0.00     0.039 A 
ATOM     29  C   UNL A   1      36.518  32.027  28.296  1.00  0.00     0.014 A 
ATOM     30  C   UNL A   1      35.338  29.944  28.571  1.00  0.00     0.014 A 
ATOM     31  C   UNL A   1      37.677  31.432  28.802  1.00  0.00     0.010 A 
ATOM     32  C   UNL A   1      36.447  29.395  29.202  1.00  0.00     0.010 A 
ATOM     33  C   UNL A   1      37.636  30.127  29.316  1.00  0.00    -0.014 A 
BRANCH  33  34
ATOM     34  C   UNL A   1      38.822  29.486  29.945  1.00  0.00     0.031 A 
ATOM     35  C   UNL A   1      39.250  29.905  31.329  1.00  0.00     0.074 A 
ATOM     36  C   UNL A   1      39.559  28.602  29.245  1.00  0.00     0.049 A 
ATOM     37  N   UNL A   1      40.326  29.583  31.999  1.00  0.00    -0.248 NA
ATOM     38  C   UNL A   1      38.373  30.856  32.030  1.00  0.00     0.031 C 
ATOM     39  C   UNL A   1      39.280  28.160  27.875  1.00  0.00     0.029 A 
ATOM     40  N   UNL A   1      40.704  27.924  29.581  1.00  0.00    -0.354 N 
ATOM     41  C   UNL A   1      40.270  30.317  33.179  1.00  0.00     0.074 A 
ATOM     42  C   UNL A   1      39.096  31.157  33.095  1.00  0.00     0.031 C 
ATOM     43  C   UNL A   1      40.205  27.261  27.505  1.00  0.00     0.029 A 
ATOM     44  C   UNL A   1      41.174  27.101  28.583  1.00  0.00     0.049 A 
ATOM     45  H   UNL A   1      41.148  28.019  30.454  1.00  0.00     0.167 HD
ATOM     46  C   UNL A   1      41.104  30.273  34.248  1.00  0.00     0.034 A 
ATOM     47  C   UNL A   1      42.268  26.315  28.540  1.00  0.00     0.034 A 
ATOM     48  C   UNL A   1      42.247  29.398  34.328  1.00  0.00     0.049 A 
ATOM     49  C   UNL A   1      43.174  26.270  29.744  1.00  0.00     0.074 A 
ATOM     50  C   UNL A   1      43.122  29.215  35.385  1.00  0.00     0.029 A 
ATOM     51  N   UNL A   1      42.672  28.553  33.311  1.00  0.00    -0.354 N 
ATOM     52  N   UNL A   1      43.081  26.934  30.874  1.00  0.00    -0.248 NA
ATOM     53  C   UNL A   1      44.325  25.360  29.673  1.00  0.00     0.031 C 
ATOM     54  C   UNL A   1      44.108  28.307  34.985  1.00  0.00     0.029 A 
ATOM     55  C   UNL A   1      43.808  27.865  33.706  1.00  0.00     0.049 A 
ATOM     56  H   UNL A   1      42.231  28.458  32.435  1.00  0.00     0.167 HD
ATOM     57  C   UNL A   1      44.145  26.498  31.658  1.00  0.00     0.074 A 
ATOM     58  C   UNL A   1      44.855  25.504  30.878  1.00  0.00     0.031 C 
ATOM     59  C   UNL A   1      44.503  26.881  32.910  1.00  0.00     0.034 A 
BRANCH  46  60
ATOM     60  C   UNL A   1      40.807  31.206  35.399  1.00  0.00     0.023 A 
ATOM     61  C   UNL A   1      39.706  31.003  36.250  1.00  0.00     0.031 A 
ATOM     62  C   UNL A   1      41.607  32.341  35.623  1.00  0.00     0.131 A 
ATOM     63  C   UNL A   1      39.380  31.962  37.219  1.00  0.00     0.055 A 
ATOM     64  C   UNL A   1      41.330  33.246  36.650  1.00  0.00     0.041 A 
ATOM     65  F   UNL A   1      42.661  32.602  34.833  1.00  0.00    -0.206 F 
ATOM     66  C   UNL A   1      40.200  33.071  37.444  1.00  0.00     0.022 A 
BRANCH  63  67
ATOM     67  S   UNL A   1      37.783  31.825  38.067  1.00  0.00     0.124 S 
ATOM     68  O   UNL A   1      38.173  32.018  39.462  1.00  0.00    -0.237 OA
ATOM     69  O   UNL A   1      37.012  32.907  37.464  1.00  0.00    -0.237 OA
ATOM     70  O   UNL A   1      37.332  30.476  37.733  1.00  0.00    -0.744 OA
ENDBRANCH  63  67
ENDBRANCH  46  60
BRANCH  47  71
ATOM     71  C   UNL A   1      42.573  25.505  27.325  1.00  0.00     0.023 A 
ATOM     72  C   UNL A   1      42.185  24.159  27.240  1.00  0.00     0.031 A 
ATOM     73  C   UNL A   1      43.291  26.053  26.247  1.00  0.00     0.131 A 
ATOM     74  C   UNL A   1      42.556  23.391  26.125  1.00  0.00     0.055 A 
ATOM     75  C   UNL A   1      43.613  25.300  25.116  1.00  0.00     0.041 A 
ATOM     76  F   UNL A   1      43.680  27.338  26.272  1.00  0.00    -0.206 F 
ATOM     77  C   UNL A   1      43.257  23.956  25.057  1.00  0.00     0.022 A 
BRANCH  74  78
ATOM     78  S   UNL A   1      42.180  21.617  26.130  1.00  0.00     0.124 S 
ATOM     79  O   UNL A   1      42.570  21.234  27.482  1.00  0.00    -0.237 OA
ATOM     80  O   UNL A   1      40.748  21.610  25.848  1.00  0.00    -0.237 OA
ATOM     81  O   UNL A   1      43.026  21.087  25.062  1.00  0.00    -0.744 OA
ENDBRANCH  74  78
ENDBRANCH  47  71
BRANCH  59  82
ATOM     82  C   UNL A   1      45.688  26.180  33.526  1.00  0.00     0.023 A 
ATOM     83  C   UNL A   1      45.554  24.961  34.213  1.00  0.00     0.031 A 
ATOM     84  C   UNL A   1      46.971  26.748  33.428  1.00  0.00     0.131 A 
ATOM     85  C   UNL A   1      46.673  24.378  34.822  1.00  0.00     0.055 A 
ATOM     86  C   UNL A   1      48.092  26.131  33.985  1.00  0.00     0.041 A 
ATOM     87  F   UNL A   1      47.156  27.912  32.784  1.00  0.00    -0.206 F 
ATOM     88  C   UNL A   1      47.943  24.946  34.698  1.00  0.00     0.022 A 
BRANCH  85  89
ATOM     89  S   UNL A   1      46.432  22.908  35.858  1.00  0.00     0.124 S 
ATOM     90  O   UNL A   1      47.793  22.627  36.307  1.00  0.00    -0.237 OA
ATOM     91  O   UNL A   1      45.511  23.393  36.880  1.00  0.00    -0.237 OA
ATOM     92  O   UNL A   1      45.870  21.925  34.933  1.00  0.00    -0.744 OA
ENDBRANCH  85  89
ENDBRANCH  59  82
ENDBRANCH  33  34
ENDBRANCH  25  28
ENDBRANCH  23  24
ENDBRANCH  22  23
ENDBRANCH   1  22
TORSDOF 18
ENDMDL
MODEL 2
REMARK VINA RESULT:     -10.5      6.833     10.779
REMARK SMILES [NH3+][C@@H](Cc1ccc(OC(F)F)cc1)C(=O)NCCCNC(=O)c1ccc(-c2c3nc(c(-c4cc(S(=O)(=O)[O-])ccc4F)c4ccc([nH]4)c(-c4cc(S(=O)(=O)[O-])ccc4F)c4nc(c(-c5cc(S(=O)(=O)[O-])ccc5F)c5ccc2[nH]5)C=C4)C=C3)cc1
REMARK SMILES IDX 17 1 16 2 14 3 15 4 2 6 1 7 3 11 4 12 5 13 13 14 6 15 12 16
REMARK SMILES IDX 7 17 8 18 9 19 10 20 11 21 18 22 19 23 20 24 21 25 22 27
REMARK SMILES IDX 23 28 24 29 85 30 25 31 84 32 26 33 27 34 28 35 78 36 29 37
REMARK SMILES IDX 83 38 77 39 79 40 30 41 82 42 76 43 75 44 31 46 63 47 43 48
REMARK SMILES IDX 62 49 44 50 47 51 61 52 80 53 45 54 46 55 60 57 81 58 48 59
REMARK SMILES IDX 32 60 33 61 41 62 34 63 40 64 42 65 39 66 35 67 36 68 37 69
REMARK SMILES IDX 38 70 64 71 65 72 73 73 66 74 72 75 74 76 71 77 67 78 68 79
REMARK SMILES IDX 69 80 70 81 49 82 50 83 58 84 51 85 57 86 59 87 56 88 52 89
REMARK SMILES IDX 53 90 54 91 55 92
REMARK H PARENT 16 5 1 8 1 9 1 10 20 26 79 45 47 56
REMARK Flexibility Score: inf
ROOT
ATOM      1  C   UNL A   1      34.862  23.570  24.378  1.00  0.00     0.118 C 
ENDROOT
BRANCH   1   2
ATOM      2  N   UNL A   1      34.481  24.125  23.102  1.00  0.00    -0.351 N 
ATOM      3  C   UNL A   1      33.245  24.125  22.517  1.00  0.00     0.278 C 
ATOM      4  O   UNL A   1      33.057  24.939  21.604  1.00  0.00    -0.268 OA
ATOM      5  H   UNL A   1      35.201  24.557  22.588  1.00  0.00     0.163 HD
BRANCH   3   6
ATOM      6  C   UNL A   1      32.111  23.155  22.947  1.00  0.00     0.275 C 
BRANCH   6   7
ATOM      7  N   UNL A   1      30.810  23.852  23.056  1.00  0.00    -0.347 N 
ATOM      8  H   UNL A   1      30.210  23.576  22.279  1.00  0.00     0.345 HD
ATOM      9  H   UNL A   1      30.962  24.860  23.026  1.00  0.00     0.345 HD
ATOM     10  H   UNL A   1      30.363  23.602  23.937  1.00  0.00     0.345 HD
ENDBRANCH   6   7
BRANCH   6  11
ATOM     11  C   UNL A   1      32.106  21.753  22.278  1.00  0.00     0.111 C 
BRANCH  11  12
ATOM     12  C   UNL A   1      32.265  20.520  23.140  1.00  0.00    -0.041 A 
ATOM     13  C   UNL A   1      32.459  20.650  24.523  1.00  0.00     0.008 A 
ATOM     14  C   UNL A   1      32.294  19.233  22.581  1.00  0.00     0.008 A 
ATOM     15  C   UNL A   1      32.800  19.537  25.298  1.00  0.00     0.047 A 
ATOM     16  C   UNL A   1      32.664  18.124  23.355  1.00  0.00     0.047 A 
ATOM     17  C   UNL A   1      32.967  18.284  24.707  1.00  0.00     0.126 A 
BRANCH  17  18
ATOM     18  O   UNL A   1      33.422  17.306  25.543  1.00  0.00    -0.435 OA
BRANCH  18  19
ATOM     19  C   UNL A   1      33.955  16.130  24.937  1.00  0.00     0.542 C 
ATOM     20  F   UNL A   1      34.955  15.645  25.715  1.00  0.00    -0.167 F 
ATOM     21  F   UNL A   1      33.002  15.170  24.836  1.00  0.00    -0.167 F 
ENDBRANCH  18  19
ENDBRANCH  17  18
ENDBRANCH  11  12
ENDBRANCH   6  11
ENDBRANCH   3   6
ENDBRANCH   1   2
BRANCH   1  22
ATOM     22  C   UNL A   1      35.660  22.287  24.330  1.00  0.00     0.042 C 
BRANCH  22  23
ATOM     23  C   UNL A   1      36.145  21.817  25.690  1.00  0.00     0.118 C 
BRANCH  23  24
ATOM     24  N   UNL A   1      37.212  20.821  25.613  1.00  0.00    -0.352 N 
ATOM     25  C   UNL A   1      38.574  20.915  25.793  1.00  0.00     0.251 C 
ATOM     26  H   UNL A   1      36.898  19.913  25.391  1.00  0.00     0.163 HD
ATOM     27  O   UNL A   1      39.282  19.968  25.468  1.00  0.00    -0.269 OA
BRANCH  25  28
ATOM     28  C   UNL A   1      39.193  22.153  26.326  1.00  0.00     0.039 A 
ATOM     29  C   UNL A   1      40.311  22.049  27.160  1.00  0.00     0.014 A 
ATOM     30  C   UNL A   1      38.686  23.413  26.019  1.00  0.00     0.014 A 
ATOM     31  C   UNL A   1      40.972  23.203  27.589  1.00  0.00     0.010 A 
ATOM     32  C   UNL A   1      39.420  24.552  26.327  1.00  0.00     0.010 A 
ATOM     33  C   UNL A   1      40.567  24.465  27.126  1.00  0.00    -0.014 A 
BRANCH  33  34
ATOM     34  C   UNL A   1      41.294  25.711  27.485  1.00  0.00     0.031 A 
ATOM     35  C   UNL A   1      40.609  26.759  28.325  1.00  0.00     0.074 A 
ATOM     36  C   UNL A   1      42.525  25.940  26.985  1.00  0.00     0.049 A 
ATOM     37  N   UNL A   1      41.004  27.968  28.630  1.00  0.00    -0.248 NA
ATOM     38  C   UNL A   1      39.277  26.416  28.848  1.00  0.00     0.031 C 
ATOM     39  C   UNL A   1      43.269  25.027  26.112  1.00  0.00     0.029 A 
ATOM     40  N   UNL A   1      43.365  27.015  27.127  1.00  0.00    -0.354 N 
ATOM     41  C   UNL A   1      39.956  28.538  29.347  1.00  0.00     0.074 A 
ATOM     42  C   UNL A   1      38.883  27.569  29.362  1.00  0.00     0.031 C 
ATOM     43  C   UNL A   1      44.466  25.566  25.829  1.00  0.00     0.029 A 
ATOM     44  C   UNL A   1      44.556  26.882  26.450  1.00  0.00     0.049 A 
ATOM     45  H   UNL A   1      43.137  27.808  27.663  1.00  0.00     0.167 HD
ATOM     46  C   UNL A   1      39.905  29.746  29.963  1.00  0.00     0.034 A 
ATOM     47  C   UNL A   1      45.597  27.731  26.335  1.00  0.00     0.034 A 
ATOM     48  C   UNL A   1      41.003  30.680  29.970  1.00  0.00     0.049 A 
ATOM     49  C   UNL A   1      45.525  29.062  27.039  1.00  0.00     0.074 A 
ATOM     50  C   UNL A   1      41.093  31.900  30.616  1.00  0.00     0.029 A 
ATOM     51  N   UNL A   1      42.206  30.496  29.301  1.00  0.00    -0.354 N 
ATOM     52  N   UNL A   1      44.547  29.567  27.755  1.00  0.00    -0.248 NA
ATOM     53  C   UNL A   1      46.703  29.932  26.930  1.00  0.00     0.031 C 
ATOM     54  C   UNL A   1      42.325  32.479  30.290  1.00  0.00     0.029 A 
ATOM     55  C   UNL A   1      43.035  31.589  29.500  1.00  0.00     0.049 A 
ATOM     56  H   UNL A   1      42.437  29.704  28.762  1.00  0.00     0.167 HD
ATOM     57  C   UNL A   1      45.005  30.801  28.206  1.00  0.00     0.074 A 
ATOM     58  C   UNL A   1      46.352  30.955  27.694  1.00  0.00     0.031 C 
ATOM     59  C   UNL A   1      44.374  31.724  28.976  1.00  0.00     0.034 A 
BRANCH  46  60
ATOM     60  C   UNL A   1      38.618  30.114  30.663  1.00  0.00     0.023 A 
ATOM     61  C   UNL A   1      37.604  30.840  30.011  1.00  0.00     0.031 A 
ATOM     62  C   UNL A   1      38.418  29.779  32.013  1.00  0.00     0.131 A 
ATOM     63  C   UNL A   1      36.486  31.285  30.730  1.00  0.00     0.055 A 
ATOM     64  C   UNL A   1      37.259  30.146  32.700  1.00  0.00     0.041 A 
ATOM     65  F   UNL A   1      39.357  29.105  32.697  1.00  0.00    -0.206 F 
ATOM     66  C   UNL A   1      36.292  30.921  32.065  1.00  0.00     0.022 A 
BRANCH  63  67
ATOM     67  S   UNL A   1      35.373  32.482  29.943  1.00  0.00     0.124 S 
ATOM     68  O   UNL A   1      34.891  31.721  28.792  1.00  0.00    -0.237 OA
ATOM     69  O   UNL A   1      34.395  32.741  30.993  1.00  0.00    -0.237 OA
ATOM     70  O   UNL A   1      36.251  33.603  29.616  1.00  0.00    -0.744 OA
ENDBRANCH  63  67
ENDBRANCH  46  60
BRANCH  47  71
ATOM     71  C   UNL A   1      46.795  27.357  25.529  1.00  0.00     0.023 A 
ATOM     72  C   UNL A   1      46.950  27.819  24.213  1.00  0.00     0.031 A 
ATOM     73  C   UNL A   1      47.783  26.502  26.049  1.00  0.00     0.131 A 
ATOM     74  C   UNL A   1      48.041  27.387  23.442  1.00  0.00     0.055 A 
ATOM     75  C   UNL A   1      48.895  26.116  25.296  1.00  0.00     0.041 A 
ATOM     76  F   UNL A   1      47.689  26.038  27.305  1.00  0.00    -0.206 F 
ATOM     77  C   UNL A   1      49.021  26.549  23.979  1.00  0.00     0.022 A 
BRANCH  74  78
ATOM     78  S   UNL A   1      48.117  27.872  21.696  1.00  0.00     0.124 S 
ATOM     79  O   UNL A   1      48.286  26.583  21.037  1.00  0.00    -0.237 OA
ATOM     80  O   UNL A   1      46.825  28.525  21.508  1.00  0.00    -0.237 OA
ATOM     81  O   UNL A   1      49.276  28.761  21.640  1.00  0.00    -0.744 OA
ENDBRANCH  74  78
ENDBRANCH  47  71
BRANCH  59  82
ATOM     82  C   UNL A   1      45.159  32.956  29.348  1.00  0.00     0.023 A 
ATOM     83  C   UNL A   1      45.956  33.006  30.505  1.00  0.00     0.031 A 
ATOM     84  C   UNL A   1      45.102  34.101  28.533  1.00  0.00     0.131 A 
ATOM     85  C   UNL A   1      46.619  34.194  30.843  1.00  0.00     0.055 A 
ATOM     86  C   UNL A   1      45.813  35.260  28.843  1.00  0.00     0.041 A 
ATOM     87  F   UNL A   1      44.355  34.108  27.416  1.00  0.00    -0.206 F 
ATOM     88  C   UNL A   1      46.566  35.315  30.012  1.00  0.00     0.022 A 
BRANCH  85  89
ATOM     89  S   UNL A   1      47.483  34.284  32.436  1.00  0.00     0.124 S 
ATOM     90  O   UNL A   1      48.876  34.111  32.035  1.00  0.00    -0.237 OA
ATOM     91  O   UNL A   1      47.119  35.613  32.914  1.00  0.00    -0.237 OA
ATOM     92  O   UNL A   1      46.914  33.173  33.198  1.00  0.00    -0.744 OA
ENDBRANCH  85  89
ENDBRANCH  59  82
ENDBRANCH  33  34
ENDBRANCH  25  28
ENDBRANCH  23  24
ENDBRANCH  22  23
ENDBRANCH   1  22
TORSDOF 18
ENDMDL
MODEL 3
REMARK VINA RESULT:     -10.5      6.808     12.798
REMARK SMILES [NH3+][C@@H](Cc1ccc(OC(F)F)cc1)C(=O)NCCCNC(=O)c1ccc(-c2c3nc(c(-c4cc(S(=O)(=O)[O-])ccc4F)c4ccc([nH]4)c(-c4cc(S(=O)(=O)[O-])ccc4F)c4nc(c(-c5cc(S(=O)(=O)[O-])ccc5F)c5ccc2[nH]5)C=C4)C=C3)cc1
REMARK SMILES IDX 17 1 16 2 14 3 15 4 2 6 1 7 3 11 4 12 5 13 13 14 6 15 12 16
REMARK SMILES IDX 7 17 8 18 9 19 10 20 11 21 18 22 19 23 20 24 21 25 22 27
REMARK SMILES IDX 23 28 24 29 85 30 25 31 84 32 26 33 27 34 28 35 78 36 29 37
REMARK SMILES IDX 83 38 77 39 79 40 30 41 82 42 76 43 75 44 31 46 63 47 43 48
REMARK SMILES IDX 62 49 44 50 47 51 61 52 80 53 45 54 46 55 60 57 81 58 48 59
REMARK SMILES IDX 32 60 33 61 41 62 34 63 40 64 42 65 39 66 35 67 36 68 37 69
REMARK SMILES IDX 38 70 64 71 65 72 73 73 66 74 72 75 74 76 71 77 67 78 68 79
REMARK SMILES IDX 69 80 70 81 49 82 50 83 58 84 51 85 57 86 59 87 56 88 52 89
REMARK SMILES IDX 53 90 54 91 55 92
REMARK H PARENT 16 5 1 8 1 9 1 10 20 26 79 45 47 56
REMARK Flexibility Score: inf
ROOT
ATOM      1  C   UNL A   1      34.839  22.616  24.302  1.00  0.00     0.118 C 
ENDROOT
BRANCH   1   2
ATOM      2  N   UNL A   1      34.600  23.088  22.959  1.00  0.00    -0.351 N 
ATOM      3  C   UNL A   1      33.400  23.247  22.322  1.00  0.00     0.278 C 
ATOM      4  O   UNL A   1      33.388  23.976  21.323  1.00  0.00    -0.268 OA
ATOM      5  H   UNL A   1      35.400  23.324  22.437  1.00  0.00     0.163 HD
BRANCH   3   6
ATOM      6  C   UNL A   1      32.095  22.551  22.799  1.00  0.00     0.275 C 
BRANCH   6   7
ATOM      7  N   UNL A   1      30.965  23.503  22.872  1.00  0.00    -0.347 N 
ATOM      8  H   UNL A   1      31.298  24.443  22.659  1.00  0.00     0.345 HD
ATOM      9  H   UNL A   1      30.568  23.486  23.811  1.00  0.00     0.345 HD
ATOM     10  H   UNL A   1      30.250  23.234  22.196  1.00  0.00     0.345 HD
ENDBRANCH   6   7
BRANCH   6  11
ATOM     11  C   UNL A   1      31.800  21.148  22.200  1.00  0.00     0.111 C 
BRANCH  11  12
ATOM     12  C   UNL A   1      32.149  19.912  22.999  1.00  0.00    -0.041 A 
ATOM     13  C   UNL A   1      32.332  20.001  24.386  1.00  0.00     0.008 A 
ATOM     14  C   UNL A   1      32.368  18.673  22.376  1.00  0.00     0.008 A 
ATOM     15  C   UNL A   1      32.843  18.916  25.105  1.00  0.00     0.047 A 
ATOM     16  C   UNL A   1      32.907  17.597  23.094  1.00  0.00     0.047 A 
ATOM     17  C   UNL A   1      33.193  17.734  24.452  1.00  0.00     0.126 A 
BRANCH  17  18
ATOM     18  O   UNL A   1      33.796  16.795  25.237  1.00  0.00    -0.435 OA
BRANCH  18  19
ATOM     19  C   UNL A   1      35.113  16.389  24.869  1.00  0.00     0.542 C 
ATOM     20  F   UNL A   1      35.932  17.469  24.890  1.00  0.00    -0.167 F 
ATOM     21  F   UNL A   1      35.598  15.480  25.752  1.00  0.00    -0.167 F 
ENDBRANCH  18  19
ENDBRANCH  17  18
ENDBRANCH  11  12
ENDBRANCH   6  11
ENDBRANCH   3   6
ENDBRANCH   1   2
BRANCH   1  22
ATOM     22  C   UNL A   1      35.889  21.537  24.447  1.00  0.00     0.042 C 
BRANCH  22  23
ATOM     23  C   UNL A   1      36.650  21.598  25.758  1.00  0.00     0.118 C 
BRANCH  23  24
ATOM     24  N   UNL A   1      37.798  20.694  25.805  1.00  0.00    -0.352 N 
ATOM     25  C   UNL A   1      39.132  20.914  26.065  1.00  0.00     0.251 C 
ATOM     26  H   UNL A   1      37.576  19.753  25.617  1.00  0.00     0.163 HD
ATOM     27  O   UNL A   1      39.936  20.016  25.839  1.00  0.00    -0.269 OA
BRANCH  25  28
ATOM     28  C   UNL A   1      39.611  22.226  26.564  1.00  0.00     0.039 A 
ATOM     29  C   UNL A   1      40.642  22.259  27.509  1.00  0.00     0.014 A 
ATOM     30  C   UNL A   1      39.055  23.423  26.118  1.00  0.00     0.014 A 
ATOM     31  C   UNL A   1      41.177  23.485  27.915  1.00  0.00     0.010 A 
ATOM     32  C   UNL A   1      39.677  24.630  26.413  1.00  0.00     0.010 A 
ATOM     33  C   UNL A   1      40.739  24.680  27.325  1.00  0.00    -0.014 A 
BRANCH  33  34
ATOM     34  C   UNL A   1      41.342  25.997  27.661  1.00  0.00     0.031 A 
ATOM     35  C   UNL A   1      42.752  26.306  27.226  1.00  0.00     0.074 A 
ATOM     36  C   UNL A   1      40.661  26.872  28.428  1.00  0.00     0.049 A 
ATOM     37  N   UNL A   1      43.513  27.324  27.534  1.00  0.00    -0.248 NA
ATOM     38  C   UNL A   1      43.411  25.305  26.372  1.00  0.00     0.031 C 
ATOM     39  C   UNL A   1      39.311  26.664  28.960  1.00  0.00     0.029 A 
ATOM     40  N   UNL A   1      41.014  28.109  28.907  1.00  0.00    -0.354 N 
ATOM     41  C   UNL A   1      44.745  27.068  26.942  1.00  0.00     0.074 A 
ATOM     42  C   UNL A   1      44.651  25.763  26.325  1.00  0.00     0.031 C 
ATOM     43  C   UNL A   1      38.940  27.748  29.658  1.00  0.00     0.029 A 
ATOM     44  C   UNL A   1      40.039  28.706  29.673  1.00  0.00     0.049 A 
ATOM     45  H   UNL A   1      41.884  28.529  28.720  1.00  0.00     0.167 HD
ATOM     46  C   UNL A   1      45.845  27.860  26.890  1.00  0.00     0.034 A 
ATOM     47  C   UNL A   1      40.038  29.887  30.322  1.00  0.00     0.034 A 
ATOM     48  C   UNL A   1      45.904  29.175  27.477  1.00  0.00     0.049 A 
ATOM     49  C   UNL A   1      41.265  30.759  30.240  1.00  0.00     0.074 A 
ATOM     50  C   UNL A   1      46.936  30.096  27.430  1.00  0.00     0.029 A 
ATOM     51  N   UNL A   1      44.885  29.761  28.217  1.00  0.00    -0.354 N 
ATOM     52  N   UNL A   1      42.407  30.524  29.634  1.00  0.00    -0.248 NA
ATOM     53  C   UNL A   1      41.200  32.059  30.919  1.00  0.00     0.031 C 
ATOM     54  C   UNL A   1      46.564  31.211  28.189  1.00  0.00     0.029 A 
ATOM     55  C   UNL A   1      45.271  31.019  28.650  1.00  0.00     0.049 A 
ATOM     56  H   UNL A   1      44.013  29.342  28.407  1.00  0.00     0.167 HD
ATOM     57  C   UNL A   1      43.183  31.662  29.834  1.00  0.00     0.074 A 
ATOM     58  C   UNL A   1      42.373  32.586  30.602  1.00  0.00     0.031 C 
ATOM     59  C   UNL A   1      44.449  31.923  29.419  1.00  0.00     0.034 A 
BRANCH  46  60
ATOM     60  C   UNL A   1      47.064  27.312  26.185  1.00  0.00     0.023 A 
ATOM     61  C   UNL A   1      47.997  26.496  26.848  1.00  0.00     0.031 A 
ATOM     62  C   UNL A   1      47.323  27.646  24.844  1.00  0.00     0.131 A 
ATOM     63  C   UNL A   1      49.185  26.120  26.205  1.00  0.00     0.055 A 
ATOM     64  C   UNL A   1      48.465  27.192  24.179  1.00  0.00     0.041 A 
ATOM     65  F   UNL A   1      46.481  28.438  24.160  1.00  0.00    -0.206 F 
ATOM     66  C   UNL A   1      49.414  26.440  24.865  1.00  0.00     0.022 A 
BRANCH  63  67
ATOM     67  S   UNL A   1      50.496  25.350  27.194  1.00  0.00     0.124 S 
ATOM     68  O   UNL A   1      50.875  26.446  28.084  1.00  0.00    -0.237 OA
ATOM     69  O   UNL A   1      49.802  24.231  27.820  1.00  0.00    -0.237 OA
ATOM     70  O   UNL A   1      51.504  24.985  26.202  1.00  0.00    -0.744 OA
ENDBRANCH  63  67
ENDBRANCH  46  60
BRANCH  47  71
ATOM     71  C   UNL A   1      38.844  30.322  31.104  1.00  0.00     0.023 A 
ATOM     72  C   UNL A   1      37.781  30.994  30.481  1.00  0.00     0.031 A 
ATOM     73  C   UNL A   1      38.765  30.106  32.491  1.00  0.00     0.131 A 
ATOM     74  C   UNL A   1      36.707  31.471  31.248  1.00  0.00     0.055 A 
ATOM     75  C   UNL A   1      37.669  30.536  33.243  1.00  0.00     0.041 A 
ATOM     76  F   UNL A   1      39.749  29.460  33.136  1.00  0.00    -0.206 F 
ATOM     77  C   UNL A   1      36.638  31.235  32.623  1.00  0.00     0.022 A 
BRANCH  74  78
ATOM     78  S   UNL A   1      35.438  32.478  30.433  1.00  0.00     0.124 S 
ATOM     79  O   UNL A   1      35.135  31.678  29.253  1.00  0.00    -0.237 OA
ATOM     80  O   UNL A   1      34.397  32.536  31.454  1.00  0.00    -0.237 OA
ATOM     81  O   UNL A   1      36.123  33.743  30.172  1.00  0.00    -0.744 OA
ENDBRANCH  74  78
ENDBRANCH  47  71
BRANCH  59  82
ATOM     82  C   UNL A   1      45.009  33.284  29.749  1.00  0.00     0.023 A 
ATOM     83  C   UNL A   1      44.911  34.362  28.853  1.00  0.00     0.031 A 
ATOM     84  C   UNL A   1      45.657  33.500  30.978  1.00  0.00     0.131 A 
ATOM     85  C   UNL A   1      45.501  35.592  29.176  1.00  0.00     0.055 A 
ATOM     86  C   UNL A   1      46.188  34.744  31.320  1.00  0.00     0.041 A 
ATOM     87  F   UNL A   1      45.779  32.503  31.871  1.00  0.00    -0.206 F 
ATOM     88  C   UNL A   1      46.124  35.794  30.410  1.00  0.00     0.022 A 
BRANCH  85  89
ATOM     89  S   UNL A   1      45.521  36.903  27.923  1.00  0.00     0.124 S 
ATOM     90  O   UNL A   1      44.203  37.508  28.095  1.00  0.00    -0.237 OA
ATOM     91  O   UNL A   1      46.655  37.719  28.342  1.00  0.00    -0.237 OA
ATOM     92  O   UNL A   1      45.711  36.176  26.669  1.00  0.00    -0.744 OA
ENDBRANCH  85  89
ENDBRANCH  59  82
ENDBRANCH  33  34
ENDBRANCH  25  28
ENDBRANCH  23  24
ENDBRANCH  22  23
ENDBRANCH   1  22
TORSDOF 18
ENDMDL
