MODEL 1
REMARK VINA RESULT:     -14.0      0.000      0.000
REMARK SMILES Cc1c(NC(=O)[C@@H]2CC=CC[C@@H]2C(=O)NCCCNC(=O)c2ccc(-c3c4nc(c(-c5cc(S(=O)(=O)[O-])ccc5F)c5ccc([nH]5)c(-c5cc(S(=O)(=O)[O-])ccc5F)c5nc(c(-c6cc(S(=O)(=O)[O-])ccc6F)c6ccc3[nH]6)C=C5)C=C4)cc2)cccc1C(=O)N1CCOCC1
REMARK SMILES IDX 17 1 16 2 15 3 13 4 14 5 12 7 7 8 8 9 9 10 11 11 10 12 5 13
REMARK SMILES IDX 4 14 6 16 3 17 1 18 2 19 88 20 85 21 87 22 86 23 89 24 90 25
REMARK SMILES IDX 91 26 92 27 96 28 93 29 95 30 94 31 18 32 19 33 20 34 21 36
REMARK SMILES IDX 22 37 23 38 84 39 24 40 83 41 25 42 26 43 27 44 77 45 28 46
REMARK SMILES IDX 82 47 76 48 78 49 29 50 81 51 75 52 74 53 30 55 62 56 42 57
REMARK SMILES IDX 61 58 43 59 46 60 60 61 79 62 44 63 45 64 59 66 80 67 47 68
REMARK SMILES IDX 31 69 32 70 40 71 33 72 39 73 41 74 38 75 34 76 35 77 36 78
REMARK SMILES IDX 37 79 63 80 64 81 72 82 65 83 71 84 73 85 70 86 66 87 67 88
REMARK SMILES IDX 68 89 69 90 48 91 49 92 57 93 50 94 56 95 58 96 55 97 51 98
REMARK SMILES IDX 52 99 53 100 54 101
REMARK H PARENT 15 6 4 15 19 35 78 54 46 65
REMARK Flexibility Score: inf
ROOT
ATOM      1  C   UNL A   1      38.383  21.870  25.462  1.00  0.00     0.042 C 
ENDROOT
BRANCH   1   2
ATOM      2  C   UNL A   1      37.111  22.079  24.644  1.00  0.00     0.117 C 
BRANCH   2   3
ATOM      3  N   UNL A   1      36.241  20.913  24.661  1.00  0.00    -0.356 N 
ATOM      4  C   UNL A   1      34.920  20.657  24.791  1.00  0.00     0.224 C 
ATOM      5  O   UNL A   1      34.641  19.451  24.702  1.00  0.00    -0.275 OA
ATOM      6  H   UNL A   1      36.756  20.082  24.545  1.00  0.00     0.163 HD
BRANCH   4   7
ATOM      7  C   UNL A   1      33.761  21.687  24.918  1.00  0.00     0.095 C 
ATOM      8  C   UNL A   1      34.039  23.198  25.151  1.00  0.00     0.095 C 
ATOM      9  C   UNL A   1      34.963  23.347  26.362  1.00  0.00     0.041 C 
ATOM     10  C   UNL A   1      34.408  22.611  27.557  1.00  0.00    -0.030 C 
ATOM     11  C   UNL A   1      32.869  21.247  26.123  1.00  0.00     0.041 C 
ATOM     12  C   UNL A   1      33.438  21.688  27.452  1.00  0.00    -0.030 C 
BRANCH   8  13
ATOM     13  C   UNL A   1      34.321  23.907  23.836  1.00  0.00     0.228 C 
ATOM     14  N   UNL A   1      34.172  25.237  23.628  1.00  0.00    -0.326 N 
ATOM     15  H   UNL A   1      34.824  25.593  22.981  1.00  0.00     0.169 HD
ATOM     16  O   UNL A   1      34.696  23.261  22.849  1.00  0.00    -0.274 OA
BRANCH  14  17
ATOM     17  C   UNL A   1      33.305  26.224  24.121  1.00  0.00     0.044 A 
ATOM     18  C   UNL A   1      31.637  25.434  22.397  1.00  0.00     0.047 C 
ATOM     19  C   UNL A   1      31.973  26.241  23.627  1.00  0.00    -0.015 A 
ATOM     20  C   UNL A   1      31.017  27.060  24.266  1.00  0.00     0.045 A 
ATOM     21  C   UNL A   1      33.679  27.084  25.156  1.00  0.00     0.026 A 
ATOM     22  C   UNL A   1      31.428  27.938  25.283  1.00  0.00     0.014 A 
ATOM     23  C   UNL A   1      32.752  27.963  25.712  1.00  0.00     0.003 A 
BRANCH  20  24
ATOM     24  C   UNL A   1      29.596  27.197  23.829  1.00  0.00     0.254 C 
ATOM     25  O   UNL A   1      28.811  26.328  24.212  1.00  0.00    -0.269 OA
ATOM     26  N   UNL A   1      29.177  28.264  23.043  1.00  0.00    -0.334 N 
ATOM     27  C   UNL A   1      29.990  29.054  22.108  1.00  0.00     0.148 C 
ATOM     28  C   UNL A   1      27.737  28.513  22.933  1.00  0.00     0.148 C 
ATOM     29  C   UNL A   1      29.577  30.537  22.109  1.00  0.00     0.181 C 
ATOM     30  C   UNL A   1      27.452  30.015  22.987  1.00  0.00     0.181 C 
ATOM     31  O   UNL A   1      28.157  30.691  21.934  1.00  0.00    -0.378 OA
ENDBRANCH  20  24
ENDBRANCH  14  17
ENDBRANCH   8  13
ENDBRANCH   4   7
ENDBRANCH   2   3
ENDBRANCH   1   2
BRANCH   1  32
ATOM     32  C   UNL A   1      38.809  23.094  26.267  1.00  0.00     0.118 C 
BRANCH  32  33
ATOM     33  N   UNL A   1      40.266  23.218  26.386  1.00  0.00    -0.352 N 
ATOM     34  C   UNL A   1      41.002  24.332  26.756  1.00  0.00     0.251 C 
ATOM     35  H   UNL A   1      40.785  22.410  26.176  1.00  0.00     0.163 HD
ATOM     36  O   UNL A   1      42.218  24.310  26.862  1.00  0.00    -0.269 OA
BRANCH  34  37
ATOM     37  C   UNL A   1      40.242  25.540  27.138  1.00  0.00     0.039 A 
ATOM     38  C   UNL A   1      40.573  26.730  26.483  1.00  0.00     0.014 A 
ATOM     39  C   UNL A   1      39.530  25.546  28.333  1.00  0.00     0.014 A 
ATOM     40  C   UNL A   1      40.407  27.936  27.155  1.00  0.00     0.010 A 
ATOM     41  C   UNL A   1      39.463  26.734  29.038  1.00  0.00     0.010 A 
ATOM     42  C   UNL A   1      39.964  27.919  28.480  1.00  0.00    -0.014 A 
BRANCH  42  43
ATOM     43  C   UNL A   1      40.134  29.062  29.380  1.00  0.00     0.031 A 
ATOM     44  C   UNL A   1      39.084  30.100  29.486  1.00  0.00     0.074 A 
ATOM     45  C   UNL A   1      41.261  29.201  30.119  1.00  0.00     0.049 A 
ATOM     46  N   UNL A   1      39.300  31.315  29.867  1.00  0.00    -0.248 NA
ATOM     47  C   UNL A   1      37.696  29.856  29.115  1.00  0.00     0.031 C 
ATOM     48  C   UNL A   1      41.501  30.162  31.192  1.00  0.00     0.029 A 
ATOM     49  N   UNL A   1      42.523  28.678  29.835  1.00  0.00    -0.354 N 
ATOM     50  C   UNL A   1      38.085  31.938  30.015  1.00  0.00     0.074 A 
ATOM     51  C   UNL A   1      37.116  30.993  29.509  1.00  0.00     0.031 C 
ATOM     52  C   UNL A   1      42.818  30.393  31.277  1.00  0.00     0.029 A 
ATOM     53  C   UNL A   1      43.462  29.666  30.199  1.00  0.00     0.049 A 
ATOM     54  H   UNL A   1      42.720  27.791  29.456  1.00  0.00     0.167 HD
ATOM     55  C   UNL A   1      38.014  33.152  30.630  1.00  0.00     0.034 A 
ATOM     56  C   UNL A   1      44.348  30.175  29.293  1.00  0.00     0.034 A 
ATOM     57  C   UNL A   1      39.329  33.675  30.980  1.00  0.00     0.049 A 
ATOM     58  C   UNL A   1      44.223  31.669  29.082  1.00  0.00     0.074 A 
ATOM     59  C   UNL A   1      40.094  33.702  32.134  1.00  0.00     0.029 A 
ATOM     60  N   UNL A   1      40.167  34.075  29.957  1.00  0.00    -0.354 N 
ATOM     61  N   UNL A   1      43.343  32.425  29.677  1.00  0.00    -0.248 NA
ATOM     62  C   UNL A   1      45.019  32.413  28.102  1.00  0.00     0.031 C 
ATOM     63  C   UNL A   1      41.421  34.086  31.774  1.00  0.00     0.029 A 
ATOM     64  C   UNL A   1      41.449  34.312  30.409  1.00  0.00     0.049 A 
ATOM     65  H   UNL A   1      39.884  34.178  29.020  1.00  0.00     0.167 HD
ATOM     66  C   UNL A   1      43.374  33.678  29.123  1.00  0.00     0.074 A 
ATOM     67  C   UNL A   1      44.452  33.629  28.153  1.00  0.00     0.031 C 
ATOM     68  C   UNL A   1      42.478  34.654  29.442  1.00  0.00     0.034 A 
BRANCH  55  69
ATOM     69  C   UNL A   1      36.726  33.779  31.097  1.00  0.00     0.023 A 
ATOM     70  C   UNL A   1      35.804  34.244  30.139  1.00  0.00     0.031 A 
ATOM     71  C   UNL A   1      36.356  33.966  32.442  1.00  0.00     0.131 A 
ATOM     72  C   UNL A   1      34.644  34.941  30.519  1.00  0.00     0.055 A 
ATOM     73  C   UNL A   1      35.241  34.724  32.822  1.00  0.00     0.041 A 
ATOM     74  F   UNL A   1      37.027  33.379  33.443  1.00  0.00    -0.206 F 
ATOM     75  C   UNL A   1      34.383  35.227  31.857  1.00  0.00     0.022 A 
BRANCH  72  76
ATOM     76  S   UNL A   1      33.464  35.451  29.241  1.00  0.00     0.124 S 
ATOM     77  O   UNL A   1      32.736  34.215  28.977  1.00  0.00    -0.237 OA
ATOM     78  O   UNL A   1      32.721  36.509  29.916  1.00  0.00    -0.237 OA
ATOM     79  O   UNL A   1      34.325  35.905  28.149  1.00  0.00    -0.744 OA
ENDBRANCH  72  76
ENDBRANCH  55  69
BRANCH  56  80
ATOM     80  C   UNL A   1      44.764  29.167  28.272  1.00  0.00     0.023 A 
ATOM     81  C   UNL A   1      45.655  28.166  28.712  1.00  0.00     0.031 A 
ATOM     82  C   UNL A   1      44.039  28.925  27.100  1.00  0.00     0.131 A 
ATOM     83  C   UNL A   1      45.619  26.889  28.138  1.00  0.00     0.055 A 
ATOM     84  C   UNL A   1      44.102  27.684  26.452  1.00  0.00     0.041 A 
ATOM     85  F   UNL A   1      43.156  29.822  26.639  1.00  0.00    -0.206 F 
ATOM     86  C   UNL A   1      44.849  26.640  27.003  1.00  0.00     0.022 A 
BRANCH  83  87
ATOM     87  S   UNL A   1      46.278  25.508  29.122  1.00  0.00     0.124 S 
ATOM     88  O   UNL A   1      45.247  25.327  30.136  1.00  0.00    -0.237 OA
ATOM     89  O   UNL A   1      46.392  24.446  28.124  1.00  0.00    -0.237 OA
ATOM     90  O   UNL A   1      47.565  25.999  29.611  1.00  0.00    -0.744 OA
ENDBRANCH  83  87
ENDBRANCH  56  80
BRANCH  68  91
ATOM     91  C   UNL A   1      42.510  36.016  28.810  1.00  0.00     0.023 A 
ATOM     92  C   UNL A   1      43.017  37.129  29.498  1.00  0.00     0.031 A 
ATOM     93  C   UNL A   1      41.967  36.251  27.530  1.00  0.00     0.131 A 
ATOM     94  C   UNL A   1      43.020  38.398  28.895  1.00  0.00     0.055 A 
ATOM     95  C   UNL A   1      41.894  37.527  26.968  1.00  0.00     0.041 A 
ATOM     96  F   UNL A   1      41.532  35.244  26.758  1.00  0.00    -0.206 F 
ATOM     97  C   UNL A   1      42.431  38.611  27.648  1.00  0.00     0.022 A 
BRANCH  94  98
ATOM     98  S   UNL A   1      43.887  39.751  29.728  1.00  0.00     0.124 S 
ATOM     99  O   UNL A   1      43.708  39.426  31.140  1.00  0.00    -0.237 OA
ATOM    100  O   UNL A   1      45.244  39.596  29.209  1.00  0.00    -0.237 OA
ATOM    101  O   UNL A   1      43.183  40.948  29.271  1.00  0.00    -0.744 OA
ENDBRANCH  94  98
ENDBRANCH  68  91
ENDBRANCH  42  43
ENDBRANCH  34  37
ENDBRANCH  32  33
ENDBRANCH   1  32
TORSDOF 16
ENDMDL
MODEL 2
REMARK VINA RESULT:     -13.8      4.112     10.708
REMARK SMILES Cc1c(NC(=O)[C@@H]2CC=CC[C@@H]2C(=O)NCCCNC(=O)c2ccc(-c3c4nc(c(-c5cc(S(=O)(=O)[O-])ccc5F)c5ccc([nH]5)c(-c5cc(S(=O)(=O)[O-])ccc5F)c5nc(c(-c6cc(S(=O)(=O)[O-])ccc6F)c6ccc3[nH]6)C=C5)C=C4)cc2)cccc1C(=O)N1CCOCC1
REMARK SMILES IDX 17 1 16 2 15 3 13 4 14 5 12 7 7 8 8 9 9 10 11 11 10 12 5 13
REMARK SMILES IDX 4 14 6 16 3 17 1 18 2 19 88 20 85 21 87 22 86 23 89 24 90 25
REMARK SMILES IDX 91 26 92 27 96 28 93 29 95 30 94 31 18 32 19 33 20 34 21 36
REMARK SMILES IDX 22 37 23 38 84 39 24 40 83 41 25 42 26 43 27 44 77 45 28 46
REMARK SMILES IDX 82 47 76 48 78 49 29 50 81 51 75 52 74 53 30 55 62 56 42 57
REMARK SMILES IDX 61 58 43 59 46 60 60 61 79 62 44 63 45 64 59 66 80 67 47 68
REMARK SMILES IDX 31 69 32 70 40 71 33 72 39 73 41 74 38 75 34 76 35 77 36 78
REMARK SMILES IDX 37 79 63 80 64 81 72 82 65 83 71 84 73 85 70 86 66 87 67 88
REMARK SMILES IDX 68 89 69 90 48 91 49 92 57 93 50 94 56 95 58 96 55 97 51 98
REMARK SMILES IDX 52 99 53 100 54 101
REMARK H PARENT 15 6 4 15 19 35 78 54 46 65
REMARK Flexibility Score: inf
ROOT
ATOM      1  C   UNL A   1      34.098  29.255  27.642  1.00  0.00     0.042 C 
ENDROOT
BRANCH   1   2
ATOM      2  C   UNL A   1      33.001  28.800  26.683  1.00  0.00     0.117 C 
BRANCH   2   3
ATOM      3  N   UNL A   1      33.473  28.689  25.311  1.00  0.00    -0.356 N 
ATOM      4  C   UNL A   1      33.601  27.720  24.377  1.00  0.00     0.224 C 
ATOM      5  O   UNL A   1      34.042  28.136  23.293  1.00  0.00    -0.275 OA
ATOM      6  H   UNL A   1      33.783  29.558  24.969  1.00  0.00     0.163 HD
BRANCH   4   7
ATOM      7  C   UNL A   1      33.162  26.232  24.485  1.00  0.00     0.095 C 
ATOM      8  C   UNL A   1      32.303  25.556  23.380  1.00  0.00     0.095 C 
ATOM      9  C   UNL A   1      31.063  26.416  23.127  1.00  0.00     0.041 C 
ATOM     10  C   UNL A   1      30.332  26.701  24.415  1.00  0.00    -0.030 C 
ATOM     11  C   UNL A   1      32.329  26.080  25.798  1.00  0.00     0.041 C 
ATOM     12  C   UNL A   1      30.892  26.515  25.622  1.00  0.00    -0.030 C 
BRANCH   8  13
ATOM     13  C   UNL A   1      33.178  25.056  22.242  1.00  0.00     0.228 C 
ATOM     14  N   UNL A   1      33.875  23.896  22.257  1.00  0.00    -0.326 N 
ATOM     15  H   UNL A   1      33.951  23.489  21.362  1.00  0.00     0.169 HD
ATOM     16  O   UNL A   1      33.309  25.734  21.215  1.00  0.00    -0.274 OA
BRANCH  14  17
ATOM     17  C   UNL A   1      34.515  23.139  23.250  1.00  0.00     0.044 A 
ATOM     18  C   UNL A   1      32.245  22.176  23.794  1.00  0.00     0.047 C 
ATOM     19  C   UNL A   1      33.748  22.155  23.930  1.00  0.00    -0.015 A 
ATOM     20  C   UNL A   1      34.409  21.223  24.759  1.00  0.00     0.045 A 
ATOM     21  C   UNL A   1      35.888  23.242  23.486  1.00  0.00     0.026 A 
ATOM     22  C   UNL A   1      35.785  21.370  25.002  1.00  0.00     0.014 A 
ATOM     23  C   UNL A   1      36.515  22.382  24.385  1.00  0.00     0.003 A 
BRANCH  20  24
ATOM     24  C   UNL A   1      33.721  20.164  25.554  1.00  0.00     0.254 C 
ATOM     25  O   UNL A   1      33.162  20.523  26.591  1.00  0.00    -0.269 OA
ATOM     26  N   UNL A   1      33.698  18.839  25.134  1.00  0.00    -0.334 N 
ATOM     27  C   UNL A   1      34.681  18.160  24.276  1.00  0.00     0.148 C 
ATOM     28  C   UNL A   1      32.742  17.931  25.772  1.00  0.00     0.148 C 
ATOM     29  C   UNL A   1      34.008  17.145  23.335  1.00  0.00     0.181 C 
ATOM     30  C   UNL A   1      32.112  17.004  24.730  1.00  0.00     0.181 C 
ATOM     31  O   UNL A   1      33.134  16.256  24.052  1.00  0.00    -0.378 OA
ENDBRANCH  20  24
ENDBRANCH  14  17
ENDBRANCH   8  13
ENDBRANCH   4   7
ENDBRANCH   2   3
ENDBRANCH   1   2
BRANCH   1  32
ATOM     32  C   UNL A   1      34.672  30.631  27.319  1.00  0.00     0.118 C 
BRANCH  32  33
ATOM     33  N   UNL A   1      35.156  31.340  28.508  1.00  0.00    -0.352 N 
ATOM     34  C   UNL A   1      36.209  30.994  29.341  1.00  0.00     0.251 C 
ATOM     35  H   UNL A   1      34.674  32.164  28.744  1.00  0.00     0.163 HD
ATOM     36  O   UNL A   1      36.552  31.686  30.286  1.00  0.00    -0.269 OA
BRANCH  34  37
ATOM     37  C   UNL A   1      36.990  29.796  28.970  1.00  0.00     0.039 A 
ATOM     38  C   UNL A   1      37.287  28.893  29.995  1.00  0.00     0.014 A 
ATOM     39  C   UNL A   1      37.694  29.787  27.771  1.00  0.00     0.014 A 
ATOM     40  C   UNL A   1      38.457  28.144  29.913  1.00  0.00     0.010 A 
ATOM     41  C   UNL A   1      38.907  29.122  27.739  1.00  0.00     0.010 A 
ATOM     42  C   UNL A   1      39.323  28.356  28.838  1.00  0.00    -0.014 A 
BRANCH  42  43
ATOM     43  C   UNL A   1      40.724  27.930  28.862  1.00  0.00     0.031 A 
ATOM     44  C   UNL A   1      41.113  26.587  28.376  1.00  0.00     0.074 A 
ATOM     45  C   UNL A   1      41.689  28.750  29.345  1.00  0.00     0.049 A 
ATOM     46  N   UNL A   1      42.177  25.959  28.750  1.00  0.00    -0.248 NA
ATOM     47  C   UNL A   1      40.289  25.815  27.454  1.00  0.00     0.031 C 
ATOM     48  C   UNL A   1      43.135  28.557  29.263  1.00  0.00     0.029 A 
ATOM     49  N   UNL A   1      41.531  29.782  30.270  1.00  0.00    -0.354 N 
ATOM     50  C   UNL A   1      42.306  24.835  27.972  1.00  0.00     0.074 A 
ATOM     51  C   UNL A   1      41.089  24.777  27.196  1.00  0.00     0.031 C 
ATOM     52  C   UNL A   1      43.714  29.199  30.286  1.00  0.00     0.029 A 
ATOM     53  C   UNL A   1      42.658  29.742  31.119  1.00  0.00     0.049 A 
ATOM     54  H   UNL A   1      40.779  30.416  30.320  1.00  0.00     0.167 HD
ATOM     55  C   UNL A   1      43.464  24.118  27.999  1.00  0.00     0.034 A 
ATOM     56  C   UNL A   1      42.527  29.587  32.469  1.00  0.00     0.034 A 
ATOM     57  C   UNL A   1      44.415  24.636  28.976  1.00  0.00     0.049 A 
ATOM     58  C   UNL A   1      43.211  28.352  33.016  1.00  0.00     0.074 A 
ATOM     59  C   UNL A   1      45.523  25.464  28.916  1.00  0.00     0.029 A 
ATOM     60  N   UNL A   1      44.118  24.491  30.318  1.00  0.00    -0.354 N 
ATOM     61  N   UNL A   1      43.852  27.482  32.285  1.00  0.00    -0.248 NA
ATOM     62  C   UNL A   1      43.137  27.946  34.421  1.00  0.00     0.031 C 
ATOM     63  C   UNL A   1      45.859  25.847  30.249  1.00  0.00     0.029 A 
ATOM     64  C   UNL A   1      44.969  25.233  31.112  1.00  0.00     0.049 A 
ATOM     65  H   UNL A   1      43.389  23.928  30.664  1.00  0.00     0.167 HD
ATOM     66  C   UNL A   1      44.178  26.397  33.056  1.00  0.00     0.074 A 
ATOM     67  C   UNL A   1      43.727  26.740  34.392  1.00  0.00     0.031 C 
ATOM     68  C   UNL A   1      44.736  25.263  32.546  1.00  0.00     0.034 A 
BRANCH  55  69
ATOM     69  C   UNL A   1      43.815  23.057  26.989  1.00  0.00     0.023 A 
ATOM     70  C   UNL A   1      43.120  21.831  27.015  1.00  0.00     0.031 A 
ATOM     71  C   UNL A   1      44.814  23.172  26.005  1.00  0.00     0.131 A 
ATOM     72  C   UNL A   1      43.487  20.765  26.174  1.00  0.00     0.055 A 
ATOM     73  C   UNL A   1      45.230  22.091  25.219  1.00  0.00     0.041 A 
ATOM     74  F   UNL A   1      45.392  24.349  25.727  1.00  0.00    -0.206 F 
ATOM     75  C   UNL A   1      44.573  20.873  25.309  1.00  0.00     0.022 A 
BRANCH  72  76
ATOM     76  S   UNL A   1      42.509  19.240  26.208  1.00  0.00     0.124 S 
ATOM     77  O   UNL A   1      42.292  19.040  27.637  1.00  0.00    -0.237 OA
ATOM     78  O   UNL A   1      41.339  19.609  25.420  1.00  0.00    -0.237 OA
ATOM     79  O   UNL A   1      43.391  18.259  25.576  1.00  0.00    -0.744 OA
ENDBRANCH  72  76
ENDBRANCH  55  69
BRANCH  56  80
ATOM     80  C   UNL A   1      41.283  30.220  33.000  1.00  0.00     0.023 A 
ATOM     81  C   UNL A   1      41.290  31.629  33.090  1.00  0.00     0.031 A 
ATOM     82  C   UNL A   1      40.042  29.573  33.010  1.00  0.00     0.131 A 
ATOM     83  C   UNL A   1      40.099  32.349  32.939  1.00  0.00     0.055 A 
ATOM     84  C   UNL A   1      38.845  30.301  32.987  1.00  0.00     0.041 A 
ATOM     85  F   UNL A   1      39.961  28.239  32.901  1.00  0.00    -0.206 F 
ATOM     86  C   UNL A   1      38.870  31.694  32.892  1.00  0.00     0.022 A 
BRANCH  83  87
ATOM     87  S   UNL A   1      40.232  34.089  32.422  1.00  0.00     0.124 S 
ATOM     88  O   UNL A   1      40.547  33.970  31.004  1.00  0.00    -0.237 OA
ATOM     89  O   UNL A   1      38.904  34.608  32.745  1.00  0.00    -0.237 OA
ATOM     90  O   UNL A   1      41.298  34.631  33.262  1.00  0.00    -0.744 OA
ENDBRANCH  83  87
ENDBRANCH  56  80
BRANCH  68  91
ATOM     91  C   UNL A   1      45.068  24.073  33.399  1.00  0.00     0.023 A 
ATOM     92  C   UNL A   1      46.375  23.843  33.855  1.00  0.00     0.031 A 
ATOM     93  C   UNL A   1      44.101  23.098  33.719  1.00  0.00     0.131 A 
ATOM     94  C   UNL A   1      46.668  22.712  34.637  1.00  0.00     0.055 A 
ATOM     95  C   UNL A   1      44.413  21.933  34.423  1.00  0.00     0.041 A 
ATOM     96  F   UNL A   1      42.807  23.263  33.401  1.00  0.00    -0.206 F 
ATOM     97  C   UNL A   1      45.703  21.738  34.895  1.00  0.00     0.022 A 
BRANCH  94  98
ATOM     98  S   UNL A   1      48.311  22.580  35.386  1.00  0.00     0.124 S 
ATOM     99  O   UNL A   1      48.430  21.149  35.648  1.00  0.00    -0.237 OA
ATOM    100  O   UNL A   1      49.163  23.103  34.321  1.00  0.00    -0.237 OA
ATOM    101  O   UNL A   1      48.218  23.424  36.575  1.00  0.00    -0.744 OA
ENDBRANCH  94  98
ENDBRANCH  68  91
ENDBRANCH  42  43
ENDBRANCH  34  37
ENDBRANCH  32  33
ENDBRANCH   1  32
TORSDOF 16
ENDMDL
MODEL 3
REMARK VINA RESULT:     -13.6      4.042     10.683
REMARK SMILES Cc1c(NC(=O)[C@@H]2CC=CC[C@@H]2C(=O)NCCCNC(=O)c2ccc(-c3c4nc(c(-c5cc(S(=O)(=O)[O-])ccc5F)c5ccc([nH]5)c(-c5cc(S(=O)(=O)[O-])ccc5F)c5nc(c(-c6cc(S(=O)(=O)[O-])ccc6F)c6ccc3[nH]6)C=C5)C=C4)cc2)cccc1C(=O)N1CCOCC1
REMARK SMILES IDX 17 1 16 2 15 3 13 4 14 5 12 7 7 8 8 9 9 10 11 11 10 12 5 13
REMARK SMILES IDX 4 14 6 16 3 17 1 18 2 19 88 20 85 21 87 22 86 23 89 24 90 25
REMARK SMILES IDX 91 26 92 27 96 28 93 29 95 30 94 31 18 32 19 33 20 34 21 36
REMARK SMILES IDX 22 37 23 38 84 39 24 40 83 41 25 42 26 43 27 44 77 45 28 46
REMARK SMILES IDX 82 47 76 48 78 49 29 50 81 51 75 52 74 53 30 55 62 56 42 57
REMARK SMILES IDX 61 58 43 59 46 60 60 61 79 62 44 63 45 64 59 66 80 67 47 68
REMARK SMILES IDX 31 69 32 70 40 71 33 72 39 73 41 74 38 75 34 76 35 77 36 78
REMARK SMILES IDX 37 79 63 80 64 81 72 82 65 83 71 84 73 85 70 86 66 87 67 88
REMARK SMILES IDX 68 89 69 90 48 91 49 92 57 93 50 94 56 95 58 96 55 97 51 98
REMARK SMILES IDX 52 99 53 100 54 101
REMARK H PARENT 15 6 4 15 19 35 78 54 46 65
REMARK Flexibility Score: inf
ROOT
ATOM      1  C   UNL A   1      34.076  29.481  27.687  1.00  0.00     0.042 C 
ENDROOT
BRANCH   1   2
ATOM      2  C   UNL A   1      32.960  29.209  26.681  1.00  0.00     0.117 C 
BRANCH   2   3
ATOM      3  N   UNL A   1      33.433  29.233  25.306  1.00  0.00    -0.356 N 
ATOM      4  C   UNL A   1      33.237  28.523  24.172  1.00  0.00     0.224 C 
ATOM      5  O   UNL A   1      33.865  28.967  23.198  1.00  0.00    -0.275 OA
ATOM      6  H   UNL A   1      34.069  29.969  25.160  1.00  0.00     0.163 HD
BRANCH   4   7
ATOM      7  C   UNL A   1      32.258  27.334  23.953  1.00  0.00     0.095 C 
ATOM      8  C   UNL A   1      31.691  26.996  22.546  1.00  0.00     0.095 C 
ATOM      9  C   UNL A   1      31.067  28.261  21.952  1.00  0.00     0.041 C 
ATOM     10  C   UNL A   1      30.073  28.872  22.907  1.00  0.00    -0.030 C 
ATOM     11  C   UNL A   1      31.002  27.585  24.848  1.00  0.00     0.041 C 
ATOM     12  C   UNL A   1      30.021  28.540  24.208  1.00  0.00    -0.030 C 
BRANCH   8  13
ATOM     13  C   UNL A   1      32.668  26.138  21.759  1.00  0.00     0.228 C 
ATOM     14  N   UNL A   1      32.726  24.786  21.813  1.00  0.00    -0.326 N 
ATOM     15  H   UNL A   1      33.001  24.385  20.956  1.00  0.00     0.169 HD
ATOM     16  O   UNL A   1      33.505  26.669  21.017  1.00  0.00    -0.274 OA
BRANCH  14  17
ATOM     17  C   UNL A   1      32.485  23.824  22.806  1.00  0.00     0.044 A 
ATOM     18  C   UNL A   1      34.876  23.081  22.482  1.00  0.00     0.047 C 
ATOM     19  C   UNL A   1      33.589  23.061  23.270  1.00  0.00    -0.015 A 
ATOM     20  C   UNL A   1      33.432  22.260  24.422  1.00  0.00     0.045 A 
ATOM     21  C   UNL A   1      31.239  23.698  23.423  1.00  0.00     0.026 A 
ATOM     22  C   UNL A   1      32.160  22.127  25.002  1.00  0.00     0.014 A 
ATOM     23  C   UNL A   1      31.068  22.826  24.496  1.00  0.00     0.003 A 
BRANCH  20  24
ATOM     24  C   UNL A   1      34.498  21.385  24.993  1.00  0.00     0.254 C 
ATOM     25  O   UNL A   1      34.302  20.170  24.949  1.00  0.00    -0.269 OA
ATOM     26  N   UNL A   1      35.664  21.917  25.533  1.00  0.00    -0.334 N 
ATOM     27  C   UNL A   1      35.843  23.251  26.124  1.00  0.00     0.148 C 
ATOM     28  C   UNL A   1      36.790  21.010  25.765  1.00  0.00     0.148 C 
ATOM     29  C   UNL A   1      37.232  23.832  25.803  1.00  0.00     0.181 C 
ATOM     30  C   UNL A   1      38.106  21.685  25.372  1.00  0.00     0.181 C 
ATOM     31  O   UNL A   1      38.281  22.900  26.118  1.00  0.00    -0.378 OA
ENDBRANCH  20  24
ENDBRANCH  14  17
ENDBRANCH   8  13
ENDBRANCH   4   7
ENDBRANCH   2   3
ENDBRANCH   1   2
BRANCH   1  32
ATOM     32  C   UNL A   1      34.838  30.777  27.431  1.00  0.00     0.118 C 
BRANCH  32  33
ATOM     33  N   UNL A   1      35.307  31.415  28.665  1.00  0.00    -0.352 N 
ATOM     34  C   UNL A   1      36.320  30.996  29.513  1.00  0.00     0.251 C 
ATOM     35  H   UNL A   1      34.846  32.244  28.924  1.00  0.00     0.163 HD
ATOM     36  O   UNL A   1      36.656  31.633  30.499  1.00  0.00    -0.269 OA
BRANCH  34  37
ATOM     37  C   UNL A   1      37.072  29.788  29.112  1.00  0.00     0.039 A 
ATOM     38  C   UNL A   1      37.366  28.863  30.117  1.00  0.00     0.014 A 
ATOM     39  C   UNL A   1      37.759  29.785  27.902  1.00  0.00     0.014 A 
ATOM     40  C   UNL A   1      38.519  28.093  30.007  1.00  0.00     0.010 A 
ATOM     41  C   UNL A   1      38.957  29.097  27.842  1.00  0.00     0.010 A 
ATOM     42  C   UNL A   1      39.374  28.305  28.922  1.00  0.00    -0.014 A 
BRANCH  42  43
ATOM     43  C   UNL A   1      40.767  27.852  28.919  1.00  0.00     0.031 A 
ATOM     44  C   UNL A   1      41.116  26.494  28.443  1.00  0.00     0.074 A 
ATOM     45  C   UNL A   1      41.759  28.658  29.367  1.00  0.00     0.049 A 
ATOM     46  N   UNL A   1      42.177  25.850  28.801  1.00  0.00    -0.248 NA
ATOM     47  C   UNL A   1      40.255  25.726  27.553  1.00  0.00     0.031 C 
ATOM     48  C   UNL A   1      43.198  28.435  29.253  1.00  0.00     0.029 A 
ATOM     49  N   UNL A   1      41.644  29.706  30.280  1.00  0.00    -0.354 N 
ATOM     50  C   UNL A   1      42.264  24.713  28.036  1.00  0.00     0.074 A 
ATOM     51  C   UNL A   1      41.027  24.669  27.290  1.00  0.00     0.031 C 
ATOM     52  C   UNL A   1      43.815  29.079  30.253  1.00  0.00     0.029 A 
ATOM     53  C   UNL A   1      42.790  29.655  31.102  1.00  0.00     0.049 A 
ATOM     54  H   UNL A   1      40.906  30.356  30.339  1.00  0.00     0.167 HD
ATOM     55  C   UNL A   1      43.408  23.973  28.046  1.00  0.00     0.034 A 
ATOM     56  C   UNL A   1      42.689  29.522  32.457  1.00  0.00     0.034 A 
ATOM     57  C   UNL A   1      44.393  24.485  28.992  1.00  0.00     0.049 A 
ATOM     58  C   UNL A   1      43.361  28.280  33.006  1.00  0.00     0.074 A 
ATOM     59  C   UNL A   1      45.515  25.289  28.894  1.00  0.00     0.029 A 
ATOM     60  N   UNL A   1      44.125  24.365  30.343  1.00  0.00    -0.354 N 
ATOM     61  N   UNL A   1      43.966  27.387  32.273  1.00  0.00    -0.248 NA
ATOM     62  C   UNL A   1      43.313  27.896  34.418  1.00  0.00     0.031 C 
ATOM     63  C   UNL A   1      45.891  25.684  30.213  1.00  0.00     0.029 A 
ATOM     64  C   UNL A   1      45.009  25.100  31.105  1.00  0.00     0.049 A 
ATOM     65  H   UNL A   1      43.394  23.822  30.714  1.00  0.00     0.167 HD
ATOM     66  C   UNL A   1      44.290  26.307  33.051  1.00  0.00     0.074 A 
ATOM     67  C   UNL A   1      43.877  26.678  34.392  1.00  0.00     0.031 C 
ATOM     68  C   UNL A   1      44.812  25.155  32.544  1.00  0.00     0.034 A 
BRANCH  55  69
ATOM     69  C   UNL A   1      43.713  22.891  27.043  1.00  0.00     0.023 A 
ATOM     70  C   UNL A   1      42.990  21.682  27.099  1.00  0.00     0.031 A 
ATOM     71  C   UNL A   1      44.694  22.970  26.038  1.00  0.00     0.131 A 
ATOM     72  C   UNL A   1      43.315  20.597  26.265  1.00  0.00     0.055 A 
ATOM     73  C   UNL A   1      45.068  21.869  25.257  1.00  0.00     0.041 A 
ATOM     74  F   UNL A   1      45.294  24.129  25.732  1.00  0.00    -0.206 F 
ATOM     75  C   UNL A   1      44.385  20.669  25.377  1.00  0.00     0.022 A 
BRANCH  72  76
ATOM     76  S   UNL A   1      42.302  19.096  26.339  1.00  0.00     0.124 S 
ATOM     77  O   UNL A   1      43.053  18.171  25.496  1.00  0.00    -0.237 OA
ATOM     78  O   UNL A   1      42.290  18.806  27.768  1.00  0.00    -0.237 OA
ATOM     79  O   UNL A   1      41.018  19.527  25.787  1.00  0.00    -0.744 OA
ENDBRANCH  72  76
ENDBRANCH  55  69
BRANCH  56  80
ATOM     80  C   UNL A   1      41.470  30.187  33.009  1.00  0.00     0.023 A 
ATOM     81  C   UNL A   1      41.509  31.596  33.082  1.00  0.00     0.031 A 
ATOM     82  C   UNL A   1      40.217  29.566  33.055  1.00  0.00     0.131 A 
ATOM     83  C   UNL A   1      40.331  32.340  32.949  1.00  0.00     0.055 A 
ATOM     84  C   UNL A   1      39.035  30.319  33.051  1.00  0.00     0.041 A 
ATOM     85  F   UNL A   1      40.105  28.233  32.964  1.00  0.00    -0.206 F 
ATOM     86  C   UNL A   1      39.087  31.710  32.938  1.00  0.00     0.022 A 
BRANCH  83  87
ATOM     87  S   UNL A   1      40.488  34.070  32.409  1.00  0.00     0.124 S 
ATOM     88  O   UNL A   1      39.099  34.465  32.218  1.00  0.00    -0.237 OA
ATOM     89  O   UNL A   1      41.182  34.684  33.540  1.00  0.00    -0.237 OA
ATOM     90  O   UNL A   1      41.295  33.993  31.193  1.00  0.00    -0.744 OA
ENDBRANCH  83  87
ENDBRANCH  56  80
BRANCH  68  91
ATOM     91  C   UNL A   1      45.141  23.970  33.406  1.00  0.00     0.023 A 
ATOM     92  C   UNL A   1      46.406  23.825  33.996  1.00  0.00     0.031 A 
ATOM     93  C   UNL A   1      44.222  22.918  33.601  1.00  0.00     0.131 A 
ATOM     94  C   UNL A   1      46.698  22.699  34.784  1.00  0.00     0.055 A 
ATOM     95  C   UNL A   1      44.545  21.762  34.313  1.00  0.00     0.041 A 
ATOM     96  F   UNL A   1      42.961  22.997  33.148  1.00  0.00    -0.206 F 
ATOM     97  C   UNL A   1      45.788  21.650  34.919  1.00  0.00     0.022 A 
BRANCH  94  98
ATOM     98  S   UNL A   1      48.257  22.668  35.705  1.00  0.00     0.124 S 
ATOM     99  O   UNL A   1      48.294  23.991  36.319  1.00  0.00    -0.237 OA
ATOM    100  O   UNL A   1      48.037  21.550  36.619  1.00  0.00    -0.237 OA
ATOM    101  O   UNL A   1      49.264  22.433  34.672  1.00  0.00    -0.744 OA
ENDBRANCH  94  98
ENDBRANCH  68  91
ENDBRANCH  42  43
ENDBRANCH  34  37
ENDBRANCH  32  33
ENDBRANCH   1  32
TORSDOF 16
ENDMDL
