MODEL 1
REMARK VINA RESULT:     -11.3      0.000      0.000
REMARK SMILES O=C(NCCCNC(=O)[C@H]1N=c2ccccc2=C1C[NH2+]CCc1ccccc1)c1ccc(-c2c3nc(c(-c4cc(S(=O)(=O)[O-])ccc4F)c4ccc([nH]4)c(-c4cc(S(=O)(=O)[O-])ccc4F)c4nc(c(-c5cc(S(=O)(=O)[O-])ccc5F)c5ccc2[nH]5)C=C4)C=C3)cc1
REMARK SMILES IDX 6 1 5 2 4 3 3 4 1 5 2 6 29 8 30 9 91 10 31 11 90 12 32 13
REMARK SMILES IDX 33 14 34 15 84 16 35 17 89 18 83 19 85 20 36 21 88 22 82 23
REMARK SMILES IDX 81 24 37 26 69 27 49 28 68 29 50 30 53 31 67 32 86 33 51 34
REMARK SMILES IDX 52 35 66 37 87 38 54 39 38 40 39 41 47 42 40 43 46 44 48 45
REMARK SMILES IDX 45 46 41 47 42 48 43 49 44 50 70 51 71 52 79 53 72 54 78 55
REMARK SMILES IDX 80 56 77 57 73 58 74 59 75 60 76 61 55 62 56 63 64 64 57 65
REMARK SMILES IDX 63 66 65 67 62 68 58 69 59 70 60 71 61 72 7 73 8 74 9 76
REMARK SMILES IDX 10 77 11 78 18 79 12 80 17 81 13 82 16 83 14 84 15 85 19 86
REMARK SMILES IDX 20 87 21 90 22 91 23 92 24 93 28 94 25 95 27 96 26 97
REMARK H PARENT 3 7 85 25 53 36 7 75 20 88 20 89
REMARK Flexibility Score: inf
ROOT
ATOM      1  C   UNL A   1      31.122  27.392  25.671  1.00  0.00     0.117 C 
ENDROOT
BRANCH   1   2
ATOM      2  C   UNL A   1      32.467  27.849  26.242  1.00  0.00     0.042 C 
BRANCH   2   3
ATOM      3  C   UNL A   1      33.122  29.006  25.480  1.00  0.00     0.118 C 
BRANCH   3   4
ATOM      4  N   UNL A   1      32.659  30.310  25.935  1.00  0.00    -0.352 N 
ATOM      5  O   UNL A   1      32.438  32.096  27.269  1.00  0.00    -0.269 OA
ATOM      6  C   UNL A   1      33.120  31.128  26.934  1.00  0.00     0.251 C 
ATOM      7  H   UNL A   1      31.885  30.665  25.441  1.00  0.00     0.163 HD
BRANCH   6   8
ATOM      8  C   UNL A   1      34.415  30.882  27.610  1.00  0.00     0.039 A 
ATOM      9  C   UNL A   1      34.616  29.648  28.240  1.00  0.00     0.014 A 
ATOM     10  C   UNL A   1      35.388  31.880  27.720  1.00  0.00     0.014 A 
ATOM     11  C   UNL A   1      35.792  29.406  28.958  1.00  0.00     0.010 A 
ATOM     12  C   UNL A   1      36.584  31.619  28.389  1.00  0.00     0.010 A 
ATOM     13  C   UNL A   1      36.791  30.388  29.032  1.00  0.00    -0.014 A 
BRANCH  13  14
ATOM     14  C   UNL A   1      38.043  30.167  29.803  1.00  0.00     0.031 A 
ATOM     15  C   UNL A   1      39.092  29.227  29.275  1.00  0.00     0.074 A 
ATOM     16  C   UNL A   1      38.211  30.754  31.003  1.00  0.00     0.049 A 
ATOM     17  N   UNL A   1      40.196  28.818  29.846  1.00  0.00    -0.248 NA
ATOM     18  C   UNL A   1      38.861  28.655  27.939  1.00  0.00     0.031 C 
ATOM     19  C   UNL A   1      37.258  31.672  31.623  1.00  0.00     0.029 A 
ATOM     20  N   UNL A   1      39.225  30.648  31.924  1.00  0.00    -0.354 N 
ATOM     21  C   UNL A   1      40.774  27.921  28.954  1.00  0.00     0.074 A 
ATOM     22  C   UNL A   1      39.882  27.817  27.822  1.00  0.00     0.031 C 
ATOM     23  C   UNL A   1      37.734  32.053  32.818  1.00  0.00     0.029 A 
ATOM     24  C   UNL A   1      38.997  31.364  33.077  1.00  0.00     0.049 A 
ATOM     25  H   UNL A   1      40.037  30.114  31.773  1.00  0.00     0.167 HD
ATOM     26  C   UNL A   1      41.950  27.260  29.067  1.00  0.00     0.034 A 
ATOM     27  C   UNL A   1      39.707  31.441  34.224  1.00  0.00     0.034 A 
ATOM     28  C   UNL A   1      42.847  27.407  30.184  1.00  0.00     0.049 A 
ATOM     29  C   UNL A   1      41.005  30.681  34.338  1.00  0.00     0.074 A 
ATOM     30  C   UNL A   1      44.107  26.860  30.339  1.00  0.00     0.029 A 
ATOM     31  N   UNL A   1      42.586  28.143  31.331  1.00  0.00    -0.354 N 
ATOM     32  N   UNL A   1      41.587  29.912  33.448  1.00  0.00    -0.248 NA
ATOM     33  C   UNL A   1      41.747  30.796  35.602  1.00  0.00     0.031 C 
ATOM     34  C   UNL A   1      44.576  27.198  31.608  1.00  0.00     0.029 A 
ATOM     35  C   UNL A   1      43.644  28.023  32.217  1.00  0.00     0.049 A 
ATOM     36  H   UNL A   1      41.771  28.671  31.490  1.00  0.00     0.167 HD
ATOM     37  C   UNL A   1      42.768  29.465  34.036  1.00  0.00     0.074 A 
ATOM     38  C   UNL A   1      42.828  30.067  35.351  1.00  0.00     0.031 C 
ATOM     39  C   UNL A   1      43.709  28.630  33.528  1.00  0.00     0.034 A 
BRANCH  26  40
ATOM     40  C   UNL A   1      42.367  26.320  27.962  1.00  0.00     0.023 A 
ATOM     41  C   UNL A   1      41.831  25.019  27.912  1.00  0.00     0.031 A 
ATOM     42  C   UNL A   1      43.381  26.657  27.050  1.00  0.00     0.131 A 
ATOM     43  C   UNL A   1      42.334  24.093  26.990  1.00  0.00     0.055 A 
ATOM     44  C   UNL A   1      43.848  25.744  26.103  1.00  0.00     0.041 A 
ATOM     45  F   UNL A   1      43.930  27.882  27.061  1.00  0.00    -0.206 F 
ATOM     46  C   UNL A   1      43.334  24.451  26.080  1.00  0.00     0.022 A 
BRANCH  43  47
ATOM     47  S   UNL A   1      41.765  22.371  26.982  1.00  0.00     0.124 S 
ATOM     48  O   UNL A   1      40.344  22.524  27.289  1.00  0.00    -0.237 OA
ATOM     49  O   UNL A   1      42.064  21.957  25.614  1.00  0.00    -0.237 OA
ATOM     50  O   UNL A   1      42.560  21.732  28.024  1.00  0.00    -0.744 OA
ENDBRANCH  43  47
ENDBRANCH  26  40
BRANCH  27  51
ATOM     51  C   UNL A   1      39.200  32.316  35.321  1.00  0.00     0.023 A 
ATOM     52  C   UNL A   1      39.620  33.656  35.429  1.00  0.00     0.031 A 
ATOM     53  C   UNL A   1      38.412  31.785  36.355  1.00  0.00     0.131 A 
ATOM     54  C   UNL A   1      39.324  34.386  36.588  1.00  0.00     0.055 A 
ATOM     55  C   UNL A   1      38.058  32.542  37.473  1.00  0.00     0.041 A 
ATOM     56  F   UNL A   1      37.996  30.510  36.300  1.00  0.00    -0.206 F 
ATOM     57  C   UNL A   1      38.533  33.843  37.604  1.00  0.00     0.022 A 
BRANCH  54  58
ATOM     58  S   UNL A   1      40.081  36.011  36.878  1.00  0.00     0.124 S 
ATOM     59  O   UNL A   1      39.332  36.495  38.036  1.00  0.00    -0.237 OA
ATOM     60  O   UNL A   1      41.473  35.646  37.138  1.00  0.00    -0.237 OA
ATOM     61  O   UNL A   1      39.849  36.729  35.633  1.00  0.00    -0.744 OA
ENDBRANCH  54  58
ENDBRANCH  27  51
BRANCH  39  62
ATOM     62  C   UNL A   1      44.912  28.277  34.371  1.00  0.00     0.023 A 
ATOM     63  C   UNL A   1      44.876  27.143  35.207  1.00  0.00     0.031 A 
ATOM     64  C   UNL A   1      45.992  29.166  34.502  1.00  0.00     0.131 A 
ATOM     65  C   UNL A   1      45.865  26.964  36.182  1.00  0.00     0.055 A 
ATOM     66  C   UNL A   1      47.003  28.954  35.441  1.00  0.00     0.041 A 
ATOM     67  F   UNL A   1      46.067  30.265  33.734  1.00  0.00    -0.206 F 
ATOM     68  C   UNL A   1      46.931  27.860  36.299  1.00  0.00     0.022 A 
BRANCH  65  69
ATOM     69  S   UNL A   1      45.745  25.625  37.402  1.00  0.00     0.124 S 
ATOM     70  O   UNL A   1      46.872  25.917  38.285  1.00  0.00    -0.237 OA
ATOM     71  O   UNL A   1      44.425  25.854  37.980  1.00  0.00    -0.237 OA
ATOM     72  O   UNL A   1      45.881  24.410  36.605  1.00  0.00    -0.744 OA
ENDBRANCH  65  69
ENDBRANCH  39  62
ENDBRANCH  13  14
ENDBRANCH   6   8
ENDBRANCH   3   4
ENDBRANCH   2   3
ENDBRANCH   1   2
BRANCH   1  73
ATOM     73  N   UNL A   1      30.539  26.326  26.462  1.00  0.00    -0.354 N 
ATOM     74  C   UNL A   1      30.680  24.977  26.403  1.00  0.00     0.249 C 
ATOM     75  H   UNL A   1      29.930  26.637  27.171  1.00  0.00     0.163 HD
ATOM     76  O   UNL A   1      29.743  24.334  26.902  1.00  0.00    -0.272 OA
BRANCH  74  77
ATOM     77  C   UNL A   1      31.878  24.221  25.778  1.00  0.00     0.227 C 
ATOM     78  N   UNL A   1      32.567  23.247  26.682  1.00  0.00    -0.267 NA
ATOM     79  C   UNL A   1      31.543  23.428  24.535  1.00  0.00     0.027 C 
ATOM     80  C   UNL A   1      32.672  22.181  25.947  1.00  0.00     0.066 A 
ATOM     81  C   UNL A   1      32.083  22.211  24.600  1.00  0.00     0.007 A 
ATOM     82  C   UNL A   1      33.337  20.916  26.337  1.00  0.00     0.028 A 
ATOM     83  C   UNL A   1      32.175  21.096  23.707  1.00  0.00     0.010 A 
ATOM     84  C   UNL A   1      33.401  19.907  25.449  1.00  0.00     0.002 A 
ATOM     85  C   UNL A   1      32.825  19.995  24.117  1.00  0.00     0.001 A 
BRANCH  79  86
ATOM     86  C   UNL A   1      30.801  24.024  23.390  1.00  0.00     0.296 C 
BRANCH  86  87
ATOM     87  N   UNL A   1      31.743  24.428  22.359  1.00  0.00    -0.342 N 
ATOM     88  H   UNL A   1      31.284  25.102  21.747  1.00  0.00     0.346 HD
ATOM     89  H   UNL A   1      32.025  23.582  21.862  1.00  0.00     0.346 HD
BRANCH  87  90
ATOM     90  C   UNL A   1      32.962  25.040  22.890  1.00  0.00     0.265 C 
BRANCH  90  91
ATOM     91  C   UNL A   1      34.269  24.362  22.440  1.00  0.00     0.097 C 
BRANCH  91  92
ATOM     92  C   UNL A   1      35.054  23.765  23.587  1.00  0.00    -0.042 A 
ATOM     93  C   UNL A   1      35.233  24.483  24.777  1.00  0.00     0.004 A 
ATOM     94  C   UNL A   1      35.676  22.517  23.445  1.00  0.00     0.004 A 
ATOM     95  C   UNL A   1      36.037  23.972  25.797  1.00  0.00     0.000 A 
ATOM     96  C   UNL A   1      36.479  22.008  24.466  1.00  0.00     0.000 A 
ATOM     97  C   UNL A   1      36.664  22.738  25.639  1.00  0.00     0.000 A 
ENDBRANCH  91  92
ENDBRANCH  90  91
ENDBRANCH  87  90
ENDBRANCH  86  87
ENDBRANCH  79  86
ENDBRANCH  74  77
ENDBRANCH   1  73
TORSDOF 18
ENDMDL
MODEL 2
REMARK VINA RESULT:     -11.3      2.066      2.345
REMARK SMILES O=C(NCCCNC(=O)[C@H]1N=c2ccccc2=C1C[NH2+]CCc1ccccc1)c1ccc(-c2c3nc(c(-c4cc(S(=O)(=O)[O-])ccc4F)c4ccc([nH]4)c(-c4cc(S(=O)(=O)[O-])ccc4F)c4nc(c(-c5cc(S(=O)(=O)[O-])ccc5F)c5ccc2[nH]5)C=C4)C=C3)cc1
REMARK SMILES IDX 6 1 5 2 4 3 3 4 1 5 2 6 29 8 30 9 91 10 31 11 90 12 32 13
REMARK SMILES IDX 33 14 34 15 84 16 35 17 89 18 83 19 85 20 36 21 88 22 82 23
REMARK SMILES IDX 81 24 37 26 69 27 49 28 68 29 50 30 53 31 67 32 86 33 51 34
REMARK SMILES IDX 52 35 66 37 87 38 54 39 38 40 39 41 47 42 40 43 46 44 48 45
REMARK SMILES IDX 45 46 41 47 42 48 43 49 44 50 70 51 71 52 79 53 72 54 78 55
REMARK SMILES IDX 80 56 77 57 73 58 74 59 75 60 76 61 55 62 56 63 64 64 57 65
REMARK SMILES IDX 63 66 65 67 62 68 58 69 59 70 60 71 61 72 7 73 8 74 9 76
REMARK SMILES IDX 10 77 11 78 18 79 12 80 17 81 13 82 16 83 14 84 15 85 19 86
REMARK SMILES IDX 20 87 21 90 22 91 23 92 24 93 28 94 25 95 27 96 26 97
REMARK H PARENT 3 7 85 25 53 36 7 75 20 88 20 89
REMARK Flexibility Score: inf
ROOT
ATOM      1  C   UNL A   1      31.344  27.413  25.898  1.00  0.00     0.117 C 
ENDROOT
BRANCH   1   2
ATOM      2  C   UNL A   1      31.862  28.484  26.862  1.00  0.00     0.042 C 
BRANCH   2   3
ATOM      3  C   UNL A   1      32.982  29.364  26.294  1.00  0.00     0.118 C 
BRANCH   3   4
ATOM      4  N   UNL A   1      32.797  30.775  26.601  1.00  0.00    -0.352 N 
ATOM      5  O   UNL A   1      33.052  32.730  27.666  1.00  0.00    -0.269 OA
ATOM      6  C   UNL A   1      33.521  31.624  27.398  1.00  0.00     0.251 C 
ATOM      7  H   UNL A   1      32.020  31.191  26.162  1.00  0.00     0.163 HD
BRANCH   6   8
ATOM      8  C   UNL A   1      34.850  31.249  27.933  1.00  0.00     0.039 A 
ATOM      9  C   UNL A   1      35.019  29.962  28.459  1.00  0.00     0.014 A 
ATOM     10  C   UNL A   1      35.896  32.173  28.018  1.00  0.00     0.014 A 
ATOM     11  C   UNL A   1      36.235  29.595  29.047  1.00  0.00     0.010 A 
ATOM     12  C   UNL A   1      37.126  31.788  28.554  1.00  0.00     0.010 A 
ATOM     13  C   UNL A   1      37.302  30.504  29.093  1.00  0.00    -0.014 A 
BRANCH  13  14
ATOM     14  C   UNL A   1      38.599  30.148  29.728  1.00  0.00     0.031 A 
ATOM     15  C   UNL A   1      39.512  29.154  29.064  1.00  0.00     0.074 A 
ATOM     16  C   UNL A   1      38.927  30.664  30.928  1.00  0.00     0.049 A 
ATOM     17  N   UNL A   1      40.627  28.633  29.508  1.00  0.00    -0.248 NA
ATOM     18  C   UNL A   1      39.108  28.666  27.736  1.00  0.00     0.031 C 
ATOM     19  C   UNL A   1      38.117  31.624  31.673  1.00  0.00     0.029 A 
ATOM     20  N   UNL A   1      40.011  30.436  31.741  1.00  0.00    -0.354 N 
ATOM     21  C   UNL A   1      41.041  27.736  28.530  1.00  0.00     0.074 A 
ATOM     22  C   UNL A   1      40.040  27.756  27.487  1.00  0.00     0.031 C 
ATOM     23  C   UNL A   1      38.733  31.910  32.830  1.00  0.00     0.029 A 
ATOM     24  C   UNL A   1      39.954  31.112  32.938  1.00  0.00     0.049 A 
ATOM     25  H   UNL A   1      40.758  29.847  31.490  1.00  0.00     0.167 HD
ATOM     26  C   UNL A   1      42.163  26.980  28.501  1.00  0.00     0.034 A 
ATOM     27  C   UNL A   1      40.773  31.080  34.011  1.00  0.00     0.034 A 
ATOM     28  C   UNL A   1      43.171  27.004  29.529  1.00  0.00     0.049 A 
ATOM     29  C   UNL A   1      42.008  30.215  33.968  1.00  0.00     0.074 A 
ATOM     30  C   UNL A   1      44.391  26.352  29.538  1.00  0.00     0.029 A 
ATOM     31  N   UNL A   1      43.082  27.703  30.724  1.00  0.00    -0.354 N 
ATOM     32  N   UNL A   1      42.438  29.445  32.996  1.00  0.00    -0.248 NA
ATOM     33  C   UNL A   1      42.873  30.212  35.156  1.00  0.00     0.031 C 
ATOM     34  C   UNL A   1      45.004  26.592  30.767  1.00  0.00     0.029 A 
ATOM     35  C   UNL A   1      44.205  27.459  31.497  1.00  0.00     0.049 A 
ATOM     36  H   UNL A   1      42.332  28.286  30.983  1.00  0.00     0.167 HD
ATOM     37  C   UNL A   1      43.628  28.879  33.447  1.00  0.00     0.074 A 
ATOM     38  C   UNL A   1      43.862  29.412  34.773  1.00  0.00     0.031 C 
ATOM     39  C   UNL A   1      44.444  27.997  32.817  1.00  0.00     0.034 A 
BRANCH  26  40
ATOM     40  C   UNL A   1      42.394  26.063  27.325  1.00  0.00     0.023 A 
ATOM     41  C   UNL A   1      41.968  24.722  27.389  1.00  0.00     0.031 A 
ATOM     42  C   UNL A   1      43.146  26.468  26.209  1.00  0.00     0.131 A 
ATOM     43  C   UNL A   1      42.323  23.828  26.372  1.00  0.00     0.055 A 
ATOM     44  C   UNL A   1      43.459  25.583  25.175  1.00  0.00     0.041 A 
ATOM     45  F   UNL A   1      43.583  27.733  26.103  1.00  0.00    -0.206 F 
ATOM     46  C   UNL A   1      43.059  24.254  25.261  1.00  0.00     0.022 A 
BRANCH  43  47
ATOM     47  S   UNL A   1      41.907  22.066  26.483  1.00  0.00     0.124 S 
ATOM     48  O   UNL A   1      40.446  22.103  26.487  1.00  0.00    -0.237 OA
ATOM     49  O   UNL A   1      42.512  21.533  25.265  1.00  0.00    -0.237 OA
ATOM     50  O   UNL A   1      42.522  21.637  27.733  1.00  0.00    -0.744 OA
ENDBRANCH  43  47
ENDBRANCH  26  40
BRANCH  27  51
ATOM     51  C   UNL A   1      40.447  31.940  35.186  1.00  0.00     0.023 A 
ATOM     52  C   UNL A   1      39.498  31.529  36.142  1.00  0.00     0.031 A 
ATOM     53  C   UNL A   1      40.964  33.242  35.286  1.00  0.00     0.131 A 
ATOM     54  C   UNL A   1      39.034  32.441  37.098  1.00  0.00     0.055 A 
ATOM     55  C   UNL A   1      40.551  34.123  36.287  1.00  0.00     0.041 A 
ATOM     56  F   UNL A   1      41.863  33.682  34.392  1.00  0.00    -0.206 F 
ATOM     57  C   UNL A   1      39.565  33.731  37.187  1.00  0.00     0.022 A 
BRANCH  54  58
ATOM     58  S   UNL A   1      37.621  32.030  38.162  1.00  0.00     0.124 S 
ATOM     59  O   UNL A   1      37.350  30.644  37.788  1.00  0.00    -0.237 OA
ATOM     60  O   UNL A   1      38.190  32.222  39.495  1.00  0.00    -0.237 OA
ATOM     61  O   UNL A   1      36.603  32.997  37.776  1.00  0.00    -0.744 OA
ENDBRANCH  54  58
ENDBRANCH  27  51
BRANCH  39  62
ATOM     62  C   UNL A   1      45.687  27.512  33.524  1.00  0.00     0.023 A 
ATOM     63  C   UNL A   1      46.923  28.149  33.292  1.00  0.00     0.031 A 
ATOM     64  C   UNL A   1      45.686  26.309  34.251  1.00  0.00     0.131 A 
ATOM     65  C   UNL A   1      48.111  27.546  33.724  1.00  0.00     0.055 A 
ATOM     66  C   UNL A   1      46.870  25.739  34.724  1.00  0.00     0.041 A 
ATOM     67  F   UNL A   1      44.536  25.660  34.491  1.00  0.00    -0.206 F 
ATOM     68  C   UNL A   1      48.090  26.348  34.444  1.00  0.00     0.022 A 
BRANCH  65  69
ATOM     69  S   UNL A   1      49.728  28.238  33.274  1.00  0.00     0.124 S 
ATOM     70  O   UNL A   1      49.361  29.244  32.280  1.00  0.00    -0.237 OA
ATOM     71  O   UNL A   1      50.201  28.765  34.550  1.00  0.00    -0.237 OA
ATOM     72  O   UNL A   1      50.468  27.093  32.753  1.00  0.00    -0.744 OA
ENDBRANCH  65  69
ENDBRANCH  39  62
ENDBRANCH  13  14
ENDBRANCH   6   8
ENDBRANCH   3   4
ENDBRANCH   2   3
ENDBRANCH   1   2
BRANCH   1  73
ATOM     73  N   UNL A   1      30.689  26.330  26.604  1.00  0.00    -0.354 N 
ATOM     74  C   UNL A   1      30.785  24.981  26.478  1.00  0.00     0.249 C 
ATOM     75  H   UNL A   1      30.061  26.625  27.303  1.00  0.00     0.163 HD
ATOM     76  O   UNL A   1      29.805  24.348  26.901  1.00  0.00    -0.272 OA
BRANCH  74  77
ATOM     77  C   UNL A   1      31.982  24.214  25.865  1.00  0.00     0.227 C 
ATOM     78  N   UNL A   1      32.649  23.230  26.773  1.00  0.00    -0.267 NA
ATOM     79  C   UNL A   1      31.654  23.429  24.615  1.00  0.00     0.027 C 
ATOM     80  C   UNL A   1      32.752  22.165  26.036  1.00  0.00     0.066 A 
ATOM     81  C   UNL A   1      32.180  22.207  24.682  1.00  0.00     0.007 A 
ATOM     82  C   UNL A   1      33.398  20.891  26.429  1.00  0.00     0.028 A 
ATOM     83  C   UNL A   1      32.271  21.093  23.786  1.00  0.00     0.010 A 
ATOM     84  C   UNL A   1      33.462  19.885  25.538  1.00  0.00     0.002 A 
ATOM     85  C   UNL A   1      32.904  19.984  24.199  1.00  0.00     0.001 A 
BRANCH  79  86
ATOM     86  C   UNL A   1      30.933  24.038  23.463  1.00  0.00     0.296 C 
BRANCH  86  87
ATOM     87  N   UNL A   1      31.839  24.158  22.333  1.00  0.00    -0.342 N 
ATOM     88  H   UNL A   1      31.409  24.769  21.638  1.00  0.00     0.346 HD
ATOM     89  H   UNL A   1      31.999  23.216  21.975  1.00  0.00     0.346 HD
BRANCH  87  90
ATOM     90  C   UNL A   1      33.146  24.710  22.690  1.00  0.00     0.265 C 
BRANCH  90  91
ATOM     91  C   UNL A   1      34.344  23.818  22.312  1.00  0.00     0.097 C 
BRANCH  91  92
ATOM     92  C   UNL A   1      35.275  23.552  23.473  1.00  0.00    -0.042 A 
ATOM     93  C   UNL A   1      36.137  22.446  23.456  1.00  0.00     0.004 A 
ATOM     94  C   UNL A   1      35.236  24.366  24.613  1.00  0.00     0.004 A 
ATOM     95  C   UNL A   1      36.926  22.148  24.568  1.00  0.00     0.000 A 
ATOM     96  C   UNL A   1      36.026  24.066  25.723  1.00  0.00     0.000 A 
ATOM     97  C   UNL A   1      36.866  22.954  25.703  1.00  0.00     0.000 A 
ENDBRANCH  91  92
ENDBRANCH  90  91
ENDBRANCH  87  90
ENDBRANCH  86  87
ENDBRANCH  79  86
ENDBRANCH  74  77
ENDBRANCH   1  73
TORSDOF 18
ENDMDL
MODEL 3
REMARK VINA RESULT:     -11.3      0.976      2.194
REMARK SMILES O=C(NCCCNC(=O)[C@H]1N=c2ccccc2=C1C[NH2+]CCc1ccccc1)c1ccc(-c2c3nc(c(-c4cc(S(=O)(=O)[O-])ccc4F)c4ccc([nH]4)c(-c4cc(S(=O)(=O)[O-])ccc4F)c4nc(c(-c5cc(S(=O)(=O)[O-])ccc5F)c5ccc2[nH]5)C=C4)C=C3)cc1
REMARK SMILES IDX 6 1 5 2 4 3 3 4 1 5 2 6 29 8 30 9 91 10 31 11 90 12 32 13
REMARK SMILES IDX 33 14 34 15 84 16 35 17 89 18 83 19 85 20 36 21 88 22 82 23
REMARK SMILES IDX 81 24 37 26 69 27 49 28 68 29 50 30 53 31 67 32 86 33 51 34
REMARK SMILES IDX 52 35 66 37 87 38 54 39 38 40 39 41 47 42 40 43 46 44 48 45
REMARK SMILES IDX 45 46 41 47 42 48 43 49 44 50 70 51 71 52 79 53 72 54 78 55
REMARK SMILES IDX 80 56 77 57 73 58 74 59 75 60 76 61 55 62 56 63 64 64 57 65
REMARK SMILES IDX 63 66 65 67 62 68 58 69 59 70 60 71 61 72 7 73 8 74 9 76
REMARK SMILES IDX 10 77 11 78 18 79 12 80 17 81 13 82 16 83 14 84 15 85 19 86
REMARK SMILES IDX 20 87 21 90 22 91 23 92 24 93 28 94 25 95 27 96 26 97
REMARK H PARENT 3 7 85 25 53 36 7 75 20 88 20 89
REMARK Flexibility Score: inf
ROOT
ATOM      1  C   UNL A   1      31.018  27.681  25.117  1.00  0.00     0.117 C 
ENDROOT
BRANCH   1   2
ATOM      2  C   UNL A   1      31.618  28.635  26.153  1.00  0.00     0.042 C 
BRANCH   2   3
ATOM      3  C   UNL A   1      32.556  29.699  25.572  1.00  0.00     0.118 C 
BRANCH   3   4
ATOM      4  N   UNL A   1      32.222  31.045  26.018  1.00  0.00    -0.352 N 
ATOM      5  O   UNL A   1      32.199  32.864  27.325  1.00  0.00    -0.269 OA
ATOM      6  C   UNL A   1      32.784  31.835  26.987  1.00  0.00     0.251 C 
ATOM      7  H   UNL A   1      31.466  31.458  25.542  1.00  0.00     0.163 HD
BRANCH   6   8
ATOM      8  C   UNL A   1      34.074  31.489  27.626  1.00  0.00     0.039 A 
ATOM      9  C   UNL A   1      34.276  30.170  28.052  1.00  0.00     0.014 A 
ATOM     10  C   UNL A   1      35.041  32.459  27.905  1.00  0.00     0.014 A 
ATOM     11  C   UNL A   1      35.447  29.820  28.732  1.00  0.00     0.010 A 
ATOM     12  C   UNL A   1      36.233  32.098  28.534  1.00  0.00     0.010 A 
ATOM     13  C   UNL A   1      36.440  30.781  28.973  1.00  0.00    -0.014 A 
BRANCH  13  14
ATOM     14  C   UNL A   1      37.687  30.442  29.710  1.00  0.00     0.031 A 
ATOM     15  C   UNL A   1      38.681  29.491  29.104  1.00  0.00     0.074 A 
ATOM     16  C   UNL A   1      37.895  30.934  30.946  1.00  0.00     0.049 A 
ATOM     17  N   UNL A   1      39.768  28.987  29.630  1.00  0.00    -0.248 NA
ATOM     18  C   UNL A   1      38.409  29.027  27.734  1.00  0.00     0.031 C 
ATOM     19  C   UNL A   1      36.997  31.852  31.641  1.00  0.00     0.029 A 
ATOM     20  N   UNL A   1      38.911  30.712  31.844  1.00  0.00    -0.354 N 
ATOM     21  C   UNL A   1      40.291  28.127  28.670  1.00  0.00     0.074 A 
ATOM     22  C   UNL A   1      39.384  28.150  27.545  1.00  0.00     0.031 C 
ATOM     23  C   UNL A   1      37.502  32.123  32.854  1.00  0.00     0.029 A 
ATOM     24  C   UNL A   1      38.731  31.355  33.048  1.00  0.00     0.049 A 
ATOM     25  H   UNL A   1      39.693  30.150  31.645  1.00  0.00     0.167 HD
ATOM     26  C   UNL A   1      41.432  27.402  28.721  1.00  0.00     0.034 A 
ATOM     27  C   UNL A   1      39.455  31.315  34.187  1.00  0.00     0.034 A 
ATOM     28  C   UNL A   1      42.347  27.425  29.833  1.00  0.00     0.049 A 
ATOM     29  C   UNL A   1      40.714  30.484  34.231  1.00  0.00     0.074 A 
ATOM     30  C   UNL A   1      43.579  26.805  29.933  1.00  0.00     0.029 A 
ATOM     31  N   UNL A   1      42.135  28.089  31.033  1.00  0.00    -0.354 N 
ATOM     32  N   UNL A   1      41.247  29.752  33.282  1.00  0.00    -0.248 NA
ATOM     33  C   UNL A   1      41.472  30.472  35.490  1.00  0.00     0.031 C 
ATOM     34  C   UNL A   1      44.076  27.028  31.216  1.00  0.00     0.029 A 
ATOM     35  C   UNL A   1      43.193  27.854  31.894  1.00  0.00     0.049 A 
ATOM     36  H   UNL A   1      41.349  28.645  31.239  1.00  0.00     0.167 HD
ATOM     37  C   UNL A   1      42.409  29.206  33.821  1.00  0.00     0.074 A 
ATOM     38  C   UNL A   1      42.513  29.709  35.175  1.00  0.00     0.031 C 
ATOM     39  C   UNL A   1      43.302  28.362  33.243  1.00  0.00     0.034 A 
BRANCH  26  40
ATOM     40  C   UNL A   1      41.790  26.523  27.547  1.00  0.00     0.023 A 
ATOM     41  C   UNL A   1      41.527  25.141  27.603  1.00  0.00     0.031 A 
ATOM     42  C   UNL A   1      42.505  27.020  26.444  1.00  0.00     0.131 A 
ATOM     43  C   UNL A   1      42.002  24.299  26.590  1.00  0.00     0.055 A 
ATOM     44  C   UNL A   1      42.938  26.182  25.414  1.00  0.00     0.041 A 
ATOM     45  F   UNL A   1      42.789  28.329  26.347  1.00  0.00    -0.206 F 
ATOM     46  C   UNL A   1      42.700  24.814  25.492  1.00  0.00     0.022 A 
BRANCH  43  47
ATOM     47  S   UNL A   1      41.800  22.500  26.691  1.00  0.00     0.124 S 
ATOM     48  O   UNL A   1      42.308  22.068  25.391  1.00  0.00    -0.237 OA
ATOM     49  O   UNL A   1      42.646  22.162  27.833  1.00  0.00    -0.237 OA
ATOM     50  O   UNL A   1      40.367  22.317  26.890  1.00  0.00    -0.744 OA
ENDBRANCH  43  47
ENDBRANCH  26  40
BRANCH  27  51
ATOM     51  C   UNL A   1      39.004  32.134  35.350  1.00  0.00     0.023 A 
ATOM     52  C   UNL A   1      39.442  33.463  35.511  1.00  0.00     0.031 A 
ATOM     53  C   UNL A   1      38.254  31.555  36.387  1.00  0.00     0.131 A 
ATOM     54  C   UNL A   1      39.203  34.132  36.718  1.00  0.00     0.055 A 
ATOM     55  C   UNL A   1      37.956  32.254  37.558  1.00  0.00     0.041 A 
ATOM     56  F   UNL A   1      37.823  30.289  36.282  1.00  0.00    -0.206 F 
ATOM     57  C   UNL A   1      38.450  33.542  37.737  1.00  0.00     0.022 A 
BRANCH  54  58
ATOM     58  S   UNL A   1      39.989  35.733  37.062  1.00  0.00     0.124 S 
ATOM     59  O   UNL A   1      39.665  36.497  35.859  1.00  0.00    -0.237 OA
ATOM     60  O   UNL A   1      39.290  36.149  38.278  1.00  0.00    -0.237 OA
ATOM     61  O   UNL A   1      41.395  35.400  37.237  1.00  0.00    -0.744 OA
ENDBRANCH  54  58
ENDBRANCH  27  51
BRANCH  39  62
ATOM     62  C   UNL A   1      44.493  27.891  34.044  1.00  0.00     0.023 A 
ATOM     63  C   UNL A   1      44.422  26.680  34.762  1.00  0.00     0.031 A 
ATOM     64  C   UNL A   1      45.599  28.729  34.260  1.00  0.00     0.131 A 
ATOM     65  C   UNL A   1      45.405  26.375  35.712  1.00  0.00     0.055 A 
ATOM     66  C   UNL A   1      46.603  28.394  35.171  1.00  0.00     0.041 A 
ATOM     67  F   UNL A   1      45.708  29.896  33.607  1.00  0.00    -0.206 F 
ATOM     68  C   UNL A   1      46.498  27.222  35.916  1.00  0.00     0.022 A 
BRANCH  65  69
ATOM     69  S   UNL A   1      45.244  24.924  36.791  1.00  0.00     0.124 S 
ATOM     70  O   UNL A   1      46.612  24.409  36.813  1.00  0.00    -0.237 OA
ATOM     71  O   UNL A   1      44.783  25.521  38.040  1.00  0.00    -0.237 OA
ATOM     72  O   UNL A   1      44.275  24.078  36.102  1.00  0.00    -0.744 OA
ENDBRANCH  65  69
ENDBRANCH  39  62
ENDBRANCH  13  14
ENDBRANCH   6   8
ENDBRANCH   3   4
ENDBRANCH   2   3
ENDBRANCH   1   2
BRANCH   1  73
ATOM     73  N   UNL A   1      31.019  26.310  25.588  1.00  0.00    -0.354 N 
ATOM     74  C   UNL A   1      31.836  25.261  25.311  1.00  0.00     0.249 C 
ATOM     75  H   UNL A   1      30.297  26.102  26.225  1.00  0.00     0.163 HD
ATOM     76  O   UNL A   1      31.334  24.144  25.514  1.00  0.00    -0.272 OA
BRANCH  74  77
ATOM     77  C   UNL A   1      33.286  25.362  24.778  1.00  0.00     0.227 C 
ATOM     78  N   UNL A   1      34.362  25.228  25.810  1.00  0.00    -0.267 NA
ATOM     79  C   UNL A   1      33.638  24.346  23.716  1.00  0.00     0.027 C 
ATOM     80  C   UNL A   1      35.184  24.376  25.276  1.00  0.00     0.066 A 
ATOM     81  C   UNL A   1      34.824  23.795  23.973  1.00  0.00     0.007 A 
ATOM     82  C   UNL A   1      36.470  23.923  25.855  1.00  0.00     0.028 A 
ATOM     83  C   UNL A   1      35.681  22.870  23.293  1.00  0.00     0.010 A 
ATOM     84  C   UNL A   1      37.236  23.062  25.162  1.00  0.00     0.002 A 
ATOM     85  C   UNL A   1      36.848  22.534  23.864  1.00  0.00     0.001 A 
BRANCH  79  86
ATOM     86  C   UNL A   1      32.783  24.123  22.517  1.00  0.00     0.296 C 
BRANCH  86  87
ATOM     87  N   UNL A   1      32.858  22.726  22.121  1.00  0.00    -0.342 N 
ATOM     88  H   UNL A   1      33.814  22.400  22.263  1.00  0.00     0.346 HD
ATOM     89  H   UNL A   1      32.572  22.676  21.143  1.00  0.00     0.346 HD
BRANCH  87  90
ATOM     90  C   UNL A   1      31.956  21.857  22.877  1.00  0.00     0.265 C 
BRANCH  90  91
ATOM     91  C   UNL A   1      32.587  21.204  24.122  1.00  0.00     0.097 C 
BRANCH  91  92
ATOM     92  C   UNL A   1      33.052  19.786  23.876  1.00  0.00    -0.042 A 
ATOM     93  C   UNL A   1      32.393  18.972  22.946  1.00  0.00     0.004 A 
ATOM     94  C   UNL A   1      34.102  19.245  24.631  1.00  0.00     0.004 A 
ATOM     95  C   UNL A   1      32.762  17.635  22.789  1.00  0.00     0.000 A 
ATOM     96  C   UNL A   1      34.469  17.909  24.473  1.00  0.00     0.000 A 
ATOM     97  C   UNL A   1      33.796  17.103  23.557  1.00  0.00     0.000 A 
ENDBRANCH  91  92
ENDBRANCH  90  91
ENDBRANCH  87  90
ENDBRANCH  86  87
ENDBRANCH  79  86
ENDBRANCH  74  77
ENDBRANCH   1  73
TORSDOF 18
ENDMDL
