MODEL 1
REMARK VINA RESULT:      -8.5      0.000      0.000
REMARK SMILES NS(=O)(=O)c1ccc(-n2nc(C(=O)NCCCCCCCCCCC(=O)NCCCNC(=O)c3ccc(-c4c5nc(c(-c6cc(S(=O)(=O)[O-])ccc6F)c6ccc([nH]6)c(-c6cc(S(=O)(=O)[O-])ccc6F)c6nc(c(-c7cc(S(=O)(=O)[O-])ccc7F)c7ccc4[nH]7)C=C6)C=C5)cc3)cc2-c2ccccc2)cc1
REMARK SMILES IDX 21 1 20 2 19 3 18 4 17 5 16 6 15 7 14 8 12 9 13 10 11 12
REMARK SMILES IDX 9 13 10 14 98 15 97 16 8 17 5 18 6 19 106 20 7 21 105 22
REMARK SMILES IDX 2 23 3 24 4 25 1 26 99 29 100 30 104 31 101 32 103 33 102 34
REMARK SMILES IDX 22 35 23 36 24 37 25 38 26 39 27 40 28 42 29 43 30 44 31 45
REMARK SMILES IDX 32 46 33 48 34 49 35 50 96 51 36 52 95 53 37 54 38 55 39 56
REMARK SMILES IDX 89 57 40 58 94 59 88 60 90 61 41 62 93 63 87 64 86 65 42 67
REMARK SMILES IDX 74 68 54 69 73 70 55 71 58 72 72 73 91 74 56 75 57 76 71 78
REMARK SMILES IDX 92 79 59 80 43 81 44 82 52 83 45 84 51 85 53 86 50 87 46 88
REMARK SMILES IDX 47 89 48 90 49 91 75 92 76 93 84 94 77 95 83 96 85 97 82 98
REMARK SMILES IDX 78 99 79 100 80 101 81 102 60 103 61 104 69 105 62 106
REMARK SMILES IDX 68 107 70 108 67 109 63 110 64 111 65 112 66 113
REMARK H PARENT 14 11 1 27 1 28 27 41 31 47 90 66 58 77
REMARK Flexibility Score: inf
ROOT
ATOM      1  C   UNL A   1      39.250  28.884  31.195  1.00  0.00     0.000 C 
ENDROOT
BRANCH   1   2
ATOM      2  C   UNL A   1      38.179  28.331  30.269  1.00  0.00     0.000 C 
BRANCH   2   3
ATOM      3  C   UNL A   1      37.703  29.351  29.234  1.00  0.00     0.000 C 
BRANCH   3   4
ATOM      4  C   UNL A   1      36.184  29.576  29.233  1.00  0.00     0.000 C 
BRANCH   4   5
ATOM      5  C   UNL A   1      35.557  29.635  27.833  1.00  0.00     0.002 C 
BRANCH   5   6
ATOM      6  C   UNL A   1      35.241  31.057  27.363  1.00  0.00     0.021 C 
BRANCH   6   7
ATOM      7  C   UNL A   1      34.053  31.648  28.118  1.00  0.00     0.116 C 
BRANCH   7   8
ATOM      8  N   UNL A   1      34.066  33.085  28.042  1.00  0.00    -0.351 N 
ATOM      9  C   UNL A   1      34.878  34.036  28.603  1.00  0.00     0.271 C 
ATOM     10  O   UNL A   1      34.548  35.207  28.391  1.00  0.00    -0.267 OA
ATOM     11  H   UNL A   1      33.352  33.457  27.476  1.00  0.00     0.163 HD
BRANCH   9  12
ATOM     12  C   UNL A   1      36.095  33.686  29.365  1.00  0.00     0.151 A 
ATOM     13  N   UNL A   1      37.265  33.353  31.142  1.00  0.00    -0.232 N 
ATOM     14  N   UNL A   1      35.998  33.437  30.686  1.00  0.00    -0.162 NA
ATOM     15  C   UNL A   1      38.195  33.424  30.125  1.00  0.00     0.075 A 
ATOM     16  C   UNL A   1      37.445  33.535  28.975  1.00  0.00     0.065 A 
BRANCH  13  17
ATOM     17  C   UNL A   1      37.504  33.140  32.514  1.00  0.00     0.065 A 
ATOM     18  C   UNL A   1      37.689  32.722  35.237  1.00  0.00     0.082 A 
ATOM     19  C   UNL A   1      37.848  31.640  34.366  1.00  0.00     0.024 A 
ATOM     20  C   UNL A   1      37.476  34.019  34.755  1.00  0.00     0.024 A 
ATOM     21  C   UNL A   1      37.741  31.848  32.995  1.00  0.00     0.030 A 
ATOM     22  C   UNL A   1      37.419  34.236  33.382  1.00  0.00     0.030 A 
BRANCH  18  23
ATOM     23  S   UNL A   1      37.710  32.453  36.980  1.00  0.00     0.238 S 
ATOM     24  O   UNL A   1      38.083  31.074  37.248  1.00  0.00    -0.207 OA
ATOM     25  O   UNL A   1      36.550  33.064  37.563  1.00  0.00    -0.207 OA
BRANCH  23  26
ATOM     26  N   UNL A   1      39.030  33.370  37.454  1.00  0.00    -0.225 NA
ATOM     27  H   UNL A   1      38.812  34.360  37.345  1.00  0.00     0.137 HD
ATOM     28  H   UNL A   1      39.835  33.133  36.873  1.00  0.00     0.137 HD
ENDBRANCH  23  26
ENDBRANCH  18  23
ENDBRANCH  13  17
BRANCH  15  29
ATOM     29  C   UNL A   1      39.639  33.234  30.205  1.00  0.00     0.000 A 
ATOM     30  C   UNL A   1      40.201  31.956  30.135  1.00  0.00     0.010 A 
ATOM     31  C   UNL A   1      40.479  34.355  30.235  1.00  0.00     0.010 A 
ATOM     32  C   UNL A   1      41.588  31.802  30.096  1.00  0.00     0.001 A 
ATOM     33  C   UNL A   1      41.865  34.199  30.194  1.00  0.00     0.001 A 
ATOM     34  C   UNL A   1      42.417  32.922  30.120  1.00  0.00     0.000 A 
ENDBRANCH  15  29
ENDBRANCH   9  12
ENDBRANCH   7   8
ENDBRANCH   6   7
ENDBRANCH   5   6
ENDBRANCH   4   5
ENDBRANCH   3   4
ENDBRANCH   2   3
ENDBRANCH   1   2
BRANCH   1  35
ATOM     35  C   UNL A   1      40.620  28.237  30.965  1.00  0.00     0.001 C 
BRANCH  35  36
ATOM     36  C   UNL A   1      40.736  27.520  29.631  1.00  0.00     0.010 C 
BRANCH  36  37
ATOM     37  C   UNL A   1      41.484  28.296  28.548  1.00  0.00     0.100 C 
BRANCH  37  38
ATOM     38  C   UNL A   1      40.870  28.151  27.170  1.00  0.00     0.219 C 
ATOM     39  O   UNL A   1      40.210  29.076  26.693  1.00  0.00    -0.275 OA
ATOM     40  N   UNL A   1      41.024  27.017  26.428  1.00  0.00    -0.356 N 
ATOM     41  H   UNL A   1      40.534  27.025  25.575  1.00  0.00     0.163 HD
BRANCH  40  42
ATOM     42  C   UNL A   1      41.784  25.795  26.669  1.00  0.00     0.117 C 
BRANCH  42  43
ATOM     43  C   UNL A   1      41.664  24.765  25.531  1.00  0.00     0.042 C 
BRANCH  43  44
ATOM     44  C   UNL A   1      42.237  23.405  25.858  1.00  0.00     0.118 C 
BRANCH  44  45
ATOM     45  N   UNL A   1      43.083  22.853  24.797  1.00  0.00    -0.352 N 
ATOM     46  C   UNL A   1      44.383  23.240  24.492  1.00  0.00     0.251 C 
ATOM     47  H   UNL A   1      42.693  22.136  24.247  1.00  0.00     0.163 HD
ATOM     48  O   UNL A   1      44.850  23.040  23.377  1.00  0.00    -0.269 OA
BRANCH  46  49
ATOM     49  C   UNL A   1      45.163  23.913  25.546  1.00  0.00     0.039 A 
ATOM     50  C   UNL A   1      45.302  25.300  25.620  1.00  0.00     0.014 A 
ATOM     51  C   UNL A   1      45.660  23.097  26.554  1.00  0.00     0.014 A 
ATOM     52  C   UNL A   1      45.856  25.851  26.777  1.00  0.00     0.010 A 
ATOM     53  C   UNL A   1      45.949  23.646  27.770  1.00  0.00     0.010 A 
ATOM     54  C   UNL A   1      46.147  25.014  27.868  1.00  0.00    -0.014 A 
BRANCH  54  55
ATOM     55  C   UNL A   1      46.579  25.532  29.161  1.00  0.00     0.031 A 
ATOM     56  C   UNL A   1      45.506  25.642  30.177  1.00  0.00     0.074 A 
ATOM     57  C   UNL A   1      47.881  25.702  29.492  1.00  0.00     0.049 A 
ATOM     58  N   UNL A   1      44.935  26.726  30.580  1.00  0.00    -0.248 NA
ATOM     59  C   UNL A   1      44.866  24.417  30.680  1.00  0.00     0.031 C 
ATOM     60  C   UNL A   1      49.077  25.377  28.705  1.00  0.00     0.029 A 
ATOM     61  N   UNL A   1      48.416  26.105  30.676  1.00  0.00    -0.354 N 
ATOM     62  C   UNL A   1      44.061  26.346  31.589  1.00  0.00     0.074 A 
ATOM     63  C   UNL A   1      43.888  24.927  31.433  1.00  0.00     0.031 C 
ATOM     64  C   UNL A   1      50.162  25.351  29.508  1.00  0.00     0.029 A 
ATOM     65  C   UNL A   1      49.776  25.839  30.819  1.00  0.00     0.049 A 
ATOM     66  H   UNL A   1      47.885  26.547  31.377  1.00  0.00     0.167 HD
ATOM     67  C   UNL A   1      43.773  27.196  32.616  1.00  0.00     0.034 A 
ATOM     68  C   UNL A   1      50.538  25.996  31.935  1.00  0.00     0.034 A 
ATOM     69  C   UNL A   1      44.238  28.537  32.313  1.00  0.00     0.049 A 
ATOM     70  C   UNL A   1      49.845  27.011  32.770  1.00  0.00     0.074 A 
ATOM     71  C   UNL A   1      44.013  29.425  31.277  1.00  0.00     0.029 A 
ATOM     72  N   UNL A   1      45.399  28.974  32.919  1.00  0.00    -0.354 N 
ATOM     73  N   UNL A   1      49.693  28.253  32.392  1.00  0.00    -0.248 NA
ATOM     74  C   UNL A   1      48.875  26.548  33.753  1.00  0.00     0.031 C 
ATOM     75  C   UNL A   1      45.295  29.986  30.994  1.00  0.00     0.029 A 
ATOM     76  C   UNL A   1      46.204  29.502  31.937  1.00  0.00     0.049 A 
ATOM     77  H   UNL A   1      45.612  28.918  33.879  1.00  0.00     0.167 HD
ATOM     78  C   UNL A   1      48.379  28.565  32.708  1.00  0.00     0.074 A 
ATOM     79  C   UNL A   1      47.961  27.519  33.643  1.00  0.00     0.031 C 
ATOM     80  C   UNL A   1      47.658  29.457  31.960  1.00  0.00     0.034 A 
BRANCH  67  81
ATOM     81  C   UNL A   1      43.424  26.782  34.029  1.00  0.00     0.023 A 
ATOM     82  C   UNL A   1      44.415  26.082  34.747  1.00  0.00     0.031 A 
ATOM     83  C   UNL A   1      42.133  26.771  34.601  1.00  0.00     0.131 A 
ATOM     84  C   UNL A   1      44.087  25.322  35.882  1.00  0.00     0.055 A 
ATOM     85  C   UNL A   1      41.827  26.072  35.773  1.00  0.00     0.041 A 
ATOM     86  F   UNL A   1      41.076  27.351  34.024  1.00  0.00    -0.206 F 
ATOM     87  C   UNL A   1      42.796  25.310  36.400  1.00  0.00     0.022 A 
BRANCH  84  88
ATOM     88  S   UNL A   1      45.339  24.197  36.545  1.00  0.00     0.124 S 
ATOM     89  O   UNL A   1      44.945  24.114  37.947  1.00  0.00    -0.237 OA
ATOM     90  O   UNL A   1      45.120  22.999  35.740  1.00  0.00    -0.237 OA
ATOM     91  O   UNL A   1      46.595  24.899  36.288  1.00  0.00    -0.744 OA
ENDBRANCH  84  88
ENDBRANCH  67  81
BRANCH  68  92
ATOM     92  C   UNL A   1      51.638  25.109  32.412  1.00  0.00     0.023 A 
ATOM     93  C   UNL A   1      51.473  23.725  32.639  1.00  0.00     0.031 A 
ATOM     94  C   UNL A   1      52.966  25.594  32.427  1.00  0.00     0.131 A 
ATOM     95  C   UNL A   1      52.602  22.896  32.860  1.00  0.00     0.055 A 
ATOM     96  C   UNL A   1      54.075  24.774  32.650  1.00  0.00     0.041 A 
ATOM     97  F   UNL A   1      53.244  26.875  32.136  1.00  0.00    -0.206 F 
ATOM     98  C   UNL A   1      53.899  23.417  32.857  1.00  0.00     0.022 A 
BRANCH  95  99
ATOM     99  S   UNL A   1      52.414  21.092  33.057  1.00  0.00     0.124 S 
ATOM    100  O   UNL A   1      50.996  20.895  32.781  1.00  0.00    -0.237 OA
ATOM    101  O   UNL A   1      53.347  20.568  32.066  1.00  0.00    -0.237 OA
ATOM    102  O   UNL A   1      52.807  20.857  34.447  1.00  0.00    -0.744 OA
ENDBRANCH  95  99
ENDBRANCH  68  92
BRANCH  80 103
ATOM    103  C   UNL A   1      48.392  30.309  30.935  1.00  0.00     0.023 A 
ATOM    104  C   UNL A   1      48.629  29.938  29.589  1.00  0.00     0.031 A 
ATOM    105  C   UNL A   1      48.771  31.608  31.319  1.00  0.00     0.131 A 
ATOM    106  C   UNL A   1      49.239  30.845  28.698  1.00  0.00     0.055 A 
ATOM    107  C   UNL A   1      49.351  32.512  30.429  1.00  0.00     0.041 A 
ATOM    108  F   UNL A   1      48.552  32.039  32.573  1.00  0.00    -0.206 F 
ATOM    109  C   UNL A   1      49.597  32.130  29.116  1.00  0.00     0.022 A 
BRANCH 106 110
ATOM    110  S   UNL A   1      49.616  30.358  26.982  1.00  0.00     0.124 S 
ATOM    111  O   UNL A   1      49.895  31.626  26.317  1.00  0.00    -0.237 OA
ATOM    112  O   UNL A   1      50.756  29.461  27.151  1.00  0.00    -0.237 OA
ATOM    113  O   UNL A   1      48.386  29.698  26.539  1.00  0.00    -0.744 OA
ENDBRANCH 106 110
ENDBRANCH  80 103
ENDBRANCH  54  55
ENDBRANCH  46  49
ENDBRANCH  44  45
ENDBRANCH  43  44
ENDBRANCH  42  43
ENDBRANCH  40  42
ENDBRANCH  37  38
ENDBRANCH  36  37
ENDBRANCH  35  36
ENDBRANCH   1  35
TORSDOF 28
ENDMDL
MODEL 2
REMARK VINA RESULT:      -7.9      4.827      9.258
REMARK SMILES NS(=O)(=O)c1ccc(-n2nc(C(=O)NCCCCCCCCCCC(=O)NCCCNC(=O)c3ccc(-c4c5nc(c(-c6cc(S(=O)(=O)[O-])ccc6F)c6ccc([nH]6)c(-c6cc(S(=O)(=O)[O-])ccc6F)c6nc(c(-c7cc(S(=O)(=O)[O-])ccc7F)c7ccc4[nH]7)C=C6)C=C5)cc3)cc2-c2ccccc2)cc1
REMARK SMILES IDX 21 1 20 2 19 3 18 4 17 5 16 6 15 7 14 8 12 9 13 10 11 12
REMARK SMILES IDX 9 13 10 14 98 15 97 16 8 17 5 18 6 19 106 20 7 21 105 22
REMARK SMILES IDX 2 23 3 24 4 25 1 26 99 29 100 30 104 31 101 32 103 33 102 34
REMARK SMILES IDX 22 35 23 36 24 37 25 38 26 39 27 40 28 42 29 43 30 44 31 45
REMARK SMILES IDX 32 46 33 48 34 49 35 50 96 51 36 52 95 53 37 54 38 55 39 56
REMARK SMILES IDX 89 57 40 58 94 59 88 60 90 61 41 62 93 63 87 64 86 65 42 67
REMARK SMILES IDX 74 68 54 69 73 70 55 71 58 72 72 73 91 74 56 75 57 76 71 78
REMARK SMILES IDX 92 79 59 80 43 81 44 82 52 83 45 84 51 85 53 86 50 87 46 88
REMARK SMILES IDX 47 89 48 90 49 91 75 92 76 93 84 94 77 95 83 96 85 97 82 98
REMARK SMILES IDX 78 99 79 100 80 101 81 102 60 103 61 104 69 105 62 106
REMARK SMILES IDX 68 107 70 108 67 109 63 110 64 111 65 112 66 113
REMARK H PARENT 14 11 1 27 1 28 27 41 31 47 90 66 58 77
REMARK Flexibility Score: inf
ROOT
ATOM      1  C   UNL A   1      41.583  29.324  28.715  1.00  0.00     0.000 C 
ENDROOT
BRANCH   1   2
ATOM      2  C   UNL A   1      41.077  30.100  29.920  1.00  0.00     0.000 C 
BRANCH   2   3
ATOM      3  C   UNL A   1      40.136  29.280  30.803  1.00  0.00     0.000 C 
BRANCH   3   4
ATOM      4  C   UNL A   1      38.848  28.834  30.096  1.00  0.00     0.000 C 
BRANCH   4   5
ATOM      5  C   UNL A   1      37.887  29.982  29.755  1.00  0.00     0.002 C 
BRANCH   5   6
ATOM      6  C   UNL A   1      37.700  30.196  28.251  1.00  0.00     0.021 C 
BRANCH   6   7
ATOM      7  C   UNL A   1      36.292  29.815  27.800  1.00  0.00     0.116 C 
BRANCH   7   8
ATOM      8  N   UNL A   1      35.378  30.905  28.011  1.00  0.00    -0.351 N 
ATOM      9  C   UNL A   1      34.135  31.184  27.505  1.00  0.00     0.271 C 
ATOM     10  O   UNL A   1      33.657  32.271  27.841  1.00  0.00    -0.267 OA
ATOM     11  H   UNL A   1      35.710  31.583  28.642  1.00  0.00     0.163 HD
BRANCH   9  12
ATOM     12  C   UNL A   1      33.394  30.226  26.657  1.00  0.00     0.151 A 
ATOM     13  N   UNL A   1      33.164  28.488  25.407  1.00  0.00    -0.232 N 
ATOM     14  N   UNL A   1      33.966  29.049  26.336  1.00  0.00    -0.162 NA
ATOM     15  C   UNL A   1      32.012  29.218  25.198  1.00  0.00     0.075 A 
ATOM     16  C   UNL A   1      32.109  30.279  26.071  1.00  0.00     0.065 A 
BRANCH  13  17
ATOM     17  C   UNL A   1      33.518  27.253  24.830  1.00  0.00     0.065 A 
ATOM     18  C   UNL A   1      33.934  24.764  23.707  1.00  0.00     0.082 A 
ATOM     19  C   UNL A   1      33.898  25.891  22.880  1.00  0.00     0.024 A 
ATOM     20  C   UNL A   1      33.803  24.877  25.096  1.00  0.00     0.024 A 
ATOM     21  C   UNL A   1      33.674  27.143  23.443  1.00  0.00     0.030 A 
ATOM     22  C   UNL A   1      33.629  26.134  25.665  1.00  0.00     0.030 A 
BRANCH  18  23
ATOM     23  S   UNL A   1      34.104  23.160  22.993  1.00  0.00     0.238 S 
ATOM     24  O   UNL A   1      33.557  22.170  23.904  1.00  0.00    -0.207 OA
ATOM     25  O   UNL A   1      35.415  23.039  22.420  1.00  0.00    -0.207 OA
BRANCH  23  26
ATOM     26  N   UNL A   1      33.022  23.235  21.716  1.00  0.00    -0.225 NA
ATOM     27  H   UNL A   1      33.228  22.490  21.051  1.00  0.00     0.137 HD
ATOM     28  H   UNL A   1      33.108  24.140  21.250  1.00  0.00     0.137 HD
ENDBRANCH  23  26
ENDBRANCH  18  23
ENDBRANCH  13  17
BRANCH  15  29
ATOM     29  C   UNL A   1      30.854  28.866  24.384  1.00  0.00     0.000 A 
ATOM     30  C   UNL A   1      30.392  27.549  24.322  1.00  0.00     0.010 A 
ATOM     31  C   UNL A   1      30.126  29.881  23.749  1.00  0.00     0.010 A 
ATOM     32  C   UNL A   1      29.215  27.250  23.633  1.00  0.00     0.001 A 
ATOM     33  C   UNL A   1      28.950  29.582  23.062  1.00  0.00     0.001 A 
ATOM     34  C   UNL A   1      28.493  28.266  23.008  1.00  0.00     0.000 A 
ENDBRANCH  15  29
ENDBRANCH   9  12
ENDBRANCH   7   8
ENDBRANCH   6   7
ENDBRANCH   5   6
ENDBRANCH   4   5
ENDBRANCH   3   4
ENDBRANCH   2   3
ENDBRANCH   1   2
BRANCH   1  35
ATOM     35  C   UNL A   1      42.779  30.002  28.037  1.00  0.00     0.001 C 
BRANCH  35  36
ATOM     36  C   UNL A   1      43.286  31.224  28.783  1.00  0.00     0.010 C 
BRANCH  36  37
ATOM     37  C   UNL A   1      44.532  31.874  28.182  1.00  0.00     0.100 C 
BRANCH  37  38
ATOM     38  C   UNL A   1      44.265  32.594  26.876  1.00  0.00     0.219 C 
ATOM     39  O   UNL A   1      44.414  31.999  25.807  1.00  0.00    -0.275 OA
ATOM     40  N   UNL A   1      43.860  33.895  26.840  1.00  0.00    -0.356 N 
ATOM     41  H   UNL A   1      43.772  34.265  25.932  1.00  0.00     0.163 HD
BRANCH  40  42
ATOM     42  C   UNL A   1      43.533  34.840  27.903  1.00  0.00     0.117 C 
BRANCH  42  43
ATOM     43  C   UNL A   1      44.567  35.970  28.057  1.00  0.00     0.042 C 
BRANCH  43  44
ATOM     44  C   UNL A   1      45.526  35.782  29.210  1.00  0.00     0.118 C 
BRANCH  44  45
ATOM     45  N   UNL A   1      46.871  36.302  28.946  1.00  0.00    -0.352 N 
ATOM     46  C   UNL A   1      48.031  35.551  28.794  1.00  0.00     0.251 C 
ATOM     47  H   UNL A   1      46.962  37.279  28.869  1.00  0.00     0.163 HD
ATOM     48  O   UNL A   1      49.131  36.052  28.988  1.00  0.00    -0.269 OA
BRANCH  46  49
ATOM     49  C   UNL A   1      47.884  34.135  28.411  1.00  0.00     0.039 A 
ATOM     50  C   UNL A   1      47.933  33.696  27.087  1.00  0.00     0.014 A 
ATOM     51  C   UNL A   1      47.819  33.223  29.457  1.00  0.00     0.014 A 
ATOM     52  C   UNL A   1      48.021  32.324  26.845  1.00  0.00     0.010 A 
ATOM     53  C   UNL A   1      48.168  31.924  29.227  1.00  0.00     0.010 A 
ATOM     54  C   UNL A   1      48.173  31.442  27.929  1.00  0.00    -0.014 A 
BRANCH  54  55
ATOM     55  C   UNL A   1      48.427  30.016  27.750  1.00  0.00     0.031 A 
ATOM     56  C   UNL A   1      47.233  29.210  27.406  1.00  0.00     0.074 A 
ATOM     57  C   UNL A   1      49.673  29.488  27.690  1.00  0.00     0.049 A 
ATOM     58  N   UNL A   1      46.590  28.411  28.189  1.00  0.00    -0.248 NA
ATOM     59  C   UNL A   1      46.563  29.435  26.116  1.00  0.00     0.031 C 
ATOM     60  C   UNL A   1      50.966  30.183  27.732  1.00  0.00     0.029 A 
ATOM     61  N   UNL A   1      50.045  28.201  27.459  1.00  0.00    -0.354 N 
ATOM     62  C   UNL A   1      45.605  27.821  27.410  1.00  0.00     0.074 A 
ATOM     63  C   UNL A   1      45.486  28.655  26.244  1.00  0.00     0.031 C 
ATOM     64  C   UNL A   1      51.941  29.364  27.283  1.00  0.00     0.029 A 
ATOM     65  C   UNL A   1      51.382  28.038  27.103  1.00  0.00     0.049 A 
ATOM     66  H   UNL A   1      49.419  27.444  27.535  1.00  0.00     0.167 HD
ATOM     67  C   UNL A   1      45.170  26.557  27.679  1.00  0.00     0.034 A 
ATOM     68  C   UNL A   1      51.993  26.899  26.678  1.00  0.00     0.034 A 
ATOM     69  C   UNL A   1      45.639  26.123  28.982  1.00  0.00     0.049 A 
ATOM     70  C   UNL A   1      51.177  25.772  27.200  1.00  0.00     0.074 A 
ATOM     71  C   UNL A   1      45.525  26.628  30.265  1.00  0.00     0.029 A 
ATOM     72  N   UNL A   1      46.704  25.246  29.031  1.00  0.00    -0.354 N 
ATOM     73  N   UNL A   1      51.045  25.526  28.477  1.00  0.00    -0.248 NA
ATOM     74  C   UNL A   1      50.103  25.256  26.364  1.00  0.00     0.031 C 
ATOM     75  C   UNL A   1      46.820  26.451  30.841  1.00  0.00     0.029 A 
ATOM     76  C   UNL A   1      47.614  25.750  29.930  1.00  0.00     0.049 A 
ATOM     77  H   UNL A   1      46.795  24.412  28.516  1.00  0.00     0.167 HD
ATOM     78  C   UNL A   1      49.695  25.263  28.653  1.00  0.00     0.074 A 
ATOM     79  C   UNL A   1      49.187  24.999  27.306  1.00  0.00     0.031 C 
ATOM     80  C   UNL A   1      49.053  25.575  29.822  1.00  0.00     0.034 A 
BRANCH  67  81
ATOM     81  C   UNL A   1      44.656  25.567  26.655  1.00  0.00     0.023 A 
ATOM     82  C   UNL A   1      43.484  24.859  26.990  1.00  0.00     0.031 A 
ATOM     83  C   UNL A   1      45.368  25.076  25.538  1.00  0.00     0.131 A 
ATOM     84  C   UNL A   1      43.140  23.671  26.325  1.00  0.00     0.055 A 
ATOM     85  C   UNL A   1      44.981  23.932  24.834  1.00  0.00     0.041 A 
ATOM     86  F   UNL A   1      46.520  25.607  25.118  1.00  0.00    -0.206 F 
ATOM     87  C   UNL A   1      43.883  23.199  25.248  1.00  0.00     0.022 A 
BRANCH  84  88
ATOM     88  S   UNL A   1      41.818  22.655  27.028  1.00  0.00     0.124 S 
ATOM     89  O   UNL A   1      41.229  22.072  25.827  1.00  0.00    -0.237 OA
ATOM     90  O   UNL A   1      42.567  21.743  27.888  1.00  0.00    -0.237 OA
ATOM     91  O   UNL A   1      40.981  23.626  27.728  1.00  0.00    -0.744 OA
ENDBRANCH  84  88
ENDBRANCH  67  81
BRANCH  68  92
ATOM     92  C   UNL A   1      53.044  26.774  25.628  1.00  0.00     0.023 A 
ATOM     93  C   UNL A   1      52.776  26.887  24.246  1.00  0.00     0.031 A 
ATOM     94  C   UNL A   1      54.408  26.771  26.005  1.00  0.00     0.131 A 
ATOM     95  C   UNL A   1      53.841  26.996  23.317  1.00  0.00     0.055 A 
ATOM     96  C   UNL A   1      55.454  26.874  25.085  1.00  0.00     0.041 A 
ATOM     97  F   UNL A   1      54.774  26.757  27.296  1.00  0.00    -0.206 F 
ATOM     98  C   UNL A   1      55.174  26.999  23.735  1.00  0.00     0.022 A 
BRANCH  95  99
ATOM     99  S   UNL A   1      53.510  27.242  21.539  1.00  0.00     0.124 S 
ATOM    100  O   UNL A   1      52.187  26.649  21.385  1.00  0.00    -0.237 OA
ATOM    101  O   UNL A   1      53.593  28.691  21.400  1.00  0.00    -0.237 OA
ATOM    102  O   UNL A   1      54.592  26.505  20.885  1.00  0.00    -0.744 OA
ENDBRANCH  95  99
ENDBRANCH  68  92
BRANCH  80 103
ATOM    103  C   UNL A   1      49.891  25.971  31.029  1.00  0.00     0.023 A 
ATOM    104  C   UNL A   1      50.559  25.064  31.887  1.00  0.00     0.031 A 
ATOM    105  C   UNL A   1      50.109  27.343  31.250  1.00  0.00     0.131 A 
ATOM    106  C   UNL A   1      51.385  25.543  32.925  1.00  0.00     0.055 A 
ATOM    107  C   UNL A   1      50.948  27.814  32.260  1.00  0.00     0.041 A 
ATOM    108  F   UNL A   1      49.530  28.261  30.458  1.00  0.00    -0.206 F 
ATOM    109  C   UNL A   1      51.582  26.915  33.109  1.00  0.00     0.022 A 
BRANCH 106 110
ATOM    110  S   UNL A   1      52.194  24.390  34.082  1.00  0.00     0.124 S 
ATOM    111  O   UNL A   1      51.132  23.456  34.437  1.00  0.00    -0.237 OA
ATOM    112  O   UNL A   1      53.283  23.844  33.276  1.00  0.00    -0.237 OA
ATOM    113  O   UNL A   1      52.629  25.260  35.178  1.00  0.00    -0.744 OA
ENDBRANCH 106 110
ENDBRANCH  80 103
ENDBRANCH  54  55
ENDBRANCH  46  49
ENDBRANCH  44  45
ENDBRANCH  43  44
ENDBRANCH  42  43
ENDBRANCH  40  42
ENDBRANCH  37  38
ENDBRANCH  36  37
ENDBRANCH  35  36
ENDBRANCH   1  35
TORSDOF 28
ENDMDL
MODEL 3
REMARK VINA RESULT:      -7.3      5.296     12.400
REMARK SMILES NS(=O)(=O)c1ccc(-n2nc(C(=O)NCCCCCCCCCCC(=O)NCCCNC(=O)c3ccc(-c4c5nc(c(-c6cc(S(=O)(=O)[O-])ccc6F)c6ccc([nH]6)c(-c6cc(S(=O)(=O)[O-])ccc6F)c6nc(c(-c7cc(S(=O)(=O)[O-])ccc7F)c7ccc4[nH]7)C=C6)C=C5)cc3)cc2-c2ccccc2)cc1
REMARK SMILES IDX 21 1 20 2 19 3 18 4 17 5 16 6 15 7 14 8 12 9 13 10 11 12
REMARK SMILES IDX 9 13 10 14 98 15 97 16 8 17 5 18 6 19 106 20 7 21 105 22
REMARK SMILES IDX 2 23 3 24 4 25 1 26 99 29 100 30 104 31 101 32 103 33 102 34
REMARK SMILES IDX 22 35 23 36 24 37 25 38 26 39 27 40 28 42 29 43 30 44 31 45
REMARK SMILES IDX 32 46 33 48 34 49 35 50 96 51 36 52 95 53 37 54 38 55 39 56
REMARK SMILES IDX 89 57 40 58 94 59 88 60 90 61 41 62 93 63 87 64 86 65 42 67
REMARK SMILES IDX 74 68 54 69 73 70 55 71 58 72 72 73 91 74 56 75 57 76 71 78
REMARK SMILES IDX 92 79 59 80 43 81 44 82 52 83 45 84 51 85 53 86 50 87 46 88
REMARK SMILES IDX 47 89 48 90 49 91 75 92 76 93 84 94 77 95 83 96 85 97 82 98
REMARK SMILES IDX 78 99 79 100 80 101 81 102 60 103 61 104 69 105 62 106
REMARK SMILES IDX 68 107 70 108 67 109 63 110 64 111 65 112 66 113
REMARK H PARENT 14 11 1 27 1 28 27 41 31 47 90 66 58 77
REMARK Flexibility Score: inf
ROOT
ATOM      1  C   UNL A   1      49.053  38.294  33.245  1.00  0.00     0.000 C 
ENDROOT
BRANCH   1   2
ATOM      2  C   UNL A   1      48.605  37.818  34.617  1.00  0.00     0.000 C 
BRANCH   2   3
ATOM      3  C   UNL A   1      49.607  36.867  35.273  1.00  0.00     0.000 C 
BRANCH   3   4
ATOM      4  C   UNL A   1      49.081  36.189  36.547  1.00  0.00     0.000 C 
BRANCH   4   5
ATOM      5  C   UNL A   1      48.328  34.874  36.295  1.00  0.00     0.002 C 
BRANCH   5   6
ATOM      6  C   UNL A   1      48.694  34.204  34.968  1.00  0.00     0.021 C 
BRANCH   6   7
ATOM      7  C   UNL A   1      47.531  33.391  34.409  1.00  0.00     0.116 C 
BRANCH   7   8
ATOM      8  N   UNL A   1      47.353  33.655  33.006  1.00  0.00    -0.351 N 
ATOM      9  C   UNL A   1      46.374  34.307  32.302  1.00  0.00     0.271 C 
ATOM     10  O   UNL A   1      46.494  34.276  31.074  1.00  0.00    -0.267 OA
ATOM     11  H   UNL A   1      48.076  33.298  32.442  1.00  0.00     0.163 HD
BRANCH   9  12
ATOM     12  C   UNL A   1      45.278  35.041  32.968  1.00  0.00     0.151 A 
ATOM     13  N   UNL A   1      44.332  36.751  33.872  1.00  0.00    -0.232 N 
ATOM     14  N   UNL A   1      45.338  36.384  33.051  1.00  0.00    -0.162 NA
ATOM     15  C   UNL A   1      43.536  35.685  34.237  1.00  0.00     0.075 A 
ATOM     16  C   UNL A   1      44.080  34.604  33.578  1.00  0.00     0.065 A 
BRANCH  13  17
ATOM     17  C   UNL A   1      44.154  38.109  34.200  1.00  0.00     0.065 A 
ATOM     18  C   UNL A   1      44.040  40.825  34.689  1.00  0.00     0.082 A 
ATOM     19  C   UNL A   1      43.212  40.270  33.708  1.00  0.00     0.024 A 
ATOM     20  C   UNL A   1      44.897  40.026  35.455  1.00  0.00     0.024 A 
ATOM     21  C   UNL A   1      43.280  38.905  33.451  1.00  0.00     0.030 A 
ATOM     22  C   UNL A   1      44.928  38.652  35.233  1.00  0.00     0.030 A 
BRANCH  18  23
ATOM     23  S   UNL A   1      44.046  42.570  34.945  1.00  0.00     0.238 S 
ATOM     24  O   UNL A   1      42.717  43.000  35.344  1.00  0.00    -0.207 OA
ATOM     25  O   UNL A   1      44.771  43.199  33.878  1.00  0.00    -0.207 OA
BRANCH  23  26
ATOM     26  N   UNL A   1      44.991  42.712  36.322  1.00  0.00    -0.225 NA
ATOM     27  H   UNL A   1      45.935  42.382  36.121  1.00  0.00     0.137 HD
ATOM     28  H   UNL A   1      44.586  42.151  37.072  1.00  0.00     0.137 HD
ENDBRANCH  23  26
ENDBRANCH  18  23
ENDBRANCH  13  17
BRANCH  15  29
ATOM     29  C   UNL A   1      42.289  35.703  34.992  1.00  0.00     0.000 A 
ATOM     30  C   UNL A   1      42.218  36.307  36.250  1.00  0.00     0.010 A 
ATOM     31  C   UNL A   1      41.119  35.210  34.398  1.00  0.00     0.010 A 
ATOM     32  C   UNL A   1      40.991  36.418  36.907  1.00  0.00     0.001 A 
ATOM     33  C   UNL A   1      39.893  35.323  35.055  1.00  0.00     0.001 A 
ATOM     34  C   UNL A   1      39.830  35.931  36.307  1.00  0.00     0.000 A 
ENDBRANCH  15  29
ENDBRANCH   9  12
ENDBRANCH   7   8
ENDBRANCH   6   7
ENDBRANCH   5   6
ENDBRANCH   4   5
ENDBRANCH   3   4
ENDBRANCH   2   3
ENDBRANCH   1   2
BRANCH   1  35
ATOM     35  C   UNL A   1      47.879  38.721  32.356  1.00  0.00     0.001 C 
BRANCH  35  36
ATOM     36  C   UNL A   1      47.656  40.223  32.328  1.00  0.00     0.010 C 
BRANCH  36  37
ATOM     37  C   UNL A   1      46.316  40.663  31.740  1.00  0.00     0.100 C 
BRANCH  37  38
ATOM     38  C   UNL A   1      46.399  41.057  30.279  1.00  0.00     0.219 C 
ATOM     39  O   UNL A   1      47.493  41.079  29.711  1.00  0.00    -0.275 OA
ATOM     40  N   UNL A   1      45.290  41.392  29.559  1.00  0.00    -0.356 N 
ATOM     41  H   UNL A   1      45.481  41.679  28.637  1.00  0.00     0.163 HD
BRANCH  40  42
ATOM     42  C   UNL A   1      43.873  41.401  29.907  1.00  0.00     0.117 C 
BRANCH  42  43
ATOM     43  C   UNL A   1      43.215  40.011  29.824  1.00  0.00     0.042 C 
BRANCH  43  44
ATOM     44  C   UNL A   1      42.755  39.623  28.437  1.00  0.00     0.118 C 
BRANCH  44  45
ATOM     45  N   UNL A   1      43.767  38.896  27.665  1.00  0.00    -0.352 N 
ATOM     46  C   UNL A   1      44.100  37.554  27.797  1.00  0.00     0.251 C 
ATOM     47  H   UNL A   1      44.258  39.410  26.984  1.00  0.00     0.163 HD
ATOM     48  O   UNL A   1      45.194  37.141  27.432  1.00  0.00    -0.269 OA
BRANCH  46  49
ATOM     49  C   UNL A   1      43.102  36.657  28.409  1.00  0.00     0.039 A 
ATOM     50  C   UNL A   1      42.014  36.139  27.705  1.00  0.00     0.014 A 
ATOM     51  C   UNL A   1      43.366  36.244  29.708  1.00  0.00     0.014 A 
ATOM     52  C   UNL A   1      41.263  35.122  28.298  1.00  0.00     0.010 A 
ATOM     53  C   UNL A   1      42.804  35.087  30.164  1.00  0.00     0.010 A 
ATOM     54  C   UNL A   1      41.689  34.575  29.521  1.00  0.00    -0.014 A 
BRANCH  54  55
ATOM     55  C   UNL A   1      41.051  33.409  30.124  1.00  0.00     0.031 A 
ATOM     56  C   UNL A   1      41.882  32.182  30.137  1.00  0.00     0.074 A 
ATOM     57  C   UNL A   1      39.885  33.476  30.808  1.00  0.00     0.049 A 
ATOM     58  N   UNL A   1      41.743  31.149  29.378  1.00  0.00    -0.248 NA
ATOM     59  C   UNL A   1      43.107  32.155  30.950  1.00  0.00     0.031 C 
ATOM     60  C   UNL A   1      39.076  34.659  31.128  1.00  0.00     0.029 A 
ATOM     61  N   UNL A   1      39.226  32.489  31.473  1.00  0.00    -0.354 N 
ATOM     62  C   UNL A   1      42.687  30.228  29.809  1.00  0.00     0.074 A 
ATOM     63  C   UNL A   1      43.632  30.981  30.588  1.00  0.00     0.031 C 
ATOM     64  C   UNL A   1      38.204  34.365  32.116  1.00  0.00     0.029 A 
ATOM     65  C   UNL A   1      38.257  32.937  32.368  1.00  0.00     0.049 A 
ATOM     66  H   UNL A   1      39.420  31.534  31.334  1.00  0.00     0.167 HD
ATOM     67  C   UNL A   1      42.452  28.889  29.699  1.00  0.00     0.034 A 
ATOM     68  C   UNL A   1      37.551  32.196  33.263  1.00  0.00     0.034 A 
ATOM     69  C   UNL A   1      41.306  28.641  28.843  1.00  0.00     0.049 A 
ATOM     70  C   UNL A   1      37.554  30.804  32.744  1.00  0.00     0.074 A 
ATOM     71  C   UNL A   1      40.980  28.986  27.544  1.00  0.00     0.029 A 
ATOM     72  N   UNL A   1      40.107  28.310  29.443  1.00  0.00    -0.354 N 
ATOM     73  N   UNL A   1      36.973  30.467  31.623  1.00  0.00    -0.248 NA
ATOM     74  C   UNL A   1      38.624  29.914  33.170  1.00  0.00     0.031 C 
ATOM     75  C   UNL A   1      39.603  29.360  27.603  1.00  0.00     0.029 A 
ATOM     76  C   UNL A   1      39.136  29.116  28.897  1.00  0.00     0.049 A 
ATOM     77  H   UNL A   1      39.973  27.622  30.134  1.00  0.00     0.167 HD
ATOM     78  C   UNL A   1      37.882  29.637  30.984  1.00  0.00     0.074 A 
ATOM     79  C   UNL A   1      38.826  29.242  32.030  1.00  0.00     0.031 C 
ATOM     80  C   UNL A   1      37.964  29.586  29.618  1.00  0.00     0.034 A 
BRANCH  67  81
ATOM     81  C   UNL A   1      42.987  27.823  30.632  1.00  0.00     0.023 A 
ATOM     82  C   UNL A   1      42.606  27.916  31.985  1.00  0.00     0.031 A 
ATOM     83  C   UNL A   1      44.038  26.921  30.353  1.00  0.00     0.131 A 
ATOM     84  C   UNL A   1      43.327  27.247  32.988  1.00  0.00     0.055 A 
ATOM     85  C   UNL A   1      44.705  26.202  31.349  1.00  0.00     0.041 A 
ATOM     86  F   UNL A   1      44.544  26.749  29.128  1.00  0.00    -0.206 F 
ATOM     87  C   UNL A   1      44.378  26.391  32.680  1.00  0.00     0.022 A 
BRANCH  84  88
ATOM     88  S   UNL A   1      42.986  27.678  34.713  1.00  0.00     0.124 S 
ATOM     89  O   UNL A   1      43.124  26.383  35.370  1.00  0.00    -0.237 OA
ATOM     90  O   UNL A   1      44.034  28.656  34.988  1.00  0.00    -0.237 OA
ATOM     91  O   UNL A   1      41.629  28.216  34.665  1.00  0.00    -0.744 OA
ENDBRANCH  84  88
ENDBRANCH  67  81
BRANCH  68  92
ATOM     92  C   UNL A   1      37.151  32.588  34.646  1.00  0.00     0.023 A 
ATOM     93  C   UNL A   1      37.952  32.342  35.783  1.00  0.00     0.031 A 
ATOM     94  C   UNL A   1      36.041  33.444  34.833  1.00  0.00     0.131 A 
ATOM     95  C   UNL A   1      37.633  32.943  37.026  1.00  0.00     0.055 A 
ATOM     96  C   UNL A   1      35.727  34.029  36.062  1.00  0.00     0.041 A 
ATOM     97  F   UNL A   1      35.265  33.815  33.802  1.00  0.00    -0.206 F 
ATOM     98  C   UNL A   1      36.530  33.790  37.164  1.00  0.00     0.022 A 
BRANCH  95  99
ATOM     99  S   UNL A   1      38.713  32.714  38.479  1.00  0.00     0.124 S 
ATOM    100  O   UNL A   1      39.992  32.380  37.867  1.00  0.00    -0.237 OA
ATOM    101  O   UNL A   1      38.629  34.010  39.142  1.00  0.00    -0.237 OA
ATOM    102  O   UNL A   1      38.077  31.616  39.209  1.00  0.00    -0.744 OA
ENDBRANCH  95  99
ENDBRANCH  68  92
BRANCH  80 103
ATOM    103  C   UNL A   1      36.867  30.248  28.797  1.00  0.00     0.023 A 
ATOM    104  C   UNL A   1      35.708  29.595  28.313  1.00  0.00     0.031 A 
ATOM    105  C   UNL A   1      36.954  31.638  28.593  1.00  0.00     0.131 A 
ATOM    106  C   UNL A   1      34.708  30.327  27.640  1.00  0.00     0.055 A 
ATOM    107  C   UNL A   1      35.951  32.363  27.950  1.00  0.00     0.041 A 
ATOM    108  F   UNL A   1      38.013  32.328  29.049  1.00  0.00    -0.206 F 
ATOM    109  C   UNL A   1      34.828  31.709  27.461  1.00  0.00     0.022 A 
BRANCH 106 110
ATOM    110  S   UNL A   1      33.244  29.490  26.948  1.00  0.00     0.124 S 
ATOM    111  O   UNL A   1      32.129  30.315  27.400  1.00  0.00    -0.237 OA
ATOM    112  O   UNL A   1      33.515  29.512  25.513  1.00  0.00    -0.237 OA
ATOM    113  O   UNL A   1      33.297  28.157  27.554  1.00  0.00    -0.744 OA
ENDBRANCH 106 110
ENDBRANCH  80 103
ENDBRANCH  54  55
ENDBRANCH  46  49
ENDBRANCH  44  45
ENDBRANCH  43  44
ENDBRANCH  42  43
ENDBRANCH  40  42
ENDBRANCH  37  38
ENDBRANCH  36  37
ENDBRANCH  35  36
ENDBRANCH   1  35
TORSDOF 28
ENDMDL
