MODEL 1
REMARK VINA RESULT:     -11.6      0.000      0.000
REMARK SMILES Cc1cc(Br)cnc1Sc1nc(CC(=O)NCCCNC(=O)c2ccc(-c3c4nc(c(-c5cc(S(=O)(=O)[O-])ccc5F)c5ccc([nH]5)c(-c5cc(S(=O)(=O)[O-])ccc5F)c5nc(c(-c6cc(S(=O)(=O)[O-])ccc6F)c6ccc3[nH]6)C=C5)C=C4)cc2)cs1
REMARK SMILES IDX 18 1 17 2 16 3 14 4 15 5 13 7 12 8 10 9 11 10 87 11 86 12
REMARK SMILES IDX 9 13 8 14 1 15 2 16 3 17 4 18 7 19 5 20 6 21 19 22 20 23
REMARK SMILES IDX 21 24 22 26 23 27 24 28 85 29 25 30 84 31 26 32 27 33 28 34
REMARK SMILES IDX 78 35 29 36 83 37 77 38 79 39 30 40 82 41 76 42 75 43 31 45
REMARK SMILES IDX 63 46 43 47 62 48 44 49 47 50 61 51 80 52 45 53 46 54 60 56
REMARK SMILES IDX 81 57 48 58 32 59 33 60 41 61 34 62 40 63 42 64 39 65 35 66
REMARK SMILES IDX 36 67 37 68 38 69 64 70 65 71 73 72 66 73 72 74 74 75 71 76
REMARK SMILES IDX 67 77 68 78 69 79 70 80 49 81 50 82 58 83 51 84 57 85 59 86
REMARK SMILES IDX 56 87 52 88 53 89 54 90 55 91
REMARK H PARENT 16 6 20 25 79 44 47 55
REMARK Flexibility Score: inf
ROOT
ATOM      1  C   UNL A   1      31.367  32.128  26.506  1.00  0.00     0.042 C 
ENDROOT
BRANCH   1   2
ATOM      2  C   UNL A   1      31.397  30.737  25.876  1.00  0.00     0.117 C 
BRANCH   2   3
ATOM      3  N   UNL A   1      32.617  30.014  26.193  1.00  0.00    -0.356 N 
ATOM      4  C   UNL A   1      32.753  28.838  26.874  1.00  0.00     0.226 C 
ATOM      5  O   UNL A   1      33.887  28.416  27.112  1.00  0.00    -0.275 OA
ATOM      6  H   UNL A   1      33.454  30.424  25.875  1.00  0.00     0.163 HD
BRANCH   4   7
ATOM      7  C   UNL A   1      31.524  28.062  27.294  1.00  0.00     0.157 C 
BRANCH   7   8
ATOM      8  C   UNL A   1      31.209  26.947  26.357  1.00  0.00     0.062 A 
ATOM      9  C   UNL A   1      30.883  24.798  25.903  1.00  0.00     0.156 A 
ATOM     10  N   UNL A   1      31.257  25.642  26.840  1.00  0.00    -0.234 NA
ATOM     11  S   UNL A   1      30.554  25.503  24.371  1.00  0.00    -0.116 S 
ATOM     12  C   UNL A   1      30.843  27.055  25.029  1.00  0.00     0.092 A 
BRANCH   9  13
ATOM     13  S   UNL A   1      30.803  23.086  26.141  1.00  0.00    -0.039 SA
BRANCH  13  14
ATOM     14  C   UNL A   1      32.348  22.396  25.595  1.00  0.00     0.106 A 
ATOM     15  C   UNL A   1      32.047  22.228  23.028  1.00  0.00     0.047 C 
ATOM     16  C   UNL A   1      32.819  22.099  24.306  1.00  0.00    -0.017 A 
ATOM     17  C   UNL A   1      34.137  21.603  24.176  1.00  0.00     0.023 A 
ATOM     18  C   UNL A   1      34.957  21.464  25.283  1.00  0.00     0.036 A 
ATOM     19  N   UNL A   1      33.172  22.245  26.676  1.00  0.00    -0.248 NA
ATOM     20  Br  UNL A   1      36.729  20.852  25.105  1.00  0.00    -0.049 Br
ATOM     21  C   UNL A   1      34.436  21.799  26.508  1.00  0.00     0.128 A 
ENDBRANCH  13  14
ENDBRANCH   9  13
ENDBRANCH   7   8
ENDBRANCH   4   7
ENDBRANCH   2   3
ENDBRANCH   1   2
BRANCH   1  22
ATOM     22  C   UNL A   1      32.651  32.518  27.230  1.00  0.00     0.118 C 
BRANCH  22  23
ATOM     23  N   UNL A   1      32.670  33.921  27.609  1.00  0.00    -0.352 N 
ATOM     24  C   UNL A   1      33.426  34.573  28.546  1.00  0.00     0.251 C 
ATOM     25  H   UNL A   1      32.040  34.494  27.114  1.00  0.00     0.163 HD
ATOM     26  O   UNL A   1      33.125  35.736  28.839  1.00  0.00    -0.269 OA
BRANCH  24  27
ATOM     27  C   UNL A   1      34.575  33.917  29.212  1.00  0.00     0.039 A 
ATOM     28  C   UNL A   1      34.318  32.958  30.198  1.00  0.00     0.014 A 
ATOM     29  C   UNL A   1      35.896  34.281  28.932  1.00  0.00     0.014 A 
ATOM     30  C   UNL A   1      35.376  32.349  30.877  1.00  0.00     0.010 A 
ATOM     31  C   UNL A   1      36.953  33.620  29.558  1.00  0.00     0.010 A 
ATOM     32  C   UNL A   1      36.705  32.664  30.554  1.00  0.00    -0.014 A 
BRANCH  32  33
ATOM     33  C   UNL A   1      37.842  32.052  31.293  1.00  0.00     0.031 A 
ATOM     34  C   UNL A   1      38.638  30.943  30.657  1.00  0.00     0.074 A 
ATOM     35  C   UNL A   1      38.136  32.464  32.542  1.00  0.00     0.049 A 
ATOM     36  N   UNL A   1      39.617  30.231  31.155  1.00  0.00    -0.248 NA
ATOM     37  C   UNL A   1      38.262  30.567  29.286  1.00  0.00     0.031 C 
ATOM     38  C   UNL A   1      37.422  33.512  33.276  1.00  0.00     0.029 A 
ATOM     39  N   UNL A   1      39.109  32.051  33.417  1.00  0.00    -0.354 N 
ATOM     40  C   UNL A   1      39.962  29.314  30.166  1.00  0.00     0.074 A 
ATOM     41  C   UNL A   1      39.041  29.520  29.068  1.00  0.00     0.031 C 
ATOM     42  C   UNL A   1      37.997  33.674  34.479  1.00  0.00     0.029 A 
ATOM     43  C   UNL A   1      39.092  32.719  34.620  1.00  0.00     0.049 A 
ATOM     44  H   UNL A   1      39.759  31.344  33.204  1.00  0.00     0.167 HD
ATOM     45  C   UNL A   1      40.966  28.401  30.163  1.00  0.00     0.034 A 
ATOM     46  C   UNL A   1      39.867  32.573  35.713  1.00  0.00     0.034 A 
ATOM     47  C   UNL A   1      41.887  28.220  31.259  1.00  0.00     0.049 A 
ATOM     48  C   UNL A   1      40.971  31.545  35.692  1.00  0.00     0.074 A 
ATOM     49  C   UNL A   1      42.958  27.347  31.353  1.00  0.00     0.029 A 
ATOM     50  N   UNL A   1      41.848  28.927  32.455  1.00  0.00    -0.354 N 
ATOM     51  N   UNL A   1      41.301  30.704  34.739  1.00  0.00    -0.248 NA
ATOM     52  C   UNL A   1      41.820  31.461  36.887  1.00  0.00     0.031 C 
ATOM     53  C   UNL A   1      43.530  27.488  32.623  1.00  0.00     0.029 A 
ATOM     54  C   UNL A   1      42.864  28.500  33.295  1.00  0.00     0.049 A 
ATOM     55  H   UNL A   1      41.194  29.630  32.673  1.00  0.00     0.167 HD
ATOM     56  C   UNL A   1      42.421  30.022  35.206  1.00  0.00     0.074 A 
ATOM     57  C   UNL A   1      42.714  30.556  36.520  1.00  0.00     0.031 C 
ATOM     58  C   UNL A   1      43.147  29.046  34.602  1.00  0.00     0.034 A 
BRANCH  45  59
ATOM     59  C   UNL A   1      41.098  27.521  28.942  1.00  0.00     0.023 A 
ATOM     60  C   UNL A   1      42.104  27.737  27.981  1.00  0.00     0.031 A 
ATOM     61  C   UNL A   1      40.187  26.474  28.713  1.00  0.00     0.131 A 
ATOM     62  C   UNL A   1      42.122  26.978  26.802  1.00  0.00     0.055 A 
ATOM     63  C   UNL A   1      40.265  25.665  27.577  1.00  0.00     0.041 A 
ATOM     64  F   UNL A   1      39.194  26.230  29.582  1.00  0.00    -0.206 F 
ATOM     65  C   UNL A   1      41.226  25.925  26.605  1.00  0.00     0.022 A 
BRANCH  62  66
ATOM     66  S   UNL A   1      43.235  27.485  25.463  1.00  0.00     0.124 S 
ATOM     67  O   UNL A   1      43.737  26.196  24.993  1.00  0.00    -0.237 OA
ATOM     68  O   UNL A   1      42.337  28.190  24.556  1.00  0.00    -0.237 OA
ATOM     69  O   UNL A   1      44.224  28.323  26.138  1.00  0.00    -0.744 OA
ENDBRANCH  62  66
ENDBRANCH  45  59
BRANCH  46  70
ATOM     70  C   UNL A   1      39.638  33.415  36.923  1.00  0.00     0.023 A 
ATOM     71  C   UNL A   1      38.952  32.907  38.036  1.00  0.00     0.031 A 
ATOM     72  C   UNL A   1      40.060  34.756  36.963  1.00  0.00     0.131 A 
ATOM     73  C   UNL A   1      38.656  33.748  39.121  1.00  0.00     0.055 A 
ATOM     74  C   UNL A   1      39.813  35.574  38.067  1.00  0.00     0.041 A 
ATOM     75  F   UNL A   1      40.727  35.290  35.927  1.00  0.00    -0.206 F 
ATOM     76  C   UNL A   1      39.093  35.074  39.149  1.00  0.00     0.022 A 
BRANCH  73  77
ATOM     77  S   UNL A   1      37.611  33.107  40.456  1.00  0.00     0.124 S 
ATOM     78  O   UNL A   1      37.557  34.246  41.365  1.00  0.00    -0.237 OA
ATOM     79  O   UNL A   1      36.375  32.792  39.748  1.00  0.00    -0.237 OA
ATOM     80  O   UNL A   1      38.357  31.950  40.948  1.00  0.00    -0.744 OA
ENDBRANCH  73  77
ENDBRANCH  46  70
BRANCH  58  81
ATOM     81  C   UNL A   1      44.368  28.547  35.335  1.00  0.00     0.023 A 
ATOM     82  C   UNL A   1      44.290  27.549  36.322  1.00  0.00     0.031 A 
ATOM     83  C   UNL A   1      45.630  29.097  35.049  1.00  0.00     0.131 A 
ATOM     84  C   UNL A   1      45.442  27.175  37.029  1.00  0.00     0.055 A 
ATOM     85  C   UNL A   1      46.783  28.678  35.715  1.00  0.00     0.041 A 
ATOM     86  F   UNL A   1      45.763  30.054  34.117  1.00  0.00    -0.206 F 
ATOM     87  C   UNL A   1      46.690  27.722  36.722  1.00  0.00     0.022 A 
BRANCH  84  88
ATOM     88  S   UNL A   1      45.273  26.030  38.427  1.00  0.00     0.124 S 
ATOM     89  O   UNL A   1      44.446  24.972  37.856  1.00  0.00    -0.237 OA
ATOM     90  O   UNL A   1      46.660  25.674  38.707  1.00  0.00    -0.237 OA
ATOM     91  O   UNL A   1      44.622  26.840  39.456  1.00  0.00    -0.744 OA
ENDBRANCH  84  88
ENDBRANCH  58  81
ENDBRANCH  32  33
ENDBRANCH  24  27
ENDBRANCH  22  23
ENDBRANCH   1  22
TORSDOF 16
ENDMDL
MODEL 2
REMARK VINA RESULT:     -11.5      1.470      1.729
REMARK SMILES Cc1cc(Br)cnc1Sc1nc(CC(=O)NCCCNC(=O)c2ccc(-c3c4nc(c(-c5cc(S(=O)(=O)[O-])ccc5F)c5ccc([nH]5)c(-c5cc(S(=O)(=O)[O-])ccc5F)c5nc(c(-c6cc(S(=O)(=O)[O-])ccc6F)c6ccc3[nH]6)C=C5)C=C4)cc2)cs1
REMARK SMILES IDX 18 1 17 2 16 3 14 4 15 5 13 7 12 8 10 9 11 10 87 11 86 12
REMARK SMILES IDX 9 13 8 14 1 15 2 16 3 17 4 18 7 19 5 20 6 21 19 22 20 23
REMARK SMILES IDX 21 24 22 26 23 27 24 28 85 29 25 30 84 31 26 32 27 33 28 34
REMARK SMILES IDX 78 35 29 36 83 37 77 38 79 39 30 40 82 41 76 42 75 43 31 45
REMARK SMILES IDX 63 46 43 47 62 48 44 49 47 50 61 51 80 52 45 53 46 54 60 56
REMARK SMILES IDX 81 57 48 58 32 59 33 60 41 61 34 62 40 63 42 64 39 65 35 66
REMARK SMILES IDX 36 67 37 68 38 69 64 70 65 71 73 72 66 73 72 74 74 75 71 76
REMARK SMILES IDX 67 77 68 78 69 79 70 80 49 81 50 82 58 83 51 84 57 85 59 86
REMARK SMILES IDX 56 87 52 88 53 89 54 90 55 91
REMARK H PARENT 16 6 20 25 79 44 47 55
REMARK Flexibility Score: inf
ROOT
ATOM      1  C   UNL A   1      31.421  32.165  26.713  1.00  0.00     0.042 C 
ENDROOT
BRANCH   1   2
ATOM      2  C   UNL A   1      31.520  30.787  26.064  1.00  0.00     0.117 C 
BRANCH   2   3
ATOM      3  N   UNL A   1      32.733  30.082  26.446  1.00  0.00    -0.356 N 
ATOM      4  C   UNL A   1      32.850  28.874  27.073  1.00  0.00     0.226 C 
ATOM      5  O   UNL A   1      33.974  28.472  27.384  1.00  0.00    -0.275 OA
ATOM      6  H   UNL A   1      33.579  30.533  26.224  1.00  0.00     0.163 HD
BRANCH   4   7
ATOM      7  C   UNL A   1      31.617  28.041  27.343  1.00  0.00     0.157 C 
BRANCH   7   8
ATOM      8  C   UNL A   1      31.455  26.930  26.363  1.00  0.00     0.062 A 
ATOM      9  C   UNL A   1      31.267  24.778  25.849  1.00  0.00     0.156 A 
ATOM     10  N   UNL A   1      31.497  25.620  26.832  1.00  0.00    -0.234 NA
ATOM     11  S   UNL A   1      31.091  25.495  24.296  1.00  0.00    -0.116 S 
ATOM     12  C   UNL A   1      31.242  27.047  25.002  1.00  0.00     0.092 A 
BRANCH   9  13
ATOM     13  S   UNL A   1      31.225  23.061  26.055  1.00  0.00    -0.039 SA
BRANCH  13  14
ATOM     14  C   UNL A   1      32.847  22.436  25.679  1.00  0.00     0.106 A 
ATOM     15  C   UNL A   1      32.358  20.414  24.136  1.00  0.00     0.047 C 
ATOM     16  C   UNL A   1      33.256  21.373  24.859  1.00  0.00    -0.017 A 
ATOM     17  C   UNL A   1      34.643  21.145  24.705  1.00  0.00     0.023 A 
ATOM     18  C   UNL A   1      35.571  21.979  25.304  1.00  0.00     0.036 A 
ATOM     19  N   UNL A   1      33.779  23.244  26.267  1.00  0.00    -0.248 NA
ATOM     20  Br  UNL A   1      37.418  21.708  25.059  1.00  0.00    -0.049 Br
ATOM     21  C   UNL A   1      35.096  23.015  26.071  1.00  0.00     0.128 A 
ENDBRANCH  13  14
ENDBRANCH   9  13
ENDBRANCH   7   8
ENDBRANCH   4   7
ENDBRANCH   2   3
ENDBRANCH   1   2
BRANCH   1  22
ATOM     22  C   UNL A   1      32.725  32.667  27.323  1.00  0.00     0.118 C 
BRANCH  22  23
ATOM     23  N   UNL A   1      32.673  34.081  27.656  1.00  0.00    -0.352 N 
ATOM     24  C   UNL A   1      33.333  34.785  28.627  1.00  0.00     0.251 C 
ATOM     25  H   UNL A   1      32.068  34.619  27.094  1.00  0.00     0.163 HD
ATOM     26  O   UNL A   1      32.977  35.946  28.857  1.00  0.00    -0.269 OA
BRANCH  24  27
ATOM     27  C   UNL A   1      34.445  34.187  29.402  1.00  0.00     0.039 A 
ATOM     28  C   UNL A   1      35.759  34.440  28.991  1.00  0.00     0.014 A 
ATOM     29  C   UNL A   1      34.213  33.326  30.479  1.00  0.00     0.014 A 
ATOM     30  C   UNL A   1      36.831  33.857  29.672  1.00  0.00     0.010 A 
ATOM     31  C   UNL A   1      35.286  32.804  31.202  1.00  0.00     0.010 A 
ATOM     32  C   UNL A   1      36.605  33.045  30.793  1.00  0.00    -0.014 A 
BRANCH  32  33
ATOM     33  C   UNL A   1      37.734  32.388  31.506  1.00  0.00     0.031 A 
ATOM     34  C   UNL A   1      38.473  31.251  30.851  1.00  0.00     0.074 A 
ATOM     35  C   UNL A   1      38.072  32.787  32.749  1.00  0.00     0.049 A 
ATOM     36  N   UNL A   1      39.435  30.501  31.326  1.00  0.00    -0.248 NA
ATOM     37  C   UNL A   1      38.052  30.892  29.488  1.00  0.00     0.031 C 
ATOM     38  C   UNL A   1      37.416  33.859  33.499  1.00  0.00     0.029 A 
ATOM     39  N   UNL A   1      39.048  32.335  33.601  1.00  0.00    -0.354 N 
ATOM     40  C   UNL A   1      39.722  29.573  30.329  1.00  0.00     0.074 A 
ATOM     41  C   UNL A   1      38.786  29.816  29.252  1.00  0.00     0.031 C 
ATOM     42  C   UNL A   1      38.023  33.997  34.689  1.00  0.00     0.029 A 
ATOM     43  C   UNL A   1      39.083  33.000  34.805  1.00  0.00     0.049 A 
ATOM     44  H   UNL A   1      39.665  31.603  33.372  1.00  0.00     0.167 HD
ATOM     45  C   UNL A   1      40.690  28.622  30.302  1.00  0.00     0.034 A 
ATOM     46  C   UNL A   1      39.876  32.822  35.880  1.00  0.00     0.034 A 
ATOM     47  C   UNL A   1      41.627  28.403  31.378  1.00  0.00     0.049 A 
ATOM     48  C   UNL A   1      40.940  31.753  35.833  1.00  0.00     0.074 A 
ATOM     49  C   UNL A   1      42.666  27.490  31.447  1.00  0.00     0.029 A 
ATOM     50  N   UNL A   1      41.642  29.110  32.574  1.00  0.00    -0.354 N 
ATOM     51  N   UNL A   1      41.215  30.901  34.872  1.00  0.00    -0.248 NA
ATOM     52  C   UNL A   1      41.811  31.634  37.009  1.00  0.00     0.031 C 
ATOM     53  C   UNL A   1      43.271  27.606  32.703  1.00  0.00     0.029 A 
ATOM     54  C   UNL A   1      42.660  28.642  33.392  1.00  0.00     0.049 A 
ATOM     55  H   UNL A   1      41.020  29.836  32.808  1.00  0.00     0.167 HD
ATOM     56  C   UNL A   1      42.319  30.176  35.313  1.00  0.00     0.074 A 
ATOM     57  C   UNL A   1      42.661  30.696  36.621  1.00  0.00     0.031 C 
ATOM     58  C   UNL A   1      42.992  29.174  34.693  1.00  0.00     0.034 A 
BRANCH  45  59
ATOM     59  C   UNL A   1      40.761  27.740  29.078  1.00  0.00     0.023 A 
ATOM     60  C   UNL A   1      41.684  27.985  28.044  1.00  0.00     0.031 A 
ATOM     61  C   UNL A   1      39.872  26.661  28.921  1.00  0.00     0.131 A 
ATOM     62  C   UNL A   1      41.640  27.219  26.869  1.00  0.00     0.055 A 
ATOM     63  C   UNL A   1      39.893  25.848  27.785  1.00  0.00     0.041 A 
ATOM     64  F   UNL A   1      38.956  26.388  29.863  1.00  0.00    -0.206 F 
ATOM     65  C   UNL A   1      40.769  26.136  26.743  1.00  0.00     0.022 A 
BRANCH  62  66
ATOM     66  S   UNL A   1      42.632  27.757  25.449  1.00  0.00     0.124 S 
ATOM     67  O   UNL A   1      42.742  26.519  24.682  1.00  0.00    -0.237 OA
ATOM     68  O   UNL A   1      41.800  28.801  24.860  1.00  0.00    -0.237 OA
ATOM     69  O   UNL A   1      43.878  28.220  26.055  1.00  0.00    -0.744 OA
ENDBRANCH  62  66
ENDBRANCH  45  59
BRANCH  46  70
ATOM     70  C   UNL A   1      39.707  33.671  37.096  1.00  0.00     0.023 A 
ATOM     71  C   UNL A   1      40.543  34.774  37.327  1.00  0.00     0.031 A 
ATOM     72  C   UNL A   1      38.741  33.360  38.068  1.00  0.00     0.131 A 
ATOM     73  C   UNL A   1      40.435  35.495  38.525  1.00  0.00     0.055 A 
ATOM     74  C   UNL A   1      38.600  34.113  39.235  1.00  0.00     0.041 A 
ATOM     75  F   UNL A   1      37.912  32.318  37.894  1.00  0.00    -0.206 F 
ATOM     76  C   UNL A   1      39.461  35.180  39.476  1.00  0.00     0.022 A 
BRANCH  73  77
ATOM     77  S   UNL A   1      41.651  36.797  38.868  1.00  0.00     0.124 S 
ATOM     78  O   UNL A   1      42.265  36.982  37.558  1.00  0.00    -0.237 OA
ATOM     79  O   UNL A   1      40.803  37.887  39.339  1.00  0.00    -0.237 OA
ATOM     80  O   UNL A   1      42.514  36.198  39.883  1.00  0.00    -0.744 OA
ENDBRANCH  73  77
ENDBRANCH  46  70
BRANCH  58  81
ATOM     81  C   UNL A   1      44.209  28.627  35.397  1.00  0.00     0.023 A 
ATOM     82  C   UNL A   1      44.120  27.595  36.348  1.00  0.00     0.031 A 
ATOM     83  C   UNL A   1      45.479  29.165  35.122  1.00  0.00     0.131 A 
ATOM     84  C   UNL A   1      45.270  27.175  37.032  1.00  0.00     0.055 A 
ATOM     85  C   UNL A   1      46.629  28.701  35.764  1.00  0.00     0.041 A 
ATOM     86  F   UNL A   1      45.623  30.153  34.224  1.00  0.00    -0.206 F 
ATOM     87  C   UNL A   1      46.525  27.711  36.736  1.00  0.00     0.022 A 
BRANCH  84  88
ATOM     88  S   UNL A   1      45.090  25.983  38.389  1.00  0.00     0.124 S 
ATOM     89  O   UNL A   1      43.905  26.484  39.078  1.00  0.00    -0.237 OA
ATOM     90  O   UNL A   1      44.926  24.722  37.675  1.00  0.00    -0.237 OA
ATOM     91  O   UNL A   1      46.343  26.117  39.131  1.00  0.00    -0.744 OA
ENDBRANCH  84  88
ENDBRANCH  58  81
ENDBRANCH  32  33
ENDBRANCH  24  27
ENDBRANCH  22  23
ENDBRANCH   1  22
TORSDOF 16
ENDMDL
MODEL 3
REMARK VINA RESULT:     -11.5      2.179      3.173
REMARK SMILES Cc1cc(Br)cnc1Sc1nc(CC(=O)NCCCNC(=O)c2ccc(-c3c4nc(c(-c5cc(S(=O)(=O)[O-])ccc5F)c5ccc([nH]5)c(-c5cc(S(=O)(=O)[O-])ccc5F)c5nc(c(-c6cc(S(=O)(=O)[O-])ccc6F)c6ccc3[nH]6)C=C5)C=C4)cc2)cs1
REMARK SMILES IDX 18 1 17 2 16 3 14 4 15 5 13 7 12 8 10 9 11 10 87 11 86 12
REMARK SMILES IDX 9 13 8 14 1 15 2 16 3 17 4 18 7 19 5 20 6 21 19 22 20 23
REMARK SMILES IDX 21 24 22 26 23 27 24 28 85 29 25 30 84 31 26 32 27 33 28 34
REMARK SMILES IDX 78 35 29 36 83 37 77 38 79 39 30 40 82 41 76 42 75 43 31 45
REMARK SMILES IDX 63 46 43 47 62 48 44 49 47 50 61 51 80 52 45 53 46 54 60 56
REMARK SMILES IDX 81 57 48 58 32 59 33 60 41 61 34 62 40 63 42 64 39 65 35 66
REMARK SMILES IDX 36 67 37 68 38 69 64 70 65 71 73 72 66 73 72 74 74 75 71 76
REMARK SMILES IDX 67 77 68 78 69 79 70 80 49 81 50 82 58 83 51 84 57 85 59 86
REMARK SMILES IDX 56 87 52 88 53 89 54 90 55 91
REMARK H PARENT 16 6 20 25 79 44 47 55
REMARK Flexibility Score: inf
ROOT
ATOM      1  C   UNL A   1      31.329  32.162  26.551  1.00  0.00     0.042 C 
ENDROOT
BRANCH   1   2
ATOM      2  C   UNL A   1      31.406  30.831  25.808  1.00  0.00     0.117 C 
BRANCH   2   3
ATOM      3  N   UNL A   1      32.733  30.238  25.873  1.00  0.00    -0.356 N 
ATOM      4  C   UNL A   1      33.136  29.138  26.572  1.00  0.00     0.226 C 
ATOM      5  O   UNL A   1      34.331  28.831  26.562  1.00  0.00    -0.275 OA
ATOM      6  H   UNL A   1      33.429  30.689  25.343  1.00  0.00     0.163 HD
BRANCH   4   7
ATOM      7  C   UNL A   1      32.118  28.300  27.315  1.00  0.00     0.157 C 
BRANCH   7   8
ATOM      8  C   UNL A   1      31.585  27.184  26.484  1.00  0.00     0.062 A 
ATOM      9  C   UNL A   1      30.664  26.386  24.628  1.00  0.00     0.156 A 
ATOM     10  N   UNL A   1      31.013  27.489  25.253  1.00  0.00    -0.234 NA
ATOM     11  S   UNL A   1      30.904  24.934  25.516  1.00  0.00    -0.116 S 
ATOM     12  C   UNL A   1      31.609  25.836  26.789  1.00  0.00     0.092 A 
BRANCH   9  13
ATOM     13  S   UNL A   1      29.932  26.369  23.060  1.00  0.00    -0.039 SA
BRANCH  13  14
ATOM     14  C   UNL A   1      29.243  27.982  22.773  1.00  0.00     0.106 A 
ATOM     15  C   UNL A   1      26.888  27.816  23.839  1.00  0.00     0.047 C 
ATOM     16  C   UNL A   1      28.006  28.533  23.145  1.00  0.00    -0.017 A 
ATOM     17  C   UNL A   1      27.756  29.887  22.821  1.00  0.00     0.023 A 
ATOM     18  C   UNL A   1      28.722  30.661  22.202  1.00  0.00     0.036 A 
ATOM     19  N   UNL A   1      30.181  28.761  22.156  1.00  0.00    -0.248 NA
ATOM     20  Br  UNL A   1      28.408  32.477  21.816  1.00  0.00    -0.049 Br
ATOM     21  C   UNL A   1      29.917  30.060  21.892  1.00  0.00     0.128 A 
ENDBRANCH  13  14
ENDBRANCH   9  13
ENDBRANCH   7   8
ENDBRANCH   4   7
ENDBRANCH   2   3
ENDBRANCH   1   2
BRANCH   1  22
ATOM     22  C   UNL A   1      32.630  32.582  27.226  1.00  0.00     0.118 C 
BRANCH  22  23
ATOM     23  N   UNL A   1      32.619  33.977  27.635  1.00  0.00    -0.352 N 
ATOM     24  C   UNL A   1      33.347  34.621  28.599  1.00  0.00     0.251 C 
ATOM     25  H   UNL A   1      31.988  34.550  27.140  1.00  0.00     0.163 HD
ATOM     26  O   UNL A   1      33.021  35.772  28.911  1.00  0.00    -0.269 OA
BRANCH  24  27
ATOM     27  C   UNL A   1      34.495  33.970  29.272  1.00  0.00     0.039 A 
ATOM     28  C   UNL A   1      34.237  32.973  30.219  1.00  0.00     0.014 A 
ATOM     29  C   UNL A   1      35.812  34.375  29.037  1.00  0.00     0.014 A 
ATOM     30  C   UNL A   1      35.293  32.367  30.904  1.00  0.00     0.010 A 
ATOM     31  C   UNL A   1      36.870  33.718  29.668  1.00  0.00     0.010 A 
ATOM     32  C   UNL A   1      36.621  32.723  30.625  1.00  0.00    -0.014 A 
BRANCH  32  33
ATOM     33  C   UNL A   1      37.754  32.114  31.372  1.00  0.00     0.031 A 
ATOM     34  C   UNL A   1      38.555  31.004  30.743  1.00  0.00     0.074 A 
ATOM     35  C   UNL A   1      38.041  32.529  32.622  1.00  0.00     0.049 A 
ATOM     36  N   UNL A   1      39.532  30.293  31.248  1.00  0.00    -0.248 NA
ATOM     37  C   UNL A   1      38.186  30.624  29.371  1.00  0.00     0.031 C 
ATOM     38  C   UNL A   1      37.322  33.578  33.349  1.00  0.00     0.029 A 
ATOM     39  N   UNL A   1      39.010  32.119  33.503  1.00  0.00    -0.354 N 
ATOM     40  C   UNL A   1      39.883  29.374  30.263  1.00  0.00     0.074 A 
ATOM     41  C   UNL A   1      38.968  29.577  29.159  1.00  0.00     0.031 C 
ATOM     42  C   UNL A   1      37.890  33.743  34.555  1.00  0.00     0.029 A 
ATOM     43  C   UNL A   1      38.986  32.789  34.704  1.00  0.00     0.049 A 
ATOM     44  H   UNL A   1      39.661  31.411  33.295  1.00  0.00     0.167 HD
ATOM     45  C   UNL A   1      40.887  28.462  30.268  1.00  0.00     0.034 A 
ATOM     46  C   UNL A   1      39.754  32.646  35.802  1.00  0.00     0.034 A 
ATOM     47  C   UNL A   1      41.802  28.284  31.370  1.00  0.00     0.049 A 
ATOM     48  C   UNL A   1      40.859  31.619  35.789  1.00  0.00     0.074 A 
ATOM     49  C   UNL A   1      42.873  27.412  31.472  1.00  0.00     0.029 A 
ATOM     50  N   UNL A   1      41.755  28.994  32.563  1.00  0.00    -0.354 N 
ATOM     51  N   UNL A   1      41.195  30.776  34.840  1.00  0.00    -0.248 NA
ATOM     52  C   UNL A   1      41.701  31.538  36.990  1.00  0.00     0.031 C 
ATOM     53  C   UNL A   1      43.438  27.556  32.744  1.00  0.00     0.029 A 
ATOM     54  C   UNL A   1      42.768  28.569  33.410  1.00  0.00     0.049 A 
ATOM     55  H   UNL A   1      41.100  29.696  32.776  1.00  0.00     0.167 HD
ATOM     56  C   UNL A   1      42.313  30.095  35.315  1.00  0.00     0.074 A 
ATOM     57  C   UNL A   1      42.598  30.633  36.629  1.00  0.00     0.031 C 
ATOM     58  C   UNL A   1      43.042  29.118  34.718  1.00  0.00     0.034 A 
BRANCH  45  59
ATOM     59  C   UNL A   1      41.026  27.579  29.050  1.00  0.00     0.023 A 
ATOM     60  C   UNL A   1      42.040  27.791  28.096  1.00  0.00     0.031 A 
ATOM     61  C   UNL A   1      40.115  26.534  28.816  1.00  0.00     0.131 A 
ATOM     62  C   UNL A   1      42.065  27.029  26.919  1.00  0.00     0.055 A 
ATOM     63  C   UNL A   1      40.199  25.722  27.682  1.00  0.00     0.041 A 
ATOM     64  F   UNL A   1      39.115  26.294  29.678  1.00  0.00    -0.206 F 
ATOM     65  C   UNL A   1      41.168  25.979  26.716  1.00  0.00     0.022 A 
BRANCH  62  66
ATOM     66  S   UNL A   1      43.190  27.532  25.587  1.00  0.00     0.124 S 
ATOM     67  O   UNL A   1      43.805  26.257  25.225  1.00  0.00    -0.237 OA
ATOM     68  O   UNL A   1      42.278  28.103  24.603  1.00  0.00    -0.237 OA
ATOM     69  O   UNL A   1      44.086  28.486  26.236  1.00  0.00    -0.744 OA
ENDBRANCH  62  66
ENDBRANCH  45  59
BRANCH  46  70
ATOM     70  C   UNL A   1      39.518  33.491  37.009  1.00  0.00     0.023 A 
ATOM     71  C   UNL A   1      38.836  32.981  38.124  1.00  0.00     0.031 A 
ATOM     72  C   UNL A   1      39.928  34.835  37.043  1.00  0.00     0.131 A 
ATOM     73  C   UNL A   1      38.534  33.823  39.205  1.00  0.00     0.055 A 
ATOM     74  C   UNL A   1      39.674  35.655  38.144  1.00  0.00     0.041 A 
ATOM     75  F   UNL A   1      40.590  35.371  36.005  1.00  0.00    -0.206 F 
ATOM     76  C   UNL A   1      38.959  35.154  39.228  1.00  0.00     0.022 A 
BRANCH  73  77
ATOM     77  S   UNL A   1      37.494  33.178  40.543  1.00  0.00     0.124 S 
ATOM     78  O   UNL A   1      36.318  32.720  39.812  1.00  0.00    -0.237 OA
ATOM     79  O   UNL A   1      38.342  32.137  41.111  1.00  0.00    -0.237 OA
ATOM     80  O   UNL A   1      37.281  34.343  41.400  1.00  0.00    -0.744 OA
ENDBRANCH  73  77
ENDBRANCH  46  70
BRANCH  58  81
ATOM     81  C   UNL A   1      44.260  28.621  35.458  1.00  0.00     0.023 A 
ATOM     82  C   UNL A   1      44.183  27.596  36.416  1.00  0.00     0.031 A 
ATOM     83  C   UNL A   1      45.516  29.203  35.210  1.00  0.00     0.131 A 
ATOM     84  C   UNL A   1      45.330  27.223  37.134  1.00  0.00     0.055 A 
ATOM     85  C   UNL A   1      46.665  28.787  35.886  1.00  0.00     0.041 A 
ATOM     86  F   UNL A   1      45.648  30.187  34.307  1.00  0.00    -0.206 F 
ATOM     87  C   UNL A   1      46.572  27.802  36.864  1.00  0.00     0.022 A 
BRANCH  84  88
ATOM     88  S   UNL A   1      45.157  26.038  38.497  1.00  0.00     0.124 S 
ATOM     89  O   UNL A   1      44.647  24.856  37.810  1.00  0.00    -0.237 OA
ATOM     90  O   UNL A   1      46.524  25.942  39.000  1.00  0.00    -0.237 OA
ATOM     91  O   UNL A   1      44.210  26.689  39.400  1.00  0.00    -0.744 OA
ENDBRANCH  84  88
ENDBRANCH  58  81
ENDBRANCH  32  33
ENDBRANCH  24  27
ENDBRANCH  22  23
ENDBRANCH   1  22
TORSDOF 16
ENDMDL
