MODEL 1
REMARK VINA RESULT:     -11.7      0.000      0.000
REMARK SMILES Cc1cccc(Cl)c1Nc1ccccc1CC(=O)NCCCNC(=O)c1ccc(-c2c3nc(c(-c4cc(S(=O)(=O)[O-])ccc4F)c4ccc([nH]4)c(-c4cc(S(=O)(=O)[O-])ccc4F)c4nc(c(-c5cc(S(=O)(=O)[O-])ccc5F)c5ccc2[nH]5)C=C4)C=C3)cc1
REMARK SMILES IDX 21 1 20 2 19 3 17 4 18 5 16 7 15 8 10 9 11 10 12 11 14 12
REMARK SMILES IDX 13 13 9 14 8 16 1 17 2 18 3 19 4 20 6 21 5 22 7 23 22 24
REMARK SMILES IDX 23 25 24 26 25 28 26 29 27 30 88 31 28 32 87 33 29 34 30 35
REMARK SMILES IDX 31 36 81 37 32 38 86 39 80 40 82 41 33 42 85 43 79 44 78 45
REMARK SMILES IDX 34 47 66 48 46 49 65 50 47 51 50 52 64 53 83 54 48 55 49 56
REMARK SMILES IDX 63 58 84 59 51 60 35 61 36 62 44 63 37 64 43 65 45 66 42 67
REMARK SMILES IDX 38 68 39 69 40 70 41 71 67 72 68 73 76 74 69 75 75 76 77 77
REMARK SMILES IDX 74 78 70 79 71 80 72 81 73 82 52 83 53 84 61 85 54 86 60 87
REMARK SMILES IDX 62 88 59 89 55 90 56 91 57 92 58 93
REMARK H PARENT 19 6 9 15 23 27 82 46 50 57
REMARK Flexibility Score: inf
ROOT
ATOM      1  C   UNL A   1      31.526  31.808  26.576  1.00  0.00     0.042 C 
ENDROOT
BRANCH   1   2
ATOM      2  C   UNL A   1      31.765  30.484  25.856  1.00  0.00     0.117 C 
BRANCH   2   3
ATOM      3  N   UNL A   1      31.533  29.345  26.721  1.00  0.00    -0.356 N 
ATOM      4  C   UNL A   1      32.283  28.210  26.846  1.00  0.00     0.224 C 
ATOM      5  O   UNL A   1      31.877  27.316  27.591  1.00  0.00    -0.275 OA
ATOM      6  H   UNL A   1      30.733  29.396  27.294  1.00  0.00     0.163 HD
BRANCH   4   7
ATOM      7  C   UNL A   1      33.612  28.099  26.119  1.00  0.00     0.137 C 
BRANCH   7   8
ATOM      8  C   UNL A   1      33.538  27.373  24.790  1.00  0.00    -0.015 A 
ATOM      9  C   UNL A   1      33.606  25.968  24.669  1.00  0.00     0.042 A 
ATOM     10  C   UNL A   1      33.635  25.404  23.380  1.00  0.00     0.026 A 
ATOM     11  C   UNL A   1      33.560  26.196  22.235  1.00  0.00     0.002 A 
ATOM     12  C   UNL A   1      33.436  28.158  23.622  1.00  0.00     0.006 A 
ATOM     13  C   UNL A   1      33.447  27.574  22.357  1.00  0.00     0.000 A 
BRANCH   9  14
ATOM     14  N   UNL A   1      33.596  25.068  25.756  1.00  0.00    -0.354 N 
ATOM     15  H   UNL A   1      33.414  25.497  26.623  1.00  0.00     0.167 HD
BRANCH  14  16
ATOM     16  C   UNL A   1      33.800  23.669  25.843  1.00  0.00     0.060 A 
ATOM     17  C   UNL A   1      31.256  23.387  25.955  1.00  0.00     0.046 C 
ATOM     18  C   UNL A   1      32.655  22.829  25.902  1.00  0.00    -0.026 A 
ATOM     19  C   UNL A   1      32.804  21.430  25.872  1.00  0.00     0.005 A 
ATOM     20  C   UNL A   1      34.064  20.847  25.796  1.00  0.00     0.002 A 
ATOM     21  C   UNL A   1      35.070  23.050  25.805  1.00  0.00     0.064 A 
ATOM     22  C   UNL A   1      35.194  21.655  25.772  1.00  0.00     0.023 A 
ATOM     23  Cl  UNL A   1      36.562  23.927  25.910  1.00  0.00    -0.082 Cl
ENDBRANCH  14  16
ENDBRANCH   9  14
ENDBRANCH   7   8
ENDBRANCH   4   7
ENDBRANCH   2   3
ENDBRANCH   1   2
BRANCH   1  24
ATOM     24  C   UNL A   1      32.784  32.396  27.203  1.00  0.00     0.118 C 
BRANCH  24  25
ATOM     25  N   UNL A   1      32.602  33.784  27.606  1.00  0.00    -0.352 N 
ATOM     26  C   UNL A   1      33.191  34.489  28.622  1.00  0.00     0.251 C 
ATOM     27  H   UNL A   1      31.956  34.293  27.064  1.00  0.00     0.163 HD
ATOM     28  O   UNL A   1      32.726  35.588  28.933  1.00  0.00    -0.269 OA
BRANCH  26  29
ATOM     29  C   UNL A   1      34.356  33.939  29.347  1.00  0.00     0.039 A 
ATOM     30  C   UNL A   1      34.139  33.000  30.360  1.00  0.00     0.014 A 
ATOM     31  C   UNL A   1      35.655  34.367  29.059  1.00  0.00     0.014 A 
ATOM     32  C   UNL A   1      35.226  32.458  31.047  1.00  0.00     0.010 A 
ATOM     33  C   UNL A   1      36.741  33.765  29.688  1.00  0.00     0.010 A 
ATOM     34  C   UNL A   1      36.539  32.812  30.698  1.00  0.00    -0.014 A 
BRANCH  34  35
ATOM     35  C   UNL A   1      37.711  32.219  31.394  1.00  0.00     0.031 A 
ATOM     36  C   UNL A   1      38.473  31.090  30.750  1.00  0.00     0.074 A 
ATOM     37  C   UNL A   1      38.053  32.656  32.622  1.00  0.00     0.049 A 
ATOM     38  N   UNL A   1      39.467  30.386  31.225  1.00  0.00    -0.248 NA
ATOM     39  C   UNL A   1      38.041  30.684  29.403  1.00  0.00     0.031 C 
ATOM     40  C   UNL A   1      37.369  33.722  33.359  1.00  0.00     0.029 A 
ATOM     41  N   UNL A   1      39.053  32.257  33.472  1.00  0.00    -0.354 N 
ATOM     42  C   UNL A   1      39.770  29.445  30.246  1.00  0.00     0.074 A 
ATOM     43  C   UNL A   1      38.813  29.631  29.177  1.00  0.00     0.031 C 
ATOM     44  C   UNL A   1      37.987  33.910  34.537  1.00  0.00     0.029 A 
ATOM     45  C   UNL A   1      39.074  32.944  34.666  1.00  0.00     0.049 A 
ATOM     46  H   UNL A   1      39.697  31.546  33.250  1.00  0.00     0.167 HD
ATOM     47  C   UNL A   1      40.765  28.525  30.233  1.00  0.00     0.034 A 
ATOM     48  C   UNL A   1      39.868  32.800  35.747  1.00  0.00     0.034 A 
ATOM     49  C   UNL A   1      41.721  28.364  31.301  1.00  0.00     0.049 A 
ATOM     50  C   UNL A   1      40.948  31.746  35.718  1.00  0.00     0.074 A 
ATOM     51  C   UNL A   1      42.800  27.500  31.368  1.00  0.00     0.029 A 
ATOM     52  N   UNL A   1      41.709  29.076  32.495  1.00  0.00    -0.354 N 
ATOM     53  N   UNL A   1      41.249  30.896  34.763  1.00  0.00    -0.248 NA
ATOM     54  C   UNL A   1      41.804  31.641  36.907  1.00  0.00     0.031 C 
ATOM     55  C   UNL A   1      43.393  27.636  32.627  1.00  0.00     0.029 A 
ATOM     56  C   UNL A   1      42.742  28.647  33.313  1.00  0.00     0.049 A 
ATOM     57  H   UNL A   1      41.061  29.781  32.724  1.00  0.00     0.167 HD
ATOM     58  C   UNL A   1      42.355  30.185  35.223  1.00  0.00     0.074 A 
ATOM     59  C   UNL A   1      42.674  30.717  36.531  1.00  0.00     0.031 C 
ATOM     60  C   UNL A   1      43.049  29.187  34.617  1.00  0.00     0.034 A 
BRANCH  47  61
ATOM     61  C   UNL A   1      40.855  27.606  29.037  1.00  0.00     0.023 A 
ATOM     62  C   UNL A   1      41.802  27.804  28.017  1.00  0.00     0.031 A 
ATOM     63  C   UNL A   1      39.975  26.514  28.913  1.00  0.00     0.131 A 
ATOM     64  C   UNL A   1      41.806  26.968  26.890  1.00  0.00     0.055 A 
ATOM     65  C   UNL A   1      40.038  25.637  27.829  1.00  0.00     0.041 A 
ATOM     66  F   UNL A   1      39.034  26.286  29.842  1.00  0.00    -0.206 F 
ATOM     67  C   UNL A   1      40.948  25.869  26.802  1.00  0.00     0.022 A 
BRANCH  64  68
ATOM     68  S   UNL A   1      42.856  27.416  25.483  1.00  0.00     0.124 S 
ATOM     69  O   UNL A   1      44.074  27.864  26.155  1.00  0.00    -0.237 OA
ATOM     70  O   UNL A   1      42.956  26.159  24.750  1.00  0.00    -0.237 OA
ATOM     71  O   UNL A   1      42.099  28.472  24.812  1.00  0.00    -0.744 OA
ENDBRANCH  64  68
ENDBRANCH  47  61
BRANCH  48  72
ATOM     72  C   UNL A   1      39.673  33.653  36.956  1.00  0.00     0.023 A 
ATOM     73  C   UNL A   1      39.017  33.156  38.093  1.00  0.00     0.031 A 
ATOM     74  C   UNL A   1      40.079  35.000  36.969  1.00  0.00     0.131 A 
ATOM     75  C   UNL A   1      38.727  34.012  39.167  1.00  0.00     0.055 A 
ATOM     76  C   UNL A   1      39.846  35.831  38.067  1.00  0.00     0.041 A 
ATOM     77  F   UNL A   1      40.713  35.529  35.911  1.00  0.00    -0.206 F 
ATOM     78  C   UNL A   1      39.150  35.343  39.168  1.00  0.00     0.022 A 
BRANCH  75  79
ATOM     79  S   UNL A   1      37.681  33.391  40.512  1.00  0.00     0.124 S 
ATOM     80  O   UNL A   1      37.411  34.610  41.264  1.00  0.00    -0.237 OA
ATOM     81  O   UNL A   1      36.554  32.823  39.781  1.00  0.00    -0.237 OA
ATOM     82  O   UNL A   1      38.538  32.418  41.186  1.00  0.00    -0.744 OA
ENDBRANCH  75  79
ENDBRANCH  48  72
BRANCH  60  83
ATOM     83  C   UNL A   1      44.261  28.653  35.341  1.00  0.00     0.023 A 
ATOM     84  C   UNL A   1      44.166  27.630  36.301  1.00  0.00     0.031 A 
ATOM     85  C   UNL A   1      45.535  29.185  35.069  1.00  0.00     0.131 A 
ATOM     86  C   UNL A   1      45.312  27.215  36.996  1.00  0.00     0.055 A 
ATOM     87  C   UNL A   1      46.681  28.720  35.713  1.00  0.00     0.041 A 
ATOM     88  F   UNL A   1      45.686  30.167  34.164  1.00  0.00    -0.206 F 
ATOM     89  C   UNL A   1      46.572  27.739  36.693  1.00  0.00     0.022 A 
BRANCH  86  90
ATOM     90  S   UNL A   1      45.122  26.051  38.374  1.00  0.00     0.124 S 
ATOM     91  O   UNL A   1      44.110  25.134  37.859  1.00  0.00    -0.237 OA
ATOM     92  O   UNL A   1      46.468  25.504  38.508  1.00  0.00    -0.237 OA
ATOM     93  O   UNL A   1      44.685  26.899  39.481  1.00  0.00    -0.744 OA
ENDBRANCH  86  90
ENDBRANCH  60  83
ENDBRANCH  34  35
ENDBRANCH  26  29
ENDBRANCH  24  25
ENDBRANCH   1  24
TORSDOF 16
ENDMDL
MODEL 2
REMARK VINA RESULT:     -11.6      5.048      8.125
REMARK SMILES Cc1cccc(Cl)c1Nc1ccccc1CC(=O)NCCCNC(=O)c1ccc(-c2c3nc(c(-c4cc(S(=O)(=O)[O-])ccc4F)c4ccc([nH]4)c(-c4cc(S(=O)(=O)[O-])ccc4F)c4nc(c(-c5cc(S(=O)(=O)[O-])ccc5F)c5ccc2[nH]5)C=C4)C=C3)cc1
REMARK SMILES IDX 21 1 20 2 19 3 17 4 18 5 16 7 15 8 10 9 11 10 12 11 14 12
REMARK SMILES IDX 13 13 9 14 8 16 1 17 2 18 3 19 4 20 6 21 5 22 7 23 22 24
REMARK SMILES IDX 23 25 24 26 25 28 26 29 27 30 88 31 28 32 87 33 29 34 30 35
REMARK SMILES IDX 31 36 81 37 32 38 86 39 80 40 82 41 33 42 85 43 79 44 78 45
REMARK SMILES IDX 34 47 66 48 46 49 65 50 47 51 50 52 64 53 83 54 48 55 49 56
REMARK SMILES IDX 63 58 84 59 51 60 35 61 36 62 44 63 37 64 43 65 45 66 42 67
REMARK SMILES IDX 38 68 39 69 40 70 41 71 67 72 68 73 76 74 69 75 75 76 77 77
REMARK SMILES IDX 74 78 70 79 71 80 72 81 73 82 52 83 53 84 61 85 54 86 60 87
REMARK SMILES IDX 62 88 59 89 55 90 56 91 57 92 58 93
REMARK H PARENT 19 6 9 15 23 27 82 46 50 57
REMARK Flexibility Score: inf
ROOT
ATOM      1  C   UNL A   1      36.311  23.701  24.594  1.00  0.00     0.042 C 
ENDROOT
BRANCH   1   2
ATOM      2  C   UNL A   1      34.841  23.660  24.189  1.00  0.00     0.117 C 
BRANCH   2   3
ATOM      3  N   UNL A   1      34.403  24.912  23.603  1.00  0.00    -0.356 N 
ATOM      4  C   UNL A   1      34.005  26.052  24.242  1.00  0.00     0.224 C 
ATOM      5  O   UNL A   1      33.597  26.995  23.561  1.00  0.00    -0.275 OA
ATOM      6  H   UNL A   1      34.394  24.945  22.619  1.00  0.00     0.163 HD
BRANCH   4   7
ATOM      7  C   UNL A   1      34.127  26.153  25.753  1.00  0.00     0.137 C 
BRANCH   7   8
ATOM      8  C   UNL A   1      33.447  27.368  26.352  1.00  0.00    -0.015 A 
ATOM      9  C   UNL A   1      32.068  27.415  26.656  1.00  0.00     0.042 A 
ATOM     10  C   UNL A   1      31.520  28.629  27.109  1.00  0.00     0.026 A 
ATOM     11  C   UNL A   1      32.310  29.763  27.297  1.00  0.00     0.002 A 
ATOM     12  C   UNL A   1      34.237  28.516  26.573  1.00  0.00     0.006 A 
ATOM     13  C   UNL A   1      33.672  29.702  27.042  1.00  0.00     0.000 A 
BRANCH   9  14
ATOM     14  N   UNL A   1      31.195  26.309  26.587  1.00  0.00    -0.354 N 
ATOM     15  H   UNL A   1      30.610  26.217  27.375  1.00  0.00     0.167 HD
BRANCH  14  16
ATOM     16  C   UNL A   1      30.995  25.305  25.609  1.00  0.00     0.060 A 
ATOM     17  C   UNL A   1      29.996  27.103  24.083  1.00  0.00     0.046 C 
ATOM     18  C   UNL A   1      30.442  25.690  24.357  1.00  0.00    -0.026 A 
ATOM     19  C   UNL A   1      30.334  24.751  23.315  1.00  0.00     0.005 A 
ATOM     20  C   UNL A   1      30.751  23.437  23.491  1.00  0.00     0.002 A 
ATOM     21  C   UNL A   1      31.376  23.953  25.773  1.00  0.00     0.064 A 
ATOM     22  C   UNL A   1      31.263  23.037  24.719  1.00  0.00     0.023 A 
ATOM     23  Cl  UNL A   1      31.898  23.286  27.286  1.00  0.00    -0.082 Cl
ENDBRANCH  14  16
ENDBRANCH   9  14
ENDBRANCH   7   8
ENDBRANCH   4   7
ENDBRANCH   2   3
ENDBRANCH   1   2
BRANCH   1  24
ATOM     24  C   UNL A   1      36.560  23.249  26.028  1.00  0.00     0.118 C 
BRANCH  24  25
ATOM     25  N   UNL A   1      37.667  22.307  26.124  1.00  0.00    -0.352 N 
ATOM     26  C   UNL A   1      38.997  22.534  26.362  1.00  0.00     0.251 C 
ATOM     27  H   UNL A   1      37.421  21.362  25.999  1.00  0.00     0.163 HD
ATOM     28  O   UNL A   1      39.801  21.619  26.176  1.00  0.00    -0.269 OA
BRANCH  26  29
ATOM     29  C   UNL A   1      39.467  23.859  26.819  1.00  0.00     0.039 A 
ATOM     30  C   UNL A   1      39.977  24.757  25.877  1.00  0.00     0.014 A 
ATOM     31  C   UNL A   1      39.441  24.208  28.172  1.00  0.00     0.014 A 
ATOM     32  C   UNL A   1      40.413  26.018  26.286  1.00  0.00     0.010 A 
ATOM     33  C   UNL A   1      39.799  25.495  28.566  1.00  0.00     0.010 A 
ATOM     34  C   UNL A   1      40.301  26.411  27.629  1.00  0.00    -0.014 A 
BRANCH  34  35
ATOM     35  C   UNL A   1      40.727  27.762  28.078  1.00  0.00     0.031 A 
ATOM     36  C   UNL A   1      42.186  28.136  28.054  1.00  0.00     0.074 A 
ATOM     37  C   UNL A   1      39.810  28.629  28.554  1.00  0.00     0.049 A 
ATOM     38  N   UNL A   1      42.767  29.228  28.478  1.00  0.00    -0.248 NA
ATOM     39  C   UNL A   1      43.116  27.136  27.507  1.00  0.00     0.031 C 
ATOM     40  C   UNL A   1      38.372  28.367  28.653  1.00  0.00     0.029 A 
ATOM     41  N   UNL A   1      39.949  29.901  29.050  1.00  0.00    -0.354 N 
ATOM     42  C   UNL A   1      44.129  29.042  28.264  1.00  0.00     0.074 A 
ATOM     43  C   UNL A   1      44.290  27.708  27.729  1.00  0.00     0.031 C 
ATOM     44  C   UNL A   1      37.760  29.453  29.152  1.00  0.00     0.029 A 
ATOM     45  C   UNL A   1      38.763  30.469  29.460  1.00  0.00     0.049 A 
ATOM     46  H   UNL A   1      40.815  30.365  29.108  1.00  0.00     0.167 HD
ATOM     47  C   UNL A   1      45.148  29.912  28.475  1.00  0.00     0.034 A 
ATOM     48  C   UNL A   1      38.515  31.663  30.034  1.00  0.00     0.034 A 
ATOM     49  C   UNL A   1      44.967  31.245  28.994  1.00  0.00     0.049 A 
ATOM     50  C   UNL A   1      39.672  32.600  30.288  1.00  0.00     0.074 A 
ATOM     51  C   UNL A   1      45.920  32.227  29.198  1.00  0.00     0.029 A 
ATOM     52  N   UNL A   1      43.751  31.784  29.399  1.00  0.00    -0.354 N 
ATOM     53  N   UNL A   1      40.948  32.425  30.035  1.00  0.00    -0.248 NA
ATOM     54  C   UNL A   1      39.352  33.900  30.892  1.00  0.00     0.031 C 
ATOM     55  C   UNL A   1      45.298  33.327  29.795  1.00  0.00     0.029 A 
ATOM     56  C   UNL A   1      43.940  33.070  29.881  1.00  0.00     0.049 A 
ATOM     57  H   UNL A   1      42.884  31.320  29.351  1.00  0.00     0.167 HD
ATOM     58  C   UNL A   1      41.575  33.610  30.412  1.00  0.00     0.074 A 
ATOM     59  C   UNL A   1      40.536  34.494  30.894  1.00  0.00     0.031 C 
ATOM     60  C   UNL A   1      42.892  33.941  30.359  1.00  0.00     0.034 A 
BRANCH  47  61
ATOM     61  C   UNL A   1      46.549  29.438  28.169  1.00  0.00     0.023 A 
ATOM     62  C   UNL A   1      47.346  28.803  29.138  1.00  0.00     0.031 A 
ATOM     63  C   UNL A   1      47.099  29.628  26.888  1.00  0.00     0.131 A 
ATOM     64  C   UNL A   1      48.667  28.442  28.833  1.00  0.00     0.055 A 
ATOM     65  C   UNL A   1      48.385  29.191  26.566  1.00  0.00     0.041 A 
ATOM     66  F   UNL A   1      46.396  30.248  25.928  1.00  0.00    -0.206 F 
ATOM     67  C   UNL A   1      49.183  28.606  27.545  1.00  0.00     0.022 A 
BRANCH  64  68
ATOM     68  S   UNL A   1      49.743  27.875  30.177  1.00  0.00     0.124 S 
ATOM     69  O   UNL A   1      50.088  29.136  30.830  1.00  0.00    -0.237 OA
ATOM     70  O   UNL A   1      48.867  26.985  30.929  1.00  0.00    -0.237 OA
ATOM     71  O   UNL A   1      50.848  27.220  29.479  1.00  0.00    -0.744 OA
ENDBRANCH  64  68
ENDBRANCH  47  61
BRANCH  48  72
ATOM     72  C   UNL A   1      37.128  32.049  30.427  1.00  0.00     0.023 A 
ATOM     73  C   UNL A   1      36.254  32.643  29.503  1.00  0.00     0.031 A 
ATOM     74  C   UNL A   1      36.677  31.893  31.750  1.00  0.00     0.131 A 
ATOM     75  C   UNL A   1      35.002  33.118  29.926  1.00  0.00     0.055 A 
ATOM     76  C   UNL A   1      35.405  32.307  32.151  1.00  0.00     0.041 A 
ATOM     77  F   UNL A   1      37.468  31.328  32.677  1.00  0.00    -0.206 F 
ATOM     78  C   UNL A   1      34.566  32.941  31.240  1.00  0.00     0.022 A 
BRANCH  75  79
ATOM     79  S   UNL A   1      34.001  34.080  28.758  1.00  0.00     0.124 S 
ATOM     80  O   UNL A   1      32.948  34.594  29.625  1.00  0.00    -0.237 OA
ATOM     81  O   UNL A   1      34.966  35.058  28.268  1.00  0.00    -0.237 OA
ATOM     82  O   UNL A   1      33.573  33.084  27.778  1.00  0.00    -0.744 OA
ENDBRANCH  75  79
ENDBRANCH  48  72
BRANCH  60  83
ATOM     83  C   UNL A   1      43.267  35.343  30.777  1.00  0.00     0.023 A 
ATOM     84  C   UNL A   1      43.476  35.690  32.123  1.00  0.00     0.031 A 
ATOM     85  C   UNL A   1      43.408  36.352  29.806  1.00  0.00     0.131 A 
ATOM     86  C   UNL A   1      43.756  37.021  32.467  1.00  0.00     0.055 A 
ATOM     87  C   UNL A   1      43.755  37.659  30.147  1.00  0.00     0.041 A 
ATOM     88  F   UNL A   1      43.216  36.080  28.505  1.00  0.00    -0.206 F 
ATOM     89  C   UNL A   1      43.916  38.004  31.485  1.00  0.00     0.022 A 
BRANCH  86  90
ATOM     90  S   UNL A   1      43.808  37.475  34.222  1.00  0.00     0.124 S 
ATOM     91  O   UNL A   1      44.168  36.209  34.852  1.00  0.00    -0.237 OA
ATOM     92  O   UNL A   1      44.835  38.512  34.245  1.00  0.00    -0.237 OA
ATOM     93  O   UNL A   1      42.450  37.941  34.496  1.00  0.00    -0.744 OA
ENDBRANCH  86  90
ENDBRANCH  60  83
ENDBRANCH  34  35
ENDBRANCH  26  29
ENDBRANCH  24  25
ENDBRANCH   1  24
TORSDOF 16
ENDMDL
MODEL 3
REMARK VINA RESULT:     -11.6      5.718     10.713
REMARK SMILES Cc1cccc(Cl)c1Nc1ccccc1CC(=O)NCCCNC(=O)c1ccc(-c2c3nc(c(-c4cc(S(=O)(=O)[O-])ccc4F)c4ccc([nH]4)c(-c4cc(S(=O)(=O)[O-])ccc4F)c4nc(c(-c5cc(S(=O)(=O)[O-])ccc5F)c5ccc2[nH]5)C=C4)C=C3)cc1
REMARK SMILES IDX 21 1 20 2 19 3 17 4 18 5 16 7 15 8 10 9 11 10 12 11 14 12
REMARK SMILES IDX 13 13 9 14 8 16 1 17 2 18 3 19 4 20 6 21 5 22 7 23 22 24
REMARK SMILES IDX 23 25 24 26 25 28 26 29 27 30 88 31 28 32 87 33 29 34 30 35
REMARK SMILES IDX 31 36 81 37 32 38 86 39 80 40 82 41 33 42 85 43 79 44 78 45
REMARK SMILES IDX 34 47 66 48 46 49 65 50 47 51 50 52 64 53 83 54 48 55 49 56
REMARK SMILES IDX 63 58 84 59 51 60 35 61 36 62 44 63 37 64 43 65 45 66 42 67
REMARK SMILES IDX 38 68 39 69 40 70 41 71 67 72 68 73 76 74 69 75 75 76 77 77
REMARK SMILES IDX 74 78 70 79 71 80 72 81 73 82 52 83 53 84 61 85 54 86 60 87
REMARK SMILES IDX 62 88 59 89 55 90 56 91 57 92 58 93
REMARK H PARENT 19 6 9 15 23 27 82 46 50 57
REMARK Flexibility Score: inf
ROOT
ATOM      1  C   UNL A   1      34.795  21.959  27.325  1.00  0.00     0.042 C 
ENDROOT
BRANCH   1   2
ATOM      2  C   UNL A   1      33.315  21.699  27.062  1.00  0.00     0.117 C 
BRANCH   2   3
ATOM      3  N   UNL A   1      32.487  22.820  27.459  1.00  0.00    -0.356 N 
ATOM      4  C   UNL A   1      31.470  23.410  26.763  1.00  0.00     0.224 C 
ATOM      5  O   UNL A   1      30.928  24.407  27.245  1.00  0.00    -0.275 OA
ATOM      6  H   UNL A   1      32.680  23.204  28.345  1.00  0.00     0.163 HD
BRANCH   4   7
ATOM      7  C   UNL A   1      30.996  22.798  25.455  1.00  0.00     0.137 C 
BRANCH   7   8
ATOM      8  C   UNL A   1      31.780  23.246  24.238  1.00  0.00    -0.015 A 
ATOM      9  C   UNL A   1      31.732  24.561  23.724  1.00  0.00     0.042 A 
ATOM     10  C   UNL A   1      32.417  24.840  22.526  1.00  0.00     0.026 A 
ATOM     11  C   UNL A   1      33.162  23.864  21.865  1.00  0.00     0.002 A 
ATOM     12  C   UNL A   1      32.561  22.277  23.572  1.00  0.00     0.006 A 
ATOM     13  C   UNL A   1      33.245  22.585  22.397  1.00  0.00     0.000 A 
BRANCH   9  14
ATOM     14  N   UNL A   1      31.084  25.644  24.353  1.00  0.00    -0.354 N 
ATOM     15  H   UNL A   1      30.162  25.444  24.635  1.00  0.00     0.167 HD
BRANCH  14  16
ATOM     16  C   UNL A   1      31.500  26.963  24.657  1.00  0.00     0.060 A 
ATOM     17  C   UNL A   1      29.533  27.820  23.258  1.00  0.00     0.046 C 
ATOM     18  C   UNL A   1      30.723  28.043  24.156  1.00  0.00    -0.026 A 
ATOM     19  C   UNL A   1      31.029  29.365  24.527  1.00  0.00     0.005 A 
ATOM     20  C   UNL A   1      32.096  29.640  25.375  1.00  0.00     0.002 A 
ATOM     21  C   UNL A   1      32.603  27.275  25.486  1.00  0.00     0.064 A 
ATOM     22  C   UNL A   1      32.886  28.598  25.846  1.00  0.00     0.023 A 
ATOM     23  Cl  UNL A   1      33.750  26.094  26.031  1.00  0.00    -0.082 Cl
ENDBRANCH  14  16
ENDBRANCH   9  14
ENDBRANCH   7   8
ENDBRANCH   4   7
ENDBRANCH   2   3
ENDBRANCH   1   2
BRANCH   1  24
ATOM     24  C   UNL A   1      35.601  22.224  26.059  1.00  0.00     0.118 C 
BRANCH  24  25
ATOM     25  N   UNL A   1      36.555  21.158  25.781  1.00  0.00    -0.352 N 
ATOM     26  C   UNL A   1      37.920  21.205  25.679  1.00  0.00     0.251 C 
ATOM     27  H   UNL A   1      36.156  20.269  25.645  1.00  0.00     0.163 HD
ATOM     28  O   UNL A   1      38.517  20.233  25.212  1.00  0.00    -0.269 OA
BRANCH  26  29
ATOM     29  C   UNL A   1      38.669  22.405  26.108  1.00  0.00     0.039 A 
ATOM     30  C   UNL A   1      39.826  22.240  26.875  1.00  0.00     0.014 A 
ATOM     31  C   UNL A   1      38.221  23.690  25.789  1.00  0.00     0.014 A 
ATOM     32  C   UNL A   1      40.557  23.360  27.278  1.00  0.00     0.010 A 
ATOM     33  C   UNL A   1      38.994  24.799  26.121  1.00  0.00     0.010 A 
ATOM     34  C   UNL A   1      40.164  24.648  26.880  1.00  0.00    -0.014 A 
BRANCH  34  35
ATOM     35  C   UNL A   1      40.948  25.849  27.269  1.00  0.00     0.031 A 
ATOM     36  C   UNL A   1      40.304  26.930  28.098  1.00  0.00     0.074 A 
ATOM     37  C   UNL A   1      42.216  25.991  26.833  1.00  0.00     0.049 A 
ATOM     38  N   UNL A   1      40.789  28.086  28.470  1.00  0.00    -0.248 NA
ATOM     39  C   UNL A   1      38.923  26.688  28.542  1.00  0.00     0.031 C 
ATOM     40  C   UNL A   1      42.935  25.024  26.000  1.00  0.00     0.029 A 
ATOM     41  N   UNL A   1      43.124  27.003  27.022  1.00  0.00    -0.354 N 
ATOM     42  C   UNL A   1      39.770  28.716  29.178  1.00  0.00     0.074 A 
ATOM     43  C   UNL A   1      38.622  27.837  29.128  1.00  0.00     0.031 C 
ATOM     44  C   UNL A   1      44.179  25.478  25.773  1.00  0.00     0.029 A 
ATOM     45  C   UNL A   1      44.331  26.790  26.395  1.00  0.00     0.049 A 
ATOM     46  H   UNL A   1      42.931  27.807  27.556  1.00  0.00     0.167 HD
ATOM     47  C   UNL A   1      39.797  29.907  29.824  1.00  0.00     0.034 A 
ATOM     48  C   UNL A   1      45.428  27.569  26.317  1.00  0.00     0.034 A 
ATOM     49  C   UNL A   1      40.956  30.763  29.877  1.00  0.00     0.049 A 
ATOM     50  C   UNL A   1      45.420  28.905  27.020  1.00  0.00     0.074 A 
ATOM     51  C   UNL A   1      41.110  31.965  30.545  1.00  0.00     0.029 A 
ATOM     52  N   UNL A   1      42.160  30.515  29.228  1.00  0.00    -0.354 N 
ATOM     53  N   UNL A   1      44.462  29.463  27.724  1.00  0.00    -0.248 NA
ATOM     54  C   UNL A   1      46.646  29.710  26.928  1.00  0.00     0.031 C 
ATOM     55  C   UNL A   1      42.375  32.478  30.242  1.00  0.00     0.029 A 
ATOM     56  C   UNL A   1      43.046  31.556  29.457  1.00  0.00     0.049 A 
ATOM     57  H   UNL A   1      42.354  29.716  28.686  1.00  0.00     0.167 HD
ATOM     58  C   UNL A   1      44.988  30.666  28.192  1.00  0.00     0.074 A 
ATOM     59  C   UNL A   1      46.348  30.742  27.703  1.00  0.00     0.031 C 
ATOM     60  C   UNL A   1      44.402  31.618  28.962  1.00  0.00     0.034 A 
BRANCH  47  61
ATOM     61  C   UNL A   1      38.528  30.365  30.504  1.00  0.00     0.023 A 
ATOM     62  C   UNL A   1      37.554  31.121  29.828  1.00  0.00     0.031 A 
ATOM     63  C   UNL A   1      38.289  30.044  31.853  1.00  0.00     0.131 A 
ATOM     64  C   UNL A   1      36.423  31.584  30.516  1.00  0.00     0.055 A 
ATOM     65  C   UNL A   1      37.122  30.438  32.510  1.00  0.00     0.041 A 
ATOM     66  F   UNL A   1      39.192  29.345  32.559  1.00  0.00    -0.206 F 
ATOM     67  C   UNL A   1      36.186  31.225  31.845  1.00  0.00     0.022 A 
BRANCH  64  68
ATOM     68  S   UNL A   1      35.331  32.772  29.689  1.00  0.00     0.124 S 
ATOM     69  O   UNL A   1      34.188  32.805  30.598  1.00  0.00    -0.237 OA
ATOM     70  O   UNL A   1      36.150  33.978  29.648  1.00  0.00    -0.237 OA
ATOM     71  O   UNL A   1      35.069  32.151  28.391  1.00  0.00    -0.744 OA
ENDBRANCH  64  68
ENDBRANCH  47  61
BRANCH  48  72
ATOM     72  C   UNL A   1      46.623  27.130  25.538  1.00  0.00     0.023 A 
ATOM     73  C   UNL A   1      46.924  27.703  24.292  1.00  0.00     0.031 A 
ATOM     74  C   UNL A   1      47.445  26.083  25.994  1.00  0.00     0.131 A 
ATOM     75  C   UNL A   1      47.973  27.185  23.516  1.00  0.00     0.055 A 
ATOM     76  C   UNL A   1      48.528  25.615  25.247  1.00  0.00     0.041 A 
ATOM     77  F   UNL A   1      47.207  25.499  27.179  1.00  0.00    -0.206 F 
ATOM     78  C   UNL A   1      48.786  26.154  23.991  1.00  0.00     0.022 A 
BRANCH  75  79
ATOM     79  S   UNL A   1      48.182  27.799  21.822  1.00  0.00     0.124 S 
ATOM     80  O   UNL A   1      48.278  26.556  21.067  1.00  0.00    -0.237 OA
ATOM     81  O   UNL A   1      46.964  28.577  21.630  1.00  0.00    -0.237 OA
ATOM     82  O   UNL A   1      49.414  28.582  21.895  1.00  0.00    -0.744 OA
ENDBRANCH  75  79
ENDBRANCH  48  72
BRANCH  60  83
ATOM     83  C   UNL A   1      45.256  32.794  29.373  1.00  0.00     0.023 A 
ATOM     84  C   UNL A   1      45.309  33.978  28.617  1.00  0.00     0.031 A 
ATOM     85  C   UNL A   1      46.036  32.721  30.541  1.00  0.00     0.131 A 
ATOM     86  C   UNL A   1      46.170  35.016  29.003  1.00  0.00     0.055 A 
ATOM     87  C   UNL A   1      46.838  33.784  30.959  1.00  0.00     0.041 A 
ATOM     88  F   UNL A   1      46.028  31.614  31.301  1.00  0.00    -0.206 F 
ATOM     89  C   UNL A   1      46.920  34.934  30.181  1.00  0.00     0.022 A 
BRANCH  86  90
ATOM     90  S   UNL A   1      46.376  36.436  27.894  1.00  0.00     0.124 S 
ATOM     91  O   UNL A   1      45.818  37.525  28.689  1.00  0.00    -0.237 OA
ATOM     92  O   UNL A   1      47.821  36.468  27.694  1.00  0.00    -0.237 OA
ATOM     93  O   UNL A   1      45.596  36.066  26.715  1.00  0.00    -0.744 OA
ENDBRANCH  86  90
ENDBRANCH  60  83
ENDBRANCH  34  35
ENDBRANCH  26  29
ENDBRANCH  24  25
ENDBRANCH   1  24
TORSDOF 16
ENDMDL
