MODEL 1
REMARK VINA RESULT:     -11.4      0.000      0.000
REMARK SMILES CC(C)(C)OC(=O)N1C[C@H](Oc2ccncc2)C[C@H]1C(=O)NCCCNC(=O)c1ccc(-c2c3nc(c(-c4cc(S(=O)(=O)[O-])ccc4F)c4ccc([nH]4)c(-c4cc(S(=O)(=O)[O-])ccc4F)c4nc(c(-c5cc(S(=O)(=O)[O-])ccc5F)c5ccc2[nH]5)C=C4)C=C3)cc1
REMARK SMILES IDX 24 1 23 2 22 3 20 4 21 5 19 7 8 8 9 9 10 10 18 11 6 12 7 13
REMARK SMILES IDX 5 14 2 15 1 16 3 17 4 18 11 19 12 20 13 21 17 22 14 23 16 24
REMARK SMILES IDX 15 25 25 26 26 27 27 28 28 30 29 31 30 32 91 33 31 34 90 35
REMARK SMILES IDX 32 36 33 37 34 38 84 39 35 40 89 41 83 42 85 43 36 44 88 45
REMARK SMILES IDX 82 46 81 47 37 49 69 50 49 51 68 52 50 53 53 54 67 55 86 56
REMARK SMILES IDX 51 57 52 58 66 60 87 61 54 62 38 63 39 64 47 65 40 66 46 67
REMARK SMILES IDX 48 68 45 69 41 70 42 71 43 72 44 73 70 74 71 75 79 76 72 77
REMARK SMILES IDX 78 78 80 79 77 80 73 81 74 82 75 83 76 84 55 85 56 86 64 87
REMARK SMILES IDX 57 88 63 89 65 90 62 91 58 92 59 93 60 94 61 95
REMARK H PARENT 22 6 26 29 85 48 53 59
REMARK Flexibility Score: inf
ROOT
ATOM      1  C   UNL A   1      32.820  27.765  25.231  1.00  0.00     0.042 C 
ENDROOT
BRANCH   1   2
ATOM      2  C   UNL A   1      32.849  26.252  25.001  1.00  0.00     0.117 C 
BRANCH   2   3
ATOM      3  N   UNL A   1      32.414  25.537  26.188  1.00  0.00    -0.354 N 
ATOM      4  C   UNL A   1      32.155  24.215  26.398  1.00  0.00     0.243 C 
ATOM      5  O   UNL A   1      31.515  23.948  27.420  1.00  0.00    -0.273 OA
ATOM      6  H   UNL A   1      32.282  26.108  26.978  1.00  0.00     0.163 HD
BRANCH   4   7
ATOM      7  C   UNL A   1      32.713  23.118  25.450  1.00  0.00     0.181 C 
ATOM      8  N   UNL A   1      33.899  22.498  26.044  1.00  0.00    -0.292 N 
ATOM      9  C   UNL A   1      33.632  21.140  26.476  1.00  0.00     0.169 C 
ATOM     10  C   UNL A   1      32.563  20.666  25.502  1.00  0.00     0.195 C 
ATOM     11  C   UNL A   1      31.759  21.937  25.207  1.00  0.00     0.082 C 
BRANCH   8  12
ATOM     12  C   UNL A   1      35.120  23.121  26.064  1.00  0.00     0.411 C 
ATOM     13  O   UNL A   1      35.265  24.332  25.976  1.00  0.00    -0.224 OA
BRANCH  12  14
ATOM     14  O   UNL A   1      36.128  22.216  26.124  1.00  0.00    -0.444 OA
BRANCH  14  15
ATOM     15  C   UNL A   1      37.155  22.101  25.108  1.00  0.00     0.106 C 
ATOM     16  C   UNL A   1      37.348  20.587  24.933  1.00  0.00     0.056 C 
ATOM     17  C   UNL A   1      38.442  22.720  25.652  1.00  0.00     0.056 C 
ATOM     18  C   UNL A   1      36.780  22.697  23.746  1.00  0.00     0.056 C 
ENDBRANCH  14  15
ENDBRANCH  12  14
ENDBRANCH   8  12
BRANCH  10  19
ATOM     19  O   UNL A   1      33.016  19.959  24.331  1.00  0.00    -0.488 OA
BRANCH  19  20
ATOM     20  C   UNL A   1      33.069  18.598  24.385  1.00  0.00     0.122 A 
ATOM     21  C   UNL A   1      33.724  17.873  23.400  1.00  0.00     0.066 A 
ATOM     22  C   UNL A   1      32.593  17.947  25.515  1.00  0.00     0.066 A 
ATOM     23  C   UNL A   1      33.796  16.499  23.542  1.00  0.00     0.115 A 
ATOM     24  C   UNL A   1      32.727  16.571  25.575  1.00  0.00     0.115 A 
ATOM     25  N   UNL A   1      33.307  15.827  24.607  1.00  0.00    -0.264 NA
ENDBRANCH  19  20
ENDBRANCH  10  19
ENDBRANCH   4   7
ENDBRANCH   2   3
ENDBRANCH   1   2
BRANCH   1  26
ATOM     26  C   UNL A   1      33.836  28.259  26.260  1.00  0.00     0.118 C 
BRANCH  26  27
ATOM     27  N   UNL A   1      33.644  29.661  26.588  1.00  0.00    -0.352 N 
ATOM     28  C   UNL A   1      34.370  30.474  27.423  1.00  0.00     0.251 C 
ATOM     29  H   UNL A   1      32.879  30.093  26.145  1.00  0.00     0.163 HD
ATOM     30  O   UNL A   1      33.903  31.563  27.746  1.00  0.00    -0.269 OA
BRANCH  28  31
ATOM     31  C   UNL A   1      35.688  30.044  27.951  1.00  0.00     0.039 A 
ATOM     32  C   UNL A   1      35.758  29.538  29.252  1.00  0.00     0.014 A 
ATOM     33  C   UNL A   1      36.858  30.176  27.195  1.00  0.00     0.014 A 
ATOM     34  C   UNL A   1      36.985  29.118  29.774  1.00  0.00     0.010 A 
ATOM     35  C   UNL A   1      38.069  29.692  27.692  1.00  0.00     0.010 A 
ATOM     36  C   UNL A   1      38.147  29.163  28.989  1.00  0.00    -0.014 A 
BRANCH  36  37
ATOM     37  C   UNL A   1      39.450  28.671  29.511  1.00  0.00     0.031 A 
ATOM     38  C   UNL A   1      40.137  29.393  30.639  1.00  0.00     0.074 A 
ATOM     39  C   UNL A   1      40.042  27.607  28.933  1.00  0.00     0.049 A 
ATOM     40  N   UNL A   1      41.310  29.169  31.176  1.00  0.00    -0.248 NA
ATOM     41  C   UNL A   1      39.419  30.538  31.220  1.00  0.00     0.031 C 
ATOM     42  C   UNL A   1      39.491  26.839  27.813  1.00  0.00     0.029 A 
ATOM     43  N   UNL A   1      41.240  26.990  29.198  1.00  0.00    -0.354 N 
ATOM     44  C   UNL A   1      41.477  30.150  32.148  1.00  0.00     0.074 A 
ATOM     45  C   UNL A   1      40.309  31.004  32.085  1.00  0.00     0.031 C 
ATOM     46  C   UNL A   1      40.340  25.848  27.499  1.00  0.00     0.029 A 
ATOM     47  C   UNL A   1      41.514  25.932  28.361  1.00  0.00     0.049 A 
ATOM     48  H   UNL A   1      41.845  27.277  29.918  1.00  0.00     0.167 HD
ATOM     49  C   UNL A   1      42.500  30.313  33.024  1.00  0.00     0.034 A 
ATOM     50  C   UNL A   1      42.596  25.131  28.286  1.00  0.00     0.034 A 
ATOM     51  C   UNL A   1      43.654  29.447  33.083  1.00  0.00     0.049 A 
ATOM     52  C   UNL A   1      43.733  25.346  29.252  1.00  0.00     0.074 A 
ATOM     53  C   UNL A   1      44.720  29.487  33.966  1.00  0.00     0.029 A 
ATOM     54  N   UNL A   1      43.898  28.387  32.219  1.00  0.00    -0.354 N 
ATOM     55  N   UNL A   1      43.855  26.252  30.195  1.00  0.00    -0.248 NA
ATOM     56  C   UNL A   1      44.871  24.425  29.151  1.00  0.00     0.031 C 
ATOM     57  C   UNL A   1      45.637  28.497  33.595  1.00  0.00     0.029 A 
ATOM     58  C   UNL A   1      45.111  27.788  32.528  1.00  0.00     0.049 A 
ATOM     59  H   UNL A   1      43.297  28.101  31.493  1.00  0.00     0.167 HD
ATOM     60  C   UNL A   1      45.073  25.990  30.816  1.00  0.00     0.074 A 
ATOM     61  C   UNL A   1      45.637  24.833  30.152  1.00  0.00     0.031 C 
ATOM     62  C   UNL A   1      45.669  26.644  31.845  1.00  0.00     0.034 A 
BRANCH  49  63
ATOM     63  C   UNL A   1      42.425  31.490  33.970  1.00  0.00     0.023 A 
ATOM     64  C   UNL A   1      41.646  31.449  35.140  1.00  0.00     0.031 A 
ATOM     65  C   UNL A   1      43.119  32.679  33.685  1.00  0.00     0.131 A 
ATOM     66  C   UNL A   1      41.517  32.597  35.938  1.00  0.00     0.055 A 
ATOM     67  C   UNL A   1      43.053  33.791  34.527  1.00  0.00     0.041 A 
ATOM     68  F   UNL A   1      43.865  32.785  32.574  1.00  0.00    -0.206 F 
ATOM     69  C   UNL A   1      42.235  33.760  35.652  1.00  0.00     0.022 A 
BRANCH  66  70
ATOM     70  S   UNL A   1      40.284  32.592  37.268  1.00  0.00     0.124 S 
ATOM     71  O   UNL A   1      39.724  33.936  37.154  1.00  0.00    -0.237 OA
ATOM     72  O   UNL A   1      39.404  31.497  36.878  1.00  0.00    -0.237 OA
ATOM     73  O   UNL A   1      41.080  32.357  38.472  1.00  0.00    -0.744 OA
ENDBRANCH  66  70
ENDBRANCH  49  63
BRANCH  50  74
ATOM     74  C   UNL A   1      42.671  24.060  27.251  1.00  0.00     0.023 A 
ATOM     75  C   UNL A   1      42.059  22.814  27.454  1.00  0.00     0.031 A 
ATOM     76  C   UNL A   1      43.388  24.256  26.058  1.00  0.00     0.131 A 
ATOM     77  C   UNL A   1      42.213  21.795  26.501  1.00  0.00     0.055 A 
ATOM     78  C   UNL A   1      43.498  23.257  25.089  1.00  0.00     0.041 A 
ATOM     79  F   UNL A   1      43.988  25.433  25.811  1.00  0.00    -0.206 F 
ATOM     80  C   UNL A   1      42.917  22.012  25.315  1.00  0.00     0.022 A 
BRANCH  77  81
ATOM     81  S   UNL A   1      41.543  20.151  26.872  1.00  0.00     0.124 S 
ATOM     82  O   UNL A   1      40.294  20.484  27.546  1.00  0.00    -0.237 OA
ATOM     83  O   UNL A   1      41.419  19.568  25.540  1.00  0.00    -0.237 OA
ATOM     84  O   UNL A   1      42.570  19.549  27.719  1.00  0.00    -0.744 OA
ENDBRANCH  77  81
ENDBRANCH  50  74
BRANCH  62  85
ATOM     85  C   UNL A   1      46.985  26.089  32.337  1.00  0.00     0.023 A 
ATOM     86  C   UNL A   1      47.047  25.148  33.380  1.00  0.00     0.031 A 
ATOM     87  C   UNL A   1      48.193  26.526  31.766  1.00  0.00     0.131 A 
ATOM     88  C   UNL A   1      48.293  24.715  33.856  1.00  0.00     0.055 A 
ATOM     89  C   UNL A   1      49.428  26.046  32.204  1.00  0.00     0.041 A 
ATOM     90  F   UNL A   1      48.193  27.426  30.770  1.00  0.00    -0.206 F 
ATOM     91  C   UNL A   1      49.484  25.145  33.264  1.00  0.00     0.022 A 
BRANCH  88  92
ATOM     92  S   UNL A   1      48.342  23.648  35.322  1.00  0.00     0.124 S 
ATOM     93  O   UNL A   1      48.144  22.324  34.739  1.00  0.00    -0.237 OA
ATOM     94  O   UNL A   1      49.673  23.914  35.859  1.00  0.00    -0.237 OA
ATOM     95  O   UNL A   1      47.234  24.137  36.140  1.00  0.00    -0.744 OA
ENDBRANCH  88  92
ENDBRANCH  62  85
ENDBRANCH  36  37
ENDBRANCH  28  31
ENDBRANCH  26  27
ENDBRANCH   1  26
TORSDOF 18
ENDMDL
MODEL 2
REMARK VINA RESULT:     -11.3      3.603      8.781
REMARK SMILES CC(C)(C)OC(=O)N1C[C@H](Oc2ccncc2)C[C@H]1C(=O)NCCCNC(=O)c1ccc(-c2c3nc(c(-c4cc(S(=O)(=O)[O-])ccc4F)c4ccc([nH]4)c(-c4cc(S(=O)(=O)[O-])ccc4F)c4nc(c(-c5cc(S(=O)(=O)[O-])ccc5F)c5ccc2[nH]5)C=C4)C=C3)cc1
REMARK SMILES IDX 24 1 23 2 22 3 20 4 21 5 19 7 8 8 9 9 10 10 18 11 6 12 7 13
REMARK SMILES IDX 5 14 2 15 1 16 3 17 4 18 11 19 12 20 13 21 17 22 14 23 16 24
REMARK SMILES IDX 15 25 25 26 26 27 27 28 28 30 29 31 30 32 91 33 31 34 90 35
REMARK SMILES IDX 32 36 33 37 34 38 84 39 35 40 89 41 83 42 85 43 36 44 88 45
REMARK SMILES IDX 82 46 81 47 37 49 69 50 49 51 68 52 50 53 53 54 67 55 86 56
REMARK SMILES IDX 51 57 52 58 66 60 87 61 54 62 38 63 39 64 47 65 40 66 46 67
REMARK SMILES IDX 48 68 45 69 41 70 42 71 43 72 44 73 70 74 71 75 79 76 72 77
REMARK SMILES IDX 78 78 80 79 77 80 73 81 74 82 75 83 76 84 55 85 56 86 64 87
REMARK SMILES IDX 57 88 63 89 65 90 62 91 58 92 59 93 60 94 61 95
REMARK H PARENT 22 6 26 29 85 48 53 59
REMARK Flexibility Score: inf
ROOT
ATOM      1  C   UNL A   1      31.494  31.828  26.308  1.00  0.00     0.042 C 
ENDROOT
BRANCH   1   2
ATOM      2  C   UNL A   1      31.620  30.357  25.902  1.00  0.00     0.117 C 
BRANCH   2   3
ATOM      3  N   UNL A   1      31.819  29.512  27.066  1.00  0.00    -0.354 N 
ATOM      4  C   UNL A   1      31.549  28.192  27.277  1.00  0.00     0.243 C 
ATOM      5  O   UNL A   1      31.547  27.826  28.456  1.00  0.00    -0.273 OA
ATOM      6  H   UNL A   1      32.220  29.973  27.837  1.00  0.00     0.163 HD
BRANCH   4   7
ATOM      7  C   UNL A   1      31.344  27.206  26.094  1.00  0.00     0.181 C 
ATOM      8  N   UNL A   1      32.617  26.574  25.742  1.00  0.00    -0.292 N 
ATOM      9  C   UNL A   1      32.640  25.174  26.119  1.00  0.00     0.169 C 
ATOM     10  C   UNL A   1      31.181  24.756  26.004  1.00  0.00     0.195 C 
ATOM     11  C   UNL A   1      30.415  26.021  26.404  1.00  0.00     0.082 C 
BRANCH   8  12
ATOM     12  C   UNL A   1      33.593  27.234  25.041  1.00  0.00     0.411 C 
ATOM     13  O   UNL A   1      34.200  28.205  25.473  1.00  0.00    -0.224 OA
BRANCH  12  14
ATOM     14  O   UNL A   1      33.741  26.709  23.800  1.00  0.00    -0.444 OA
BRANCH  14  15
ATOM     15  C   UNL A   1      33.184  27.319  22.609  1.00  0.00     0.106 C 
ATOM     16  C   UNL A   1      33.052  26.157  21.612  1.00  0.00     0.056 C 
ATOM     17  C   UNL A   1      34.193  28.336  22.073  1.00  0.00     0.056 C 
ATOM     18  C   UNL A   1      31.800  27.950  22.796  1.00  0.00     0.056 C 
ENDBRANCH  14  15
ENDBRANCH  12  14
ENDBRANCH   8  12
BRANCH  10  19
ATOM     19  O   UNL A   1      30.768  24.175  24.752  1.00  0.00    -0.488 OA
BRANCH  19  20
ATOM     20  C   UNL A   1      31.313  22.980  24.389  1.00  0.00     0.122 A 
ATOM     21  C   UNL A   1      31.838  22.795  23.118  1.00  0.00     0.066 A 
ATOM     22  C   UNL A   1      31.481  21.993  25.351  1.00  0.00     0.066 A 
ATOM     23  C   UNL A   1      32.433  21.579  22.830  1.00  0.00     0.115 A 
ATOM     24  C   UNL A   1      32.105  20.818  24.973  1.00  0.00     0.115 A 
ATOM     25  N   UNL A   1      32.575  20.581  23.728  1.00  0.00    -0.264 NA
ENDBRANCH  19  20
ENDBRANCH  10  19
ENDBRANCH   4   7
ENDBRANCH   2   3
ENDBRANCH   1   2
BRANCH   1  26
ATOM     26  C   UNL A   1      32.650  32.340  27.167  1.00  0.00     0.118 C 
BRANCH  26  27
ATOM     27  N   UNL A   1      32.505  33.747  27.494  1.00  0.00    -0.352 N 
ATOM     28  C   UNL A   1      33.133  34.491  28.463  1.00  0.00     0.251 C 
ATOM     29  H   UNL A   1      31.861  34.242  26.939  1.00  0.00     0.163 HD
ATOM     30  O   UNL A   1      32.697  35.607  28.730  1.00  0.00    -0.269 OA
BRANCH  28  31
ATOM     31  C   UNL A   1      34.306  33.955  29.196  1.00  0.00     0.039 A 
ATOM     32  C   UNL A   1      34.090  33.053  30.242  1.00  0.00     0.014 A 
ATOM     33  C   UNL A   1      35.609  34.366  28.894  1.00  0.00     0.014 A 
ATOM     34  C   UNL A   1      35.176  32.525  30.947  1.00  0.00     0.010 A 
ATOM     35  C   UNL A   1      36.695  33.786  29.551  1.00  0.00     0.010 A 
ATOM     36  C   UNL A   1      36.490  32.863  30.589  1.00  0.00    -0.014 A 
BRANCH  36  37
ATOM     37  C   UNL A   1      37.658  32.270  31.294  1.00  0.00     0.031 A 
ATOM     38  C   UNL A   1      38.424  31.134  30.670  1.00  0.00     0.074 A 
ATOM     39  C   UNL A   1      37.995  32.717  32.520  1.00  0.00     0.049 A 
ATOM     40  N   UNL A   1      39.415  30.433  31.160  1.00  0.00    -0.248 NA
ATOM     41  C   UNL A   1      37.998  30.714  29.326  1.00  0.00     0.031 C 
ATOM     42  C   UNL A   1      37.312  33.791  33.244  1.00  0.00     0.029 A 
ATOM     43  N   UNL A   1      38.988  32.319  33.380  1.00  0.00    -0.354 N 
ATOM     44  C   UNL A   1      39.724  29.482  30.193  1.00  0.00     0.074 A 
ATOM     45  C   UNL A   1      38.775  29.662  29.113  1.00  0.00     0.031 C 
ATOM     46  C   UNL A   1      37.916  33.977  34.428  1.00  0.00     0.029 A 
ATOM     47  C   UNL A   1      38.998  33.009  34.571  1.00  0.00     0.049 A 
ATOM     48  H   UNL A   1      39.633  31.607  33.166  1.00  0.00     0.167 HD
ATOM     49  C   UNL A   1      40.717  28.558  30.196  1.00  0.00     0.034 A 
ATOM     50  C   UNL A   1      39.780  32.868  35.660  1.00  0.00     0.034 A 
ATOM     51  C   UNL A   1      41.663  28.398  31.275  1.00  0.00     0.049 A 
ATOM     52  C   UNL A   1      40.860  31.817  35.653  1.00  0.00     0.074 A 
ATOM     53  C   UNL A   1      42.740  27.532  31.358  1.00  0.00     0.029 A 
ATOM     54  N   UNL A   1      41.640  29.114  32.466  1.00  0.00    -0.354 N 
ATOM     55  N   UNL A   1      41.167  30.954  34.711  1.00  0.00    -0.248 NA
ATOM     56  C   UNL A   1      41.706  31.728  36.849  1.00  0.00     0.031 C 
ATOM     57  C   UNL A   1      43.327  27.678  32.620  1.00  0.00     0.029 A 
ATOM     58  C   UNL A   1      42.664  28.687  33.299  1.00  0.00     0.049 A 
ATOM     59  H   UNL A   1      40.993  29.822  32.686  1.00  0.00     0.167 HD
ATOM     60  C   UNL A   1      42.259  30.240  35.194  1.00  0.00     0.074 A 
ATOM     61  C   UNL A   1      42.567  30.784  36.500  1.00  0.00     0.031 C 
ATOM     62  C   UNL A   1      42.949  29.228  34.608  1.00  0.00     0.034 A 
BRANCH  49  63
ATOM     63  C   UNL A   1      40.809  27.632  29.005  1.00  0.00     0.023 A 
ATOM     64  C   UNL A   1      41.763  27.826  27.990  1.00  0.00     0.031 A 
ATOM     65  C   UNL A   1      39.914  26.556  28.867  1.00  0.00     0.131 A 
ATOM     66  C   UNL A   1      41.750  27.010  26.848  1.00  0.00     0.055 A 
ATOM     67  C   UNL A   1      39.959  25.696  27.768  1.00  0.00     0.041 A 
ATOM     68  F   UNL A   1      38.970  26.330  29.793  1.00  0.00    -0.206 F 
ATOM     69  C   UNL A   1      40.870  25.931  26.742  1.00  0.00     0.022 A 
BRANCH  66  70
ATOM     70  S   UNL A   1      42.799  27.470  25.443  1.00  0.00     0.124 S 
ATOM     71  O   UNL A   1      44.008  27.935  26.119  1.00  0.00    -0.237 OA
ATOM     72  O   UNL A   1      42.918  26.214  24.713  1.00  0.00    -0.237 OA
ATOM     73  O   UNL A   1      42.031  28.515  24.769  1.00  0.00    -0.744 OA
ENDBRANCH  66  70
ENDBRANCH  49  63
BRANCH  50  74
ATOM     74  C   UNL A   1      39.565  33.729  36.859  1.00  0.00     0.023 A 
ATOM     75  C   UNL A   1      38.960  33.217  38.017  1.00  0.00     0.031 A 
ATOM     76  C   UNL A   1      39.929  35.087  36.849  1.00  0.00     0.131 A 
ATOM     77  C   UNL A   1      38.696  34.068  39.102  1.00  0.00     0.055 A 
ATOM     78  C   UNL A   1      39.709  35.918  37.949  1.00  0.00     0.041 A 
ATOM     79  F   UNL A   1      40.518  35.625  35.768  1.00  0.00    -0.206 F 
ATOM     80  C   UNL A   1      39.077  35.411  39.080  1.00  0.00     0.022 A 
BRANCH  77  81
ATOM     81  S   UNL A   1      37.770  33.409  40.516  1.00  0.00     0.124 S 
ATOM     82  O   UNL A   1      36.537  32.960  39.881  1.00  0.00    -0.237 OA
ATOM     83  O   UNL A   1      38.663  32.362  40.999  1.00  0.00    -0.237 OA
ATOM     84  O   UNL A   1      37.633  34.565  41.400  1.00  0.00    -0.744 OA
ENDBRANCH  77  81
ENDBRANCH  50  74
BRANCH  62  85
ATOM     85  C   UNL A   1      44.131  28.676  35.369  1.00  0.00     0.023 A 
ATOM     86  C   UNL A   1      43.995  27.603  36.269  1.00  0.00     0.031 A 
ATOM     87  C   UNL A   1      45.405  29.245  35.204  1.00  0.00     0.131 A 
ATOM     88  C   UNL A   1      45.104  27.170  37.010  1.00  0.00     0.055 A 
ATOM     89  C   UNL A   1      46.517  28.769  35.901  1.00  0.00     0.041 A 
ATOM     90  F   UNL A   1      45.592  30.272  34.361  1.00  0.00    -0.206 F 
ATOM     91  C   UNL A   1      46.367  27.735  36.820  1.00  0.00     0.022 A 
BRANCH  88  92
ATOM     92  S   UNL A   1      44.855  25.915  38.296  1.00  0.00     0.124 S 
ATOM     93  O   UNL A   1      46.188  25.333  38.414  1.00  0.00    -0.237 OA
ATOM     94  O   UNL A   1      44.406  26.714  39.432  1.00  0.00    -0.237 OA
ATOM     95  O   UNL A   1      43.841  25.031  37.721  1.00  0.00    -0.744 OA
ENDBRANCH  88  92
ENDBRANCH  62  85
ENDBRANCH  36  37
ENDBRANCH  28  31
ENDBRANCH  26  27
ENDBRANCH   1  26
TORSDOF 18
ENDMDL
MODEL 3
REMARK VINA RESULT:     -11.2      4.991      7.910
REMARK SMILES CC(C)(C)OC(=O)N1C[C@H](Oc2ccncc2)C[C@H]1C(=O)NCCCNC(=O)c1ccc(-c2c3nc(c(-c4cc(S(=O)(=O)[O-])ccc4F)c4ccc([nH]4)c(-c4cc(S(=O)(=O)[O-])ccc4F)c4nc(c(-c5cc(S(=O)(=O)[O-])ccc5F)c5ccc2[nH]5)C=C4)C=C3)cc1
REMARK SMILES IDX 24 1 23 2 22 3 20 4 21 5 19 7 8 8 9 9 10 10 18 11 6 12 7 13
REMARK SMILES IDX 5 14 2 15 1 16 3 17 4 18 11 19 12 20 13 21 17 22 14 23 16 24
REMARK SMILES IDX 15 25 25 26 26 27 27 28 28 30 29 31 30 32 91 33 31 34 90 35
REMARK SMILES IDX 32 36 33 37 34 38 84 39 35 40 89 41 83 42 85 43 36 44 88 45
REMARK SMILES IDX 82 46 81 47 37 49 69 50 49 51 68 52 50 53 53 54 67 55 86 56
REMARK SMILES IDX 51 57 52 58 66 60 87 61 54 62 38 63 39 64 47 65 40 66 46 67
REMARK SMILES IDX 48 68 45 69 41 70 42 71 43 72 44 73 70 74 71 75 79 76 72 77
REMARK SMILES IDX 78 78 80 79 77 80 73 81 74 82 75 83 76 84 55 85 56 86 64 87
REMARK SMILES IDX 57 88 63 89 65 90 62 91 58 92 59 93 60 94 61 95
REMARK H PARENT 22 6 26 29 85 48 53 59
REMARK Flexibility Score: inf
ROOT
ATOM      1  C   UNL A   1      34.440  21.720  26.562  1.00  0.00     0.042 C 
ENDROOT
BRANCH   1   2
ATOM      2  C   UNL A   1      33.291  21.817  25.555  1.00  0.00     0.117 C 
BRANCH   2   3
ATOM      3  N   UNL A   1      32.043  22.148  26.220  1.00  0.00    -0.354 N 
ATOM      4  C   UNL A   1      31.474  23.351  26.520  1.00  0.00     0.243 C 
ATOM      5  O   UNL A   1      30.562  23.321  27.352  1.00  0.00    -0.273 OA
ATOM      6  H   UNL A   1      31.517  21.367  26.505  1.00  0.00     0.163 HD
BRANCH   4   7
ATOM      7  C   UNL A   1      31.898  24.654  25.789  1.00  0.00     0.181 C 
ATOM      8  N   UNL A   1      30.938  24.968  24.728  1.00  0.00    -0.292 N 
ATOM      9  C   UNL A   1      30.135  26.129  25.061  1.00  0.00     0.169 C 
ATOM     10  C   UNL A   1      31.068  26.963  25.928  1.00  0.00     0.195 C 
ATOM     11  C   UNL A   1      31.897  25.912  26.673  1.00  0.00     0.082 C 
BRANCH   8  12
ATOM     12  C   UNL A   1      30.916  24.291  23.536  1.00  0.00     0.411 C 
ATOM     13  O   UNL A   1      30.651  23.100  23.438  1.00  0.00    -0.224 OA
BRANCH  12  14
ATOM     14  O   UNL A   1      31.289  25.095  22.512  1.00  0.00    -0.444 OA
BRANCH  14  15
ATOM     15  C   UNL A   1      32.621  25.090  21.941  1.00  0.00     0.106 C 
ATOM     16  C   UNL A   1      33.399  26.114  22.781  1.00  0.00     0.056 C 
ATOM     17  C   UNL A   1      32.528  25.582  20.496  1.00  0.00     0.056 C 
ATOM     18  C   UNL A   1      33.351  23.745  22.027  1.00  0.00     0.056 C 
ENDBRANCH  14  15
ENDBRANCH  12  14
ENDBRANCH   8  12
BRANCH  10  19
ATOM     19  O   UNL A   1      31.844  27.976  25.261  1.00  0.00    -0.488 OA
BRANCH  19  20
ATOM     20  C   UNL A   1      32.645  28.775  26.023  1.00  0.00     0.122 A 
ATOM     21  C   UNL A   1      33.997  28.496  26.164  1.00  0.00     0.066 A 
ATOM     22  C   UNL A   1      32.131  29.959  26.533  1.00  0.00     0.066 A 
ATOM     23  C   UNL A   1      34.770  29.378  26.899  1.00  0.00     0.115 A 
ATOM     24  C   UNL A   1      32.987  30.786  27.239  1.00  0.00     0.115 A 
ATOM     25  N   UNL A   1      34.295  30.517  27.446  1.00  0.00    -0.264 NA
ENDBRANCH  19  20
ENDBRANCH  10  19
ENDBRANCH   4   7
ENDBRANCH   2   3
ENDBRANCH   1   2
BRANCH   1  26
ATOM     26  C   UNL A   1      35.774  22.252  26.040  1.00  0.00     0.118 C 
BRANCH  26  27
ATOM     27  N   UNL A   1      36.735  21.188  25.812  1.00  0.00    -0.352 N 
ATOM     28  C   UNL A   1      38.105  21.245  25.737  1.00  0.00     0.251 C 
ATOM     29  H   UNL A   1      36.346  20.292  25.692  1.00  0.00     0.163 HD
ATOM     30  O   UNL A   1      38.717  20.273  25.301  1.00  0.00    -0.269 OA
BRANCH  28  31
ATOM     31  C   UNL A   1      38.842  22.463  26.152  1.00  0.00     0.039 A 
ATOM     32  C   UNL A   1      39.964  22.321  26.975  1.00  0.00     0.014 A 
ATOM     33  C   UNL A   1      38.415  23.741  25.779  1.00  0.00     0.014 A 
ATOM     34  C   UNL A   1      40.685  23.449  27.377  1.00  0.00     0.010 A 
ATOM     35  C   UNL A   1      39.174  24.861  26.123  1.00  0.00     0.010 A 
ATOM     36  C   UNL A   1      40.314  24.727  26.930  1.00  0.00    -0.014 A 
BRANCH  36  37
ATOM     37  C   UNL A   1      41.101  25.934  27.306  1.00  0.00     0.031 A 
ATOM     38  C   UNL A   1      40.480  27.008  28.157  1.00  0.00     0.074 A 
ATOM     39  C   UNL A   1      42.354  26.086  26.834  1.00  0.00     0.049 A 
ATOM     40  N   UNL A   1      40.972  28.166  28.522  1.00  0.00    -0.248 NA
ATOM     41  C   UNL A   1      39.113  26.759  28.639  1.00  0.00     0.031 C 
ATOM     42  C   UNL A   1      43.056  25.130  25.975  1.00  0.00     0.029 A 
ATOM     43  N   UNL A   1      43.259  27.106  27.000  1.00  0.00    -0.354 N 
ATOM     44  C   UNL A   1      39.973  28.787  29.263  1.00  0.00     0.074 A 
ATOM     45  C   UNL A   1      38.828  27.901  29.247  1.00  0.00     0.031 C 
ATOM     46  C   UNL A   1      44.283  25.599  25.704  1.00  0.00     0.029 A 
ATOM     47  C   UNL A   1      44.444  26.908  26.329  1.00  0.00     0.049 A 
ATOM     48  H   UNL A   1      43.076  27.904  27.546  1.00  0.00     0.167 HD
ATOM     49  C   UNL A   1      40.013  29.977  29.914  1.00  0.00     0.034 A 
ATOM     50  C   UNL A   1      45.530  27.698  26.217  1.00  0.00     0.034 A 
ATOM     51  C   UNL A   1      41.166  30.846  29.931  1.00  0.00     0.049 A 
ATOM     52  C   UNL A   1      45.544  29.028  26.926  1.00  0.00     0.074 A 
ATOM     53  C   UNL A   1      41.334  32.046  30.602  1.00  0.00     0.029 A 
ATOM     54  N   UNL A   1      42.348  30.613  29.239  1.00  0.00    -0.354 N 
ATOM     55  N   UNL A   1      44.606  29.582  27.660  1.00  0.00    -0.248 NA
ATOM     56  C   UNL A   1      46.764  29.833  26.801  1.00  0.00     0.031 C 
ATOM     57  C   UNL A   1      42.588  32.568  30.264  1.00  0.00     0.029 A 
ATOM     58  C   UNL A   1      43.235  31.661  29.442  1.00  0.00     0.049 A 
ATOM     59  H   UNL A   1      42.531  29.820  28.686  1.00  0.00     0.167 HD
ATOM     60  C   UNL A   1      45.137  30.788  28.105  1.00  0.00     0.074 A 
ATOM     61  C   UNL A   1      46.481  30.873  27.572  1.00  0.00     0.031 C 
ATOM     62  C   UNL A   1      44.568  31.740  28.889  1.00  0.00     0.034 A 
BRANCH  49  63
ATOM     63  C   UNL A   1      38.760  30.418  30.636  1.00  0.00     0.023 A 
ATOM     64  C   UNL A   1      37.886  31.371  30.083  1.00  0.00     0.031 A 
ATOM     65  C   UNL A   1      38.447  29.899  31.904  1.00  0.00     0.131 A 
ATOM     66  C   UNL A   1      36.790  31.834  30.828  1.00  0.00     0.055 A 
ATOM     67  C   UNL A   1      37.309  30.301  32.606  1.00  0.00     0.041 A 
ATOM     68  F   UNL A   1      39.252  28.999  32.492  1.00  0.00    -0.206 F 
ATOM     69  C   UNL A   1      36.482  31.287  32.075  1.00  0.00     0.022 A 
BRANCH  66  70
ATOM     70  S   UNL A   1      35.861  33.261  30.205  1.00  0.00     0.124 S 
ATOM     71  O   UNL A   1      36.741  33.745  29.144  1.00  0.00    -0.237 OA
ATOM     72  O   UNL A   1      34.608  32.656  29.770  1.00  0.00    -0.237 OA
ATOM     73  O   UNL A   1      35.761  34.139  31.370  1.00  0.00    -0.744 OA
ENDBRANCH  66  70
ENDBRANCH  49  63
BRANCH  50  74
ATOM     74  C   UNL A   1      46.694  27.267  25.389  1.00  0.00     0.023 A 
ATOM     75  C   UNL A   1      46.889  27.775  24.096  1.00  0.00     0.031 A 
ATOM     76  C   UNL A   1      47.608  26.312  25.868  1.00  0.00     0.131 A 
ATOM     77  C   UNL A   1      47.945  27.292  23.307  1.00  0.00     0.055 A 
ATOM     78  C   UNL A   1      48.686  25.871  25.098  1.00  0.00     0.041 A 
ATOM     79  F   UNL A   1      47.471  25.798  27.101  1.00  0.00    -0.206 F 
ATOM     80  C   UNL A   1      48.851  26.353  23.803  1.00  0.00     0.022 A 
BRANCH  77  81
ATOM     81  S   UNL A   1      48.069  27.853  21.587  1.00  0.00     0.124 S 
ATOM     82  O   UNL A   1      46.777  28.500  21.390  1.00  0.00    -0.237 OA
ATOM     83  O   UNL A   1      49.229  28.737  21.641  1.00  0.00    -0.237 OA
ATOM     84  O   UNL A   1      48.268  26.614  20.838  1.00  0.00    -0.744 OA
ENDBRANCH  77  81
ENDBRANCH  50  74
BRANCH  62  85
ATOM     85  C   UNL A   1      45.420  32.934  29.244  1.00  0.00     0.023 A 
ATOM     86  C   UNL A   1      45.405  34.109  28.470  1.00  0.00     0.031 A 
ATOM     87  C   UNL A   1      46.273  32.886  30.360  1.00  0.00     0.131 A 
ATOM     88  C   UNL A   1      46.268  35.167  28.792  1.00  0.00     0.055 A 
ATOM     89  C   UNL A   1      47.085  33.966  30.710  1.00  0.00     0.041 A 
ATOM     90  F   UNL A   1      46.329  31.790  31.131  1.00  0.00    -0.206 F 
ATOM     91  C   UNL A   1      47.095  35.110  29.917  1.00  0.00     0.022 A 
BRANCH  88  92
ATOM     92  S   UNL A   1      46.360  36.588  27.668  1.00  0.00     0.124 S 
ATOM     93  O   UNL A   1      45.724  36.063  26.464  1.00  0.00    -0.237 OA
ATOM     94  O   UNL A   1      45.610  37.609  28.392  1.00  0.00    -0.237 OA
ATOM     95  O   UNL A   1      47.796  36.839  27.551  1.00  0.00    -0.744 OA
ENDBRANCH  88  92
ENDBRANCH  62  85
ENDBRANCH  36  37
ENDBRANCH  28  31
ENDBRANCH  26  27
ENDBRANCH   1  26
TORSDOF 18
ENDMDL
