MODEL 1
REMARK VINA RESULT:     -11.3      0.000      0.000
REMARK SMILES COC[C@H]1CC[N@@H+]([C@H]2CCC[C@]([NH2+]C(C)C)(C(=O)NCCCNC(=O)c3ccc(-c4c5nc(c(-c6cc(S(=O)(=O)[O-])ccc6F)c6ccc([nH]6)c(-c6cc(S(=O)(=O)[O-])ccc6F)c6nc(c(-c7cc(S(=O)(=O)[O-])ccc7F)c7ccc4[nH]7)C=C6)C=C5)cc3)C2)C1
REMARK SMILES IDX 21 1 20 2 19 3 17 4 18 5 12 7 8 8 9 9 89 10 10 11 11 12 7 13
REMARK SMILES IDX 4 14 5 15 90 16 6 17 3 19 2 20 1 21 13 22 14 25 15 26 16 27
REMARK SMILES IDX 22 28 23 29 24 30 25 32 26 33 27 34 88 35 28 36 87 37 29 38
REMARK SMILES IDX 30 39 31 40 81 41 32 42 86 43 80 44 82 45 33 46 85 47 79 48
REMARK SMILES IDX 78 49 34 51 66 52 46 53 65 54 47 55 50 56 64 57 83 58 48 59
REMARK SMILES IDX 49 60 63 62 84 63 51 64 35 65 36 66 44 67 37 68 43 69 45 70
REMARK SMILES IDX 42 71 38 72 39 73 40 74 41 75 67 76 68 77 76 78 69 79 75 80
REMARK SMILES IDX 77 81 74 82 70 83 71 84 72 85 73 86 52 87 53 88 61 89 54 90
REMARK SMILES IDX 60 91 62 92 59 93 55 94 56 95 57 96 58 97
REMARK H PARENT 19 6 7 18 13 23 13 24 23 31 82 50 50 61
REMARK Flexibility Score: inf
ROOT
ATOM      1  C   UNL A   1      37.545  19.933  24.991  1.00  0.00     0.042 C 
ENDROOT
BRANCH   1   2
ATOM      2  C   UNL A   1      36.424  20.965  24.867  1.00  0.00     0.118 C 
BRANCH   2   3
ATOM      3  N   UNL A   1      35.564  20.917  26.026  1.00  0.00    -0.351 N 
ATOM      4  C   UNL A   1      34.576  21.720  26.480  1.00  0.00     0.281 C 
ATOM      5  O   UNL A   1      34.324  21.550  27.684  1.00  0.00    -0.268 OA
ATOM      6  H   UNL A   1      35.732  20.139  26.605  1.00  0.00     0.163 HD
BRANCH   4   7
ATOM      7  C   UNL A   1      33.741  22.749  25.627  1.00  0.00     0.181 C 
ATOM      8  C   UNL A   1      33.329  25.295  24.977  1.00  0.00     0.190 C 
ATOM      9  C   UNL A   1      32.364  25.447  26.156  1.00  0.00     0.065 C 
ATOM     10  C   UNL A   1      34.320  24.159  25.374  1.00  0.00     0.144 C 
ATOM     11  C   UNL A   1      31.596  24.178  26.458  1.00  0.00     0.013 C 
ATOM     12  C   UNL A   1      32.420  22.883  26.474  1.00  0.00     0.079 C 
BRANCH   8  13
ATOM     13  N   UNL A   1      32.770  25.316  23.601  1.00  0.00    -0.332 N 
ATOM     14  C   UNL A   1      31.563  27.102  22.420  1.00  0.00     0.076 C 
ATOM     15  C   UNL A   1      33.062  27.348  22.374  1.00  0.00     0.073 C 
ATOM     16  C   UNL A   1      31.439  25.895  23.357  1.00  0.00     0.268 C 
ATOM     17  C   UNL A   1      33.658  25.972  22.626  1.00  0.00     0.263 C 
ATOM     18  H   UNL A   1      32.679  24.307  23.479  1.00  0.00     0.348 HD
BRANCH  14  19
ATOM     19  C   UNL A   1      30.755  28.311  22.916  1.00  0.00     0.169 C 
BRANCH  19  20
ATOM     20  O   UNL A   1      29.722  28.668  21.996  1.00  0.00    -0.384 OA
ATOM     21  C   UNL A   1      29.706  30.059  21.716  1.00  0.00     0.194 C 
ENDBRANCH  19  20
ENDBRANCH  14  19
ENDBRANCH   8  13
BRANCH   7  22
ATOM     22  N   UNL A   1      33.483  22.194  24.265  1.00  0.00    -0.331 N 
ATOM     23  H   UNL A   1      34.284  21.600  24.049  1.00  0.00     0.347 HD
ATOM     24  H   UNL A   1      33.316  23.046  23.729  1.00  0.00     0.347 HD
BRANCH  22  25
ATOM     25  C   UNL A   1      32.298  21.407  23.932  1.00  0.00     0.176 C 
ATOM     26  C   UNL A   1      31.843  21.899  22.548  1.00  0.00     0.075 C 
ATOM     27  C   UNL A   1      32.570  19.903  23.826  1.00  0.00     0.075 C 
ENDBRANCH  22  25
ENDBRANCH   7  22
ENDBRANCH   4   7
ENDBRANCH   2   3
ENDBRANCH   1   2
BRANCH   1  28
ATOM     28  C   UNL A   1      38.835  20.526  25.559  1.00  0.00     0.118 C 
BRANCH  28  29
ATOM     29  N   UNL A   1      39.802  19.486  25.882  1.00  0.00    -0.352 N 
ATOM     30  C   UNL A   1      41.152  19.592  26.103  1.00  0.00     0.251 C 
ATOM     31  H   UNL A   1      39.434  18.575  25.951  1.00  0.00     0.163 HD
ATOM     32  O   UNL A   1      41.860  18.593  26.030  1.00  0.00    -0.269 OA
BRANCH  30  33
ATOM     33  C   UNL A   1      41.737  20.908  26.427  1.00  0.00     0.039 A 
ATOM     34  C   UNL A   1      42.048  21.792  25.392  1.00  0.00     0.014 A 
ATOM     35  C   UNL A   1      41.999  21.254  27.757  1.00  0.00     0.014 A 
ATOM     36  C   UNL A   1      42.564  23.053  25.697  1.00  0.00     0.010 A 
ATOM     37  C   UNL A   1      42.450  22.533  28.062  1.00  0.00     0.010 A 
ATOM     38  C   UNL A   1      42.734  23.445  27.035  1.00  0.00    -0.014 A 
BRANCH  38  39
ATOM     39  C   UNL A   1      43.184  24.814  27.387  1.00  0.00     0.031 A 
ATOM     40  C   UNL A   1      42.230  25.780  28.031  1.00  0.00     0.074 A 
ATOM     41  C   UNL A   1      44.428  25.203  27.046  1.00  0.00     0.049 A 
ATOM     42  N   UNL A   1      42.401  27.043  28.318  1.00  0.00    -0.248 NA
ATOM     43  C   UNL A   1      40.895  25.260  28.367  1.00  0.00     0.031 C 
ATOM     44  C   UNL A   1      45.424  24.359  26.383  1.00  0.00     0.029 A 
ATOM     45  N   UNL A   1      45.065  26.409  27.195  1.00  0.00    -0.354 N 
ATOM     46  C   UNL A   1      41.195  27.476  28.860  1.00  0.00     0.074 A 
ATOM     47  C   UNL A   1      40.285  26.351  28.807  1.00  0.00     0.031 C 
ATOM     48  C   UNL A   1      46.549  25.067  26.197  1.00  0.00     0.029 A 
ATOM     49  C   UNL A   1      46.340  26.428  26.680  1.00  0.00     0.049 A 
ATOM     50  H   UNL A   1      44.648  27.188  27.630  1.00  0.00     0.167 HD
ATOM     51  C   UNL A   1      40.886  28.693  29.373  1.00  0.00     0.034 A 
ATOM     52  C   UNL A   1      47.231  27.434  26.586  1.00  0.00     0.034 A 
ATOM     53  C   UNL A   1      41.814  29.798  29.419  1.00  0.00     0.049 A 
ATOM     54  C   UNL A   1      46.850  28.789  27.124  1.00  0.00     0.074 A 
ATOM     55  C   UNL A   1      41.633  31.052  29.974  1.00  0.00     0.029 A 
ATOM     56  N   UNL A   1      43.094  29.785  28.878  1.00  0.00    -0.354 N 
ATOM     57  N   UNL A   1      45.725  29.166  27.689  1.00  0.00    -0.248 NA
ATOM     58  C   UNL A   1      47.857  29.851  27.016  1.00  0.00     0.031 C 
ATOM     59  C   UNL A   1      42.772  31.820  29.704  1.00  0.00     0.029 A 
ATOM     60  C   UNL A   1      43.697  31.022  29.049  1.00  0.00     0.049 A 
ATOM     61  H   UNL A   1      43.511  29.009  28.438  1.00  0.00     0.167 HD
ATOM     62  C   UNL A   1      45.900  30.505  28.022  1.00  0.00     0.074 A 
ATOM     63  C   UNL A   1      47.244  30.862  27.614  1.00  0.00     0.031 C 
ATOM     64  C   UNL A   1      45.031  31.365  28.613  1.00  0.00     0.034 A 
BRANCH  51  65
ATOM     65  C   UNL A   1      39.484  28.894  29.895  1.00  0.00     0.023 A 
ATOM     66  C   UNL A   1      38.462  29.423  29.086  1.00  0.00     0.031 A 
ATOM     67  C   UNL A   1      39.166  28.572  31.227  1.00  0.00     0.131 A 
ATOM     68  C   UNL A   1      37.197  29.683  29.634  1.00  0.00     0.055 A 
ATOM     69  C   UNL A   1      37.882  28.759  31.744  1.00  0.00     0.041 A 
ATOM     70  F   UNL A   1      40.102  28.084  32.055  1.00  0.00    -0.206 F 
ATOM     71  C   UNL A   1      36.892  29.330  30.950  1.00  0.00     0.022 A 
BRANCH  68  72
ATOM     72  S   UNL A   1      35.999  30.615  28.641  1.00  0.00     0.124 S 
ATOM     73  O   UNL A   1      35.214  29.539  28.040  1.00  0.00    -0.237 OA
ATOM     74  O   UNL A   1      35.315  31.421  29.645  1.00  0.00    -0.237 OA
ATOM     75  O   UNL A   1      36.837  31.362  27.705  1.00  0.00    -0.744 OA
ENDBRANCH  68  72
ENDBRANCH  51  65
BRANCH  52  76
ATOM     76  C   UNL A   1      48.556  27.212  25.940  1.00  0.00     0.023 A 
ATOM     77  C   UNL A   1      48.749  27.487  24.576  1.00  0.00     0.031 A 
ATOM     78  C   UNL A   1      49.641  26.691  26.668  1.00  0.00     0.131 A 
ATOM     79  C   UNL A   1      49.983  27.197  23.974  1.00  0.00     0.055 A 
ATOM     80  C   UNL A   1      50.882  26.455  26.075  1.00  0.00     0.041 A 
ATOM     81  F   UNL A   1      49.512  26.417  27.976  1.00  0.00    -0.206 F 
ATOM     82  C   UNL A   1      51.055  26.696  24.717  1.00  0.00     0.022 A 
BRANCH  79  83
ATOM     83  S   UNL A   1      50.142  27.409  22.179  1.00  0.00     0.124 S 
ATOM     84  O   UNL A   1      49.563  28.733  21.984  1.00  0.00    -0.237 OA
ATOM     85  O   UNL A   1      51.584  27.303  21.988  1.00  0.00    -0.237 OA
ATOM     86  O   UNL A   1      49.360  26.300  21.637  1.00  0.00    -0.744 OA
ENDBRANCH  79  83
ENDBRANCH  52  76
BRANCH  64  87
ATOM     87  C   UNL A   1      45.526  32.765  28.871  1.00  0.00     0.023 A 
ATOM     88  C   UNL A   1      45.190  33.832  28.020  1.00  0.00     0.031 A 
ATOM     89  C   UNL A   1      46.354  33.034  29.976  1.00  0.00     0.131 A 
ATOM     90  C   UNL A   1      45.721  35.110  28.258  1.00  0.00     0.055 A 
ATOM     91  C   UNL A   1      46.829  34.319  30.242  1.00  0.00     0.041 A 
ATOM     92  F   UNL A   1      46.710  32.051  30.818  1.00  0.00    -0.206 F 
ATOM     93  C   UNL A   1      46.523  35.363  29.374  1.00  0.00     0.022 A 
BRANCH  90  94
ATOM     94  S   UNL A   1      45.417  36.419  27.041  1.00  0.00     0.124 S 
ATOM     95  O   UNL A   1      46.454  36.157  26.049  1.00  0.00    -0.237 OA
ATOM     96  O   UNL A   1      44.046  36.143  26.619  1.00  0.00    -0.237 OA
ATOM     97  O   UNL A   1      45.590  37.649  27.811  1.00  0.00    -0.744 OA
ENDBRANCH  90  94
ENDBRANCH  64  87
ENDBRANCH  38  39
ENDBRANCH  30  33
ENDBRANCH  28  29
ENDBRANCH   1  28
TORSDOF 18
ENDMDL
MODEL 2
REMARK VINA RESULT:     -11.2      1.827      7.710
REMARK SMILES COC[C@H]1CC[N@@H+]([C@H]2CCC[C@]([NH2+]C(C)C)(C(=O)NCCCNC(=O)c3ccc(-c4c5nc(c(-c6cc(S(=O)(=O)[O-])ccc6F)c6ccc([nH]6)c(-c6cc(S(=O)(=O)[O-])ccc6F)c6nc(c(-c7cc(S(=O)(=O)[O-])ccc7F)c7ccc4[nH]7)C=C6)C=C5)cc3)C2)C1
REMARK SMILES IDX 21 1 20 2 19 3 17 4 18 5 12 7 8 8 9 9 89 10 10 11 11 12 7 13
REMARK SMILES IDX 4 14 5 15 90 16 6 17 3 19 2 20 1 21 13 22 14 25 15 26 16 27
REMARK SMILES IDX 22 28 23 29 24 30 25 32 26 33 27 34 88 35 28 36 87 37 29 38
REMARK SMILES IDX 30 39 31 40 81 41 32 42 86 43 80 44 82 45 33 46 85 47 79 48
REMARK SMILES IDX 78 49 34 51 66 52 46 53 65 54 47 55 50 56 64 57 83 58 48 59
REMARK SMILES IDX 49 60 63 62 84 63 51 64 35 65 36 66 44 67 37 68 43 69 45 70
REMARK SMILES IDX 42 71 38 72 39 73 40 74 41 75 67 76 68 77 76 78 69 79 75 80
REMARK SMILES IDX 77 81 74 82 70 83 71 84 72 85 73 86 52 87 53 88 61 89 54 90
REMARK SMILES IDX 60 91 62 92 59 93 55 94 56 95 57 96 58 97
REMARK H PARENT 19 6 7 18 13 23 13 24 23 31 82 50 50 61
REMARK Flexibility Score: inf
ROOT
ATOM      1  C   UNL A   1      35.983  21.271  25.358  1.00  0.00     0.042 C 
ENDROOT
BRANCH   1   2
ATOM      2  C   UNL A   1      35.678  22.447  26.284  1.00  0.00     0.118 C 
BRANCH   2   3
ATOM      3  N   UNL A   1      34.451  22.214  27.008  1.00  0.00    -0.351 N 
ATOM      4  C   UNL A   1      33.279  22.882  27.085  1.00  0.00     0.281 C 
ATOM      5  O   UNL A   1      32.605  22.575  28.082  1.00  0.00    -0.268 OA
ATOM      6  H   UNL A   1      34.472  21.399  27.561  1.00  0.00     0.163 HD
BRANCH   4   7
ATOM      7  C   UNL A   1      32.722  23.917  26.033  1.00  0.00     0.181 C 
ATOM      8  C   UNL A   1      32.254  26.467  25.443  1.00  0.00     0.190 C 
ATOM      9  C   UNL A   1      30.886  26.382  26.125  1.00  0.00     0.065 C 
ATOM     10  C   UNL A   1      33.151  25.398  26.137  1.00  0.00     0.144 C 
ATOM     11  C   UNL A   1      30.247  25.016  25.997  1.00  0.00     0.013 C 
ATOM     12  C   UNL A   1      31.167  23.817  26.265  1.00  0.00     0.079 C 
BRANCH   8  13
ATOM     13  N   UNL A   1      32.299  26.595  23.964  1.00  0.00    -0.332 N 
ATOM     14  C   UNL A   1      31.397  28.359  22.509  1.00  0.00     0.076 C 
ATOM     15  C   UNL A   1      32.728  28.786  23.105  1.00  0.00     0.073 C 
ATOM     16  C   UNL A   1      31.103  27.038  23.228  1.00  0.00     0.268 C 
ATOM     17  C   UNL A   1      33.386  27.469  23.491  1.00  0.00     0.263 C 
ATOM     18  H   UNL A   1      32.427  25.606  23.750  1.00  0.00     0.348 HD
BRANCH  14  19
ATOM     19  C   UNL A   1      30.276  29.391  22.704  1.00  0.00     0.169 C 
BRANCH  19  20
ATOM     20  O   UNL A   1      29.093  29.025  21.990  1.00  0.00    -0.384 OA
ATOM     21  C   UNL A   1      28.246  30.135  21.742  1.00  0.00     0.194 C 
ENDBRANCH  19  20
ENDBRANCH  14  19
ENDBRANCH   8  13
BRANCH   7  22
ATOM     22  N   UNL A   1      33.113  23.503  24.653  1.00  0.00    -0.331 N 
ATOM     23  H   UNL A   1      34.009  23.026  24.748  1.00  0.00     0.347 HD
ATOM     24  H   UNL A   1      33.054  24.391  24.153  1.00  0.00     0.347 HD
BRANCH  22  25
ATOM     25  C   UNL A   1      32.287  22.643  23.810  1.00  0.00     0.176 C 
ATOM     26  C   UNL A   1      32.764  22.884  22.369  1.00  0.00     0.075 C 
ATOM     27  C   UNL A   1      32.450  21.150  24.111  1.00  0.00     0.075 C 
ENDBRANCH  22  25
ENDBRANCH   7  22
ENDBRANCH   4   7
ENDBRANCH   2   3
ENDBRANCH   1   2
BRANCH   1  28
ATOM     28  C   UNL A   1      37.411  21.301  24.813  1.00  0.00     0.118 C 
BRANCH  28  29
ATOM     29  N   UNL A   1      38.253  20.309  25.468  1.00  0.00    -0.352 N 
ATOM     30  C   UNL A   1      39.483  20.462  26.055  1.00  0.00     0.251 C 
ATOM     31  H   UNL A   1      37.886  19.395  25.492  1.00  0.00     0.163 HD
ATOM     32  O   UNL A   1      40.187  19.479  26.255  1.00  0.00    -0.269 OA
BRANCH  30  33
ATOM     33  C   UNL A   1      39.944  21.811  26.441  1.00  0.00     0.039 A 
ATOM     34  C   UNL A   1      40.948  21.941  27.403  1.00  0.00     0.014 A 
ATOM     35  C   UNL A   1      39.362  22.945  25.866  1.00  0.00     0.014 A 
ATOM     36  C   UNL A   1      41.414  23.213  27.742  1.00  0.00     0.010 A 
ATOM     37  C   UNL A   1      39.873  24.205  26.154  1.00  0.00     0.010 A 
ATOM     38  C   UNL A   1      40.906  24.350  27.093  1.00  0.00    -0.014 A 
BRANCH  38  39
ATOM     39  C   UNL A   1      41.455  25.702  27.362  1.00  0.00     0.031 A 
ATOM     40  C   UNL A   1      42.855  26.045  26.937  1.00  0.00     0.074 A 
ATOM     41  C   UNL A   1      40.716  26.584  28.062  1.00  0.00     0.049 A 
ATOM     42  N   UNL A   1      43.548  27.129  27.169  1.00  0.00    -0.248 NA
ATOM     43  C   UNL A   1      43.582  25.018  26.174  1.00  0.00     0.031 C 
ATOM     44  C   UNL A   1      39.359  26.341  28.558  1.00  0.00     0.029 A 
ATOM     45  N   UNL A   1      41.001  27.854  28.493  1.00  0.00    -0.354 N 
ATOM     46  C   UNL A   1      44.795  26.914  26.593  1.00  0.00     0.074 A 
ATOM     47  C   UNL A   1      44.779  25.572  26.049  1.00  0.00     0.031 C 
ATOM     48  C   UNL A   1      38.926  27.430  29.210  1.00  0.00     0.029 A 
ATOM     49  C   UNL A   1      39.988  28.430  29.224  1.00  0.00     0.049 A 
ATOM     50  H   UNL A   1      41.852  28.310  28.298  1.00  0.00     0.167 HD
ATOM     51  C   UNL A   1      45.846  27.768  26.508  1.00  0.00     0.034 A 
ATOM     52  C   UNL A   1      39.931  29.619  29.854  1.00  0.00     0.034 A 
ATOM     53  C   UNL A   1      45.835  29.103  27.054  1.00  0.00     0.049 A 
ATOM     54  C   UNL A   1      41.127  30.533  29.782  1.00  0.00     0.074 A 
ATOM     55  C   UNL A   1      46.815  30.076  26.970  1.00  0.00     0.029 A 
ATOM     56  N   UNL A   1      44.796  29.650  27.798  1.00  0.00    -0.354 N 
ATOM     57  N   UNL A   1      42.280  30.339  29.180  1.00  0.00    -0.248 NA
ATOM     58  C   UNL A   1      41.016  31.826  30.468  1.00  0.00     0.031 C 
ATOM     59  C   UNL A   1      46.401  31.181  27.723  1.00  0.00     0.029 A 
ATOM     60  C   UNL A   1      45.130  30.930  28.213  1.00  0.00     0.049 A 
ATOM     61  H   UNL A   1      43.947  29.194  27.999  1.00  0.00     0.167 HD
ATOM     62  C   UNL A   1      43.021  31.495  29.400  1.00  0.00     0.074 A 
ATOM     63  C   UNL A   1      42.178  32.388  30.170  1.00  0.00     0.031 C 
ATOM     64  C   UNL A   1      44.283  31.796  29.002  1.00  0.00     0.034 A 
BRANCH  51  65
ATOM     65  C   UNL A   1      47.097  27.267  25.825  1.00  0.00     0.023 A 
ATOM     66  C   UNL A   1      48.089  26.560  26.527  1.00  0.00     0.031 A 
ATOM     67  C   UNL A   1      47.311  27.516  24.458  1.00  0.00     0.131 A 
ATOM     68  C   UNL A   1      49.280  26.194  25.881  1.00  0.00     0.055 A 
ATOM     69  C   UNL A   1      48.463  27.078  23.801  1.00  0.00     0.041 A 
ATOM     70  F   UNL A   1      46.411  28.204  23.739  1.00  0.00    -0.206 F 
ATOM     71  C   UNL A   1      49.462  26.425  24.516  1.00  0.00     0.022 A 
BRANCH  68  72
ATOM     72  S   UNL A   1      50.641  25.535  26.882  1.00  0.00     0.124 S 
ATOM     73  O   UNL A   1      51.025  26.708  27.665  1.00  0.00    -0.237 OA
ATOM     74  O   UNL A   1      49.996  24.457  27.622  1.00  0.00    -0.237 OA
ATOM     75  O   UNL A   1      51.624  25.110  25.887  1.00  0.00    -0.744 OA
ENDBRANCH  68  72
ENDBRANCH  51  65
BRANCH  52  76
ATOM     76  C   UNL A   1      38.717  30.008  30.626  1.00  0.00     0.023 A 
ATOM     77  C   UNL A   1      37.729  30.825  30.054  1.00  0.00     0.031 A 
ATOM     78  C   UNL A   1      38.541  29.595  31.959  1.00  0.00     0.131 A 
ATOM     79  C   UNL A   1      36.633  31.241  30.825  1.00  0.00     0.055 A 
ATOM     80  C   UNL A   1      37.421  29.969  32.705  1.00  0.00     0.041 A 
ATOM     81  F   UNL A   1      39.452  28.808  32.553  1.00  0.00    -0.206 F 
ATOM     82  C   UNL A   1      36.465  30.807  32.142  1.00  0.00     0.022 A 
BRANCH  79  83
ATOM     83  S   UNL A   1      35.466  32.428  30.104  1.00  0.00     0.124 S 
ATOM     84  O   UNL A   1      36.296  33.621  29.980  1.00  0.00    -0.237 OA
ATOM     85  O   UNL A   1      35.097  31.770  28.857  1.00  0.00    -0.237 OA
ATOM     86  O   UNL A   1      34.403  32.509  31.104  1.00  0.00    -0.744 OA
ENDBRANCH  79  83
ENDBRANCH  52  76
BRANCH  64  87
ATOM     87  C   UNL A   1      44.810  33.158  29.377  1.00  0.00     0.023 A 
ATOM     88  C   UNL A   1      44.629  34.272  28.539  1.00  0.00     0.031 A 
ATOM     89  C   UNL A   1      45.510  33.341  30.583  1.00  0.00     0.131 A 
ATOM     90  C   UNL A   1      45.188  35.510  28.895  1.00  0.00     0.055 A 
ATOM     91  C   UNL A   1      46.010  34.589  30.959  1.00  0.00     0.041 A 
ATOM     92  F   UNL A   1      45.714  32.310  31.417  1.00  0.00    -0.206 F 
ATOM     93  C   UNL A   1      45.861  35.679  30.108  1.00  0.00     0.022 A 
BRANCH  90  94
ATOM     94  S   UNL A   1      45.095  36.879  27.709  1.00  0.00     0.124 S 
ATOM     95  O   UNL A   1      46.199  36.572  26.805  1.00  0.00    -0.237 OA
ATOM     96  O   UNL A   1      43.754  36.722  27.153  1.00  0.00    -0.237 OA
ATOM     97  O   UNL A   1      45.284  38.066  28.540  1.00  0.00    -0.744 OA
ENDBRANCH  90  94
ENDBRANCH  64  87
ENDBRANCH  38  39
ENDBRANCH  30  33
ENDBRANCH  28  29
ENDBRANCH   1  28
TORSDOF 18
ENDMDL
MODEL 3
REMARK VINA RESULT:     -11.0      1.293      7.545
REMARK SMILES COC[C@H]1CC[N@@H+]([C@H]2CCC[C@]([NH2+]C(C)C)(C(=O)NCCCNC(=O)c3ccc(-c4c5nc(c(-c6cc(S(=O)(=O)[O-])ccc6F)c6ccc([nH]6)c(-c6cc(S(=O)(=O)[O-])ccc6F)c6nc(c(-c7cc(S(=O)(=O)[O-])ccc7F)c7ccc4[nH]7)C=C6)C=C5)cc3)C2)C1
REMARK SMILES IDX 21 1 20 2 19 3 17 4 18 5 12 7 8 8 9 9 89 10 10 11 11 12 7 13
REMARK SMILES IDX 4 14 5 15 90 16 6 17 3 19 2 20 1 21 13 22 14 25 15 26 16 27
REMARK SMILES IDX 22 28 23 29 24 30 25 32 26 33 27 34 88 35 28 36 87 37 29 38
REMARK SMILES IDX 30 39 31 40 81 41 32 42 86 43 80 44 82 45 33 46 85 47 79 48
REMARK SMILES IDX 78 49 34 51 66 52 46 53 65 54 47 55 50 56 64 57 83 58 48 59
REMARK SMILES IDX 49 60 63 62 84 63 51 64 35 65 36 66 44 67 37 68 43 69 45 70
REMARK SMILES IDX 42 71 38 72 39 73 40 74 41 75 67 76 68 77 76 78 69 79 75 80
REMARK SMILES IDX 77 81 74 82 70 83 71 84 72 85 73 86 52 87 53 88 61 89 54 90
REMARK SMILES IDX 60 91 62 92 59 93 55 94 56 95 57 96 58 97
REMARK H PARENT 19 6 7 18 13 23 13 24 23 31 82 50 50 61
REMARK Flexibility Score: inf
ROOT
ATOM      1  C   UNL A   1      37.837  20.371  25.017  1.00  0.00     0.042 C 
ENDROOT
BRANCH   1   2
ATOM      2  C   UNL A   1      36.592  21.246  24.879  1.00  0.00     0.118 C 
BRANCH   2   3
ATOM      3  N   UNL A   1      35.720  21.066  26.016  1.00  0.00    -0.351 N 
ATOM      4  C   UNL A   1      34.620  21.719  26.453  1.00  0.00     0.281 C 
ATOM      5  O   UNL A   1      34.366  21.501  27.649  1.00  0.00    -0.268 OA
ATOM      6  H   UNL A   1      35.982  20.312  26.593  1.00  0.00     0.163 HD
BRANCH   4   7
ATOM      7  C   UNL A   1      33.669  22.632  25.587  1.00  0.00     0.181 C 
ATOM      8  C   UNL A   1      32.956  25.102  24.911  1.00  0.00     0.190 C 
ATOM      9  C   UNL A   1      31.976  25.149  26.087  1.00  0.00     0.065 C 
ATOM     10  C   UNL A   1      34.075  24.098  25.321  1.00  0.00     0.144 C 
ATOM     11  C   UNL A   1      31.366  23.800  26.400  1.00  0.00     0.013 C 
ATOM     12  C   UNL A   1      32.340  22.613  26.430  1.00  0.00     0.079 C 
BRANCH   8  13
ATOM     13  N   UNL A   1      32.403  25.042  23.534  1.00  0.00    -0.332 N 
ATOM     14  C   UNL A   1      31.408  26.820  22.159  1.00  0.00     0.076 C 
ATOM     15  C   UNL A   1      32.925  26.889  22.105  1.00  0.00     0.073 C 
ATOM     16  C   UNL A   1      31.147  25.741  23.215  1.00  0.00     0.268 C 
ATOM     17  C   UNL A   1      33.360  25.488  22.506  1.00  0.00     0.263 C 
ATOM     18  H   UNL A   1      32.198  24.044  23.517  1.00  0.00     0.348 HD
BRANCH  14  19
ATOM     19  C   UNL A   1      30.744  28.159  22.518  1.00  0.00     0.169 C 
BRANCH  19  20
ATOM     20  O   UNL A   1      31.632  29.009  23.245  1.00  0.00    -0.384 OA
ATOM     21  C   UNL A   1      31.231  29.183  24.595  1.00  0.00     0.194 C 
ENDBRANCH  19  20
ENDBRANCH  14  19
ENDBRANCH   8  13
BRANCH   7  22
ATOM     22  N   UNL A   1      33.484  22.036  24.231  1.00  0.00    -0.331 N 
ATOM     23  H   UNL A   1      34.320  21.478  24.054  1.00  0.00     0.347 HD
ATOM     24  H   UNL A   1      33.294  22.867  23.671  1.00  0.00     0.347 HD
BRANCH  22  25
ATOM     25  C   UNL A   1      32.351  21.184  23.878  1.00  0.00     0.176 C 
ATOM     26  C   UNL A   1      32.056  21.471  22.396  1.00  0.00     0.075 C 
ATOM     27  C   UNL A   1      32.643  19.687  24.013  1.00  0.00     0.075 C 
ENDBRANCH  22  25
ENDBRANCH   7  22
ENDBRANCH   4   7
ENDBRANCH   2   3
ENDBRANCH   1   2
BRANCH   1  28
ATOM     28  C   UNL A   1      38.936  21.033  25.850  1.00  0.00     0.118 C 
BRANCH  28  29
ATOM     29  N   UNL A   1      40.025  20.107  26.127  1.00  0.00    -0.352 N 
ATOM     30  C   UNL A   1      41.358  20.365  26.325  1.00  0.00     0.251 C 
ATOM     31  H   UNL A   1      39.768  19.158  26.181  1.00  0.00     0.163 HD
ATOM     32  O   UNL A   1      42.176  19.459  26.213  1.00  0.00    -0.269 OA
BRANCH  30  33
ATOM     33  C   UNL A   1      41.792  21.734  26.672  1.00  0.00     0.039 A 
ATOM     34  C   UNL A   1      42.121  22.626  25.649  1.00  0.00     0.014 A 
ATOM     35  C   UNL A   1      41.896  22.121  28.011  1.00  0.00     0.014 A 
ATOM     36  C   UNL A   1      42.493  23.932  25.971  1.00  0.00     0.010 A 
ATOM     37  C   UNL A   1      42.201  23.440  28.327  1.00  0.00     0.010 A 
ATOM     38  C   UNL A   1      42.500  24.359  27.309  1.00  0.00    -0.014 A 
BRANCH  38  39
ATOM     39  C   UNL A   1      42.794  25.767  27.669  1.00  0.00     0.031 A 
ATOM     40  C   UNL A   1      44.206  26.278  27.625  1.00  0.00     0.074 A 
ATOM     41  C   UNL A   1      41.794  26.553  28.115  1.00  0.00     0.049 A 
ATOM     42  N   UNL A   1      44.678  27.439  27.998  1.00  0.00    -0.248 NA
ATOM     43  C   UNL A   1      45.227  25.347  27.120  1.00  0.00     0.031 C 
ATOM     44  C   UNL A   1      40.392  26.146  28.236  1.00  0.00     0.029 A 
ATOM     45  N   UNL A   1      41.802  27.849  28.565  1.00  0.00    -0.354 N 
ATOM     46  C   UNL A   1      46.051  27.378  27.785  1.00  0.00     0.074 A 
ATOM     47  C   UNL A   1      46.340  26.043  27.303  1.00  0.00     0.031 C 
ATOM     48  C   UNL A   1      39.674  27.175  28.711  1.00  0.00     0.029 A 
ATOM     49  C   UNL A   1      40.569  28.297  28.977  1.00  0.00     0.049 A 
ATOM     50  H   UNL A   1      42.614  28.405  28.590  1.00  0.00     0.167 HD
ATOM     51  C   UNL A   1      46.978  28.353  27.957  1.00  0.00     0.034 A 
ATOM     52  C   UNL A   1      40.204  29.471  29.528  1.00  0.00     0.034 A 
ATOM     53  C   UNL A   1      46.663  29.678  28.435  1.00  0.00     0.049 A 
ATOM     54  C   UNL A   1      41.259  30.524  29.749  1.00  0.00     0.074 A 
ATOM     55  C   UNL A   1      47.508  30.762  28.585  1.00  0.00     0.029 A 
ATOM     56  N   UNL A   1      45.405  30.094  28.854  1.00  0.00    -0.354 N 
ATOM     57  N   UNL A   1      42.546  30.471  29.486  1.00  0.00    -0.248 NA
ATOM     58  C   UNL A   1      40.815  31.794  30.336  1.00  0.00     0.031 C 
ATOM     59  C   UNL A   1      46.779  31.810  29.161  1.00  0.00     0.029 A 
ATOM     60  C   UNL A   1      45.461  31.406  29.300  1.00  0.00     0.049 A 
ATOM     61  H   UNL A   1      44.593  29.538  28.835  1.00  0.00     0.167 HD
ATOM     62  C   UNL A   1      43.059  31.710  29.857  1.00  0.00     0.074 A 
ATOM     63  C   UNL A   1      41.940  32.493  30.342  1.00  0.00     0.031 C 
ATOM     64  C   UNL A   1      44.337  32.162  29.802  1.00  0.00     0.034 A 
BRANCH  51  65
ATOM     65  C   UNL A   1      48.417  28.008  27.652  1.00  0.00     0.023 A 
ATOM     66  C   UNL A   1      48.973  28.215  26.378  1.00  0.00     0.031 A 
ATOM     67  C   UNL A   1      49.239  27.443  28.644  1.00  0.00     0.131 A 
ATOM     68  C   UNL A   1      50.284  27.795  26.107  1.00  0.00     0.055 A 
ATOM     69  C   UNL A   1      50.570  27.101  28.390  1.00  0.00     0.041 A 
ATOM     70  F   UNL A   1      48.760  27.202  29.874  1.00  0.00    -0.206 F 
ATOM     71  C   UNL A   1      51.095  27.263  27.112  1.00  0.00     0.022 A 
BRANCH  68  72
ATOM     72  S   UNL A   1      50.866  27.826  24.390  1.00  0.00     0.124 S 
ATOM     73  O   UNL A   1      51.833  28.921  24.427  1.00  0.00    -0.237 OA
ATOM     74  O   UNL A   1      51.421  26.489  24.220  1.00  0.00    -0.237 OA
ATOM     75  O   UNL A   1      49.653  28.102  23.622  1.00  0.00    -0.744 OA
ENDBRANCH  68  72
ENDBRANCH  51  65
BRANCH  52  76
ATOM     76  C   UNL A   1      38.789  29.709  29.932  1.00  0.00     0.023 A 
ATOM     77  C   UNL A   1      37.906  30.406  29.091  1.00  0.00     0.031 A 
ATOM     78  C   UNL A   1      38.306  29.272  31.179  1.00  0.00     0.131 A 
ATOM     79  C   UNL A   1      36.601  30.684  29.526  1.00  0.00     0.055 A 
ATOM     80  C   UNL A   1      36.991  29.506  31.584  1.00  0.00     0.041 A 
ATOM     81  F   UNL A   1      39.107  28.596  32.019  1.00  0.00    -0.206 F 
ATOM     82  C   UNL A   1      36.134  30.228  30.760  1.00  0.00     0.022 A 
BRANCH  79  83
ATOM     83  S   UNL A   1      35.545  31.728  28.484  1.00  0.00     0.124 S 
ATOM     84  O   UNL A   1      35.114  30.785  27.459  1.00  0.00    -0.237 OA
ATOM     85  O   UNL A   1      34.523  32.162  29.429  1.00  0.00    -0.237 OA
ATOM     86  O   UNL A   1      36.453  32.777  28.025  1.00  0.00    -0.744 OA
ENDBRANCH  79  83
ENDBRANCH  52  76
BRANCH  64  87
ATOM     87  C   UNL A   1      44.579  33.578  30.259  1.00  0.00     0.023 A 
ATOM     88  C   UNL A   1      44.419  34.669  29.388  1.00  0.00     0.031 A 
ATOM     89  C   UNL A   1      44.985  33.839  31.581  1.00  0.00     0.131 A 
ATOM     90  C   UNL A   1      44.713  35.968  29.833  1.00  0.00     0.055 A 
ATOM     91  C   UNL A   1      45.217  35.138  32.035  1.00  0.00     0.041 A 
ATOM     92  F   UNL A   1      45.157  32.833  32.453  1.00  0.00    -0.206 F 
ATOM     93  C   UNL A   1      45.093  36.210  31.156  1.00  0.00     0.022 A 
BRANCH  90  94
ATOM     94  S   UNL A   1      44.674  37.328  28.635  1.00  0.00     0.124 S 
ATOM     95  O   UNL A   1      44.467  36.617  27.377  1.00  0.00    -0.237 OA
ATOM     96  O   UNL A   1      43.548  38.129  29.107  1.00  0.00    -0.237 OA
ATOM     97  O   UNL A   1      45.985  37.956  28.785  1.00  0.00    -0.744 OA
ENDBRANCH  90  94
ENDBRANCH  64  87
ENDBRANCH  38  39
ENDBRANCH  30  33
ENDBRANCH  28  29
ENDBRANCH   1  28
TORSDOF 18
ENDMDL
