MODEL 1
REMARK VINA RESULT:     -13.4      0.000      0.000
REMARK SMILES C/C(=N\NC(N)=O)c1nnn(-c2ccc(C(=O)NCCCNC(=O)c3ccc(-c4c5nc(c(-c6cc(S(=O)(=O)[O-])ccc6F)c6ccc([nH]6)c(-c6cc(S(=O)(=O)[O-])ccc6F)c6nc(c(-c7cc(S(=O)(=O)[O-])ccc7F)c7ccc4[nH]7)C=C6)C=C5)cc3)cc2)c1C
REMARK SMILES IDX 20 1 19 2 18 3 16 4 17 5 15 7 12 8 13 9 89 10 14 11 88 12
REMARK SMILES IDX 11 13 8 14 9 15 90 16 10 17 91 18 2 19 1 20 3 21 4 22 5 23
REMARK SMILES IDX 6 25 7 26 21 29 22 30 23 31 24 33 25 34 26 35 87 36 27 37
REMARK SMILES IDX 86 38 28 39 29 40 30 41 80 42 31 43 85 44 79 45 81 46 32 47
REMARK SMILES IDX 84 48 78 49 77 50 33 52 65 53 45 54 64 55 46 56 49 57 63 58
REMARK SMILES IDX 82 59 47 60 48 61 62 63 83 64 50 65 34 66 35 67 43 68 36 69
REMARK SMILES IDX 42 70 44 71 41 72 37 73 38 74 39 75 40 76 66 77 67 78 75 79
REMARK SMILES IDX 68 80 74 81 76 82 73 83 69 84 70 85 71 86 72 87 51 88 52 89
REMARK SMILES IDX 60 90 53 91 59 92 61 93 58 94 54 95 55 96 56 97 57 98
REMARK H PARENT 18 6 4 24 6 27 6 28 22 32 81 51 49 62
REMARK Flexibility Score: inf
ROOT
ATOM      1  C   UNL A   1      34.486  30.250  26.893  1.00  0.00     0.042 C 
ENDROOT
BRANCH   1   2
ATOM      2  C   UNL A   1      33.001  30.133  27.273  1.00  0.00     0.118 C 
BRANCH   2   3
ATOM      3  N   UNL A   1      32.120  30.261  26.118  1.00  0.00    -0.352 N 
ATOM      4  C   UNL A   1      31.570  29.330  25.266  1.00  0.00     0.251 C 
ATOM      5  O   UNL A   1      30.739  29.712  24.443  1.00  0.00    -0.269 OA
ATOM      6  H   UNL A   1      31.872  31.190  25.907  1.00  0.00     0.163 HD
BRANCH   4   7
ATOM      7  C   UNL A   1      31.888  27.875  25.341  1.00  0.00     0.039 A 
ATOM      8  C   UNL A   1      32.480  25.157  25.158  1.00  0.00     0.067 A 
ATOM      9  C   UNL A   1      33.482  26.085  24.874  1.00  0.00     0.029 A 
ATOM     10  C   UNL A   1      31.244  25.563  25.653  1.00  0.00     0.029 A 
ATOM     11  C   UNL A   1      33.168  27.449  24.942  1.00  0.00     0.016 A 
ATOM     12  C   UNL A   1      30.977  26.917  25.785  1.00  0.00     0.016 A 
BRANCH   8  13
ATOM     13  N   UNL A   1      32.647  23.804  24.832  1.00  0.00    -0.217 N 
ATOM     14  C   UNL A   1      33.203  21.706  24.824  1.00  0.00     0.132 A 
ATOM     15  N   UNL A   1      32.508  21.984  23.675  1.00  0.00    -0.128 NA
ATOM     16  C   UNL A   1      33.289  22.846  25.597  1.00  0.00     0.071 A 
ATOM     17  N   UNL A   1      32.103  23.247  23.732  1.00  0.00    -0.061 NA
ATOM     18  C   UNL A   1      33.772  23.063  26.984  1.00  0.00     0.069 C 
BRANCH  14  19
ATOM     19  C   UNL A   1      33.567  20.355  25.213  1.00  0.00     0.087 C 
ATOM     20  C   UNL A   1      34.981  19.950  24.894  1.00  0.00     0.071 C 
ATOM     21  N   UNL A   1      32.639  19.675  25.820  1.00  0.00    -0.174 NA
BRANCH  21  22
ATOM     22  N   UNL A   1      32.807  18.382  26.231  1.00  0.00    -0.229 N 
ATOM     23  C   UNL A   1      32.660  17.232  25.490  1.00  0.00     0.332 C 
ATOM     24  H   UNL A   1      33.065  18.259  27.174  1.00  0.00     0.195 HD
ATOM     25  N   UNL A   1      32.939  16.110  26.213  1.00  0.00    -0.350 N 
ATOM     26  O   UNL A   1      32.337  17.131  24.315  1.00  0.00    -0.247 OA
ATOM     27  H   UNL A   1      33.199  16.186  27.160  1.00  0.00     0.161 HD
ATOM     28  H   UNL A   1      32.880  15.223  25.789  1.00  0.00     0.161 HD
ENDBRANCH  21  22
ENDBRANCH  14  19
ENDBRANCH   8  13
ENDBRANCH   4   7
ENDBRANCH   2   3
ENDBRANCH   1   2
BRANCH   1  29
ATOM     29  C   UNL A   1      35.374  29.343  27.722  1.00  0.00     0.118 C 
BRANCH  29  30
ATOM     30  N   UNL A   1      35.545  29.827  29.092  1.00  0.00    -0.352 N 
ATOM     31  C   UNL A   1      36.551  29.504  29.991  1.00  0.00     0.251 C 
ATOM     32  H   UNL A   1      34.863  30.459  29.416  1.00  0.00     0.163 HD
ATOM     33  O   UNL A   1      36.378  29.644  31.187  1.00  0.00    -0.269 OA
BRANCH  31  34
ATOM     34  C   UNL A   1      37.825  28.987  29.452  1.00  0.00     0.039 A 
ATOM     35  C   UNL A   1      38.460  29.569  28.352  1.00  0.00     0.014 A 
ATOM     36  C   UNL A   1      38.405  27.910  30.117  1.00  0.00     0.014 A 
ATOM     37  C   UNL A   1      39.724  29.102  27.989  1.00  0.00     0.010 A 
ATOM     38  C   UNL A   1      39.717  27.599  29.892  1.00  0.00     0.010 A 
ATOM     39  C   UNL A   1      40.354  28.127  28.780  1.00  0.00    -0.014 A 
BRANCH  39  40
ATOM     40  C   UNL A   1      41.744  27.733  28.568  1.00  0.00     0.031 A 
ATOM     41  C   UNL A   1      41.877  26.455  27.825  1.00  0.00     0.074 A 
ATOM     42  C   UNL A   1      42.790  28.563  28.783  1.00  0.00     0.049 A 
ATOM     43  N   UNL A   1      42.195  25.298  28.301  1.00  0.00    -0.248 NA
ATOM     44  C   UNL A   1      41.390  26.403  26.434  1.00  0.00     0.031 C 
ATOM     45  C   UNL A   1      42.759  29.970  29.208  1.00  0.00     0.029 A 
ATOM     46  N   UNL A   1      44.118  28.360  28.566  1.00  0.00    -0.354 N 
ATOM     47  C   UNL A   1      42.248  24.446  27.204  1.00  0.00     0.074 A 
ATOM     48  C   UNL A   1      41.485  25.096  26.176  1.00  0.00     0.031 C 
ATOM     49  C   UNL A   1      43.965  30.543  28.995  1.00  0.00     0.029 A 
ATOM     50  C   UNL A   1      44.906  29.514  28.591  1.00  0.00     0.049 A 
ATOM     51  H   UNL A   1      44.496  27.465  28.402  1.00  0.00     0.167 HD
ATOM     52  C   UNL A   1      43.177  23.450  27.145  1.00  0.00     0.034 A 
ATOM     53  C   UNL A   1      46.233  29.619  28.301  1.00  0.00     0.034 A 
ATOM     54  C   UNL A   1      43.765  23.232  28.452  1.00  0.00     0.049 A 
ATOM     55  C   UNL A   1      46.800  28.259  28.463  1.00  0.00     0.074 A 
ATOM     56  C   UNL A   1      43.271  22.903  29.700  1.00  0.00     0.029 A 
ATOM     57  N   UNL A   1      45.016  23.765  28.681  1.00  0.00    -0.354 N 
ATOM     58  N   UNL A   1      46.836  27.632  29.607  1.00  0.00    -0.248 NA
ATOM     59  C   UNL A   1      46.860  27.405  27.287  1.00  0.00     0.031 C 
ATOM     60  C   UNL A   1      44.021  23.702  30.616  1.00  0.00     0.029 A 
ATOM     61  C   UNL A   1      45.000  24.396  29.901  1.00  0.00     0.049 A 
ATOM     62  H   UNL A   1      45.788  23.703  28.075  1.00  0.00     0.167 HD
ATOM     63  C   UNL A   1      46.466  26.328  29.311  1.00  0.00     0.074 A 
ATOM     64  C   UNL A   1      46.596  26.224  27.857  1.00  0.00     0.031 C 
ATOM     65  C   UNL A   1      45.815  25.555  30.231  1.00  0.00     0.034 A 
BRANCH  52  66
ATOM     66  C   UNL A   1      43.867  22.980  25.875  1.00  0.00     0.023 A 
ATOM     67  C   UNL A   1      43.927  21.588  25.666  1.00  0.00     0.031 A 
ATOM     68  C   UNL A   1      44.697  23.755  25.031  1.00  0.00     0.131 A 
ATOM     69  C   UNL A   1      44.857  21.026  24.776  1.00  0.00     0.055 A 
ATOM     70  C   UNL A   1      45.576  23.192  24.099  1.00  0.00     0.041 A 
ATOM     71  F   UNL A   1      44.780  25.086  25.103  1.00  0.00    -0.206 F 
ATOM     72  C   UNL A   1      45.687  21.818  23.993  1.00  0.00     0.022 A 
BRANCH  69  73
ATOM     73  S   UNL A   1      45.084  19.230  24.799  1.00  0.00     0.124 S 
ATOM     74  O   UNL A   1      44.928  18.901  23.387  1.00  0.00    -0.237 OA
ATOM     75  O   UNL A   1      46.431  19.108  25.347  1.00  0.00    -0.237 OA
ATOM     76  O   UNL A   1      44.011  18.766  25.674  1.00  0.00    -0.744 OA
ENDBRANCH  69  73
ENDBRANCH  52  66
BRANCH  53  77
ATOM     77  C   UNL A   1      46.934  30.713  27.562  1.00  0.00     0.023 A 
ATOM     78  C   UNL A   1      46.260  31.790  26.938  1.00  0.00     0.031 A 
ATOM     79  C   UNL A   1      48.335  30.845  27.699  1.00  0.00     0.131 A 
ATOM     80  C   UNL A   1      46.981  32.929  26.494  1.00  0.00     0.055 A 
ATOM     81  C   UNL A   1      49.038  31.973  27.267  1.00  0.00     0.041 A 
ATOM     82  F   UNL A   1      49.057  29.915  28.344  1.00  0.00    -0.206 F 
ATOM     83  C   UNL A   1      48.363  33.025  26.671  1.00  0.00     0.022 A 
BRANCH  80  84
ATOM     84  S   UNL A   1      46.120  34.356  25.742  1.00  0.00     0.124 S 
ATOM     85  O   UNL A   1      45.631  35.076  26.912  1.00  0.00    -0.237 OA
ATOM     86  O   UNL A   1      47.184  34.999  24.981  1.00  0.00    -0.237 OA
ATOM     87  O   UNL A   1      45.075  33.736  24.925  1.00  0.00    -0.744 OA
ENDBRANCH  80  84
ENDBRANCH  53  77
BRANCH  65  88
ATOM     88  C   UNL A   1      45.802  26.018  31.678  1.00  0.00     0.023 A 
ATOM     89  C   UNL A   1      44.710  26.624  32.346  1.00  0.00     0.031 A 
ATOM     90  C   UNL A   1      46.947  25.729  32.442  1.00  0.00     0.131 A 
ATOM     91  C   UNL A   1      44.802  26.923  33.723  1.00  0.00     0.055 A 
ATOM     92  C   UNL A   1      47.026  26.004  33.805  1.00  0.00     0.041 A 
ATOM     93  F   UNL A   1      48.012  25.137  31.873  1.00  0.00    -0.206 F 
ATOM     94  C   UNL A   1      45.954  26.609  34.450  1.00  0.00     0.022 A 
BRANCH  91  95
ATOM     95  S   UNL A   1      43.436  27.755  34.601  1.00  0.00     0.124 S 
ATOM     96  O   UNL A   1      43.761  27.557  36.008  1.00  0.00    -0.237 OA
ATOM     97  O   UNL A   1      43.530  29.128  34.109  1.00  0.00    -0.237 OA
ATOM     98  O   UNL A   1      42.247  27.031  34.145  1.00  0.00    -0.744 OA
ENDBRANCH  91  95
ENDBRANCH  65  88
ENDBRANCH  39  40
ENDBRANCH  31  34
ENDBRANCH  29  30
ENDBRANCH   1  29
TORSDOF 16
ENDMDL
MODEL 2
REMARK VINA RESULT:     -13.2      4.247      5.582
REMARK SMILES C/C(=N\NC(N)=O)c1nnn(-c2ccc(C(=O)NCCCNC(=O)c3ccc(-c4c5nc(c(-c6cc(S(=O)(=O)[O-])ccc6F)c6ccc([nH]6)c(-c6cc(S(=O)(=O)[O-])ccc6F)c6nc(c(-c7cc(S(=O)(=O)[O-])ccc7F)c7ccc4[nH]7)C=C6)C=C5)cc3)cc2)c1C
REMARK SMILES IDX 20 1 19 2 18 3 16 4 17 5 15 7 12 8 13 9 89 10 14 11 88 12
REMARK SMILES IDX 11 13 8 14 9 15 90 16 10 17 91 18 2 19 1 20 3 21 4 22 5 23
REMARK SMILES IDX 6 25 7 26 21 29 22 30 23 31 24 33 25 34 26 35 87 36 27 37
REMARK SMILES IDX 86 38 28 39 29 40 30 41 80 42 31 43 85 44 79 45 81 46 32 47
REMARK SMILES IDX 84 48 78 49 77 50 33 52 65 53 45 54 64 55 46 56 49 57 63 58
REMARK SMILES IDX 82 59 47 60 48 61 62 63 83 64 50 65 34 66 35 67 43 68 36 69
REMARK SMILES IDX 42 70 44 71 41 72 37 73 38 74 39 75 40 76 66 77 67 78 75 79
REMARK SMILES IDX 68 80 74 81 76 82 73 83 69 84 70 85 71 86 72 87 51 88 52 89
REMARK SMILES IDX 60 90 53 91 59 92 61 93 58 94 54 95 55 96 56 97 57 98
REMARK H PARENT 18 6 4 24 6 27 6 28 22 32 81 51 49 62
REMARK Flexibility Score: inf
ROOT
ATOM      1  C   UNL A   1      31.529  31.520  26.665  1.00  0.00     0.042 C 
ENDROOT
BRANCH   1   2
ATOM      2  C   UNL A   1      31.866  30.261  25.851  1.00  0.00     0.118 C 
BRANCH   2   3
ATOM      3  N   UNL A   1      31.125  30.193  24.597  1.00  0.00    -0.352 N 
ATOM      4  C   UNL A   1      30.764  29.137  23.791  1.00  0.00     0.251 C 
ATOM      5  O   UNL A   1      30.010  29.357  22.844  1.00  0.00    -0.269 OA
ATOM      6  H   UNL A   1      30.827  31.069  24.262  1.00  0.00     0.163 HD
BRANCH   4   7
ATOM      7  C   UNL A   1      31.191  27.733  24.056  1.00  0.00     0.039 A 
ATOM      8  C   UNL A   1      31.979  25.064  24.230  1.00  0.00     0.067 A 
ATOM      9  C   UNL A   1      32.900  26.011  23.783  1.00  0.00     0.029 A 
ATOM     10  C   UNL A   1      30.730  25.449  24.710  1.00  0.00     0.029 A 
ATOM     11  C   UNL A   1      32.488  27.345  23.672  1.00  0.00     0.016 A 
ATOM     12  C   UNL A   1      30.366  26.786  24.663  1.00  0.00     0.016 A 
BRANCH   8  13
ATOM     13  N   UNL A   1      32.238  23.694  24.089  1.00  0.00    -0.217 N 
ATOM     14  C   UNL A   1      32.936  21.657  24.360  1.00  0.00     0.132 A 
ATOM     15  N   UNL A   1      32.221  21.728  23.192  1.00  0.00    -0.128 NA
ATOM     16  C   UNL A   1      32.945  22.895  24.970  1.00  0.00     0.071 A 
ATOM     17  N   UNL A   1      31.731  22.957  23.082  1.00  0.00    -0.061 NA
ATOM     18  C   UNL A   1      33.416  23.331  26.308  1.00  0.00     0.069 C 
BRANCH  14  19
ATOM     19  C   UNL A   1      33.392  20.400  24.925  1.00  0.00     0.087 C 
ATOM     20  C   UNL A   1      34.884  20.196  24.928  1.00  0.00     0.071 C 
ATOM     21  N   UNL A   1      32.461  19.620  25.390  1.00  0.00    -0.174 NA
BRANCH  21  22
ATOM     22  N   UNL A   1      32.714  18.391  25.932  1.00  0.00    -0.229 N 
ATOM     23  C   UNL A   1      32.863  17.190  25.277  1.00  0.00     0.332 C 
ATOM     24  H   UNL A   1      32.802  18.362  26.913  1.00  0.00     0.195 HD
ATOM     25  N   UNL A   1      33.143  16.165  26.131  1.00  0.00    -0.350 N 
ATOM     26  O   UNL A   1      32.785  16.975  24.076  1.00  0.00    -0.247 OA
ATOM     27  H   UNL A   1      33.206  16.334  27.099  1.00  0.00     0.161 HD
ATOM     28  H   UNL A   1      33.282  15.256  25.780  1.00  0.00     0.161 HD
ENDBRANCH  21  22
ENDBRANCH  14  19
ENDBRANCH   8  13
ENDBRANCH   4   7
ENDBRANCH   2   3
ENDBRANCH   1   2
BRANCH   1  29
ATOM     29  C   UNL A   1      32.763  32.218  27.201  1.00  0.00     0.118 C 
BRANCH  29  30
ATOM     30  N   UNL A   1      32.508  33.616  27.552  1.00  0.00    -0.352 N 
ATOM     31  C   UNL A   1      33.115  34.368  28.546  1.00  0.00     0.251 C 
ATOM     32  H   UNL A   1      31.822  34.078  27.017  1.00  0.00     0.163 HD
ATOM     33  O   UNL A   1      32.562  35.355  28.996  1.00  0.00    -0.269 OA
BRANCH  31  34
ATOM     34  C   UNL A   1      34.438  33.936  29.038  1.00  0.00     0.039 A 
ATOM     35  C   UNL A   1      34.591  33.201  30.216  1.00  0.00     0.014 A 
ATOM     36  C   UNL A   1      35.542  34.251  28.251  1.00  0.00     0.014 A 
ATOM     37  C   UNL A   1      35.861  32.720  30.541  1.00  0.00     0.010 A 
ATOM     38  C   UNL A   1      36.730  33.610  28.459  1.00  0.00     0.010 A 
ATOM     39  C   UNL A   1      36.923  32.913  29.642  1.00  0.00    -0.014 A 
BRANCH  39  40
ATOM     40  C   UNL A   1      38.224  32.278  29.828  1.00  0.00     0.031 A 
ATOM     41  C   UNL A   1      38.247  30.861  29.388  1.00  0.00     0.074 A 
ATOM     42  C   UNL A   1      39.351  32.970  30.116  1.00  0.00     0.049 A 
ATOM     43  N   UNL A   1      38.238  29.806  30.132  1.00  0.00    -0.248 NA
ATOM     44  C   UNL A   1      38.032  30.572  27.957  1.00  0.00     0.031 C 
ATOM     45  C   UNL A   1      39.513  34.424  30.252  1.00  0.00     0.029 A 
ATOM     46  N   UNL A   1      40.632  32.527  30.247  1.00  0.00    -0.354 N 
ATOM     47  C   UNL A   1      38.333  28.731  29.254  1.00  0.00     0.074 A 
ATOM     48  C   UNL A   1      37.920  29.241  27.977  1.00  0.00     0.031 C 
ATOM     49  C   UNL A   1      40.825  34.748  30.213  1.00  0.00     0.029 A 
ATOM     50  C   UNL A   1      41.608  33.526  30.233  1.00  0.00     0.049 A 
ATOM     51  H   UNL A   1      40.853  31.572  30.344  1.00  0.00     0.167 HD
ATOM     52  C   UNL A   1      39.045  27.621  29.595  1.00  0.00     0.034 A 
ATOM     53  C   UNL A   1      42.961  33.364  30.237  1.00  0.00     0.034 A 
ATOM     54  C   UNL A   1      39.320  27.616  31.019  1.00  0.00     0.049 A 
ATOM     55  C   UNL A   1      43.213  32.006  30.775  1.00  0.00     0.074 A 
ATOM     56  C   UNL A   1      38.544  27.653  32.161  1.00  0.00     0.029 A 
ATOM     57  N   UNL A   1      40.584  27.994  31.421  1.00  0.00    -0.354 N 
ATOM     58  N   UNL A   1      42.908  31.653  31.994  1.00  0.00    -0.248 NA
ATOM     59  C   UNL A   1      43.328  30.911  29.825  1.00  0.00     0.031 C 
ATOM     60  C   UNL A   1      39.246  28.515  33.056  1.00  0.00     0.029 A 
ATOM     61  C   UNL A   1      40.459  28.877  32.465  1.00  0.00     0.049 A 
ATOM     62  H   UNL A   1      41.430  27.683  31.028  1.00  0.00     0.167 HD
ATOM     63  C   UNL A   1      42.356  30.386  31.872  1.00  0.00     0.074 A 
ATOM     64  C   UNL A   1      42.737  29.941  30.531  1.00  0.00     0.031 C 
ATOM     65  C   UNL A   1      41.404  29.945  32.749  1.00  0.00     0.034 A 
BRANCH  52  66
ATOM     66  C   UNL A   1      39.860  26.780  28.625  1.00  0.00     0.023 A 
ATOM     67  C   UNL A   1      40.979  27.402  28.036  1.00  0.00     0.031 A 
ATOM     68  C   UNL A   1      39.466  25.557  28.034  1.00  0.00     0.131 A 
ATOM     69  C   UNL A   1      41.556  26.895  26.860  1.00  0.00     0.055 A 
ATOM     70  C   UNL A   1      40.087  25.023  26.900  1.00  0.00     0.041 A 
ATOM     71  F   UNL A   1      38.418  24.843  28.453  1.00  0.00    -0.206 F 
ATOM     72  C   UNL A   1      41.114  25.711  26.283  1.00  0.00     0.022 A 
BRANCH  69  73
ATOM     73  S   UNL A   1      42.777  27.917  25.998  1.00  0.00     0.124 S 
ATOM     74  O   UNL A   1      43.993  27.133  26.183  1.00  0.00    -0.237 OA
ATOM     75  O   UNL A   1      42.232  27.955  24.645  1.00  0.00    -0.237 OA
ATOM     76  O   UNL A   1      42.730  29.183  26.725  1.00  0.00    -0.744 OA
ENDBRANCH  69  73
ENDBRANCH  52  66
BRANCH  53  77
ATOM     77  C   UNL A   1      43.989  34.147  29.485  1.00  0.00     0.023 A 
ATOM     78  C   UNL A   1      44.539  33.728  28.250  1.00  0.00     0.031 A 
ATOM     79  C   UNL A   1      44.246  35.484  29.865  1.00  0.00     0.131 A 
ATOM     80  C   UNL A   1      45.295  34.630  27.457  1.00  0.00     0.055 A 
ATOM     81  C   UNL A   1      44.984  36.370  29.076  1.00  0.00     0.041 A 
ATOM     82  F   UNL A   1      43.706  36.002  30.979  1.00  0.00    -0.206 F 
ATOM     83  C   UNL A   1      45.505  35.950  27.862  1.00  0.00     0.022 A 
BRANCH  80  84
ATOM     84  S   UNL A   1      45.961  34.126  25.831  1.00  0.00     0.124 S 
ATOM     85  O   UNL A   1      47.172  33.403  26.201  1.00  0.00    -0.237 OA
ATOM     86  O   UNL A   1      44.872  33.330  25.278  1.00  0.00    -0.237 OA
ATOM     87  O   UNL A   1      46.194  35.399  25.146  1.00  0.00    -0.744 OA
ENDBRANCH  80  84
ENDBRANCH  53  77
BRANCH  65  88
ATOM     88  C   UNL A   1      41.206  30.718  34.042  1.00  0.00     0.023 A 
ATOM     89  C   UNL A   1      40.284  31.772  34.246  1.00  0.00     0.031 A 
ATOM     90  C   UNL A   1      41.941  30.276  35.158  1.00  0.00     0.131 A 
ATOM     91  C   UNL A   1      40.137  32.344  35.528  1.00  0.00     0.055 A 
ATOM     92  C   UNL A   1      41.776  30.827  36.426  1.00  0.00     0.041 A 
ATOM     93  F   UNL A   1      42.819  29.265  35.036  1.00  0.00    -0.206 F 
ATOM     94  C   UNL A   1      40.877  31.869  36.615  1.00  0.00     0.022 A 
BRANCH  91  95
ATOM     95  S   UNL A   1      38.999  33.742  35.813  1.00  0.00     0.124 S 
ATOM     96  O   UNL A   1      39.183  34.580  34.634  1.00  0.00    -0.237 OA
ATOM     97  O   UNL A   1      37.704  33.078  35.932  1.00  0.00    -0.237 OA
ATOM     98  O   UNL A   1      39.491  34.333  37.060  1.00  0.00    -0.744 OA
ENDBRANCH  91  95
ENDBRANCH  65  88
ENDBRANCH  39  40
ENDBRANCH  31  34
ENDBRANCH  29  30
ENDBRANCH   1  29
TORSDOF 16
ENDMDL
MODEL 3
REMARK VINA RESULT:     -13.2      3.154      8.967
REMARK SMILES C/C(=N\NC(N)=O)c1nnn(-c2ccc(C(=O)NCCCNC(=O)c3ccc(-c4c5nc(c(-c6cc(S(=O)(=O)[O-])ccc6F)c6ccc([nH]6)c(-c6cc(S(=O)(=O)[O-])ccc6F)c6nc(c(-c7cc(S(=O)(=O)[O-])ccc7F)c7ccc4[nH]7)C=C6)C=C5)cc3)cc2)c1C
REMARK SMILES IDX 20 1 19 2 18 3 16 4 17 5 15 7 12 8 13 9 89 10 14 11 88 12
REMARK SMILES IDX 11 13 8 14 9 15 90 16 10 17 91 18 2 19 1 20 3 21 4 22 5 23
REMARK SMILES IDX 6 25 7 26 21 29 22 30 23 31 24 33 25 34 26 35 87 36 27 37
REMARK SMILES IDX 86 38 28 39 29 40 30 41 80 42 31 43 85 44 79 45 81 46 32 47
REMARK SMILES IDX 84 48 78 49 77 50 33 52 65 53 45 54 64 55 46 56 49 57 63 58
REMARK SMILES IDX 82 59 47 60 48 61 62 63 83 64 50 65 34 66 35 67 43 68 36 69
REMARK SMILES IDX 42 70 44 71 41 72 37 73 38 74 39 75 40 76 66 77 67 78 75 79
REMARK SMILES IDX 68 80 74 81 76 82 73 83 69 84 70 85 71 86 72 87 51 88 52 89
REMARK SMILES IDX 60 90 53 91 59 92 61 93 58 94 54 95 55 96 56 97 57 98
REMARK H PARENT 18 6 4 24 6 27 6 28 22 32 81 51 49 62
REMARK Flexibility Score: inf
ROOT
ATOM      1  C   UNL A   1      37.172  20.830  25.761  1.00  0.00     0.042 C 
ENDROOT
BRANCH   1   2
ATOM      2  C   UNL A   1      36.078  20.843  24.682  1.00  0.00     0.118 C 
BRANCH   2   3
ATOM      3  N   UNL A   1      35.042  19.846  24.928  1.00  0.00    -0.352 N 
ATOM      4  C   UNL A   1      33.715  19.957  25.278  1.00  0.00     0.251 C 
ATOM      5  O   UNL A   1      33.028  18.937  25.289  1.00  0.00    -0.269 OA
ATOM      6  H   UNL A   1      35.350  18.917  24.826  1.00  0.00     0.163 HD
BRANCH   4   7
ATOM      7  C   UNL A   1      33.063  21.264  25.578  1.00  0.00     0.039 A 
ATOM      8  C   UNL A   1      31.983  23.818  25.867  1.00  0.00     0.067 A 
ATOM      9  C   UNL A   1      31.446  22.965  24.903  1.00  0.00     0.029 A 
ATOM     10  C   UNL A   1      32.949  23.371  26.763  1.00  0.00     0.029 A 
ATOM     11  C   UNL A   1      32.013  21.693  24.745  1.00  0.00     0.016 A 
ATOM     12  C   UNL A   1      33.445  22.082  26.641  1.00  0.00     0.016 A 
BRANCH   8  13
ATOM     13  N   UNL A   1      31.657  25.182  25.875  1.00  0.00    -0.217 N 
ATOM     14  C   UNL A   1      31.487  27.296  25.416  1.00  0.00     0.132 A 
ATOM     15  N   UNL A   1      30.792  27.036  26.570  1.00  0.00    -0.128 NA
ATOM     16  C   UNL A   1      32.033  26.123  24.934  1.00  0.00     0.071 A 
ATOM     17  N   UNL A   1      30.835  25.728  26.792  1.00  0.00    -0.061 NA
ATOM     18  C   UNL A   1      32.720  25.808  23.657  1.00  0.00     0.069 C 
BRANCH  14  19
ATOM     19  C   UNL A   1      31.429  28.578  24.737  1.00  0.00     0.087 C 
ATOM     20  C   UNL A   1      32.291  29.662  25.330  1.00  0.00     0.071 C 
ATOM     21  N   UNL A   1      30.670  28.624  23.683  1.00  0.00    -0.174 NA
BRANCH  21  22
ATOM     22  N   UNL A   1      30.483  29.758  22.943  1.00  0.00    -0.229 N 
ATOM     23  C   UNL A   1      29.445  30.051  22.089  1.00  0.00     0.332 C 
ATOM     24  H   UNL A   1      31.178  30.451  23.033  1.00  0.00     0.195 HD
ATOM     25  N   UNL A   1      29.563  31.293  21.539  1.00  0.00    -0.350 N 
ATOM     26  O   UNL A   1      28.483  29.351  21.807  1.00  0.00    -0.247 OA
ATOM     27  H   UNL A   1      30.336  31.861  21.762  1.00  0.00     0.161 HD
ATOM     28  H   UNL A   1      28.873  31.624  20.917  1.00  0.00     0.161 HD
ENDBRANCH  21  22
ENDBRANCH  14  19
ENDBRANCH   8  13
ENDBRANCH   4   7
ENDBRANCH   2   3
ENDBRANCH   1   2
BRANCH   1  29
ATOM     29  C   UNL A   1      38.570  20.871  25.175  1.00  0.00     0.118 C 
BRANCH  29  30
ATOM     30  N   UNL A   1      39.351  19.680  25.510  1.00  0.00    -0.352 N 
ATOM     31  C   UNL A   1      40.673  19.617  25.927  1.00  0.00     0.251 C 
ATOM     32  H   UNL A   1      38.882  18.817  25.428  1.00  0.00     0.163 HD
ATOM     33  O   UNL A   1      41.314  18.591  25.793  1.00  0.00    -0.269 OA
BRANCH  31  34
ATOM     34  C   UNL A   1      41.269  20.825  26.532  1.00  0.00     0.039 A 
ATOM     35  C   UNL A   1      41.890  21.813  25.764  1.00  0.00     0.014 A 
ATOM     36  C   UNL A   1      41.151  20.970  27.911  1.00  0.00     0.014 A 
ATOM     37  C   UNL A   1      42.311  22.983  26.398  1.00  0.00     0.010 A 
ATOM     38  C   UNL A   1      41.372  22.188  28.488  1.00  0.00     0.010 A 
ATOM     39  C   UNL A   1      42.029  23.170  27.761  1.00  0.00    -0.014 A 
BRANCH  39  40
ATOM     40  C   UNL A   1      42.271  24.440  28.439  1.00  0.00     0.031 A 
ATOM     41  C   UNL A   1      41.189  25.432  28.218  1.00  0.00     0.074 A 
ATOM     42  C   UNL A   1      43.232  24.607  29.377  1.00  0.00     0.049 A 
ATOM     43  N   UNL A   1      41.215  26.466  27.446  1.00  0.00    -0.248 NA
ATOM     44  C   UNL A   1      39.845  25.124  28.741  1.00  0.00     0.031 C 
ATOM     45  C   UNL A   1      44.156  23.600  29.918  1.00  0.00     0.029 A 
ATOM     46  N   UNL A   1      43.526  25.700  30.133  1.00  0.00    -0.354 N 
ATOM     47  C   UNL A   1      39.994  27.103  27.637  1.00  0.00     0.074 A 
ATOM     48  C   UNL A   1      39.124  26.107  28.195  1.00  0.00     0.031 C 
ATOM     49  C   UNL A   1      44.730  24.062  31.051  1.00  0.00     0.029 A 
ATOM     50  C   UNL A   1      44.363  25.456  31.225  1.00  0.00     0.049 A 
ATOM     51  H   UNL A   1      43.174  26.596  29.926  1.00  0.00     0.167 HD
ATOM     52  C   UNL A   1      39.914  28.464  27.619  1.00  0.00     0.034 A 
ATOM     53  C   UNL A   1      44.728  26.332  32.202  1.00  0.00     0.034 A 
ATOM     54  C   UNL A   1      41.119  29.032  27.046  1.00  0.00     0.049 A 
ATOM     55  C   UNL A   1      44.520  27.688  31.640  1.00  0.00     0.074 A 
ATOM     56  C   UNL A   1      41.777  28.904  25.838  1.00  0.00     0.029 A 
ATOM     57  N   UNL A   1      42.051  29.553  27.918  1.00  0.00    -0.354 N 
ATOM     58  N   UNL A   1      45.190  28.148  30.618  1.00  0.00    -0.248 NA
ATOM     59  C   UNL A   1      43.238  28.332  31.879  1.00  0.00     0.031 C 
ATOM     60  C   UNL A   1      43.164  28.879  26.174  1.00  0.00     0.029 A 
ATOM     61  C   UNL A   1      43.292  29.096  27.549  1.00  0.00     0.049 A 
ATOM     62  H   UNL A   1      41.859  30.151  28.676  1.00  0.00     0.167 HD
ATOM     63  C   UNL A   1      44.246  28.796  29.835  1.00  0.00     0.074 A 
ATOM     64  C   UNL A   1      43.087  28.967  30.712  1.00  0.00     0.031 C 
ATOM     65  C   UNL A   1      44.387  28.868  28.477  1.00  0.00     0.034 A 
BRANCH  52  66
ATOM     66  C   UNL A   1      38.981  29.290  28.489  1.00  0.00     0.023 A 
ATOM     67  C   UNL A   1      39.229  29.270  29.877  1.00  0.00     0.031 A 
ATOM     68  C   UNL A   1      37.737  29.840  28.104  1.00  0.00     0.131 A 
ATOM     69  C   UNL A   1      38.236  29.645  30.797  1.00  0.00     0.055 A 
ATOM     70  C   UNL A   1      36.776  30.273  29.025  1.00  0.00     0.041 A 
ATOM     71  F   UNL A   1      37.331  29.922  26.835  1.00  0.00    -0.206 F 
ATOM     72  C   UNL A   1      37.007  30.142  30.381  1.00  0.00     0.022 A 
BRANCH  69  73
ATOM     73  S   UNL A   1      38.520  29.294  32.550  1.00  0.00     0.124 S 
ATOM     74  O   UNL A   1      39.858  28.715  32.515  1.00  0.00    -0.237 OA
ATOM     75  O   UNL A   1      38.405  30.622  33.142  1.00  0.00    -0.237 OA
ATOM     76  O   UNL A   1      37.444  28.366  32.887  1.00  0.00    -0.744 OA
ENDBRANCH  69  73
ENDBRANCH  52  66
BRANCH  53  77
ATOM     77  C   UNL A   1      44.890  26.072  33.666  1.00  0.00     0.023 A 
ATOM     78  C   UNL A   1      43.903  26.393  34.628  1.00  0.00     0.031 A 
ATOM     79  C   UNL A   1      45.944  25.237  34.102  1.00  0.00     0.131 A 
ATOM     80  C   UNL A   1      43.993  25.879  35.948  1.00  0.00     0.055 A 
ATOM     81  C   UNL A   1      46.023  24.729  35.401  1.00  0.00     0.041 A 
ATOM     82  F   UNL A   1      46.888  24.813  33.248  1.00  0.00    -0.206 F 
ATOM     83  C   UNL A   1      45.042  25.039  36.329  1.00  0.00     0.022 A 
BRANCH  80  84
ATOM     84  S   UNL A   1      42.696  26.231  37.187  1.00  0.00     0.124 S 
ATOM     85  O   UNL A   1      42.152  27.500  36.718  1.00  0.00    -0.237 OA
ATOM     86  O   UNL A   1      41.825  25.068  37.070  1.00  0.00    -0.237 OA
ATOM     87  O   UNL A   1      43.437  26.313  38.448  1.00  0.00    -0.744 OA
ENDBRANCH  80  84
ENDBRANCH  53  77
BRANCH  65  88
ATOM     88  C   UNL A   1      45.742  28.529  27.878  1.00  0.00     0.023 A 
ATOM     89  C   UNL A   1      46.158  27.250  27.435  1.00  0.00     0.031 A 
ATOM     90  C   UNL A   1      46.619  29.607  27.656  1.00  0.00     0.131 A 
ATOM     91  C   UNL A   1      47.414  27.092  26.811  1.00  0.00     0.055 A 
ATOM     92  C   UNL A   1      47.848  29.451  27.019  1.00  0.00     0.041 A 
ATOM     93  F   UNL A   1      46.277  30.850  28.035  1.00  0.00    -0.206 F 
ATOM     94  C   UNL A   1      48.253  28.191  26.598  1.00  0.00     0.022 A 
BRANCH  91  95
ATOM     95  S   UNL A   1      48.005  25.449  26.281  1.00  0.00     0.124 S 
ATOM     96  O   UNL A   1      49.416  25.669  25.989  1.00  0.00    -0.237 OA
ATOM     97  O   UNL A   1      47.713  24.616  27.445  1.00  0.00    -0.237 OA
ATOM     98  O   UNL A   1      47.181  25.154  25.106  1.00  0.00    -0.744 OA
ENDBRANCH  91  95
ENDBRANCH  65  88
ENDBRANCH  39  40
ENDBRANCH  31  34
ENDBRANCH  29  30
ENDBRANCH   1  29
TORSDOF 16
ENDMDL
