MODEL 1
REMARK VINA RESULT:     -13.6      0.000      0.000
REMARK SMILES COc1c[nH]c(C[N@H+]2CCC[C@@H](c3ccc(C(=O)NCCCNC(=O)c4ccc(-c5c6nc(c(-c7cc(S(=O)(=O)[O-])ccc7F)c7ccc([nH]7)c(-c7cc(S(=O)(=O)[O-])ccc7F)c7nc(c(-c8cc(S(=O)(=O)[O-])ccc8F)c8ccc5[nH]8)C=C7)C=C6)cc4)cc3)C2)cc1=O
REMARK SMILES IDX 20 1 19 2 17 3 18 4 16 6 13 7 14 8 90 9 15 10 89 11 12 12
REMARK SMILES IDX 8 13 9 14 91 15 10 17 11 18 7 19 6 20 3 21 4 22 93 23 5 24
REMARK SMILES IDX 92 25 94 26 2 28 1 29 21 30 22 31 23 32 24 33 25 35 26 36
REMARK SMILES IDX 27 37 88 38 28 39 87 40 29 41 30 42 31 43 81 44 32 45 86 46
REMARK SMILES IDX 80 47 82 48 33 49 85 50 79 51 78 52 34 54 66 55 46 56 65 57
REMARK SMILES IDX 47 58 50 59 64 60 83 61 48 62 49 63 63 65 84 66 51 67 35 68
REMARK SMILES IDX 36 69 44 70 37 71 43 72 45 73 42 74 38 75 39 76 40 77 41 78
REMARK SMILES IDX 67 79 68 80 76 81 69 82 75 83 77 84 74 85 70 86 71 87 72 88
REMARK SMILES IDX 73 89 52 90 53 91 61 92 54 93 60 94 62 95 59 96 55 97 56 98
REMARK SMILES IDX 57 99 58 100
REMARK H PARENT 19 5 8 16 5 27 23 34 82 53 50 64
REMARK Flexibility Score: inf
ROOT
ATOM      1  C   UNL A   1      31.796  30.752  26.448  1.00  0.00     0.118 C 
ENDROOT
BRANCH   1   2
ATOM      2  N   UNL A   1      31.232  30.469  25.142  1.00  0.00    -0.352 N 
ATOM      3  C   UNL A   1      31.168  29.318  24.403  1.00  0.00     0.251 C 
ATOM      4  O   UNL A   1      30.557  29.358  23.334  1.00  0.00    -0.269 OA
ATOM      5  H   UNL A   1      30.819  31.249  24.707  1.00  0.00     0.163 HD
BRANCH   3   6
ATOM      6  C   UNL A   1      31.735  28.022  24.863  1.00  0.00     0.039 A 
ATOM      7  C   UNL A   1      32.908  25.538  25.532  1.00  0.00    -0.039 A 
ATOM      8  C   UNL A   1      33.508  26.387  24.591  1.00  0.00     0.005 A 
ATOM      9  C   UNL A   1      31.758  25.984  26.190  1.00  0.00     0.005 A 
ATOM     10  C   UNL A   1      32.921  27.606  24.251  1.00  0.00     0.014 A 
ATOM     11  C   UNL A   1      31.193  27.225  25.875  1.00  0.00     0.014 A 
BRANCH   7  12
ATOM     12  C   UNL A   1      33.471  24.157  25.840  1.00  0.00     0.074 C 
ATOM     13  N   UNL A   1      33.109  21.695  25.382  1.00  0.00    -0.329 N 
ATOM     14  C   UNL A   1      34.481  21.588  24.869  1.00  0.00     0.262 C 
ATOM     15  C   UNL A   1      32.584  23.057  25.217  1.00  0.00     0.270 C 
ATOM     16  H   UNL A   1      33.142  21.508  26.384  1.00  0.00     0.348 HD
ATOM     17  C   UNL A   1      35.414  22.596  25.545  1.00  0.00     0.062 C 
ATOM     18  C   UNL A   1      34.919  24.027  25.355  1.00  0.00     0.020 C 
BRANCH  13  19
ATOM     19  C   UNL A   1      32.214  20.667  24.807  1.00  0.00     0.317 C 
BRANCH  19  20
ATOM     20  C   UNL A   1      32.750  19.237  24.771  1.00  0.00     0.074 A 
ATOM     21  C   UNL A   1      33.396  16.455  24.908  1.00  0.00     0.182 A 
ATOM     22  C   UNL A   1      33.061  17.180  25.984  1.00  0.00     0.133 A 
ATOM     23  C   UNL A   1      33.530  17.220  23.614  1.00  0.00     0.223 A 
ATOM     24  N   UNL A   1      32.824  18.525  25.956  1.00  0.00    -0.357 N 
ATOM     25  C   UNL A   1      33.126  18.657  23.616  1.00  0.00     0.083 A 
ATOM     26  O   UNL A   1      33.925  16.709  22.570  1.00  0.00    -0.286 OA
ATOM     27  H   UNL A   1      32.702  19.005  26.807  1.00  0.00     0.166 HD
BRANCH  21  28
ATOM     28  O   UNL A   1      33.517  15.083  25.002  1.00  0.00    -0.491 OA
ATOM     29  C   UNL A   1      32.382  14.444  25.572  1.00  0.00     0.278 C 
ENDBRANCH  21  28
ENDBRANCH  19  20
ENDBRANCH  13  19
ENDBRANCH   7  12
ENDBRANCH   3   6
ENDBRANCH   1   2
BRANCH   1  30
ATOM     30  C   UNL A   1      31.616  32.222  26.819  1.00  0.00     0.042 C 
BRANCH  30  31
ATOM     31  C   UNL A   1      32.921  32.911  27.204  1.00  0.00     0.118 C 
BRANCH  31  32
ATOM     32  N   UNL A   1      32.692  34.252  27.715  1.00  0.00    -0.352 N 
ATOM     33  C   UNL A   1      33.214  34.869  28.825  1.00  0.00     0.251 C 
ATOM     34  H   UNL A   1      32.070  34.802  27.185  1.00  0.00     0.163 HD
ATOM     35  O   UNL A   1      32.700  35.909  29.226  1.00  0.00    -0.269 OA
BRANCH  33  36
ATOM     36  C   UNL A   1      34.372  34.283  29.537  1.00  0.00     0.039 A 
ATOM     37  C   UNL A   1      34.141  33.526  30.690  1.00  0.00     0.014 A 
ATOM     38  C   UNL A   1      35.681  34.513  29.105  1.00  0.00     0.014 A 
ATOM     39  C   UNL A   1      35.218  32.961  31.377  1.00  0.00     0.010 A 
ATOM     40  C   UNL A   1      36.747  33.890  29.748  1.00  0.00     0.010 A 
ATOM     41  C   UNL A   1      36.528  33.116  30.898  1.00  0.00    -0.014 A 
BRANCH  41  42
ATOM     42  C   UNL A   1      37.684  32.495  31.596  1.00  0.00     0.031 A 
ATOM     43  C   UNL A   1      38.427  31.355  30.955  1.00  0.00     0.074 A 
ATOM     44  C   UNL A   1      38.024  32.920  32.828  1.00  0.00     0.049 A 
ATOM     45  N   UNL A   1      39.411  30.634  31.430  1.00  0.00    -0.248 NA
ATOM     46  C   UNL A   1      37.981  30.953  29.614  1.00  0.00     0.031 C 
ATOM     47  C   UNL A   1      37.356  33.997  33.563  1.00  0.00     0.029 A 
ATOM     48  N   UNL A   1      39.009  32.496  33.683  1.00  0.00    -0.354 N 
ATOM     49  C   UNL A   1      39.692  29.684  30.453  1.00  0.00     0.074 A 
ATOM     50  C   UNL A   1      38.728  29.884  29.390  1.00  0.00     0.031 C 
ATOM     51  C   UNL A   1      37.970  34.168  34.745  1.00  0.00     0.029 A 
ATOM     52  C   UNL A   1      39.042  33.185  34.874  1.00  0.00     0.049 A 
ATOM     53  H   UNL A   1      39.635  31.768  33.465  1.00  0.00     0.167 HD
ATOM     54  C   UNL A   1      40.674  28.749  30.435  1.00  0.00     0.034 A 
ATOM     55  C   UNL A   1      39.837  33.033  35.951  1.00  0.00     0.034 A 
ATOM     56  C   UNL A   1      41.630  28.573  31.502  1.00  0.00     0.049 A 
ATOM     57  C   UNL A   1      40.899  31.963  35.924  1.00  0.00     0.074 A 
ATOM     58  C   UNL A   1      42.701  27.698  31.569  1.00  0.00     0.029 A 
ATOM     59  N   UNL A   1      41.623  29.279  32.700  1.00  0.00    -0.354 N 
ATOM     60  N   UNL A   1      41.185  31.105  34.972  1.00  0.00    -0.248 NA
ATOM     61  C   UNL A   1      41.749  31.848  37.115  1.00  0.00     0.031 C 
ATOM     62  C   UNL A   1      43.296  27.826  32.828  1.00  0.00     0.029 A 
ATOM     63  C   UNL A   1      42.649  28.835  33.522  1.00  0.00     0.049 A 
ATOM     64  H   UNL A   1      40.984  29.991  32.930  1.00  0.00     0.167 HD
ATOM     65  C   UNL A   1      42.273  30.371  35.438  1.00  0.00     0.074 A 
ATOM     66  C   UNL A   1      42.595  30.897  36.750  1.00  0.00     0.031 C 
ATOM     67  C   UNL A   1      42.950  29.360  34.834  1.00  0.00     0.034 A 
BRANCH  54  68
ATOM     68  C   UNL A   1      40.736  27.832  29.234  1.00  0.00     0.023 A 
ATOM     69  C   UNL A   1      41.676  28.022  28.205  1.00  0.00     0.031 A 
ATOM     70  C   UNL A   1      39.812  26.781  29.089  1.00  0.00     0.131 A 
ATOM     71  C   UNL A   1      41.611  27.240  27.041  1.00  0.00     0.055 A 
ATOM     72  C   UNL A   1      39.812  25.948  27.968  1.00  0.00     0.041 A 
ATOM     73  F   UNL A   1      38.876  26.559  30.026  1.00  0.00    -0.206 F 
ATOM     74  C   UNL A   1      40.702  26.189  26.926  1.00  0.00     0.022 A 
BRANCH  71  75
ATOM     75  S   UNL A   1      42.618  27.733  25.614  1.00  0.00     0.124 S 
ATOM     76  O   UNL A   1      42.549  26.538  24.777  1.00  0.00    -0.237 OA
ATOM     77  O   UNL A   1      41.909  28.905  25.116  1.00  0.00    -0.237 OA
ATOM     78  O   UNL A   1      43.932  27.999  26.198  1.00  0.00    -0.744 OA
ENDBRANCH  71  75
ENDBRANCH  54  68
BRANCH  55  79
ATOM     79  C   UNL A   1      39.670  33.911  37.143  1.00  0.00     0.023 A 
ATOM     80  C   UNL A   1      39.015  33.444  38.293  1.00  0.00     0.031 A 
ATOM     81  C   UNL A   1      40.128  35.241  37.139  1.00  0.00     0.131 A 
ATOM     82  C   UNL A   1      38.797  34.310  39.376  1.00  0.00     0.055 A 
ATOM     83  C   UNL A   1      39.955  36.084  38.239  1.00  0.00     0.041 A 
ATOM     84  F   UNL A   1      40.767  35.735  36.067  1.00  0.00    -0.206 F 
ATOM     85  C   UNL A   1      39.274  35.622  39.361  1.00  0.00     0.022 A 
BRANCH  82  86
ATOM     86  S   UNL A   1      37.810  33.716  40.776  1.00  0.00     0.124 S 
ATOM     87  O   UNL A   1      38.795  32.950  41.531  1.00  0.00    -0.237 OA
ATOM     88  O   UNL A   1      37.366  34.967  41.385  1.00  0.00    -0.237 OA
ATOM     89  O   UNL A   1      36.757  32.927  40.140  1.00  0.00    -0.744 OA
ENDBRANCH  82  86
ENDBRANCH  55  79
BRANCH  67  90
ATOM     90  C   UNL A   1      44.135  28.794  35.577  1.00  0.00     0.023 A 
ATOM     91  C   UNL A   1      44.006  27.710  36.464  1.00  0.00     0.031 A 
ATOM     92  C   UNL A   1      45.410  29.362  35.408  1.00  0.00     0.131 A 
ATOM     93  C   UNL A   1      45.121  27.266  37.190  1.00  0.00     0.055 A 
ATOM     94  C   UNL A   1      46.528  28.877  36.087  1.00  0.00     0.041 A 
ATOM     95  F   UNL A   1      45.590  30.401  34.577  1.00  0.00    -0.206 F 
ATOM     96  C   UNL A   1      46.384  27.831  36.994  1.00  0.00     0.022 A 
BRANCH  93  97
ATOM     97  S   UNL A   1      44.881  26.001  38.467  1.00  0.00     0.124 S 
ATOM     98  O   UNL A   1      46.256  25.635  38.793  1.00  0.00    -0.237 OA
ATOM     99  O   UNL A   1      44.154  26.733  39.500  1.00  0.00    -0.237 OA
ATOM    100  O   UNL A   1      44.110  24.965  37.783  1.00  0.00    -0.744 OA
ENDBRANCH  93  97
ENDBRANCH  67  90
ENDBRANCH  41  42
ENDBRANCH  33  36
ENDBRANCH  31  32
ENDBRANCH  30  31
ENDBRANCH   1  30
TORSDOF 17
ENDMDL
MODEL 2
REMARK VINA RESULT:     -13.0      1.615      7.453
REMARK SMILES COc1c[nH]c(C[N@H+]2CCC[C@@H](c3ccc(C(=O)NCCCNC(=O)c4ccc(-c5c6nc(c(-c7cc(S(=O)(=O)[O-])ccc7F)c7ccc([nH]7)c(-c7cc(S(=O)(=O)[O-])ccc7F)c7nc(c(-c8cc(S(=O)(=O)[O-])ccc8F)c8ccc5[nH]8)C=C7)C=C6)cc4)cc3)C2)cc1=O
REMARK SMILES IDX 20 1 19 2 17 3 18 4 16 6 13 7 14 8 90 9 15 10 89 11 12 12
REMARK SMILES IDX 8 13 9 14 91 15 10 17 11 18 7 19 6 20 3 21 4 22 93 23 5 24
REMARK SMILES IDX 92 25 94 26 2 28 1 29 21 30 22 31 23 32 24 33 25 35 26 36
REMARK SMILES IDX 27 37 88 38 28 39 87 40 29 41 30 42 31 43 81 44 32 45 86 46
REMARK SMILES IDX 80 47 82 48 33 49 85 50 79 51 78 52 34 54 66 55 46 56 65 57
REMARK SMILES IDX 47 58 50 59 64 60 83 61 48 62 49 63 63 65 84 66 51 67 35 68
REMARK SMILES IDX 36 69 44 70 37 71 43 72 45 73 42 74 38 75 39 76 40 77 41 78
REMARK SMILES IDX 67 79 68 80 76 81 69 82 75 83 77 84 74 85 70 86 71 87 72 88
REMARK SMILES IDX 73 89 52 90 53 91 61 92 54 93 60 94 62 95 59 96 55 97 56 98
REMARK SMILES IDX 57 99 58 100
REMARK H PARENT 19 5 8 16 5 27 23 34 82 53 50 64
REMARK Flexibility Score: inf
ROOT
ATOM      1  C   UNL A   1      32.282  30.692  26.726  1.00  0.00     0.118 C 
ENDROOT
BRANCH   1   2
ATOM      2  N   UNL A   1      31.626  30.431  25.459  1.00  0.00    -0.352 N 
ATOM      3  C   UNL A   1      31.416  29.272  24.759  1.00  0.00     0.251 C 
ATOM      4  O   UNL A   1      30.757  29.342  23.721  1.00  0.00    -0.269 OA
ATOM      5  H   UNL A   1      31.265  31.235  25.021  1.00  0.00     0.163 HD
BRANCH   3   6
ATOM      6  C   UNL A   1      31.883  27.940  25.230  1.00  0.00     0.039 A 
ATOM      7  C   UNL A   1      32.904  25.401  25.939  1.00  0.00    -0.039 A 
ATOM      8  C   UNL A   1      33.676  26.304  25.193  1.00  0.00     0.005 A 
ATOM      9  C   UNL A   1      31.649  25.817  26.392  1.00  0.00     0.005 A 
ATOM     10  C   UNL A   1      33.166  27.551  24.831  1.00  0.00     0.014 A 
ATOM     11  C   UNL A   1      31.155  27.084  26.059  1.00  0.00     0.014 A 
BRANCH   7  12
ATOM     12  C   UNL A   1      33.397  23.995  26.254  1.00  0.00     0.074 C 
ATOM     13  N   UNL A   1      33.035  21.563  25.660  1.00  0.00    -0.329 N 
ATOM     14  C   UNL A   1      34.455  21.438  25.302  1.00  0.00     0.262 C 
ATOM     15  C   UNL A   1      32.563  22.943  25.490  1.00  0.00     0.270 C 
ATOM     16  H   UNL A   1      32.948  21.337  26.650  1.00  0.00     0.348 HD
ATOM     17  C   UNL A   1      35.326  22.395  26.121  1.00  0.00     0.062 C 
ATOM     18  C   UNL A   1      34.888  23.845  25.932  1.00  0.00     0.020 C 
BRANCH  13  19
ATOM     19  C   UNL A   1      32.189  20.581  24.944  1.00  0.00     0.317 C 
BRANCH  19  20
ATOM     20  C   UNL A   1      32.727  19.154  24.856  1.00  0.00     0.074 A 
ATOM     21  C   UNL A   1      33.372  16.369  24.885  1.00  0.00     0.182 A 
ATOM     22  C   UNL A   1      33.026  17.048  25.987  1.00  0.00     0.133 A 
ATOM     23  C   UNL A   1      33.518  17.185  23.625  1.00  0.00     0.223 A 
ATOM     24  N   UNL A   1      32.789  18.394  26.011  1.00  0.00    -0.357 N 
ATOM     25  C   UNL A   1      33.114  18.621  23.682  1.00  0.00     0.083 A 
ATOM     26  O   UNL A   1      33.923  16.718  22.564  1.00  0.00    -0.286 OA
ATOM     27  H   UNL A   1      32.659  18.839  26.880  1.00  0.00     0.166 HD
BRANCH  21  28
ATOM     28  O   UNL A   1      33.492  14.994  24.924  1.00  0.00    -0.491 OA
ATOM     29  C   UNL A   1      32.510  14.354  25.728  1.00  0.00     0.278 C 
ENDBRANCH  21  28
ENDBRANCH  19  20
ENDBRANCH  13  19
ENDBRANCH   7  12
ENDBRANCH   3   6
ENDBRANCH   1   2
BRANCH   1  30
ATOM     30  C   UNL A   1      31.925  32.079  27.255  1.00  0.00     0.042 C 
BRANCH  30  31
ATOM     31  C   UNL A   1      33.090  33.061  27.205  1.00  0.00     0.118 C 
BRANCH  31  32
ATOM     32  N   UNL A   1      32.816  34.262  27.977  1.00  0.00    -0.352 N 
ATOM     33  C   UNL A   1      33.312  34.653  29.196  1.00  0.00     0.251 C 
ATOM     34  H   UNL A   1      32.181  34.890  27.563  1.00  0.00     0.163 HD
ATOM     35  O   UNL A   1      32.763  35.574  29.795  1.00  0.00    -0.269 OA
BRANCH  33  36
ATOM     36  C   UNL A   1      34.484  33.968  29.788  1.00  0.00     0.039 A 
ATOM     37  C   UNL A   1      34.274  33.038  30.811  1.00  0.00     0.014 A 
ATOM     38  C   UNL A   1      35.784  34.269  29.374  1.00  0.00     0.014 A 
ATOM     39  C   UNL A   1      35.364  32.378  31.382  1.00  0.00     0.010 A 
ATOM     40  C   UNL A   1      36.863  33.558  29.893  1.00  0.00     0.010 A 
ATOM     41  C   UNL A   1      36.665  32.613  30.911  1.00  0.00    -0.014 A 
BRANCH  41  42
ATOM     42  C   UNL A   1      37.834  31.896  31.483  1.00  0.00     0.031 A 
ATOM     43  C   UNL A   1      38.425  32.343  32.793  1.00  0.00     0.074 A 
ATOM     44  C   UNL A   1      38.397  30.883  30.795  1.00  0.00     0.049 A 
ATOM     45  N   UNL A   1      39.484  31.898  33.421  1.00  0.00    -0.248 NA
ATOM     46  C   UNL A   1      37.752  33.460  33.468  1.00  0.00     0.031 C 
ATOM     47  C   UNL A   1      37.930  30.381  29.500  1.00  0.00     0.029 A 
ATOM     48  N   UNL A   1      39.484  30.098  31.083  1.00  0.00    -0.354 N 
ATOM     49  C   UNL A   1      39.613  32.690  34.556  1.00  0.00     0.074 A 
ATOM     50  C   UNL A   1      38.561  33.683  34.492  1.00  0.00     0.031 C 
ATOM     51  C   UNL A   1      38.708  29.355  29.121  1.00  0.00     0.029 A 
ATOM     52  C   UNL A   1      39.756  29.155  30.117  1.00  0.00     0.049 A 
ATOM     53  H   UNL A   1      40.019  30.198  31.903  1.00  0.00     0.167 HD
ATOM     54  C   UNL A   1      40.511  32.585  35.569  1.00  0.00     0.034 A 
ATOM     55  C   UNL A   1      40.743  28.242  30.040  1.00  0.00     0.034 A 
ATOM     56  C   UNL A   1      41.547  31.582  35.617  1.00  0.00     0.049 A 
ATOM     57  C   UNL A   1      41.751  28.167  31.158  1.00  0.00     0.074 A 
ATOM     58  C   UNL A   1      42.475  31.344  36.616  1.00  0.00     0.029 A 
ATOM     59  N   UNL A   1      41.801  30.652  34.614  1.00  0.00    -0.354 N 
ATOM     60  N   UNL A   1      41.830  28.890  32.251  1.00  0.00    -0.248 NA
ATOM     61  C   UNL A   1      42.799  27.146  31.034  1.00  0.00     0.031 C 
ATOM     62  C   UNL A   1      43.330  30.323  36.189  1.00  0.00     0.029 A 
ATOM     63  C   UNL A   1      42.891  29.866  34.957  1.00  0.00     0.049 A 
ATOM     64  H   UNL A   1      41.283  30.566  33.782  1.00  0.00     0.167 HD
ATOM     65  C   UNL A   1      42.917  28.386  32.962  1.00  0.00     0.074 A 
ATOM     66  C   UNL A   1      43.452  27.292  32.177  1.00  0.00     0.031 C 
ATOM     67  C   UNL A   1      43.422  28.786  34.157  1.00  0.00     0.034 A 
BRANCH  54  68
ATOM     68  C   UNL A   1      40.421  33.604  36.682  1.00  0.00     0.023 A 
ATOM     69  C   UNL A   1      41.329  34.673  36.782  1.00  0.00     0.031 A 
ATOM     70  C   UNL A   1      39.445  33.480  37.687  1.00  0.00     0.131 A 
ATOM     71  C   UNL A   1      41.304  35.515  37.905  1.00  0.00     0.055 A 
ATOM     72  C   UNL A   1      39.368  34.377  38.756  1.00  0.00     0.041 A 
ATOM     73  F   UNL A   1      38.561  32.470  37.662  1.00  0.00    -0.206 F 
ATOM     74  C   UNL A   1      40.313  35.390  38.880  1.00  0.00     0.022 A 
BRANCH  71  75
ATOM     75  S   UNL A   1      42.686  36.663  38.155  1.00  0.00     0.124 S 
ATOM     76  O   UNL A   1      42.192  37.486  39.256  1.00  0.00    -0.237 OA
ATOM     77  O   UNL A   1      43.789  35.765  38.473  1.00  0.00    -0.237 OA
ATOM     78  O   UNL A   1      42.794  37.354  36.871  1.00  0.00    -0.744 OA
ENDBRANCH  71  75
ENDBRANCH  54  68
BRANCH  55  79
ATOM     79  C   UNL A   1      40.831  27.322  28.871  1.00  0.00     0.023 A 
ATOM     80  C   UNL A   1      41.786  27.531  27.864  1.00  0.00     0.031 A 
ATOM     81  C   UNL A   1      39.941  26.244  28.723  1.00  0.00     0.131 A 
ATOM     82  C   UNL A   1      41.803  26.701  26.732  1.00  0.00     0.055 A 
ATOM     83  C   UNL A   1      39.994  25.389  27.620  1.00  0.00     0.041 A 
ATOM     84  F   UNL A   1      39.013  25.996  29.661  1.00  0.00    -0.206 F 
ATOM     85  C   UNL A   1      40.922  25.625  26.609  1.00  0.00     0.022 A 
BRANCH  82  86
ATOM     86  S   UNL A   1      42.945  27.100  25.381  1.00  0.00     0.124 S 
ATOM     87  O   UNL A   1      42.247  28.193  24.714  1.00  0.00    -0.237 OA
ATOM     88  O   UNL A   1      44.158  27.462  26.109  1.00  0.00    -0.237 OA
ATOM     89  O   UNL A   1      43.025  25.852  24.624  1.00  0.00    -0.744 OA
ENDBRANCH  82  86
ENDBRANCH  55  79
BRANCH  67  90
ATOM     90  C   UNL A   1      44.587  27.997  34.704  1.00  0.00     0.023 A 
ATOM     91  C   UNL A   1      44.401  26.875  35.530  1.00  0.00     0.031 A 
ATOM     92  C   UNL A   1      45.904  28.390  34.408  1.00  0.00     0.131 A 
ATOM     93  C   UNL A   1      45.513  26.218  36.078  1.00  0.00     0.055 A 
ATOM     94  C   UNL A   1      47.008  27.696  34.906  1.00  0.00     0.041 A 
ATOM     95  F   UNL A   1      46.141  29.456  33.627  1.00  0.00    -0.206 F 
ATOM     96  C   UNL A   1      46.816  26.611  35.757  1.00  0.00     0.022 A 
BRANCH  93  97
ATOM     97  S   UNL A   1      45.236  24.901  37.293  1.00  0.00     0.124 S 
ATOM     98  O   UNL A   1      45.252  23.707  36.454  1.00  0.00    -0.237 OA
ATOM     99  O   UNL A   1      46.374  25.063  38.193  1.00  0.00    -0.237 OA
ATOM    100  O   UNL A   1      43.936  25.235  37.872  1.00  0.00    -0.744 OA
ENDBRANCH  93  97
ENDBRANCH  67  90
ENDBRANCH  41  42
ENDBRANCH  33  36
ENDBRANCH  31  32
ENDBRANCH  30  31
ENDBRANCH   1  30
TORSDOF 17
ENDMDL
MODEL 3
REMARK VINA RESULT:     -12.9      1.633      7.565
REMARK SMILES COc1c[nH]c(C[N@H+]2CCC[C@@H](c3ccc(C(=O)NCCCNC(=O)c4ccc(-c5c6nc(c(-c7cc(S(=O)(=O)[O-])ccc7F)c7ccc([nH]7)c(-c7cc(S(=O)(=O)[O-])ccc7F)c7nc(c(-c8cc(S(=O)(=O)[O-])ccc8F)c8ccc5[nH]8)C=C7)C=C6)cc4)cc3)C2)cc1=O
REMARK SMILES IDX 20 1 19 2 17 3 18 4 16 6 13 7 14 8 90 9 15 10 89 11 12 12
REMARK SMILES IDX 8 13 9 14 91 15 10 17 11 18 7 19 6 20 3 21 4 22 93 23 5 24
REMARK SMILES IDX 92 25 94 26 2 28 1 29 21 30 22 31 23 32 24 33 25 35 26 36
REMARK SMILES IDX 27 37 88 38 28 39 87 40 29 41 30 42 31 43 81 44 32 45 86 46
REMARK SMILES IDX 80 47 82 48 33 49 85 50 79 51 78 52 34 54 66 55 46 56 65 57
REMARK SMILES IDX 47 58 50 59 64 60 83 61 48 62 49 63 63 65 84 66 51 67 35 68
REMARK SMILES IDX 36 69 44 70 37 71 43 72 45 73 42 74 38 75 39 76 40 77 41 78
REMARK SMILES IDX 67 79 68 80 76 81 69 82 75 83 77 84 74 85 70 86 71 87 72 88
REMARK SMILES IDX 73 89 52 90 53 91 61 92 54 93 60 94 62 95 59 96 55 97 56 98
REMARK SMILES IDX 57 99 58 100
REMARK H PARENT 19 5 8 16 5 27 23 34 82 53 50 64
REMARK Flexibility Score: inf
ROOT
ATOM      1  C   UNL A   1      31.399  30.571  26.142  1.00  0.00     0.118 C 
ENDROOT
BRANCH   1   2
ATOM      2  N   UNL A   1      30.923  30.413  24.781  1.00  0.00    -0.352 N 
ATOM      3  C   UNL A   1      30.936  29.343  23.926  1.00  0.00     0.251 C 
ATOM      4  O   UNL A   1      30.390  29.480  22.829  1.00  0.00    -0.269 OA
ATOM      5  H   UNL A   1      30.516  31.225  24.401  1.00  0.00     0.163 HD
BRANCH   3   6
ATOM      6  C   UNL A   1      31.509  28.018  24.287  1.00  0.00     0.039 A 
ATOM      7  C   UNL A   1      32.396  25.449  25.065  1.00  0.00    -0.039 A 
ATOM      8  C   UNL A   1      31.048  25.681  24.755  1.00  0.00     0.005 A 
ATOM      9  C   UNL A   1      33.305  26.499  24.903  1.00  0.00     0.005 A 
ATOM     10  C   UNL A   1      30.608  26.953  24.386  1.00  0.00     0.014 A 
ATOM     11  C   UNL A   1      32.867  27.764  24.495  1.00  0.00     0.014 A 
BRANCH   7  12
ATOM     12  C   UNL A   1      32.880  24.098  25.574  1.00  0.00     0.074 C 
ATOM     13  N   UNL A   1      32.784  21.618  25.085  1.00  0.00    -0.329 N 
ATOM     14  C   UNL A   1      34.252  21.567  25.053  1.00  0.00     0.262 C 
ATOM     15  C   UNL A   1      32.290  22.953  24.723  1.00  0.00     0.270 C 
ATOM     16  H   UNL A   1      32.493  21.443  26.046  1.00  0.00     0.348 HD
ATOM     17  C   UNL A   1      34.871  22.622  25.973  1.00  0.00     0.062 C 
ATOM     18  C   UNL A   1      34.411  24.028  25.595  1.00  0.00     0.020 C 
BRANCH  13  19
ATOM     19  C   UNL A   1      32.169  20.544  24.273  1.00  0.00     0.317 C 
BRANCH  19  20
ATOM     20  C   UNL A   1      32.765  19.147  24.425  1.00  0.00     0.074 A 
ATOM     21  C   UNL A   1      33.514  16.429  24.902  1.00  0.00     0.182 A 
ATOM     22  C   UNL A   1      33.080  17.246  25.871  1.00  0.00     0.133 A 
ATOM     23  C   UNL A   1      33.701  17.057  23.544  1.00  0.00     0.223 A 
ATOM     24  N   UNL A   1      32.790  18.568  25.682  1.00  0.00    -0.357 N 
ATOM     25  C   UNL A   1      33.239  18.466  23.365  1.00  0.00     0.083 A 
ATOM     26  O   UNL A   1      34.184  16.459  22.586  1.00  0.00    -0.286 OA
ATOM     27  H   UNL A   1      32.593  19.129  26.467  1.00  0.00     0.166 HD
BRANCH  21  28
ATOM     28  O   UNL A   1      33.685  15.081  25.152  1.00  0.00    -0.491 OA
ATOM     29  C   UNL A   1      32.547  14.455  25.728  1.00  0.00     0.278 C 
ENDBRANCH  21  28
ENDBRANCH  19  20
ENDBRANCH  13  19
ENDBRANCH   7  12
ENDBRANCH   3   6
ENDBRANCH   1   2
BRANCH   1  30
ATOM     30  C   UNL A   1      31.478  32.046  26.529  1.00  0.00     0.042 C 
BRANCH  30  31
ATOM     31  C   UNL A   1      32.828  32.442  27.119  1.00  0.00     0.118 C 
BRANCH  31  32
ATOM     32  N   UNL A   1      32.821  33.810  27.609  1.00  0.00    -0.352 N 
ATOM     33  C   UNL A   1      33.530  34.375  28.640  1.00  0.00     0.251 C 
ATOM     34  H   UNL A   1      32.219  34.424  27.130  1.00  0.00     0.163 HD
ATOM     35  O   UNL A   1      33.193  35.479  29.061  1.00  0.00    -0.269 OA
BRANCH  33  36
ATOM     36  C   UNL A   1      34.677  33.662  29.247  1.00  0.00     0.039 A 
ATOM     37  C   UNL A   1      34.423  32.631  30.157  1.00  0.00     0.014 A 
ATOM     38  C   UNL A   1      35.994  34.030  28.960  1.00  0.00     0.014 A 
ATOM     39  C   UNL A   1      35.489  31.942  30.740  1.00  0.00     0.010 A 
ATOM     40  C   UNL A   1      37.053  33.296  29.485  1.00  0.00     0.010 A 
ATOM     41  C   UNL A   1      36.812  32.250  30.390  1.00  0.00    -0.014 A 
BRANCH  41  42
ATOM     42  C   UNL A   1      37.959  31.506  30.974  1.00  0.00     0.031 A 
ATOM     43  C   UNL A   1      38.421  31.812  32.373  1.00  0.00     0.074 A 
ATOM     44  C   UNL A   1      38.617  30.601  30.224  1.00  0.00     0.049 A 
ATOM     45  N   UNL A   1      39.442  31.328  33.033  1.00  0.00    -0.248 NA
ATOM     46  C   UNL A   1      37.649  32.820  33.113  1.00  0.00     0.031 C 
ATOM     47  C   UNL A   1      38.279  30.244  28.843  1.00  0.00     0.029 A 
ATOM     48  N   UNL A   1      39.707  29.821  30.510  1.00  0.00    -0.354 N 
ATOM     49  C   UNL A   1      39.444  31.983  34.261  1.00  0.00     0.074 A 
ATOM     50  C   UNL A   1      38.361  32.943  34.222  1.00  0.00     0.031 C 
ATOM     51  C   UNL A   1      39.127  29.295  28.416  1.00  0.00     0.029 A 
ATOM     52  C   UNL A   1      40.096  29.009  29.469  1.00  0.00     0.049 A 
ATOM     53  H   UNL A   1      40.169  29.839  31.380  1.00  0.00     0.167 HD
ATOM     54  C   UNL A   1      40.259  31.785  35.328  1.00  0.00     0.034 A 
ATOM     55  C   UNL A   1      41.123  28.143  29.372  1.00  0.00     0.034 A 
ATOM     56  C   UNL A   1      41.328  30.815  35.348  1.00  0.00     0.049 A 
ATOM     57  C   UNL A   1      42.038  27.966  30.557  1.00  0.00     0.074 A 
ATOM     58  C   UNL A   1      42.180  30.489  36.390  1.00  0.00     0.029 A 
ATOM     59  N   UNL A   1      41.702  30.021  34.270  1.00  0.00    -0.354 N 
ATOM     60  N   UNL A   1      41.997  28.556  31.729  1.00  0.00    -0.248 NA
ATOM     61  C   UNL A   1      43.133  27.000  30.406  1.00  0.00     0.031 C 
ATOM     62  C   UNL A   1      43.108  29.552  35.922  1.00  0.00     0.029 A 
ATOM     63  C   UNL A   1      42.791  29.233  34.612  1.00  0.00     0.049 A 
ATOM     64  H   UNL A   1      41.257  30.018  33.392  1.00  0.00     0.167 HD
ATOM     65  C   UNL A   1      43.041  28.004  32.468  1.00  0.00     0.074 A 
ATOM     66  C   UNL A   1      43.684  27.028  31.610  1.00  0.00     0.031 C 
ATOM     67  C   UNL A   1      43.430  28.273  33.741  1.00  0.00     0.034 A 
BRANCH  54  68
ATOM     68  C   UNL A   1      40.037  32.660  36.541  1.00  0.00     0.023 A 
ATOM     69  C   UNL A   1      39.163  32.280  37.576  1.00  0.00     0.031 A 
ATOM     70  C   UNL A   1      40.666  33.913  36.644  1.00  0.00     0.131 A 
ATOM     71  C   UNL A   1      38.872  33.179  38.615  1.00  0.00     0.055 A 
ATOM     72  C   UNL A   1      40.443  34.765  37.728  1.00  0.00     0.041 A 
ATOM     73  F   UNL A   1      41.496  34.343  35.680  1.00  0.00    -0.206 F 
ATOM     74  C   UNL A   1      39.525  34.408  38.711  1.00  0.00     0.022 A 
BRANCH  71  75
ATOM     75  S   UNL A   1      37.503  32.785  39.738  1.00  0.00     0.124 S 
ATOM     76  O   UNL A   1      37.956  31.526  40.325  1.00  0.00    -0.237 OA
ATOM     77  O   UNL A   1      37.484  33.936  40.631  1.00  0.00    -0.237 OA
ATOM     78  O   UNL A   1      36.351  32.666  38.846  1.00  0.00    -0.744 OA
ENDBRANCH  71  75
ENDBRANCH  54  68
BRANCH  55  79
ATOM     79  C   UNL A   1      41.345  27.372  28.115  1.00  0.00     0.023 A 
ATOM     80  C   UNL A   1      41.024  26.008  28.044  1.00  0.00     0.031 A 
ATOM     81  C   UNL A   1      41.915  27.977  26.981  1.00  0.00     0.131 A 
ATOM     82  C   UNL A   1      41.313  25.281  26.878  1.00  0.00     0.055 A 
ATOM     83  C   UNL A   1      42.154  27.262  25.806  1.00  0.00     0.041 A 
ATOM     84  F   UNL A   1      42.235  29.281  26.995  1.00  0.00    -0.206 F 
ATOM     85  C   UNL A   1      41.864  25.902  25.756  1.00  0.00     0.022 A 
BRANCH  82  86
ATOM     86  S   UNL A   1      41.029  23.490  26.881  1.00  0.00     0.124 S 
ATOM     87  O   UNL A   1      39.598  23.416  26.611  1.00  0.00    -0.237 OA
ATOM     88  O   UNL A   1      41.909  23.044  25.805  1.00  0.00    -0.237 OA
ATOM     89  O   UNL A   1      41.435  23.084  28.224  1.00  0.00    -0.744 OA
ENDBRANCH  82  86
ENDBRANCH  55  79
BRANCH  67  90
ATOM     90  C   UNL A   1      44.577  27.461  34.290  1.00  0.00     0.023 A 
ATOM     91  C   UNL A   1      44.391  26.163  34.798  1.00  0.00     0.031 A 
ATOM     92  C   UNL A   1      45.873  28.006  34.324  1.00  0.00     0.131 A 
ATOM     93  C   UNL A   1      45.472  25.475  35.370  1.00  0.00     0.055 A 
ATOM     94  C   UNL A   1      46.957  27.292  34.838  1.00  0.00     0.041 A 
ATOM     95  F   UNL A   1      46.107  29.242  33.857  1.00  0.00    -0.206 F 
ATOM     96  C   UNL A   1      46.757  26.025  35.377  1.00  0.00     0.022 A 
BRANCH  93  97
ATOM     97  S   UNL A   1      45.159  23.889  36.190  1.00  0.00     0.124 S 
ATOM     98  O   UNL A   1      46.348  23.122  35.831  1.00  0.00    -0.237 OA
ATOM     99  O   UNL A   1      45.052  24.279  37.593  1.00  0.00    -0.237 OA
ATOM    100  O   UNL A   1      43.915  23.425  35.580  1.00  0.00    -0.744 OA
ENDBRANCH  93  97
ENDBRANCH  67  90
ENDBRANCH  41  42
ENDBRANCH  33  36
ENDBRANCH  31  32
ENDBRANCH  30  31
ENDBRANCH   1  30
TORSDOF 17
ENDMDL
