MODEL 1
REMARK VINA RESULT:     -11.7      0.000      0.000
REMARK SMILES C[C@@H]([NH2+][C@H]1CCOC2(CCOCC2)C1)C(=O)NCCCNC(=O)c1ccc(-c2c3nc(c(-c4cc(S(=O)(=O)[O-])ccc4F)c4ccc([nH]4)c(-c4cc(S(=O)(=O)[O-])ccc4F)c4nc(c(-c5cc(S(=O)(=O)[O-])ccc5F)c5ccc2[nH]5)C=C4)C=C3)cc1
REMARK SMILES IDX 19 1 18 2 17 3 15 4 16 5 2 7 1 8 3 9 4 12 5 13 14 14 6 15
REMARK SMILES IDX 8 16 7 17 9 18 13 19 10 20 12 21 11 22 20 23 21 24 22 25
REMARK SMILES IDX 23 27 24 28 25 29 86 30 26 31 85 32 27 33 28 34 29 35 79 36
REMARK SMILES IDX 30 37 84 38 78 39 80 40 31 41 83 42 77 43 76 44 32 46 64 47
REMARK SMILES IDX 44 48 63 49 45 50 48 51 62 52 81 53 46 54 47 55 61 57 82 58
REMARK SMILES IDX 49 59 33 60 34 61 42 62 35 63 41 64 43 65 40 66 36 67 37 68
REMARK SMILES IDX 38 69 39 70 65 71 66 72 74 73 67 74 73 75 75 76 72 77 68 78
REMARK SMILES IDX 69 79 70 80 71 81 50 82 51 83 59 84 52 85 58 86 60 87 57 88
REMARK SMILES IDX 53 89 54 90 55 91 56 92
REMARK H PARENT 17 6 3 10 3 11 21 26 80 45 48 56
REMARK Flexibility Score: inf
ROOT
ATOM      1  C   UNL A   1      33.778  27.769  25.305  1.00  0.00     0.042 C 
ENDROOT
BRANCH   1   2
ATOM      2  C   UNL A   1      33.569  26.272  25.103  1.00  0.00     0.118 C 
BRANCH   2   3
ATOM      3  N   UNL A   1      32.461  25.797  25.906  1.00  0.00    -0.351 N 
ATOM      4  C   UNL A   1      31.166  25.570  25.562  1.00  0.00     0.277 C 
ATOM      5  O   UNL A   1      30.376  25.317  26.477  1.00  0.00    -0.268 OA
ATOM      6  H   UNL A   1      32.679  25.609  26.848  1.00  0.00     0.163 HD
BRANCH   4   7
ATOM      7  C   UNL A   1      30.684  25.590  24.098  1.00  0.00     0.269 C 
ATOM      8  C   UNL A   1      30.432  24.182  23.564  1.00  0.00     0.086 C 
BRANCH   7   9
ATOM      9  N   UNL A   1      29.502  26.462  23.875  1.00  0.00    -0.334 N 
ATOM     10  H   UNL A   1      28.956  26.478  24.736  1.00  0.00     0.347 HD
ATOM     11  H   UNL A   1      29.005  26.063  23.079  1.00  0.00     0.347 HD
BRANCH   9  12
ATOM     12  C   UNL A   1      29.805  27.860  23.504  1.00  0.00     0.188 C 
ATOM     13  C   UNL A   1      31.079  28.057  22.673  1.00  0.00     0.093 C 
ATOM     14  C   UNL A   1      28.614  28.442  22.714  1.00  0.00     0.100 C 
ATOM     15  C   UNL A   1      31.249  29.522  22.324  1.00  0.00     0.167 C 
ATOM     16  C   UNL A   1      28.861  29.897  22.257  1.00  0.00     0.078 C 
ATOM     17  O   UNL A   1      30.131  29.994  21.587  1.00  0.00    -0.374 OA
ATOM     18  C   UNL A   1      28.759  30.897  23.426  1.00  0.00     0.064 C 
ATOM     19  C   UNL A   1      27.816  30.302  21.199  1.00  0.00     0.064 C 
ATOM     20  C   UNL A   1      28.884  32.330  22.923  1.00  0.00     0.163 C 
ATOM     21  C   UNL A   1      27.995  31.767  20.807  1.00  0.00     0.163 C 
ATOM     22  O   UNL A   1      27.876  32.612  21.951  1.00  0.00    -0.381 OA
ENDBRANCH   9  12
ENDBRANCH   7   9
ENDBRANCH   4   7
ENDBRANCH   2   3
ENDBRANCH   1   2
BRANCH   1  23
ATOM     23  C   UNL A   1      33.628  28.224  26.755  1.00  0.00     0.118 C 
BRANCH  23  24
ATOM     24  N   UNL A   1      33.459  29.665  26.872  1.00  0.00    -0.352 N 
ATOM     25  C   UNL A   1      34.230  30.587  27.532  1.00  0.00     0.251 C 
ATOM     26  H   UNL A   1      32.674  30.033  26.407  1.00  0.00     0.163 HD
ATOM     27  O   UNL A   1      33.798  31.732  27.679  1.00  0.00    -0.269 OA
BRANCH  25  28
ATOM     28  C   UNL A   1      35.549  30.212  28.085  1.00  0.00     0.039 A 
ATOM     29  C   UNL A   1      35.614  29.709  29.387  1.00  0.00     0.014 A 
ATOM     30  C   UNL A   1      36.722  30.370  27.340  1.00  0.00     0.014 A 
ATOM     31  C   UNL A   1      36.842  29.305  29.915  1.00  0.00     0.010 A 
ATOM     32  C   UNL A   1      37.934  29.894  27.839  1.00  0.00     0.010 A 
ATOM     33  C   UNL A   1      38.008  29.357  29.132  1.00  0.00    -0.014 A 
BRANCH  33  34
ATOM     34  C   UNL A   1      39.299  28.837  29.657  1.00  0.00     0.031 A 
ATOM     35  C   UNL A   1      39.980  29.505  30.820  1.00  0.00     0.074 A 
ATOM     36  C   UNL A   1      39.876  27.779  29.052  1.00  0.00     0.049 A 
ATOM     37  N   UNL A   1      41.114  29.203  31.400  1.00  0.00    -0.248 NA
ATOM     38  C   UNL A   1      39.309  30.683  31.391  1.00  0.00     0.031 C 
ATOM     39  C   UNL A   1      39.337  27.076  27.885  1.00  0.00     0.029 A 
ATOM     40  N   UNL A   1      41.040  27.107  29.331  1.00  0.00    -0.354 N 
ATOM     41  C   UNL A   1      41.297  30.155  32.398  1.00  0.00     0.074 A 
ATOM     42  C   UNL A   1      40.189  31.081  32.298  1.00  0.00     0.031 C 
ATOM     43  C   UNL A   1      40.147  26.053  27.573  1.00  0.00     0.029 A 
ATOM     44  C   UNL A   1      41.288  26.053  28.483  1.00  0.00     0.049 A 
ATOM     45  H   UNL A   1      41.642  27.356  30.069  1.00  0.00     0.167 HD
ATOM     46  C   UNL A   1      42.284  30.234  33.325  1.00  0.00     0.034 A 
ATOM     47  C   UNL A   1      42.319  25.186  28.436  1.00  0.00     0.034 A 
ATOM     48  C   UNL A   1      43.383  29.299  33.409  1.00  0.00     0.049 A 
ATOM     49  C   UNL A   1      43.415  25.307  29.464  1.00  0.00     0.074 A 
ATOM     50  C   UNL A   1      44.410  29.258  34.337  1.00  0.00     0.029 A 
ATOM     51  N   UNL A   1      43.606  28.247  32.529  1.00  0.00    -0.354 N 
ATOM     52  N   UNL A   1      43.543  26.179  30.439  1.00  0.00    -0.248 NA
ATOM     53  C   UNL A   1      44.495  24.317  29.396  1.00  0.00     0.031 C 
ATOM     54  C   UNL A   1      45.291  28.233  33.974  1.00  0.00     0.029 A 
ATOM     55  C   UNL A   1      44.770  27.574  32.872  1.00  0.00     0.049 A 
ATOM     56  H   UNL A   1      43.022  28.014  31.772  1.00  0.00     0.167 HD
ATOM     57  C   UNL A   1      44.704  25.820  31.118  1.00  0.00     0.074 A 
ATOM     58  C   UNL A   1      45.222  24.640  30.455  1.00  0.00     0.031 C 
ATOM     59  C   UNL A   1      45.288  26.408  32.194  1.00  0.00     0.034 A 
BRANCH  46  60
ATOM     60  C   UNL A   1      42.232  31.387  34.302  1.00  0.00     0.023 A 
ATOM     61  C   UNL A   1      41.316  31.412  35.370  1.00  0.00     0.031 A 
ATOM     62  C   UNL A   1      43.096  32.487  34.156  1.00  0.00     0.131 A 
ATOM     63  C   UNL A   1      41.233  32.541  36.199  1.00  0.00     0.055 A 
ATOM     64  C   UNL A   1      43.067  33.571  35.036  1.00  0.00     0.041 A 
ATOM     65  F   UNL A   1      43.978  32.534  33.146  1.00  0.00    -0.206 F 
ATOM     66  C   UNL A   1      42.121  33.609  36.056  1.00  0.00     0.022 A 
BRANCH  63  67
ATOM     67  S   UNL A   1      39.851  32.657  37.369  1.00  0.00     0.124 S 
ATOM     68  O   UNL A   1      39.270  33.949  37.010  1.00  0.00    -0.237 OA
ATOM     69  O   UNL A   1      39.055  31.483  37.035  1.00  0.00    -0.237 OA
ATOM     70  O   UNL A   1      40.504  32.620  38.676  1.00  0.00    -0.744 OA
ENDBRANCH  63  67
ENDBRANCH  46  60
BRANCH  47  71
ATOM     71  C   UNL A   1      42.373  24.128  27.384  1.00  0.00     0.023 A 
ATOM     72  C   UNL A   1      41.792  22.868  27.592  1.00  0.00     0.031 A 
ATOM     73  C   UNL A   1      43.047  24.351  26.170  1.00  0.00     0.131 A 
ATOM     74  C   UNL A   1      41.940  21.861  26.625  1.00  0.00     0.055 A 
ATOM     75  C   UNL A   1      43.139  23.365  25.186  1.00  0.00     0.041 A 
ATOM     76  F   UNL A   1      43.617  25.541  25.916  1.00  0.00    -0.206 F 
ATOM     77  C   UNL A   1      42.596  22.106  25.417  1.00  0.00     0.022 A 
BRANCH  74  78
ATOM     78  S   UNL A   1      41.340  20.193  27.009  1.00  0.00     0.124 S 
ATOM     79  O   UNL A   1      40.781  20.378  28.344  1.00  0.00    -0.237 OA
ATOM     80  O   UNL A   1      40.378  19.963  25.935  1.00  0.00    -0.237 OA
ATOM     81  O   UNL A   1      42.548  19.374  26.946  1.00  0.00    -0.744 OA
ENDBRANCH  74  78
ENDBRANCH  47  71
BRANCH  59  82
ATOM     82  C   UNL A   1      46.531  25.748  32.742  1.00  0.00     0.023 A 
ATOM     83  C   UNL A   1      47.802  25.980  32.183  1.00  0.00     0.031 A 
ATOM     84  C   UNL A   1      46.440  24.844  33.816  1.00  0.00     0.131 A 
ATOM     85  C   UNL A   1      48.913  25.260  32.649  1.00  0.00     0.055 A 
ATOM     86  C   UNL A   1      47.561  24.187  34.323  1.00  0.00     0.041 A 
ATOM     87  F   UNL A   1      45.253  24.580  34.387  1.00  0.00    -0.206 F 
ATOM     88  C   UNL A   1      48.804  24.378  33.727  1.00  0.00     0.022 A 
BRANCH  85  89
ATOM     89  S   UNL A   1      50.478  25.394  31.743  1.00  0.00     0.124 S 
ATOM     90  O   UNL A   1      50.847  23.993  31.565  1.00  0.00    -0.237 OA
ATOM     91  O   UNL A   1      50.078  26.107  30.534  1.00  0.00    -0.237 OA
ATOM     92  O   UNL A   1      51.338  26.151  32.652  1.00  0.00    -0.744 OA
ENDBRANCH  85  89
ENDBRANCH  59  82
ENDBRANCH  33  34
ENDBRANCH  25  28
ENDBRANCH  23  24
ENDBRANCH   1  23
TORSDOF 15
ENDMDL
MODEL 2
REMARK VINA RESULT:     -11.7      2.446      2.959
REMARK SMILES C[C@@H]([NH2+][C@H]1CCOC2(CCOCC2)C1)C(=O)NCCCNC(=O)c1ccc(-c2c3nc(c(-c4cc(S(=O)(=O)[O-])ccc4F)c4ccc([nH]4)c(-c4cc(S(=O)(=O)[O-])ccc4F)c4nc(c(-c5cc(S(=O)(=O)[O-])ccc5F)c5ccc2[nH]5)C=C4)C=C3)cc1
REMARK SMILES IDX 19 1 18 2 17 3 15 4 16 5 2 7 1 8 3 9 4 12 5 13 14 14 6 15
REMARK SMILES IDX 8 16 7 17 9 18 13 19 10 20 12 21 11 22 20 23 21 24 22 25
REMARK SMILES IDX 23 27 24 28 25 29 86 30 26 31 85 32 27 33 28 34 29 35 79 36
REMARK SMILES IDX 30 37 84 38 78 39 80 40 31 41 83 42 77 43 76 44 32 46 64 47
REMARK SMILES IDX 44 48 63 49 45 50 48 51 62 52 81 53 46 54 47 55 61 57 82 58
REMARK SMILES IDX 49 59 33 60 34 61 42 62 35 63 41 64 43 65 40 66 36 67 37 68
REMARK SMILES IDX 38 69 39 70 65 71 66 72 74 73 67 74 73 75 75 76 72 77 68 78
REMARK SMILES IDX 69 79 70 80 71 81 50 82 51 83 59 84 52 85 58 86 60 87 57 88
REMARK SMILES IDX 53 89 54 90 55 91 56 92
REMARK H PARENT 17 6 3 10 3 11 21 26 80 45 48 56
REMARK Flexibility Score: inf
ROOT
ATOM      1  C   UNL A   1      32.341  28.460  26.223  1.00  0.00     0.042 C 
ENDROOT
BRANCH   1   2
ATOM      2  C   UNL A   1      32.757  27.042  25.843  1.00  0.00     0.118 C 
BRANCH   2   3
ATOM      3  N   UNL A   1      31.809  26.075  26.358  1.00  0.00    -0.351 N 
ATOM      4  C   UNL A   1      30.738  25.496  25.756  1.00  0.00     0.277 C 
ATOM      5  O   UNL A   1      29.989  24.819  26.468  1.00  0.00    -0.268 OA
ATOM      6  H   UNL A   1      31.965  25.793  27.288  1.00  0.00     0.163 HD
BRANCH   4   7
ATOM      7  C   UNL A   1      30.463  25.635  24.246  1.00  0.00     0.269 C 
ATOM      8  C   UNL A   1      30.282  24.276  23.574  1.00  0.00     0.086 C 
BRANCH   7   9
ATOM      9  N   UNL A   1      29.326  26.539  23.931  1.00  0.00    -0.334 N 
ATOM     10  H   UNL A   1      28.727  26.587  24.754  1.00  0.00     0.347 HD
ATOM     11  H   UNL A   1      28.869  26.140  23.111  1.00  0.00     0.347 HD
BRANCH   9  12
ATOM     12  C   UNL A   1      29.696  27.919  23.557  1.00  0.00     0.188 C 
ATOM     13  C   UNL A   1      30.982  28.053  22.731  1.00  0.00     0.093 C 
ATOM     14  C   UNL A   1      28.539  28.554  22.760  1.00  0.00     0.100 C 
ATOM     15  C   UNL A   1      31.223  29.507  22.379  1.00  0.00     0.167 C 
ATOM     16  C   UNL A   1      28.856  29.995  22.299  1.00  0.00     0.078 C 
ATOM     17  O   UNL A   1      30.132  30.030  21.636  1.00  0.00    -0.374 OA
ATOM     18  C   UNL A   1      28.797  31.002  23.465  1.00  0.00     0.064 C 
ATOM     19  C   UNL A   1      27.837  30.446  21.236  1.00  0.00     0.064 C 
ATOM     20  C   UNL A   1      28.991  32.427  22.959  1.00  0.00     0.163 C 
ATOM     21  C   UNL A   1      28.086  31.899  20.840  1.00  0.00     0.163 C 
ATOM     22  O   UNL A   1      28.002  32.752  21.981  1.00  0.00    -0.381 OA
ENDBRANCH   9  12
ENDBRANCH   7   9
ENDBRANCH   4   7
ENDBRANCH   2   3
ENDBRANCH   1   2
BRANCH   1  23
ATOM     23  C   UNL A   1      33.244  29.546  25.641  1.00  0.00     0.118 C 
BRANCH  23  24
ATOM     24  N   UNL A   1      32.938  30.867  26.169  1.00  0.00    -0.352 N 
ATOM     25  C   UNL A   1      33.511  31.549  27.211  1.00  0.00     0.251 C 
ATOM     26  H   UNL A   1      32.211  31.343  25.707  1.00  0.00     0.163 HD
ATOM     27  O   UNL A   1      32.966  32.573  27.626  1.00  0.00    -0.269 OA
BRANCH  25  28
ATOM     28  C   UNL A   1      34.750  31.053  27.848  1.00  0.00     0.039 A 
ATOM     29  C   UNL A   1      35.832  31.926  27.984  1.00  0.00     0.014 A 
ATOM     30  C   UNL A   1      34.861  29.732  28.293  1.00  0.00     0.014 A 
ATOM     31  C   UNL A   1      36.995  31.495  28.624  1.00  0.00     0.010 A 
ATOM     32  C   UNL A   1      35.992  29.327  29.000  1.00  0.00     0.010 A 
ATOM     33  C   UNL A   1      37.073  30.204  29.173  1.00  0.00    -0.014 A 
BRANCH  33  34
ATOM     34  C   UNL A   1      38.273  29.775  29.940  1.00  0.00     0.031 A 
ATOM     35  C   UNL A   1      38.531  30.310  31.322  1.00  0.00     0.074 A 
ATOM     36  C   UNL A   1      39.151  28.927  29.368  1.00  0.00     0.049 A 
ATOM     37  N   UNL A   1      39.531  30.064  32.131  1.00  0.00    -0.248 NA
ATOM     38  C   UNL A   1      37.551  31.269  31.854  1.00  0.00     0.031 C 
ATOM     39  C   UNL A   1      39.035  28.377  28.015  1.00  0.00     0.029 A 
ATOM     40  N   UNL A   1      40.314  28.377  29.847  1.00  0.00    -0.354 N 
ATOM     41  C   UNL A   1      39.304  30.839  33.264  1.00  0.00     0.074 A 
ATOM     42  C   UNL A   1      38.108  31.613  33.006  1.00  0.00     0.031 C 
ATOM     43  C   UNL A   1      40.060  27.542  27.788  1.00  0.00     0.029 A 
ATOM     44  C   UNL A   1      40.935  27.532  28.956  1.00  0.00     0.049 A 
ATOM     45  H   UNL A   1      40.671  28.569  30.744  1.00  0.00     0.167 HD
ATOM     46  C   UNL A   1      40.013  30.883  34.420  1.00  0.00     0.034 A 
ATOM     47  C   UNL A   1      42.082  26.832  29.062  1.00  0.00     0.034 A 
ATOM     48  C   UNL A   1      41.205  30.102  34.659  1.00  0.00     0.049 A 
ATOM     49  C   UNL A   1      42.864  26.913  30.349  1.00  0.00     0.074 A 
ATOM     50  C   UNL A   1      41.974  30.033  35.809  1.00  0.00     0.029 A 
ATOM     51  N   UNL A   1      41.809  29.262  33.732  1.00  0.00    -0.354 N 
ATOM     52  N   UNL A   1      42.604  27.607  31.433  1.00  0.00    -0.248 NA
ATOM     53  C   UNL A   1      44.084  26.103  30.430  1.00  0.00     0.031 C 
ATOM     54  C   UNL A   1      43.079  29.215  35.552  1.00  0.00     0.029 A 
ATOM     55  C   UNL A   1      42.957  28.699  34.271  1.00  0.00     0.049 A 
ATOM     56  H   UNL A   1      41.471  29.091  32.823  1.00  0.00     0.167 HD
ATOM     57  C   UNL A   1      43.615  27.291  32.337  1.00  0.00     0.074 A 
ATOM     58  C   UNL A   1      44.471  26.327  31.677  1.00  0.00     0.031 C 
ATOM     59  C   UNL A   1      43.816  27.751  33.598  1.00  0.00     0.034 A 
BRANCH  46  60
ATOM     60  C   UNL A   1      39.532  31.827  35.498  1.00  0.00     0.023 A 
ATOM     61  C   UNL A   1      40.007  33.149  35.591  1.00  0.00     0.031 A 
ATOM     62  C   UNL A   1      38.600  31.398  36.460  1.00  0.00     0.131 A 
ATOM     63  C   UNL A   1      39.609  33.965  36.661  1.00  0.00     0.055 A 
ATOM     64  C   UNL A   1      38.142  32.242  37.474  1.00  0.00     0.041 A 
ATOM     65  F   UNL A   1      38.125  30.143  36.439  1.00  0.00    -0.206 F 
ATOM     66  C   UNL A   1      38.659  33.530  37.587  1.00  0.00     0.022 A 
BRANCH  63  67
ATOM     67  S   UNL A   1      40.463  35.546  36.909  1.00  0.00     0.124 S 
ATOM     68  O   UNL A   1      41.792  35.248  36.380  1.00  0.00    -0.237 OA
ATOM     69  O   UNL A   1      39.653  36.468  36.123  1.00  0.00    -0.237 OA
ATOM     70  O   UNL A   1      40.407  35.742  38.356  1.00  0.00    -0.744 OA
ENDBRANCH  63  67
ENDBRANCH  46  60
BRANCH  47  71
ATOM     71  C   UNL A   1      42.566  25.994  27.926  1.00  0.00     0.023 A 
ATOM     72  C   UNL A   1      42.047  24.710  27.699  1.00  0.00     0.031 A 
ATOM     73  C   UNL A   1      43.589  26.452  27.076  1.00  0.00     0.131 A 
ATOM     74  C   UNL A   1      42.588  23.908  26.681  1.00  0.00     0.055 A 
ATOM     75  C   UNL A   1      44.081  25.673  26.028  1.00  0.00     0.041 A 
ATOM     76  F   UNL A   1      44.118  27.675  27.245  1.00  0.00    -0.206 F 
ATOM     77  C   UNL A   1      43.590  24.386  25.835  1.00  0.00     0.022 A 
BRANCH  74  78
ATOM     78  S   UNL A   1      42.024  22.190  26.539  1.00  0.00     0.124 S 
ATOM     79  O   UNL A   1      40.588  22.362  26.349  1.00  0.00    -0.237 OA
ATOM     80  O   UNL A   1      42.773  21.721  25.377  1.00  0.00    -0.237 OA
ATOM     81  O   UNL A   1      42.418  21.595  27.813  1.00  0.00    -0.744 OA
ENDBRANCH  74  78
ENDBRANCH  47  71
BRANCH  59  82
ATOM     82  C   UNL A   1      44.988  27.176  34.357  1.00  0.00     0.023 A 
ATOM     83  C   UNL A   1      44.862  26.023  35.154  1.00  0.00     0.031 A 
ATOM     84  C   UNL A   1      46.242  27.811  34.313  1.00  0.00     0.131 A 
ATOM     85  C   UNL A   1      45.947  25.587  35.931  1.00  0.00     0.055 A 
ATOM     86  C   UNL A   1      47.338  27.330  35.031  1.00  0.00     0.041 A 
ATOM     87  F   UNL A   1      46.423  28.918  33.574  1.00  0.00    -0.206 F 
ATOM     88  C   UNL A   1      47.189  26.223  35.861  1.00  0.00     0.022 A 
BRANCH  85  89
ATOM     89  S   UNL A   1      45.676  24.256  37.134  1.00  0.00     0.124 S 
ATOM     90  O   UNL A   1      44.643  24.830  37.991  1.00  0.00    -0.237 OA
ATOM     91  O   UNL A   1      45.255  23.148  36.282  1.00  0.00    -0.237 OA
ATOM     92  O   UNL A   1      46.984  24.093  37.764  1.00  0.00    -0.744 OA
ENDBRANCH  85  89
ENDBRANCH  59  82
ENDBRANCH  33  34
ENDBRANCH  25  28
ENDBRANCH  23  24
ENDBRANCH   1  23
TORSDOF 15
ENDMDL
MODEL 3
REMARK VINA RESULT:     -11.7      1.324      1.640
REMARK SMILES C[C@@H]([NH2+][C@H]1CCOC2(CCOCC2)C1)C(=O)NCCCNC(=O)c1ccc(-c2c3nc(c(-c4cc(S(=O)(=O)[O-])ccc4F)c4ccc([nH]4)c(-c4cc(S(=O)(=O)[O-])ccc4F)c4nc(c(-c5cc(S(=O)(=O)[O-])ccc5F)c5ccc2[nH]5)C=C4)C=C3)cc1
REMARK SMILES IDX 19 1 18 2 17 3 15 4 16 5 2 7 1 8 3 9 4 12 5 13 14 14 6 15
REMARK SMILES IDX 8 16 7 17 9 18 13 19 10 20 12 21 11 22 20 23 21 24 22 25
REMARK SMILES IDX 23 27 24 28 25 29 86 30 26 31 85 32 27 33 28 34 29 35 79 36
REMARK SMILES IDX 30 37 84 38 78 39 80 40 31 41 83 42 77 43 76 44 32 46 64 47
REMARK SMILES IDX 44 48 63 49 45 50 48 51 62 52 81 53 46 54 47 55 61 57 82 58
REMARK SMILES IDX 49 59 33 60 34 61 42 62 35 63 41 64 43 65 40 66 36 67 37 68
REMARK SMILES IDX 38 69 39 70 65 71 66 72 74 73 67 74 73 75 75 76 72 77 68 78
REMARK SMILES IDX 69 79 70 80 71 81 50 82 51 83 59 84 52 85 58 86 60 87 57 88
REMARK SMILES IDX 53 89 54 90 55 91 56 92
REMARK H PARENT 17 6 3 10 3 11 21 26 80 45 48 56
REMARK Flexibility Score: inf
ROOT
ATOM      1  C   UNL A   1      33.605  27.542  25.499  1.00  0.00     0.042 C 
ENDROOT
BRANCH   1   2
ATOM      2  C   UNL A   1      33.508  26.022  25.415  1.00  0.00     0.118 C 
BRANCH   2   3
ATOM      3  N   UNL A   1      32.327  25.545  26.106  1.00  0.00    -0.351 N 
ATOM      4  C   UNL A   1      31.053  25.395  25.659  1.00  0.00     0.277 C 
ATOM      5  O   UNL A   1      30.190  25.119  26.497  1.00  0.00    -0.268 OA
ATOM      6  H   UNL A   1      32.470  25.290  27.046  1.00  0.00     0.163 HD
BRANCH   4   7
ATOM      7  C   UNL A   1      30.680  25.526  24.169  1.00  0.00     0.269 C 
ATOM      8  C   UNL A   1      30.473  24.163  23.513  1.00  0.00     0.086 C 
BRANCH   7   9
ATOM      9  N   UNL A   1      29.515  26.416  23.925  1.00  0.00    -0.334 N 
ATOM     10  H   UNL A   1      28.957  26.441  24.778  1.00  0.00     0.347 HD
ATOM     11  H   UNL A   1      29.024  26.022  23.123  1.00  0.00     0.347 HD
BRANCH   9  12
ATOM     12  C   UNL A   1      29.844  27.807  23.556  1.00  0.00     0.188 C 
ATOM     13  C   UNL A   1      31.113  27.980  22.712  1.00  0.00     0.093 C 
ATOM     14  C   UNL A   1      28.658  28.418  22.782  1.00  0.00     0.100 C 
ATOM     15  C   UNL A   1      31.311  29.442  22.367  1.00  0.00     0.167 C 
ATOM     16  C   UNL A   1      28.932  29.870  22.327  1.00  0.00     0.078 C 
ATOM     17  O   UNL A   1      30.196  29.942  21.645  1.00  0.00    -0.374 OA
ATOM     18  C   UNL A   1      28.864  30.867  23.501  1.00  0.00     0.064 C 
ATOM     19  C   UNL A   1      27.885  30.302  21.283  1.00  0.00     0.064 C 
ATOM     20  C   UNL A   1      29.015  32.299  23.003  1.00  0.00     0.163 C 
ATOM     21  C   UNL A   1      28.091  31.764  20.894  1.00  0.00     0.163 C 
ATOM     22  O   UNL A   1      28.003  32.606  22.043  1.00  0.00    -0.381 OA
ENDBRANCH   9  12
ENDBRANCH   7   9
ENDBRANCH   4   7
ENDBRANCH   2   3
ENDBRANCH   1   2
BRANCH   1  23
ATOM     23  C   UNL A   1      33.479  28.092  26.919  1.00  0.00     0.118 C 
BRANCH  23  24
ATOM     24  N   UNL A   1      33.330  29.539  26.944  1.00  0.00    -0.352 N 
ATOM     25  C   UNL A   1      34.133  30.493  27.515  1.00  0.00     0.251 C 
ATOM     26  H   UNL A   1      32.534  29.885  26.481  1.00  0.00     0.163 HD
ATOM     27  O   UNL A   1      33.718  31.650  27.598  1.00  0.00    -0.269 OA
BRANCH  25  28
ATOM     28  C   UNL A   1      35.465  30.138  28.049  1.00  0.00     0.039 A 
ATOM     29  C   UNL A   1      35.568  29.722  29.378  1.00  0.00     0.014 A 
ATOM     30  C   UNL A   1      36.615  30.232  27.257  1.00  0.00     0.014 A 
ATOM     31  C   UNL A   1      36.808  29.339  29.892  1.00  0.00     0.010 A 
ATOM     32  C   UNL A   1      37.837  29.774  27.747  1.00  0.00     0.010 A 
ATOM     33  C   UNL A   1      37.948  29.324  29.070  1.00  0.00    -0.014 A 
BRANCH  33  34
ATOM     34  C   UNL A   1      39.251  28.822  29.585  1.00  0.00     0.031 A 
ATOM     35  C   UNL A   1      39.935  29.508  30.736  1.00  0.00     0.074 A 
ATOM     36  C   UNL A   1      39.834  27.766  28.983  1.00  0.00     0.049 A 
ATOM     37  N   UNL A   1      41.079  29.224  31.307  1.00  0.00    -0.248 NA
ATOM     38  C   UNL A   1      39.256  30.683  31.304  1.00  0.00     0.031 C 
ATOM     39  C   UNL A   1      39.292  27.048  27.828  1.00  0.00     0.029 A 
ATOM     40  N   UNL A   1      41.009  27.111  29.257  1.00  0.00    -0.354 N 
ATOM     41  C   UNL A   1      41.260  30.186  32.295  1.00  0.00     0.074 A 
ATOM     42  C   UNL A   1      40.140  31.098  32.200  1.00  0.00     0.031 C 
ATOM     43  C   UNL A   1      40.110  26.032  27.516  1.00  0.00     0.029 A 
ATOM     44  C   UNL A   1      41.261  26.052  28.414  1.00  0.00     0.049 A 
ATOM     45  H   UNL A   1      41.614  27.373  29.986  1.00  0.00     0.167 HD
ATOM     46  C   UNL A   1      42.255  30.285  33.213  1.00  0.00     0.034 A 
ATOM     47  C   UNL A   1      42.301  25.197  28.364  1.00  0.00     0.034 A 
ATOM     48  C   UNL A   1      43.366  29.364  33.293  1.00  0.00     0.049 A 
ATOM     49  C   UNL A   1      43.406  25.339  29.380  1.00  0.00     0.074 A 
ATOM     50  C   UNL A   1      44.403  29.341  34.211  1.00  0.00     0.029 A 
ATOM     51  N   UNL A   1      43.592  28.307  32.420  1.00  0.00    -0.354 N 
ATOM     52  N   UNL A   1      43.533  26.221  30.347  1.00  0.00    -0.248 NA
ATOM     53  C   UNL A   1      44.497  24.361  29.309  1.00  0.00     0.031 C 
ATOM     54  C   UNL A   1      45.291  28.324  33.848  1.00  0.00     0.029 A 
ATOM     55  C   UNL A   1      44.767  27.650  32.756  1.00  0.00     0.049 A 
ATOM     56  H   UNL A   1      43.003  28.061  31.670  1.00  0.00     0.167 HD
ATOM     57  C   UNL A   1      44.705  25.881  31.017  1.00  0.00     0.074 A 
ATOM     58  C   UNL A   1      45.230  24.702  30.358  1.00  0.00     0.031 C 
ATOM     59  C   UNL A   1      45.292  26.485  32.082  1.00  0.00     0.034 A 
BRANCH  46  60
ATOM     60  C   UNL A   1      42.200  31.445  34.181  1.00  0.00     0.023 A 
ATOM     61  C   UNL A   1      41.350  31.433  35.302  1.00  0.00     0.031 A 
ATOM     62  C   UNL A   1      42.991  32.588  33.973  1.00  0.00     0.131 A 
ATOM     63  C   UNL A   1      41.255  32.566  36.125  1.00  0.00     0.055 A 
ATOM     64  C   UNL A   1      42.956  33.680  34.843  1.00  0.00     0.041 A 
ATOM     65  F   UNL A   1      43.806  32.671  32.910  1.00  0.00    -0.206 F 
ATOM     66  C   UNL A   1      42.073  33.679  35.919  1.00  0.00     0.022 A 
BRANCH  63  67
ATOM     67  S   UNL A   1      39.943  32.621  37.376  1.00  0.00     0.124 S 
ATOM     68  O   UNL A   1      39.051  31.559  36.915  1.00  0.00    -0.237 OA
ATOM     69  O   UNL A   1      40.672  32.354  38.610  1.00  0.00    -0.237 OA
ATOM     70  O   UNL A   1      39.404  33.974  37.249  1.00  0.00    -0.744 OA
ENDBRANCH  63  67
ENDBRANCH  46  60
BRANCH  47  71
ATOM     71  C   UNL A   1      42.357  24.132  27.320  1.00  0.00     0.023 A 
ATOM     72  C   UNL A   1      41.682  22.913  27.491  1.00  0.00     0.031 A 
ATOM     73  C   UNL A   1      43.124  24.303  26.154  1.00  0.00     0.131 A 
ATOM     74  C   UNL A   1      41.829  21.893  26.538  1.00  0.00     0.055 A 
ATOM     75  C   UNL A   1      43.219  23.307  25.180  1.00  0.00     0.041 A 
ATOM     76  F   UNL A   1      43.786  25.451  25.938  1.00  0.00    -0.206 F 
ATOM     77  C   UNL A   1      42.580  22.087  25.377  1.00  0.00     0.022 A 
BRANCH  74  78
ATOM     78  S   UNL A   1      41.097  20.270  26.884  1.00  0.00     0.124 S 
ATOM     79  O   UNL A   1      42.192  19.370  26.538  1.00  0.00    -0.237 OA
ATOM     80  O   UNL A   1      40.779  20.378  28.305  1.00  0.00    -0.237 OA
ATOM     81  O   UNL A   1      39.942  20.220  25.991  1.00  0.00    -0.744 OA
ENDBRANCH  74  78
ENDBRANCH  47  71
BRANCH  59  82
ATOM     82  C   UNL A   1      46.549  25.844  32.623  1.00  0.00     0.023 A 
ATOM     83  C   UNL A   1      46.505  24.844  33.611  1.00  0.00     0.031 A 
ATOM     84  C   UNL A   1      47.812  26.267  32.170  1.00  0.00     0.131 A 
ATOM     85  C   UNL A   1      47.697  24.357  34.167  1.00  0.00     0.055 A 
ATOM     86  C   UNL A   1      48.995  25.725  32.675  1.00  0.00     0.041 A 
ATOM     87  F   UNL A   1      47.918  27.221  31.232  1.00  0.00    -0.206 F 
ATOM     88  C   UNL A   1      48.943  24.778  33.693  1.00  0.00     0.022 A 
BRANCH  85  89
ATOM     89  S   UNL A   1      47.600  23.260  35.609  1.00  0.00     0.124 S 
ATOM     90  O   UNL A   1      48.869  23.529  36.280  1.00  0.00    -0.237 OA
ATOM     91  O   UNL A   1      46.404  23.745  36.289  1.00  0.00    -0.237 OA
ATOM     92  O   UNL A   1      47.481  21.928  35.020  1.00  0.00    -0.744 OA
ENDBRANCH  85  89
ENDBRANCH  59  82
ENDBRANCH  33  34
ENDBRANCH  25  28
ENDBRANCH  23  24
ENDBRANCH   1  23
TORSDOF 15
ENDMDL
