MODEL 1
REMARK VINA RESULT:     -11.7      0.000      0.000
REMARK SMILES CCOc1cnc(C(=O)c2[nH]c3cc(Cl)ccc3c2CC(=O)NCCCNC(=O)c2ccc(-c3c4nc(c(-c5cc(S(=O)(=O)[O-])ccc5F)c5ccc([nH]5)c(-c5cc(S(=O)(=O)[O-])ccc5F)c5nc(c(-c6cc(S(=O)(=O)[O-])ccc6F)c6ccc3[nH]6)C=C5)C=C4)cc2)cc1CC
REMARK SMILES IDX 24 1 23 2 21 3 22 4 20 6 19 7 10 8 11 9 12 10 18 12 13 13
REMARK SMILES IDX 17 14 14 15 16 16 15 17 8 18 9 19 7 20 4 21 5 22 94 23 6 24
REMARK SMILES IDX 93 25 3 26 2 27 1 28 95 29 96 30 25 31 26 32 27 33 28 34
REMARK SMILES IDX 29 36 30 37 31 38 92 39 32 40 91 41 33 42 34 43 35 44 85 45
REMARK SMILES IDX 36 46 90 47 84 48 86 49 37 50 89 51 83 52 82 53 38 55 70 56
REMARK SMILES IDX 50 57 69 58 51 59 54 60 68 61 87 62 52 63 53 64 67 66 88 67
REMARK SMILES IDX 55 68 39 69 40 70 48 71 41 72 47 73 49 74 46 75 42 76 43 77
REMARK SMILES IDX 44 78 45 79 71 80 72 81 80 82 73 83 79 84 81 85 78 86 74 87
REMARK SMILES IDX 75 88 76 89 77 90 56 91 57 92 65 93 58 94 64 95 66 96 63 97
REMARK SMILES IDX 59 98 60 99 61 100 62 101
REMARK H PARENT 23 5 11 11 27 35 86 54 54 65
REMARK Flexibility Score: inf
ROOT
ATOM      1  C   UNL A   1      32.124  28.238  23.247  1.00  0.00     0.117 C 
ENDROOT
BRANCH   1   2
ATOM      2  N   UNL A   1      32.649  27.291  22.284  1.00  0.00    -0.356 N 
ATOM      3  C   UNL A   1      33.507  26.244  22.475  1.00  0.00     0.224 C 
ATOM      4  O   UNL A   1      33.632  25.431  21.554  1.00  0.00    -0.275 OA
ATOM      5  H   UNL A   1      32.343  27.420  21.358  1.00  0.00     0.163 HD
BRANCH   3   6
ATOM      6  C   UNL A   1      34.176  26.008  23.821  1.00  0.00     0.138 C 
BRANCH   6   7
ATOM      7  C   UNL A   1      33.797  24.725  24.503  1.00  0.00    -0.002 A 
ATOM      8  C   UNL A   1      34.520  23.536  24.526  1.00  0.00     0.093 A 
ATOM      9  N   UNL A   1      33.871  22.685  25.394  1.00  0.00    -0.351 N 
ATOM     10  C   UNL A   1      32.627  23.176  25.706  1.00  0.00     0.048 A 
ATOM     11  H   UNL A   1      34.247  21.844  25.742  1.00  0.00     0.167 HD
ATOM     12  C   UNL A   1      32.548  24.457  25.163  1.00  0.00     0.004 A 
ATOM     13  C   UNL A   1      31.583  22.590  26.433  1.00  0.00     0.047 A 
ATOM     14  C   UNL A   1      31.360  25.193  25.354  1.00  0.00     0.012 A 
ATOM     15  C   UNL A   1      30.415  23.340  26.593  1.00  0.00     0.043 A 
ATOM     16  C   UNL A   1      30.299  24.623  26.068  1.00  0.00     0.021 A 
ATOM     17  Cl  UNL A   1      29.088  22.656  27.452  1.00  0.00    -0.084 Cl
BRANCH   8  18
ATOM     18  C   UNL A   1      35.753  23.197  23.827  1.00  0.00     0.227 C 
ATOM     19  O   UNL A   1      35.849  23.304  22.611  1.00  0.00    -0.285 OA
BRANCH  18  20
ATOM     20  C   UNL A   1      36.917  22.681  24.651  1.00  0.00     0.113 A 
ATOM     21  C   UNL A   1      39.054  21.674  26.061  1.00  0.00     0.140 A 
ATOM     22  C   UNL A   1      38.241  20.884  25.255  1.00  0.00     0.158 A 
ATOM     23  C   UNL A   1      38.807  23.044  26.126  1.00  0.00    -0.002 A 
ATOM     24  N   UNL A   1      37.189  21.356  24.545  1.00  0.00    -0.249 NA
ATOM     25  C   UNL A   1      37.675  23.531  25.458  1.00  0.00     0.040 A 
BRANCH  21  26
ATOM     26  O   UNL A   1      40.124  21.128  26.709  1.00  0.00    -0.492 OA
BRANCH  26  27
ATOM     27  C   UNL A   1      40.505  19.866  26.143  1.00  0.00     0.226 C 
ATOM     28  C   UNL A   1      41.967  19.592  26.456  1.00  0.00     0.049 C 
ENDBRANCH  26  27
ENDBRANCH  21  26
BRANCH  23  29
ATOM     29  C   UNL A   1      39.703  23.998  26.879  1.00  0.00     0.036 C 
ATOM     30  C   UNL A   1      38.948  24.850  27.895  1.00  0.00     0.009 C 
ENDBRANCH  23  29
ENDBRANCH  18  20
ENDBRANCH   8  18
ENDBRANCH   6   7
ENDBRANCH   3   6
ENDBRANCH   1   2
BRANCH   1  31
ATOM     31  C   UNL A   1      33.178  29.188  23.805  1.00  0.00     0.042 C 
BRANCH  31  32
ATOM     32  C   UNL A   1      33.263  29.226  25.329  1.00  0.00     0.118 C 
BRANCH  32  33
ATOM     33  N   UNL A   1      32.791  30.484  25.884  1.00  0.00    -0.352 N 
ATOM     34  C   UNL A   1      33.231  31.217  26.959  1.00  0.00     0.251 C 
ATOM     35  H   UNL A   1      32.025  30.879  25.409  1.00  0.00     0.163 HD
ATOM     36  O   UNL A   1      32.538  32.156  27.348  1.00  0.00    -0.269 OA
BRANCH  34  37
ATOM     37  C   UNL A   1      34.497  30.894  27.661  1.00  0.00     0.039 A 
ATOM     38  C   UNL A   1      35.444  31.912  27.825  1.00  0.00     0.014 A 
ATOM     39  C   UNL A   1      34.800  29.599  28.092  1.00  0.00     0.014 A 
ATOM     40  C   UNL A   1      36.662  31.647  28.460  1.00  0.00     0.010 A 
ATOM     41  C   UNL A   1      35.987  29.350  28.784  1.00  0.00     0.010 A 
ATOM     42  C   UNL A   1      36.934  30.368  28.969  1.00  0.00    -0.014 A 
BRANCH  42  43
ATOM     43  C   UNL A   1      38.211  30.080  29.676  1.00  0.00     0.031 A 
ATOM     44  C   UNL A   1      38.458  30.638  31.053  1.00  0.00     0.074 A 
ATOM     45  C   UNL A   1      39.169  29.360  29.060  1.00  0.00     0.049 A 
ATOM     46  N   UNL A   1      39.531  30.561  31.798  1.00  0.00    -0.248 NA
ATOM     47  C   UNL A   1      37.360  31.406  31.657  1.00  0.00     0.031 C 
ATOM     48  C   UNL A   1      39.065  28.796  27.712  1.00  0.00     0.029 A 
ATOM     49  N   UNL A   1      40.421  28.987  29.480  1.00  0.00    -0.354 N 
ATOM     50  C   UNL A   1      39.245  31.281  32.954  1.00  0.00     0.074 A 
ATOM     51  C   UNL A   1      37.916  31.831  32.781  1.00  0.00     0.031 C 
ATOM     52  C   UNL A   1      40.200  28.139  27.423  1.00  0.00     0.029 A 
ATOM     53  C   UNL A   1      41.125  28.264  28.544  1.00  0.00     0.049 A 
ATOM     54  H   UNL A   1      40.782  29.216  30.366  1.00  0.00     0.167 HD
ATOM     55  C   UNL A   1      40.008  31.453  34.063  1.00  0.00     0.034 A 
ATOM     56  C   UNL A   1      42.377  27.767  28.582  1.00  0.00     0.034 A 
ATOM     57  C   UNL A   1      41.327  30.890  34.228  1.00  0.00     0.049 A 
ATOM     58  C   UNL A   1      43.206  27.965  29.824  1.00  0.00     0.074 A 
ATOM     59  C   UNL A   1      42.173  30.972  35.322  1.00  0.00     0.029 A 
ATOM     60  N   UNL A   1      41.997  30.140  33.269  1.00  0.00    -0.354 N 
ATOM     61  N   UNL A   1      42.907  28.621  30.921  1.00  0.00    -0.248 NA
ATOM     62  C   UNL A   1      44.535  27.342  29.838  1.00  0.00     0.031 C 
ATOM     63  C   UNL A   1      43.370  30.316  35.006  1.00  0.00     0.029 A 
ATOM     64  C   UNL A   1      43.248  29.769  33.739  1.00  0.00     0.049 A 
ATOM     65  H   UNL A   1      41.634  29.905  32.384  1.00  0.00     0.167 HD
ATOM     66  C   UNL A   1      44.001  28.465  31.766  1.00  0.00     0.074 A 
ATOM     67  C   UNL A   1      44.958  27.640  31.058  1.00  0.00     0.031 C 
ATOM     68  C   UNL A   1      44.197  28.956  33.017  1.00  0.00     0.034 A 
BRANCH  55  69
ATOM     69  C   UNL A   1      39.435  32.307  35.170  1.00  0.00     0.023 A 
ATOM     70  C   UNL A   1      39.810  33.653  35.330  1.00  0.00     0.031 A 
ATOM     71  C   UNL A   1      38.534  31.761  36.100  1.00  0.00     0.131 A 
ATOM     72  C   UNL A   1      39.352  34.381  36.438  1.00  0.00     0.055 A 
ATOM     73  C   UNL A   1      38.017  32.516  37.155  1.00  0.00     0.041 A 
ATOM     74  F   UNL A   1      38.151  30.478  36.009  1.00  0.00    -0.206 F 
ATOM     75  C   UNL A   1      38.439  33.830  37.338  1.00  0.00     0.022 A 
BRANCH  72  76
ATOM     76  S   UNL A   1      40.078  36.012  36.762  1.00  0.00     0.124 S 
ATOM     77  O   UNL A   1      39.766  36.724  35.526  1.00  0.00    -0.237 OA
ATOM     78  O   UNL A   1      39.357  36.448  37.952  1.00  0.00    -0.237 OA
ATOM     79  O   UNL A   1      41.497  35.720  36.964  1.00  0.00    -0.744 OA
ENDBRANCH  72  76
ENDBRANCH  55  69
BRANCH  56  80
ATOM     80  C   UNL A   1      42.932  27.038  27.407  1.00  0.00     0.023 A 
ATOM     81  C   UNL A   1      42.854  25.639  27.321  1.00  0.00     0.031 A 
ATOM     82  C   UNL A   1      43.584  27.730  26.371  1.00  0.00     0.131 A 
ATOM     83  C   UNL A   1      43.460  24.972  26.246  1.00  0.00     0.055 A 
ATOM     84  C   UNL A   1      44.143  27.064  25.280  1.00  0.00     0.041 A 
ATOM     85  F   UNL A   1      43.676  29.069  26.402  1.00  0.00    -0.206 F 
ATOM     86  C   UNL A   1      44.095  25.675  25.220  1.00  0.00     0.022 A 
BRANCH  83  87
ATOM     87  S   UNL A   1      43.473  23.158  26.247  1.00  0.00     0.124 S 
ATOM     88  O   UNL A   1      44.896  22.869  26.107  1.00  0.00    -0.237 OA
ATOM     89  O   UNL A   1      42.880  22.853  27.545  1.00  0.00    -0.237 OA
ATOM     90  O   UNL A   1      42.648  22.811  25.091  1.00  0.00    -0.744 OA
ENDBRANCH  83  87
ENDBRANCH  56  80
BRANCH  68  91
ATOM     91  C   UNL A   1      45.482  28.567  33.705  1.00  0.00     0.023 A 
ATOM     92  C   UNL A   1      45.577  27.406  34.490  1.00  0.00     0.031 A 
ATOM     93  C   UNL A   1      46.618  29.389  33.594  1.00  0.00     0.131 A 
ATOM     94  C   UNL A   1      46.765  27.128  35.186  1.00  0.00     0.055 A 
ATOM     95  C   UNL A   1      47.812  29.079  34.245  1.00  0.00     0.041 A 
ATOM     96  F   UNL A   1      46.580  30.511  32.857  1.00  0.00    -0.206 F 
ATOM     97  C   UNL A   1      47.887  27.951  35.057  1.00  0.00     0.022 A 
BRANCH  94  98
ATOM     98  S   UNL A   1      46.793  25.727  36.338  1.00  0.00     0.124 S 
ATOM     99  O   UNL A   1      45.849  24.803  35.717  1.00  0.00    -0.237 OA
ATOM    100  O   UNL A   1      48.195  25.325  36.304  1.00  0.00    -0.237 OA
ATOM    101  O   UNL A   1      46.347  26.313  37.600  1.00  0.00    -0.744 OA
ENDBRANCH  94  98
ENDBRANCH  68  91
ENDBRANCH  42  43
ENDBRANCH  34  37
ENDBRANCH  32  33
ENDBRANCH  31  32
ENDBRANCH   1  31
TORSDOF 19
ENDMDL
MODEL 2
REMARK VINA RESULT:     -11.5      2.265      4.463
REMARK SMILES CCOc1cnc(C(=O)c2[nH]c3cc(Cl)ccc3c2CC(=O)NCCCNC(=O)c2ccc(-c3c4nc(c(-c5cc(S(=O)(=O)[O-])ccc5F)c5ccc([nH]5)c(-c5cc(S(=O)(=O)[O-])ccc5F)c5nc(c(-c6cc(S(=O)(=O)[O-])ccc6F)c6ccc3[nH]6)C=C5)C=C4)cc2)cc1CC
REMARK SMILES IDX 24 1 23 2 21 3 22 4 20 6 19 7 10 8 11 9 12 10 18 12 13 13
REMARK SMILES IDX 17 14 14 15 16 16 15 17 8 18 9 19 7 20 4 21 5 22 94 23 6 24
REMARK SMILES IDX 93 25 3 26 2 27 1 28 95 29 96 30 25 31 26 32 27 33 28 34
REMARK SMILES IDX 29 36 30 37 31 38 92 39 32 40 91 41 33 42 34 43 35 44 85 45
REMARK SMILES IDX 36 46 90 47 84 48 86 49 37 50 89 51 83 52 82 53 38 55 70 56
REMARK SMILES IDX 50 57 69 58 51 59 54 60 68 61 87 62 52 63 53 64 67 66 88 67
REMARK SMILES IDX 55 68 39 69 40 70 48 71 41 72 47 73 49 74 46 75 42 76 43 77
REMARK SMILES IDX 44 78 45 79 71 80 72 81 80 82 73 83 79 84 81 85 78 86 74 87
REMARK SMILES IDX 75 88 76 89 77 90 56 91 57 92 65 93 58 94 64 95 66 96 63 97
REMARK SMILES IDX 59 98 60 99 61 100 62 101
REMARK H PARENT 23 5 11 11 27 35 86 54 54 65
REMARK Flexibility Score: inf
ROOT
ATOM      1  C   UNL A   1      33.701  26.471  26.137  1.00  0.00     0.117 C 
ENDROOT
BRANCH   1   2
ATOM      2  N   UNL A   1      34.444  25.826  25.073  1.00  0.00    -0.356 N 
ATOM      3  C   UNL A   1      34.739  24.503  24.898  1.00  0.00     0.224 C 
ATOM      4  O   UNL A   1      35.181  24.155  23.800  1.00  0.00    -0.275 OA
ATOM      5  H   UNL A   1      34.785  26.428  24.374  1.00  0.00     0.163 HD
BRANCH   3   6
ATOM      6  C   UNL A   1      34.404  23.473  25.967  1.00  0.00     0.138 C 
BRANCH   6   7
ATOM      7  C   UNL A   1      33.447  22.398  25.536  1.00  0.00    -0.002 A 
ATOM      8  C   UNL A   1      32.056  22.459  25.535  1.00  0.00     0.093 A 
ATOM      9  N   UNL A   1      31.603  21.315  24.915  1.00  0.00    -0.351 N 
ATOM     10  C   UNL A   1      32.626  20.409  24.773  1.00  0.00     0.048 A 
ATOM     11  H   UNL A   1      30.676  21.167  24.616  1.00  0.00     0.167 HD
ATOM     12  C   UNL A   1      33.799  21.059  25.152  1.00  0.00     0.004 A 
ATOM     13  C   UNL A   1      32.599  19.081  24.329  1.00  0.00     0.047 A 
ATOM     14  C   UNL A   1      35.013  20.342  25.087  1.00  0.00     0.012 A 
ATOM     15  C   UNL A   1      33.816  18.395  24.288  1.00  0.00     0.043 A 
ATOM     16  C   UNL A   1      35.007  19.010  24.656  1.00  0.00     0.021 A 
ATOM     17  Cl  UNL A   1      33.836  16.749  23.779  1.00  0.00    -0.084 Cl
BRANCH   8  18
ATOM     18  C   UNL A   1      31.182  23.511  26.036  1.00  0.00     0.227 C 
ATOM     19  O   UNL A   1      30.748  23.490  27.181  1.00  0.00    -0.285 OA
BRANCH  18  20
ATOM     20  C   UNL A   1      30.800  24.629  25.086  1.00  0.00     0.113 A 
ATOM     21  C   UNL A   1      30.103  26.728  23.449  1.00  0.00     0.140 A 
ATOM     22  C   UNL A   1      29.573  26.555  24.723  1.00  0.00     0.158 A 
ATOM     23  C   UNL A   1      31.064  25.827  22.993  1.00  0.00    -0.002 A 
ATOM     24  N   UNL A   1      29.905  25.536  25.550  1.00  0.00    -0.249 NA
ATOM     25  C   UNL A   1      31.358  24.725  23.809  1.00  0.00     0.040 A 
BRANCH  21  26
ATOM     26  O   UNL A   1      29.750  27.809  22.694  1.00  0.00    -0.492 OA
BRANCH  26  27
ATOM     27  C   UNL A   1      30.382  29.012  23.153  1.00  0.00     0.226 C 
ATOM     28  C   UNL A   1      29.344  30.116  23.270  1.00  0.00     0.049 C 
ENDBRANCH  26  27
ENDBRANCH  21  26
BRANCH  23  29
ATOM     29  C   UNL A   1      31.781  25.998  21.675  1.00  0.00     0.036 C 
ATOM     30  C   UNL A   1      33.206  26.520  21.835  1.00  0.00     0.009 C 
ENDBRANCH  23  29
ENDBRANCH  18  20
ENDBRANCH   8  18
ENDBRANCH   6   7
ENDBRANCH   3   6
ENDBRANCH   1   2
BRANCH   1  31
ATOM     31  C   UNL A   1      32.901  27.684  25.673  1.00  0.00     0.042 C 
BRANCH  31  32
ATOM     32  C   UNL A   1      33.739  28.922  25.365  1.00  0.00     0.118 C 
BRANCH  32  33
ATOM     33  N   UNL A   1      33.154  30.141  25.900  1.00  0.00    -0.352 N 
ATOM     34  C   UNL A   1      33.528  30.933  26.957  1.00  0.00     0.251 C 
ATOM     35  H   UNL A   1      32.352  30.453  25.422  1.00  0.00     0.163 HD
ATOM     36  O   UNL A   1      32.752  31.810  27.333  1.00  0.00    -0.269 OA
BRANCH  34  37
ATOM     37  C   UNL A   1      34.822  30.743  27.658  1.00  0.00     0.039 A 
ATOM     38  C   UNL A   1      35.063  29.517  28.289  1.00  0.00     0.014 A 
ATOM     39  C   UNL A   1      35.766  31.769  27.767  1.00  0.00     0.014 A 
ATOM     40  C   UNL A   1      36.258  29.303  28.981  1.00  0.00     0.010 A 
ATOM     41  C   UNL A   1      36.988  31.533  28.401  1.00  0.00     0.010 A 
ATOM     42  C   UNL A   1      37.245  30.301  29.022  1.00  0.00    -0.014 A 
BRANCH  42  43
ATOM     43  C   UNL A   1      38.536  30.075  29.726  1.00  0.00     0.031 A 
ATOM     44  C   UNL A   1      38.765  30.659  31.095  1.00  0.00     0.074 A 
ATOM     45  C   UNL A   1      39.520  29.388  29.113  1.00  0.00     0.049 A 
ATOM     46  N   UNL A   1      39.844  30.637  31.836  1.00  0.00    -0.248 NA
ATOM     47  C   UNL A   1      37.638  31.388  31.695  1.00  0.00     0.031 C 
ATOM     48  C   UNL A   1      39.434  28.805  27.773  1.00  0.00     0.029 A 
ATOM     49  N   UNL A   1      40.789  29.074  29.531  1.00  0.00    -0.354 N 
ATOM     50  C   UNL A   1      39.532  31.358  32.984  1.00  0.00     0.074 A 
ATOM     51  C   UNL A   1      38.181  31.849  32.812  1.00  0.00     0.031 C 
ATOM     52  C   UNL A   1      40.595  28.193  27.486  1.00  0.00     0.029 A 
ATOM     53  C   UNL A   1      41.518  28.369  28.601  1.00  0.00     0.049 A 
ATOM     54  H   UNL A   1      41.144  29.329  30.414  1.00  0.00     0.167 HD
ATOM     55  C   UNL A   1      40.293  31.575  34.087  1.00  0.00     0.034 A 
ATOM     56  C   UNL A   1      42.790  27.926  28.638  1.00  0.00     0.034 A 
ATOM     57  C   UNL A   1      41.635  31.070  34.252  1.00  0.00     0.049 A 
ATOM     58  C   UNL A   1      43.616  28.174  29.874  1.00  0.00     0.074 A 
ATOM     59  C   UNL A   1      42.482  31.201  35.341  1.00  0.00     0.029 A 
ATOM     60  N   UNL A   1      42.331  30.337  33.299  1.00  0.00    -0.354 N 
ATOM     61  N   UNL A   1      43.294  28.830  30.965  1.00  0.00    -0.248 NA
ATOM     62  C   UNL A   1      44.970  27.607  29.889  1.00  0.00     0.031 C 
ATOM     63  C   UNL A   1      43.703  30.592  35.027  1.00  0.00     0.029 A 
ATOM     64  C   UNL A   1      43.599  30.025  33.767  1.00  0.00     0.049 A 
ATOM     65  H   UNL A   1      41.975  30.077  32.419  1.00  0.00     0.167 HD
ATOM     66  C   UNL A   1      44.398  28.730  31.806  1.00  0.00     0.074 A 
ATOM     67  C   UNL A   1      45.385  27.938  31.103  1.00  0.00     0.031 C 
ATOM     68  C   UNL A   1      44.578  29.244  33.049  1.00  0.00     0.034 A 
BRANCH  55  69
ATOM     69  C   UNL A   1      39.690  32.417  35.187  1.00  0.00     0.023 A 
ATOM     70  C   UNL A   1      39.082  31.833  36.312  1.00  0.00     0.031 A 
ATOM     71  C   UNL A   1      39.686  33.820  35.092  1.00  0.00     0.131 A 
ATOM     72  C   UNL A   1      38.426  32.642  37.253  1.00  0.00     0.055 A 
ATOM     73  C   UNL A   1      39.102  34.623  36.074  1.00  0.00     0.041 A 
ATOM     74  F   UNL A   1      40.236  34.435  34.033  1.00  0.00    -0.206 F 
ATOM     75  C   UNL A   1      38.453  34.034  37.155  1.00  0.00     0.022 A 
BRANCH  72  76
ATOM     76  S   UNL A   1      37.416  31.839  38.529  1.00  0.00     0.124 S 
ATOM     77  O   UNL A   1      36.235  32.697  38.552  1.00  0.00    -0.237 OA
ATOM     78  O   UNL A   1      37.224  30.500  37.983  1.00  0.00    -0.237 OA
ATOM     79  O   UNL A   1      38.255  31.911  39.725  1.00  0.00    -0.744 OA
ENDBRANCH  72  76
ENDBRANCH  55  69
BRANCH  56  80
ATOM     80  C   UNL A   1      43.371  27.207  27.469  1.00  0.00     0.023 A 
ATOM     81  C   UNL A   1      43.254  25.814  27.347  1.00  0.00     0.031 A 
ATOM     82  C   UNL A   1      44.084  27.902  26.477  1.00  0.00     0.131 A 
ATOM     83  C   UNL A   1      43.883  25.153  26.281  1.00  0.00     0.055 A 
ATOM     84  C   UNL A   1      44.667  27.245  25.394  1.00  0.00     0.041 A 
ATOM     85  F   UNL A   1      44.215  29.237  26.544  1.00  0.00    -0.206 F 
ATOM     86  C   UNL A   1      44.579  25.859  25.298  1.00  0.00     0.022 A 
BRANCH  83  87
ATOM     87  S   UNL A   1      43.841  23.340  26.239  1.00  0.00     0.124 S 
ATOM     88  O   UNL A   1      42.509  23.084  25.702  1.00  0.00    -0.237 OA
ATOM     89  O   UNL A   1      44.960  23.033  25.354  1.00  0.00    -0.237 OA
ATOM     90  O   UNL A   1      44.034  22.963  27.637  1.00  0.00    -0.744 OA
ENDBRANCH  83  87
ENDBRANCH  56  80
BRANCH  68  91
ATOM     91  C   UNL A   1      45.882  28.917  33.736  1.00  0.00     0.023 A 
ATOM     92  C   UNL A   1      46.020  27.788  34.560  1.00  0.00     0.031 A 
ATOM     93  C   UNL A   1      46.991  29.769  33.584  1.00  0.00     0.131 A 
ATOM     94  C   UNL A   1      47.223  27.570  35.250  1.00  0.00     0.055 A 
ATOM     95  C   UNL A   1      48.201  29.518  34.231  1.00  0.00     0.041 A 
ATOM     96  F   UNL A   1      46.911  30.863  32.810  1.00  0.00    -0.206 F 
ATOM     97  C   UNL A   1      48.318  28.421  35.081  1.00  0.00     0.022 A 
BRANCH  94  98
ATOM     98  S   UNL A   1      47.305  26.211  36.449  1.00  0.00     0.124 S 
ATOM     99  O   UNL A   1      46.009  25.565  36.268  1.00  0.00    -0.237 OA
ATOM    100  O   UNL A   1      48.464  25.455  35.984  1.00  0.00    -0.237 OA
ATOM    101  O   UNL A   1      47.484  26.893  37.729  1.00  0.00    -0.744 OA
ENDBRANCH  94  98
ENDBRANCH  68  91
ENDBRANCH  42  43
ENDBRANCH  34  37
ENDBRANCH  32  33
ENDBRANCH  31  32
ENDBRANCH   1  31
TORSDOF 19
ENDMDL
MODEL 3
REMARK VINA RESULT:     -11.5      2.589      4.087
REMARK SMILES CCOc1cnc(C(=O)c2[nH]c3cc(Cl)ccc3c2CC(=O)NCCCNC(=O)c2ccc(-c3c4nc(c(-c5cc(S(=O)(=O)[O-])ccc5F)c5ccc([nH]5)c(-c5cc(S(=O)(=O)[O-])ccc5F)c5nc(c(-c6cc(S(=O)(=O)[O-])ccc6F)c6ccc3[nH]6)C=C5)C=C4)cc2)cc1CC
REMARK SMILES IDX 24 1 23 2 21 3 22 4 20 6 19 7 10 8 11 9 12 10 18 12 13 13
REMARK SMILES IDX 17 14 14 15 16 16 15 17 8 18 9 19 7 20 4 21 5 22 94 23 6 24
REMARK SMILES IDX 93 25 3 26 2 27 1 28 95 29 96 30 25 31 26 32 27 33 28 34
REMARK SMILES IDX 29 36 30 37 31 38 92 39 32 40 91 41 33 42 34 43 35 44 85 45
REMARK SMILES IDX 36 46 90 47 84 48 86 49 37 50 89 51 83 52 82 53 38 55 70 56
REMARK SMILES IDX 50 57 69 58 51 59 54 60 68 61 87 62 52 63 53 64 67 66 88 67
REMARK SMILES IDX 55 68 39 69 40 70 48 71 41 72 47 73 49 74 46 75 42 76 43 77
REMARK SMILES IDX 44 78 45 79 71 80 72 81 80 82 73 83 79 84 81 85 78 86 74 87
REMARK SMILES IDX 75 88 76 89 77 90 56 91 57 92 65 93 58 94 64 95 66 96 63 97
REMARK SMILES IDX 59 98 60 99 61 100 62 101
REMARK H PARENT 23 5 11 11 27 35 86 54 54 65
REMARK Flexibility Score: inf
ROOT
ATOM      1  C   UNL A   1      32.128  27.313  26.800  1.00  0.00     0.117 C 
ENDROOT
BRANCH   1   2
ATOM      2  N   UNL A   1      30.788  26.762  26.779  1.00  0.00    -0.356 N 
ATOM      3  C   UNL A   1      30.166  26.027  25.810  1.00  0.00     0.224 C 
ATOM      4  O   UNL A   1      29.106  25.467  26.107  1.00  0.00    -0.275 OA
ATOM      5  H   UNL A   1      30.247  26.945  27.580  1.00  0.00     0.163 HD
BRANCH   3   6
ATOM      6  C   UNL A   1      30.822  25.789  24.458  1.00  0.00     0.138 C 
BRANCH   6   7
ATOM      7  C   UNL A   1      31.009  27.019  23.617  1.00  0.00    -0.002 A 
ATOM      8  C   UNL A   1      32.212  27.570  23.184  1.00  0.00     0.093 A 
ATOM      9  N   UNL A   1      31.898  28.593  22.317  1.00  0.00    -0.351 N 
ATOM     10  C   UNL A   1      30.560  28.894  22.395  1.00  0.00     0.048 A 
ATOM     11  H   UNL A   1      32.542  29.045  21.724  1.00  0.00     0.167 HD
ATOM     12  C   UNL A   1      29.972  27.923  23.202  1.00  0.00     0.004 A 
ATOM     13  C   UNL A   1      29.835  29.937  21.804  1.00  0.00     0.047 A 
ATOM     14  C   UNL A   1      28.582  27.998  23.435  1.00  0.00     0.012 A 
ATOM     15  C   UNL A   1      28.463  29.991  22.065  1.00  0.00     0.043 A 
ATOM     16  C   UNL A   1      27.839  29.039  22.864  1.00  0.00     0.021 A 
ATOM     17  Cl  UNL A   1      27.528  31.270  21.389  1.00  0.00    -0.084 Cl
BRANCH   8  18
ATOM     18  C   UNL A   1      33.575  27.171  23.509  1.00  0.00     0.227 C 
ATOM     19  O   UNL A   1      34.482  27.990  23.577  1.00  0.00    -0.285 OA
BRANCH  18  20
ATOM     20  C   UNL A   1      33.847  25.697  23.738  1.00  0.00     0.113 A 
ATOM     21  C   UNL A   1      34.362  23.011  24.043  1.00  0.00     0.140 A 
ATOM     22  C   UNL A   1      33.687  23.532  22.944  1.00  0.00     0.158 A 
ATOM     23  C   UNL A   1      34.841  23.889  25.013  1.00  0.00    -0.002 A 
ATOM     24  N   UNL A   1      33.428  24.848  22.766  1.00  0.00    -0.249 NA
ATOM     25  C   UNL A   1      34.512  25.245  24.880  1.00  0.00     0.040 A 
BRANCH  21  26
ATOM     26  O   UNL A   1      34.623  21.674  24.124  1.00  0.00    -0.492 OA
BRANCH  26  27
ATOM     27  C   UNL A   1      33.420  20.900  24.228  1.00  0.00     0.226 C 
ATOM     28  C   UNL A   1      33.760  19.498  24.709  1.00  0.00     0.049 C 
ENDBRANCH  26  27
ENDBRANCH  21  26
BRANCH  23  29
ATOM     29  C   UNL A   1      35.684  23.432  26.180  1.00  0.00     0.036 C 
ATOM     30  C   UNL A   1      37.147  23.849  26.058  1.00  0.00     0.009 C 
ENDBRANCH  23  29
ENDBRANCH  18  20
ENDBRANCH   8  18
ENDBRANCH   6   7
ENDBRANCH   3   6
ENDBRANCH   1   2
BRANCH   1  31
ATOM     31  C   UNL A   1      32.167  28.829  26.642  1.00  0.00     0.042 C 
BRANCH  31  32
ATOM     32  C   UNL A   1      33.561  29.446  26.724  1.00  0.00     0.118 C 
BRANCH  32  33
ATOM     33  N   UNL A   1      33.535  30.834  27.157  1.00  0.00    -0.352 N 
ATOM     34  C   UNL A   1      34.369  31.533  27.993  1.00  0.00     0.251 C 
ATOM     35  H   UNL A   1      32.792  31.363  26.786  1.00  0.00     0.163 HD
ATOM     36  O   UNL A   1      34.021  32.656  28.359  1.00  0.00    -0.269 OA
BRANCH  34  37
ATOM     37  C   UNL A   1      35.653  30.966  28.473  1.00  0.00     0.039 A 
ATOM     38  C   UNL A   1      35.611  29.876  29.350  1.00  0.00     0.014 A 
ATOM     39  C   UNL A   1      36.887  31.530  28.137  1.00  0.00     0.014 A 
ATOM     40  C   UNL A   1      36.796  29.324  29.846  1.00  0.00     0.010 A 
ATOM     41  C   UNL A   1      38.072  30.938  28.579  1.00  0.00     0.010 A 
ATOM     42  C   UNL A   1      38.040  29.834  29.444  1.00  0.00    -0.014 A 
BRANCH  42  43
ATOM     43  C   UNL A   1      39.310  29.236  29.937  1.00  0.00     0.031 A 
ATOM     44  C   UNL A   1      40.026  29.840  31.116  1.00  0.00     0.074 A 
ATOM     45  C   UNL A   1      39.846  28.179  29.294  1.00  0.00     0.049 A 
ATOM     46  N   UNL A   1      41.176  29.510  31.646  1.00  0.00    -0.248 NA
ATOM     47  C   UNL A   1      39.370  30.984  31.766  1.00  0.00     0.031 C 
ATOM     48  C   UNL A   1      39.269  27.526  28.117  1.00  0.00     0.029 A 
ATOM     49  N   UNL A   1      41.001  27.477  29.530  1.00  0.00    -0.354 N 
ATOM     50  C   UNL A   1      41.391  30.414  32.683  1.00  0.00     0.074 A 
ATOM     51  C   UNL A   1      40.275  31.336  32.667  1.00  0.00     0.031 C 
ATOM     52  C   UNL A   1      40.065  26.511  27.744  1.00  0.00     0.029 A 
ATOM     53  C   UNL A   1      41.224  26.462  28.627  1.00  0.00     0.049 A 
ATOM     54  H   UNL A   1      41.612  27.679  30.275  1.00  0.00     0.167 HD
ATOM     55  C   UNL A   1      42.412  30.459  33.576  1.00  0.00     0.034 A 
ATOM     56  C   UNL A   1      42.252  25.598  28.518  1.00  0.00     0.034 A 
ATOM     57  C   UNL A   1      43.513  29.526  33.589  1.00  0.00     0.049 A 
ATOM     58  C   UNL A   1      43.373  25.663  29.522  1.00  0.00     0.074 A 
ATOM     59  C   UNL A   1      44.581  29.459  34.469  1.00  0.00     0.029 A 
ATOM     60  N   UNL A   1      43.691  28.495  32.675  1.00  0.00    -0.354 N 
ATOM     61  N   UNL A   1      43.543  26.503  30.517  1.00  0.00    -0.248 NA
ATOM     62  C   UNL A   1      44.430  24.652  29.399  1.00  0.00     0.031 C 
ATOM     63  C   UNL A   1      45.428  28.422  34.058  1.00  0.00     0.029 A 
ATOM     64  C   UNL A   1      44.857  27.799  32.960  1.00  0.00     0.049 A 
ATOM     65  H   UNL A   1      43.078  28.287  31.933  1.00  0.00     0.167 HD
ATOM     66  C   UNL A   1      44.715  26.103  31.153  1.00  0.00     0.074 A 
ATOM     67  C   UNL A   1      45.198  24.939  30.441  1.00  0.00     0.031 C 
ATOM     68  C   UNL A   1      45.333  26.647  32.233  1.00  0.00     0.034 A 
BRANCH  55  69
ATOM     69  C   UNL A   1      42.387  31.574  34.595  1.00  0.00     0.023 A 
ATOM     70  C   UNL A   1      41.485  31.566  35.673  1.00  0.00     0.031 A 
ATOM     71  C   UNL A   1      43.249  32.678  34.467  1.00  0.00     0.131 A 
ATOM     72  C   UNL A   1      41.408  32.674  36.531  1.00  0.00     0.055 A 
ATOM     73  C   UNL A   1      43.223  33.741  35.373  1.00  0.00     0.041 A 
ATOM     74  F   UNL A   1      44.120  32.750  33.449  1.00  0.00    -0.206 F 
ATOM     75  C   UNL A   1      42.287  33.751  36.402  1.00  0.00     0.022 A 
BRANCH  72  76
ATOM     76  S   UNL A   1      40.046  32.749  37.727  1.00  0.00     0.124 S 
ATOM     77  O   UNL A   1      39.190  31.659  37.266  1.00  0.00    -0.237 OA
ATOM     78  O   UNL A   1      40.729  32.532  38.997  1.00  0.00    -0.237 OA
ATOM     79  O   UNL A   1      39.495  34.090  37.535  1.00  0.00    -0.744 OA
ENDBRANCH  72  76
ENDBRANCH  55  69
BRANCH  56  80
ATOM     80  C   UNL A   1      42.280  24.598  27.414  1.00  0.00     0.023 A 
ATOM     81  C   UNL A   1      41.531  23.414  27.492  1.00  0.00     0.031 A 
ATOM     82  C   UNL A   1      43.088  24.798  26.281  1.00  0.00     0.131 A 
ATOM     83  C   UNL A   1      41.641  22.451  26.477  1.00  0.00     0.055 A 
ATOM     84  C   UNL A   1      43.158  23.858  25.252  1.00  0.00     0.041 A 
ATOM     85  F   UNL A   1      43.815  25.919  26.154  1.00  0.00    -0.206 F 
ATOM     86  C   UNL A   1      42.441  22.670  25.353  1.00  0.00     0.022 A 
BRANCH  83  87
ATOM     87  S   UNL A   1      40.779  20.868  26.685  1.00  0.00     0.124 S 
ATOM     88  O   UNL A   1      40.787  20.713  28.135  1.00  0.00    -0.237 OA
ATOM     89  O   UNL A   1      39.483  21.149  26.076  1.00  0.00    -0.237 OA
ATOM     90  O   UNL A   1      41.619  19.925  25.950  1.00  0.00    -0.744 OA
ENDBRANCH  83  87
ENDBRANCH  56  80
BRANCH  68  91
ATOM     91  C   UNL A   1      46.577  25.949  32.725  1.00  0.00     0.023 A 
ATOM     92  C   UNL A   1      46.514  24.885  33.639  1.00  0.00     0.031 A 
ATOM     93  C   UNL A   1      47.845  26.379  32.292  1.00  0.00     0.131 A 
ATOM     94  C   UNL A   1      47.699  24.322  34.140  1.00  0.00     0.055 A 
ATOM     95  C   UNL A   1      49.018  25.780  32.752  1.00  0.00     0.041 A 
ATOM     96  F   UNL A   1      47.961  27.393  31.420  1.00  0.00    -0.206 F 
ATOM     97  C   UNL A   1      48.950  24.755  33.692  1.00  0.00     0.022 A 
BRANCH  94  98
ATOM     98  S   UNL A   1      47.586  23.080  35.457  1.00  0.00     0.124 S 
ATOM     99  O   UNL A   1      46.768  23.766  36.453  1.00  0.00    -0.237 OA
ATOM    100  O   UNL A   1      46.952  21.958  34.774  1.00  0.00    -0.237 OA
ATOM    101  O   UNL A   1      48.979  22.863  35.844  1.00  0.00    -0.744 OA
ENDBRANCH  94  98
ENDBRANCH  68  91
ENDBRANCH  42  43
ENDBRANCH  34  37
ENDBRANCH  32  33
ENDBRANCH  31  32
ENDBRANCH   1  31
TORSDOF 19
ENDMDL
