MODEL 1
REMARK VINA RESULT:     -11.9      0.000      0.000
REMARK SMILES O=C(NCCCNC(=O)c1ccc(-c2c3nc(c(-c4cc(S(=O)(=O)[O-])ccc4F)c4ccc([nH]4)c(-c4cc(S(=O)(=O)[O-])ccc4F)c4nc(c(-c5cc(S(=O)(=O)[O-])ccc5F)c5ccc2[nH]5)C=C4)C=C3)cc1)c1ccc(N/C=C\C(=O)c2ccco2)cc1
REMARK SMILES IDX 4 1 3 2 1 3 2 4 73 6 74 7 88 8 75 9 87 10 76 11 77 12 78 14
REMARK SMILES IDX 79 15 80 16 81 17 82 18 83 19 86 20 84 21 85 22 5 23 6 24
REMARK SMILES IDX 7 25 8 26 9 28 10 29 11 30 72 31 12 32 71 33 13 34 14 35
REMARK SMILES IDX 15 36 65 37 16 38 70 39 64 40 66 41 17 42 69 43 63 44 62 45
REMARK SMILES IDX 18 47 50 48 30 49 49 50 31 51 34 52 48 53 67 54 32 55 33 56
REMARK SMILES IDX 47 58 68 59 35 60 19 61 20 62 28 63 21 64 27 65 29 66 26 67
REMARK SMILES IDX 22 68 23 69 24 70 25 71 51 72 52 73 60 74 53 75 59 76 61 77
REMARK SMILES IDX 58 78 54 79 55 80 56 81 57 82 36 83 37 84 45 85 38 86 44 87
REMARK SMILES IDX 46 88 43 89 39 90 40 91 41 92 42 93
REMARK H PARENT 3 5 77 13 7 27 66 46 34 57
REMARK Flexibility Score: inf
ROOT
ATOM      1  C   UNL A   1      33.724  21.805  24.810  1.00  0.00     0.118 C 
ENDROOT
BRANCH   1   2
ATOM      2  N   UNL A   1      33.419  21.701  26.231  1.00  0.00    -0.352 N 
ATOM      3  O   UNL A   1      32.792  22.415  28.278  1.00  0.00    -0.269 OA
ATOM      4  C   UNL A   1      32.826  22.611  27.066  1.00  0.00     0.251 C 
ATOM      5  H   UNL A   1      33.680  20.851  26.654  1.00  0.00     0.163 HD
BRANCH   4   6
ATOM      6  C   UNL A   1      32.246  23.851  26.512  1.00  0.00     0.039 A 
ATOM      7  C   UNL A   1      30.873  23.969  26.283  1.00  0.00     0.016 A 
ATOM      8  C   UNL A   1      33.099  24.915  26.226  1.00  0.00     0.016 A 
ATOM      9  C   UNL A   1      30.366  25.113  25.663  1.00  0.00     0.027 A 
ATOM     10  C   UNL A   1      32.579  26.069  25.643  1.00  0.00     0.027 A 
ATOM     11  C   UNL A   1      31.211  26.177  25.338  1.00  0.00     0.038 A 
BRANCH  11  12
ATOM     12  N   UNL A   1      30.783  27.310  24.628  1.00  0.00    -0.362 N 
ATOM     13  H   UNL A   1      30.302  27.987  25.157  1.00  0.00     0.166 HD
BRANCH  12  14
ATOM     14  C   UNL A   1      30.943  27.601  23.299  1.00  0.00     0.087 C 
ATOM     15  C   UNL A   1      30.113  28.234  22.456  1.00  0.00     0.074 C 
BRANCH  15  16
ATOM     16  C   UNL A   1      28.772  28.808  22.777  1.00  0.00     0.222 C 
ATOM     17  O   UNL A   1      27.940  28.054  23.284  1.00  0.00    -0.286 OA
BRANCH  16  18
ATOM     18  C   UNL A   1      28.517  30.201  22.482  1.00  0.00     0.173 A 
ATOM     19  C   UNL A   1      28.352  30.889  21.292  1.00  0.00     0.054 A 
ATOM     20  O   UNL A   1      28.504  31.090  23.523  1.00  0.00    -0.461 OA
ATOM     21  C   UNL A   1      28.265  32.263  21.624  1.00  0.00     0.043 A 
ATOM     22  C   UNL A   1      28.364  32.332  22.994  1.00  0.00     0.196 A 
ENDBRANCH  16  18
ENDBRANCH  15  16
ENDBRANCH  12  14
ENDBRANCH  11  12
ENDBRANCH   4   6
ENDBRANCH   1   2
BRANCH   1  23
ATOM     23  C   UNL A   1      35.132  22.313  24.543  1.00  0.00     0.042 C 
BRANCH  23  24
ATOM     24  C   UNL A   1      36.063  22.253  25.746  1.00  0.00     0.118 C 
BRANCH  24  25
ATOM     25  N   UNL A   1      37.062  21.199  25.637  1.00  0.00    -0.352 N 
ATOM     26  C   UNL A   1      38.426  21.241  25.796  1.00  0.00     0.251 C 
ATOM     27  H   UNL A   1      36.701  20.311  25.413  1.00  0.00     0.163 HD
ATOM     28  O   UNL A   1      39.095  20.263  25.471  1.00  0.00    -0.269 OA
BRANCH  26  29
ATOM     29  C   UNL A   1      39.089  22.456  26.321  1.00  0.00     0.039 A 
ATOM     30  C   UNL A   1      40.198  22.314  27.160  1.00  0.00     0.014 A 
ATOM     31  C   UNL A   1      38.616  23.731  26.005  1.00  0.00     0.014 A 
ATOM     32  C   UNL A   1      40.879  23.448  27.612  1.00  0.00     0.010 A 
ATOM     33  C   UNL A   1      39.345  24.856  26.383  1.00  0.00     0.010 A 
ATOM     34  C   UNL A   1      40.485  24.728  27.190  1.00  0.00    -0.014 A 
BRANCH  34  35
ATOM     35  C   UNL A   1      41.240  25.947  27.585  1.00  0.00     0.031 A 
ATOM     36  C   UNL A   1      40.562  27.023  28.391  1.00  0.00     0.074 A 
ATOM     37  C   UNL A   1      42.503  26.123  27.147  1.00  0.00     0.049 A 
ATOM     38  N   UNL A   1      41.002  28.208  28.728  1.00  0.00    -0.248 NA
ATOM     39  C   UNL A   1      39.193  26.739  28.848  1.00  0.00     0.031 C 
ATOM     40  C   UNL A   1      43.251  25.173  26.320  1.00  0.00     0.029 A 
ATOM     41  N   UNL A   1      43.375  27.168  27.320  1.00  0.00    -0.354 N 
ATOM     42  C   UNL A   1      39.957  28.820  29.412  1.00  0.00     0.074 A 
ATOM     43  C   UNL A   1      38.844  27.895  29.390  1.00  0.00     0.031 C 
ATOM     44  C   UNL A   1      44.475  25.672  26.075  1.00  0.00     0.029 A 
ATOM     45  C   UNL A   1      44.583  26.992  26.685  1.00  0.00     0.049 A 
ATOM     46  H   UNL A   1      43.157  27.969  27.850  1.00  0.00     0.167 HD
ATOM     47  C   UNL A   1      39.934  30.033  30.020  1.00  0.00     0.034 A 
ATOM     48  C   UNL A   1      45.652  27.809  26.592  1.00  0.00     0.034 A 
ATOM     49  C   UNL A   1      41.062  30.931  30.057  1.00  0.00     0.049 A 
ATOM     50  C   UNL A   1      45.606  29.150  27.279  1.00  0.00     0.074 A 
ATOM     51  C   UNL A   1      41.170  32.154  30.697  1.00  0.00     0.029 A 
ATOM     52  N   UNL A   1      42.279  30.705  29.427  1.00  0.00    -0.354 N 
ATOM     53  N   UNL A   1      44.624  29.694  27.960  1.00  0.00    -0.248 NA
ATOM     54  C   UNL A   1      46.816  29.978  27.196  1.00  0.00     0.031 C 
ATOM     55  C   UNL A   1      42.429  32.691  30.408  1.00  0.00     0.029 A 
ATOM     56  C   UNL A   1      43.135  31.774  29.644  1.00  0.00     0.049 A 
ATOM     57  H   UNL A   1      42.502  29.902  28.902  1.00  0.00     0.167 HD
ATOM     58  C   UNL A   1      45.112  30.917  28.412  1.00  0.00     0.074 A 
ATOM     59  C   UNL A   1      46.476  31.023  27.936  1.00  0.00     0.031 C 
ATOM     60  C   UNL A   1      44.490  31.866  29.159  1.00  0.00     0.034 A 
BRANCH  47  61
ATOM     61  C   UNL A   1      38.641  30.459  30.673  1.00  0.00     0.023 A 
ATOM     62  C   UNL A   1      37.602  31.053  29.935  1.00  0.00     0.031 A 
ATOM     63  C   UNL A   1      38.454  30.296  32.057  1.00  0.00     0.131 A 
ATOM     64  C   UNL A   1      36.460  31.532  30.593  1.00  0.00     0.055 A 
ATOM     65  C   UNL A   1      37.279  30.702  32.694  1.00  0.00     0.041 A 
ATOM     66  F   UNL A   1      39.418  29.754  32.817  1.00  0.00    -0.206 F 
ATOM     67  C   UNL A   1      36.280  31.338  31.964  1.00  0.00     0.022 A 
BRANCH  64  68
ATOM     68  S   UNL A   1      35.279  32.540  29.654  1.00  0.00     0.124 S 
ATOM     69  O   UNL A   1      34.373  32.990  30.708  1.00  0.00    -0.237 OA
ATOM     70  O   UNL A   1      36.135  33.564  29.067  1.00  0.00    -0.237 OA
ATOM     71  O   UNL A   1      34.698  31.591  28.706  1.00  0.00    -0.744 OA
ENDBRANCH  64  68
ENDBRANCH  47  61
BRANCH  48  72
ATOM     72  C   UNL A   1      46.853  27.394  25.813  1.00  0.00     0.023 A 
ATOM     73  C   UNL A   1      47.022  27.798  24.479  1.00  0.00     0.031 A 
ATOM     74  C   UNL A   1      47.830  26.556  26.377  1.00  0.00     0.131 A 
ATOM     75  C   UNL A   1      48.116  27.325  23.738  1.00  0.00     0.055 A 
ATOM     76  C   UNL A   1      48.943  26.128  25.652  1.00  0.00     0.041 A 
ATOM     77  F   UNL A   1      47.720  26.148  27.653  1.00  0.00    -0.206 F 
ATOM     78  C   UNL A   1      49.084  26.502  24.319  1.00  0.00     0.022 A 
BRANCH  75  79
ATOM     79  S   UNL A   1      48.213  27.738  21.975  1.00  0.00     0.124 S 
ATOM     80  O   UNL A   1      49.343  28.659  21.947  1.00  0.00    -0.237 OA
ATOM     81  O   UNL A   1      48.436  26.429  21.371  1.00  0.00    -0.237 OA
ATOM     82  O   UNL A   1      46.911  28.339  21.695  1.00  0.00    -0.744 OA
ENDBRANCH  75  79
ENDBRANCH  48  72
BRANCH  60  83
ATOM     83  C   UNL A   1      45.306  33.072  29.547  1.00  0.00     0.023 A 
ATOM     84  C   UNL A   1      45.289  34.254  28.787  1.00  0.00     0.031 A 
ATOM     85  C   UNL A   1      46.117  33.033  30.696  1.00  0.00     0.131 A 
ATOM     86  C   UNL A   1      46.109  35.332  29.155  1.00  0.00     0.055 A 
ATOM     87  C   UNL A   1      46.888  34.127  31.087  1.00  0.00     0.041 A 
ATOM     88  F   UNL A   1      46.170  31.928  31.457  1.00  0.00    -0.206 F 
ATOM     89  C   UNL A   1      46.897  35.281  30.309  1.00  0.00     0.022 A 
BRANCH  86  90
ATOM     90  S   UNL A   1      46.194  36.776  28.061  1.00  0.00     0.124 S 
ATOM     91  O   UNL A   1      45.656  36.244  26.813  1.00  0.00    -0.237 OA
ATOM     92  O   UNL A   1      45.351  37.744  28.756  1.00  0.00    -0.237 OA
ATOM     93  O   UNL A   1      47.618  37.102  28.032  1.00  0.00    -0.744 OA
ENDBRANCH  86  90
ENDBRANCH  60  83
ENDBRANCH  34  35
ENDBRANCH  26  29
ENDBRANCH  24  25
ENDBRANCH  23  24
ENDBRANCH   1  23
TORSDOF 17
ENDMDL
MODEL 2
REMARK VINA RESULT:     -11.9      5.034      8.124
REMARK SMILES O=C(NCCCNC(=O)c1ccc(-c2c3nc(c(-c4cc(S(=O)(=O)[O-])ccc4F)c4ccc([nH]4)c(-c4cc(S(=O)(=O)[O-])ccc4F)c4nc(c(-c5cc(S(=O)(=O)[O-])ccc5F)c5ccc2[nH]5)C=C4)C=C3)cc1)c1ccc(N/C=C\C(=O)c2ccco2)cc1
REMARK SMILES IDX 4 1 3 2 1 3 2 4 73 6 74 7 88 8 75 9 87 10 76 11 77 12 78 14
REMARK SMILES IDX 79 15 80 16 81 17 82 18 83 19 86 20 84 21 85 22 5 23 6 24
REMARK SMILES IDX 7 25 8 26 9 28 10 29 11 30 72 31 12 32 71 33 13 34 14 35
REMARK SMILES IDX 15 36 65 37 16 38 70 39 64 40 66 41 17 42 69 43 63 44 62 45
REMARK SMILES IDX 18 47 50 48 30 49 49 50 31 51 34 52 48 53 67 54 32 55 33 56
REMARK SMILES IDX 47 58 68 59 35 60 19 61 20 62 28 63 21 64 27 65 29 66 26 67
REMARK SMILES IDX 22 68 23 69 24 70 25 71 51 72 52 73 60 74 53 75 59 76 61 77
REMARK SMILES IDX 58 78 54 79 55 80 56 81 57 82 36 83 37 84 45 85 38 86 44 87
REMARK SMILES IDX 46 88 43 89 39 90 40 91 41 92 42 93
REMARK H PARENT 3 5 77 13 7 27 66 46 34 57
REMARK Flexibility Score: inf
ROOT
ATOM      1  C   UNL A   1      31.414  29.552  25.113  1.00  0.00     0.118 C 
ENDROOT
BRANCH   1   2
ATOM      2  N   UNL A   1      30.782  29.878  23.842  1.00  0.00    -0.352 N 
ATOM      3  O   UNL A   1      30.059  29.529  21.732  1.00  0.00    -0.269 OA
ATOM      4  C   UNL A   1      30.443  29.056  22.799  1.00  0.00     0.251 C 
ATOM      5  H   UNL A   1      30.566  30.829  23.713  1.00  0.00     0.163 HD
BRANCH   4   6
ATOM      6  C   UNL A   1      30.567  27.592  22.944  1.00  0.00     0.039 A 
ATOM      7  C   UNL A   1      29.658  26.861  23.714  1.00  0.00     0.016 A 
ATOM      8  C   UNL A   1      31.611  26.943  22.287  1.00  0.00     0.016 A 
ATOM      9  C   UNL A   1      29.858  25.494  23.917  1.00  0.00     0.027 A 
ATOM     10  C   UNL A   1      31.781  25.571  22.465  1.00  0.00     0.027 A 
ATOM     11  C   UNL A   1      30.920  24.832  23.294  1.00  0.00     0.038 A 
BRANCH  11  12
ATOM     12  N   UNL A   1      31.233  23.486  23.534  1.00  0.00    -0.362 N 
ATOM     13  H   UNL A   1      31.243  22.903  22.741  1.00  0.00     0.166 HD
BRANCH  12  14
ATOM     14  C   UNL A   1      31.527  22.871  24.723  1.00  0.00     0.087 C 
ATOM     15  C   UNL A   1      32.554  23.077  25.561  1.00  0.00     0.074 C 
BRANCH  15  16
ATOM     16  C   UNL A   1      33.656  24.073  25.405  1.00  0.00     0.222 C 
ATOM     17  O   UNL A   1      33.485  25.189  25.896  1.00  0.00    -0.286 OA
BRANCH  16  18
ATOM     18  C   UNL A   1      34.856  23.684  24.695  1.00  0.00     0.173 A 
ATOM     19  C   UNL A   1      35.099  23.389  23.364  1.00  0.00     0.054 A 
ATOM     20  O   UNL A   1      35.995  23.466  25.421  1.00  0.00    -0.461 OA
ATOM     21  C   UNL A   1      36.440  22.942  23.285  1.00  0.00     0.043 A 
ATOM     22  C   UNL A   1      36.941  23.007  24.563  1.00  0.00     0.196 A 
ENDBRANCH  16  18
ENDBRANCH  15  16
ENDBRANCH  12  14
ENDBRANCH  11  12
ENDBRANCH   4   6
ENDBRANCH   1   2
BRANCH   1  23
ATOM     23  C   UNL A   1      32.929  29.452  25.011  1.00  0.00     0.042 C 
BRANCH  23  24
ATOM     24  C   UNL A   1      33.653  29.461  26.349  1.00  0.00     0.118 C 
BRANCH  24  25
ATOM     25  N   UNL A   1      33.608  30.758  27.009  1.00  0.00    -0.352 N 
ATOM     26  C   UNL A   1      34.424  31.298  27.975  1.00  0.00     0.251 C 
ATOM     27  H   UNL A   1      32.874  31.345  26.716  1.00  0.00     0.163 HD
ATOM     28  O   UNL A   1      34.086  32.343  28.525  1.00  0.00    -0.269 OA
BRANCH  26  29
ATOM     29  C   UNL A   1      35.676  30.616  28.374  1.00  0.00     0.039 A 
ATOM     30  C   UNL A   1      36.848  30.881  27.659  1.00  0.00     0.014 A 
ATOM     31  C   UNL A   1      35.700  29.708  29.434  1.00  0.00     0.014 A 
ATOM     32  C   UNL A   1      38.055  30.300  28.060  1.00  0.00     0.010 A 
ATOM     33  C   UNL A   1      36.915  29.200  29.887  1.00  0.00     0.010 A 
ATOM     34  C   UNL A   1      38.106  29.489  29.205  1.00  0.00    -0.014 A 
BRANCH  34  35
ATOM     35  C   UNL A   1      39.388  28.926  29.706  1.00  0.00     0.031 A 
ATOM     36  C   UNL A   1      40.127  29.616  30.822  1.00  0.00     0.074 A 
ATOM     37  C   UNL A   1      39.927  27.849  29.101  1.00  0.00     0.049 A 
ATOM     38  N   UNL A   1      41.312  29.359  31.314  1.00  0.00    -0.248 NA
ATOM     39  C   UNL A   1      39.457  30.769  31.440  1.00  0.00     0.031 C 
ATOM     40  C   UNL A   1      39.329  27.121  27.979  1.00  0.00     0.029 A 
ATOM     41  N   UNL A   1      41.106  27.186  29.332  1.00  0.00    -0.354 N 
ATOM     42  C   UNL A   1      41.540  30.334  32.281  1.00  0.00     0.074 A 
ATOM     43  C   UNL A   1      40.394  31.217  32.262  1.00  0.00     0.031 C 
ATOM     44  C   UNL A   1      40.136  26.104  27.633  1.00  0.00     0.029 A 
ATOM     45  C   UNL A   1      41.327  26.132  28.474  1.00  0.00     0.049 A 
ATOM     46  H   UNL A   1      41.736  27.440  30.045  1.00  0.00     0.167 HD
ATOM     47  C   UNL A   1      42.598  30.467  33.120  1.00  0.00     0.034 A 
ATOM     48  C   UNL A   1      42.378  25.294  28.368  1.00  0.00     0.034 A 
ATOM     49  C   UNL A   1      43.719  29.560  33.145  1.00  0.00     0.049 A 
ATOM     50  C   UNL A   1      43.539  25.458  29.314  1.00  0.00     0.074 A 
ATOM     51  C   UNL A   1      44.812  29.563  33.995  1.00  0.00     0.029 A 
ATOM     52  N   UNL A   1      43.893  28.487  32.280  1.00  0.00    -0.354 N 
ATOM     53  N   UNL A   1      43.718  26.359  30.252  1.00  0.00    -0.248 NA
ATOM     54  C   UNL A   1      44.632  24.485  29.195  1.00  0.00     0.031 C 
ATOM     55  C   UNL A   1      45.672  28.529  33.609  1.00  0.00     0.029 A 
ATOM     56  C   UNL A   1      45.084  27.836  32.561  1.00  0.00     0.049 A 
ATOM     57  H   UNL A   1      43.262  28.226  31.571  1.00  0.00     0.167 HD
ATOM     58  C   UNL A   1      44.931  26.040  30.855  1.00  0.00     0.074 A 
ATOM     59  C   UNL A   1      45.433  24.859  30.182  1.00  0.00     0.031 C 
ATOM     60  C   UNL A   1      45.571  26.663  31.878  1.00  0.00     0.034 A 
BRANCH  47  61
ATOM     61  C   UNL A   1      42.594  31.648  34.061  1.00  0.00     0.023 A 
ATOM     62  C   UNL A   1      42.088  31.548  35.369  1.00  0.00     0.031 A 
ATOM     63  C   UNL A   1      43.075  32.899  33.636  1.00  0.00     0.131 A 
ATOM     64  C   UNL A   1      42.003  32.692  36.177  1.00  0.00     0.055 A 
ATOM     65  C   UNL A   1      43.063  34.016  34.474  1.00  0.00     0.041 A 
ATOM     66  F   UNL A   1      43.552  33.061  32.392  1.00  0.00    -0.206 F 
ATOM     67  C   UNL A   1      42.511  33.920  35.747  1.00  0.00     0.022 A 
BRANCH  64  68
ATOM     68  S   UNL A   1      41.090  32.580  37.740  1.00  0.00     0.124 S 
ATOM     69  O   UNL A   1      41.053  33.980  38.159  1.00  0.00    -0.237 OA
ATOM     70  O   UNL A   1      39.817  32.005  37.322  1.00  0.00    -0.237 OA
ATOM     71  O   UNL A   1      41.928  31.712  38.565  1.00  0.00    -0.744 OA
ENDBRANCH  64  68
ENDBRANCH  47  61
BRANCH  48  72
ATOM     72  C   UNL A   1      42.391  24.230  27.324  1.00  0.00     0.023 A 
ATOM     73  C   UNL A   1      41.785  22.985  27.556  1.00  0.00     0.031 A 
ATOM     74  C   UNL A   1      43.044  24.428  26.095  1.00  0.00     0.131 A 
ATOM     75  C   UNL A   1      41.885  21.969  26.593  1.00  0.00     0.055 A 
ATOM     76  C   UNL A   1      43.098  23.431  25.120  1.00  0.00     0.041 A 
ATOM     77  F   UNL A   1      43.632  25.604  25.820  1.00  0.00    -0.206 F 
ATOM     78  C   UNL A   1      42.527  22.187  25.371  1.00  0.00     0.022 A 
BRANCH  75  79
ATOM     79  S   UNL A   1      41.231  20.326  26.995  1.00  0.00     0.124 S 
ATOM     80  O   UNL A   1      42.408  19.485  26.818  1.00  0.00    -0.237 OA
ATOM     81  O   UNL A   1      40.773  20.512  28.368  1.00  0.00    -0.237 OA
ATOM     82  O   UNL A   1      40.171  20.132  26.007  1.00  0.00    -0.744 OA
ENDBRANCH  75  79
ENDBRANCH  48  72
BRANCH  60  83
ATOM     83  C   UNL A   1      46.857  26.041  32.359  1.00  0.00     0.023 A 
ATOM     84  C   UNL A   1      46.885  25.134  33.433  1.00  0.00     0.031 A 
ATOM     85  C   UNL A   1      48.075  26.368  31.736  1.00  0.00     0.131 A 
ATOM     86  C   UNL A   1      48.112  24.624  33.884  1.00  0.00     0.055 A 
ATOM     87  C   UNL A   1      49.285  25.816  32.153  1.00  0.00     0.041 A 
ATOM     88  F   UNL A   1      48.103  27.230  30.706  1.00  0.00    -0.206 F 
ATOM     89  C   UNL A   1      49.311  24.948  33.240  1.00  0.00     0.022 A 
BRANCH  86  90
ATOM     90  S   UNL A   1      48.132  23.591  35.374  1.00  0.00     0.124 S 
ATOM     91  O   UNL A   1      46.725  23.229  35.512  1.00  0.00    -0.237 OA
ATOM     92  O   UNL A   1      49.034  22.509  34.992  1.00  0.00    -0.237 OA
ATOM     93  O   UNL A   1      48.644  24.489  36.408  1.00  0.00    -0.744 OA
ENDBRANCH  86  90
ENDBRANCH  60  83
ENDBRANCH  34  35
ENDBRANCH  26  29
ENDBRANCH  24  25
ENDBRANCH  23  24
ENDBRANCH   1  23
TORSDOF 17
ENDMDL
MODEL 3
REMARK VINA RESULT:     -11.9      5.667     10.795
REMARK SMILES O=C(NCCCNC(=O)c1ccc(-c2c3nc(c(-c4cc(S(=O)(=O)[O-])ccc4F)c4ccc([nH]4)c(-c4cc(S(=O)(=O)[O-])ccc4F)c4nc(c(-c5cc(S(=O)(=O)[O-])ccc5F)c5ccc2[nH]5)C=C4)C=C3)cc1)c1ccc(N/C=C\C(=O)c2ccco2)cc1
REMARK SMILES IDX 4 1 3 2 1 3 2 4 73 6 74 7 88 8 75 9 87 10 76 11 77 12 78 14
REMARK SMILES IDX 79 15 80 16 81 17 82 18 83 19 86 20 84 21 85 22 5 23 6 24
REMARK SMILES IDX 7 25 8 26 9 28 10 29 11 30 72 31 12 32 71 33 13 34 14 35
REMARK SMILES IDX 15 36 65 37 16 38 70 39 64 40 66 41 17 42 69 43 63 44 62 45
REMARK SMILES IDX 18 47 50 48 30 49 49 50 31 51 34 52 48 53 67 54 32 55 33 56
REMARK SMILES IDX 47 58 68 59 35 60 19 61 20 62 28 63 21 64 27 65 29 66 26 67
REMARK SMILES IDX 22 68 23 69 24 70 25 71 51 72 52 73 60 74 53 75 59 76 61 77
REMARK SMILES IDX 58 78 54 79 55 80 56 81 57 82 36 83 37 84 45 85 38 86 44 87
REMARK SMILES IDX 46 88 43 89 39 90 40 91 41 92 42 93
REMARK H PARENT 3 5 77 13 7 27 66 46 34 57
REMARK Flexibility Score: inf
ROOT
ATOM      1  C   UNL A   1      31.243  30.678  26.060  1.00  0.00     0.118 C 
ENDROOT
BRANCH   1   2
ATOM      2  N   UNL A   1      31.073  30.433  24.635  1.00  0.00    -0.352 N 
ATOM      3  O   UNL A   1      30.982  29.221  22.732  1.00  0.00    -0.269 OA
ATOM      4  C   UNL A   1      30.960  29.245  23.960  1.00  0.00     0.251 C 
ATOM      5  H   UNL A   1      31.035  31.239  24.072  1.00  0.00     0.163 HD
BRANCH   4   6
ATOM      6  C   UNL A   1      30.839  27.980  24.711  1.00  0.00     0.039 A 
ATOM      7  C   UNL A   1      31.645  27.717  25.822  1.00  0.00     0.016 A 
ATOM      8  C   UNL A   1      29.893  27.046  24.294  1.00  0.00     0.016 A 
ATOM      9  C   UNL A   1      31.580  26.472  26.451  1.00  0.00     0.027 A 
ATOM     10  C   UNL A   1      29.808  25.819  24.952  1.00  0.00     0.027 A 
ATOM     11  C   UNL A   1      30.661  25.509  26.025  1.00  0.00     0.038 A 
BRANCH  11  12
ATOM     12  N   UNL A   1      30.613  24.208  26.548  1.00  0.00    -0.362 N 
ATOM     13  H   UNL A   1      30.400  24.142  27.507  1.00  0.00     0.166 HD
BRANCH  12  14
ATOM     14  C   UNL A   1      30.821  23.016  25.906  1.00  0.00     0.087 C 
ATOM     15  C   UNL A   1      31.870  22.611  25.173  1.00  0.00     0.074 C 
BRANCH  15  16
ATOM     16  C   UNL A   1      33.116  23.383  24.884  1.00  0.00     0.222 C 
ATOM     17  O   UNL A   1      34.106  23.139  25.574  1.00  0.00    -0.286 OA
BRANCH  16  18
ATOM     18  C   UNL A   1      33.101  24.366  23.822  1.00  0.00     0.173 A 
ATOM     19  C   UNL A   1      33.811  25.537  23.624  1.00  0.00     0.054 A 
ATOM     20  O   UNL A   1      32.176  24.223  22.823  1.00  0.00    -0.461 OA
ATOM     21  C   UNL A   1      33.271  26.150  22.467  1.00  0.00     0.043 A 
ATOM     22  C   UNL A   1      32.279  25.311  22.018  1.00  0.00     0.196 A 
ENDBRANCH  16  18
ENDBRANCH  15  16
ENDBRANCH  12  14
ENDBRANCH  11  12
ENDBRANCH   4   6
ENDBRANCH   1   2
BRANCH   1  23
ATOM     23  C   UNL A   1      31.293  32.160  26.402  1.00  0.00     0.042 C 
BRANCH  23  24
ATOM     24  C   UNL A   1      32.557  32.596  27.130  1.00  0.00     0.118 C 
BRANCH  24  25
ATOM     25  N   UNL A   1      32.454  33.937  27.689  1.00  0.00    -0.352 N 
ATOM     26  C   UNL A   1      33.162  34.539  28.702  1.00  0.00     0.251 C 
ATOM     27  H   UNL A   1      31.766  34.505  27.274  1.00  0.00     0.163 HD
ATOM     28  O   UNL A   1      32.777  35.622  29.136  1.00  0.00    -0.269 OA
BRANCH  26  29
ATOM     29  C   UNL A   1      34.351  33.881  29.288  1.00  0.00     0.039 A 
ATOM     30  C   UNL A   1      35.621  34.381  28.981  1.00  0.00     0.014 A 
ATOM     31  C   UNL A   1      34.226  32.768  30.121  1.00  0.00     0.014 A 
ATOM     32  C   UNL A   1      36.753  33.816  29.576  1.00  0.00     0.010 A 
ATOM     33  C   UNL A   1      35.344  32.264  30.781  1.00  0.00     0.010 A 
ATOM     34  C   UNL A   1      36.620  32.782  30.516  1.00  0.00    -0.014 A 
BRANCH  34  35
ATOM     35  C   UNL A   1      37.798  32.219  31.228  1.00  0.00     0.031 A 
ATOM     36  C   UNL A   1      38.571  31.079  30.620  1.00  0.00     0.074 A 
ATOM     37  C   UNL A   1      38.117  32.673  32.457  1.00  0.00     0.049 A 
ATOM     38  N   UNL A   1      39.543  30.370  31.132  1.00  0.00    -0.248 NA
ATOM     39  C   UNL A   1      38.171  30.661  29.268  1.00  0.00     0.031 C 
ATOM     40  C   UNL A   1      37.414  33.742  33.173  1.00  0.00     0.029 A 
ATOM     41  N   UNL A   1      39.102  32.286  33.329  1.00  0.00    -0.354 N 
ATOM     42  C   UNL A   1      39.854  29.406  30.178  1.00  0.00     0.074 A 
ATOM     43  C   UNL A   1      38.926  29.590  29.082  1.00  0.00     0.031 C 
ATOM     44  C   UNL A   1      38.003  33.935  34.365  1.00  0.00     0.029 A 
ATOM     45  C   UNL A   1      39.092  32.977  34.520  1.00  0.00     0.049 A 
ATOM     46  H   UNL A   1      39.756  31.578  33.124  1.00  0.00     0.167 HD
ATOM     47  C   UNL A   1      40.834  28.469  30.204  1.00  0.00     0.034 A 
ATOM     48  C   UNL A   1      39.864  32.844  35.617  1.00  0.00     0.034 A 
ATOM     49  C   UNL A   1      41.769  28.318  31.292  1.00  0.00     0.049 A 
ATOM     50  C   UNL A   1      40.951  31.800  35.622  1.00  0.00     0.074 A 
ATOM     51  C   UNL A   1      42.840  27.447  31.395  1.00  0.00     0.029 A 
ATOM     52  N   UNL A   1      41.746  29.058  32.468  1.00  0.00    -0.354 N 
ATOM     53  N   UNL A   1      41.258  30.926  34.692  1.00  0.00    -0.248 NA
ATOM     54  C   UNL A   1      41.800  31.733  36.818  1.00  0.00     0.031 C 
ATOM     55  C   UNL A   1      43.427  27.619  32.653  1.00  0.00     0.029 A 
ATOM     56  C   UNL A   1      42.768  28.647  33.310  1.00  0.00     0.049 A 
ATOM     57  H   UNL A   1      41.098  29.770  32.673  1.00  0.00     0.167 HD
ATOM     58  C   UNL A   1      42.358  30.227  35.180  1.00  0.00     0.074 A 
ATOM     59  C   UNL A   1      42.665  30.788  36.479  1.00  0.00     0.031 C 
ATOM     60  C   UNL A   1      43.057  29.215  34.604  1.00  0.00     0.034 A 
BRANCH  47  61
ATOM     61  C   UNL A   1      40.926  27.525  29.028  1.00  0.00     0.023 A 
ATOM     62  C   UNL A   1      41.865  27.716  28.000  1.00  0.00     0.031 A 
ATOM     63  C   UNL A   1      40.043  26.437  28.919  1.00  0.00     0.131 A 
ATOM     64  C   UNL A   1      41.849  26.882  26.872  1.00  0.00     0.055 A 
ATOM     65  C   UNL A   1      40.086  25.560  27.832  1.00  0.00     0.041 A 
ATOM     66  F   UNL A   1      39.111  26.215  29.859  1.00  0.00    -0.206 F 
ATOM     67  C   UNL A   1      40.982  25.789  26.793  1.00  0.00     0.022 A 
BRANCH  64  68
ATOM     68  S   UNL A   1      42.879  27.332  25.449  1.00  0.00     0.124 S 
ATOM     69  O   UNL A   1      44.183  27.523  26.079  1.00  0.00    -0.237 OA
ATOM     70  O   UNL A   1      42.752  26.164  24.585  1.00  0.00    -0.237 OA
ATOM     71  O   UNL A   1      42.253  28.553  24.945  1.00  0.00    -0.744 OA
ENDBRANCH  64  68
ENDBRANCH  47  61
BRANCH  48  72
ATOM     72  C   UNL A   1      39.637  33.711  36.808  1.00  0.00     0.023 A 
ATOM     73  C   UNL A   1      39.015  33.204  37.961  1.00  0.00     0.031 A 
ATOM     74  C   UNL A   1      40.002  35.068  36.798  1.00  0.00     0.131 A 
ATOM     75  C   UNL A   1      38.734  34.060  39.037  1.00  0.00     0.055 A 
ATOM     76  C   UNL A   1      39.765  35.904  37.891  1.00  0.00     0.041 A 
ATOM     77  F   UNL A   1      40.608  35.601  35.724  1.00  0.00    -0.206 F 
ATOM     78  C   UNL A   1      39.115  35.403  39.015  1.00  0.00     0.022 A 
BRANCH  75  79
ATOM     79  S   UNL A   1      37.787  33.406  40.439  1.00  0.00     0.124 S 
ATOM     80  O   UNL A   1      36.577  32.926  39.783  1.00  0.00    -0.237 OA
ATOM     81  O   UNL A   1      38.686  32.382  40.959  1.00  0.00    -0.237 OA
ATOM     82  O   UNL A   1      37.608  34.573  41.301  1.00  0.00    -0.744 OA
ENDBRANCH  75  79
ENDBRANCH  48  72
BRANCH  60  83
ATOM     83  C   UNL A   1      44.253  28.693  35.360  1.00  0.00     0.023 A 
ATOM     84  C   UNL A   1      44.137  27.665  36.311  1.00  0.00     0.031 A 
ATOM     85  C   UNL A   1      45.527  29.241  35.126  1.00  0.00     0.131 A 
ATOM     86  C   UNL A   1      45.268  27.251  37.031  1.00  0.00     0.055 A 
ATOM     87  C   UNL A   1      46.657  28.788  35.805  1.00  0.00     0.041 A 
ATOM     88  F   UNL A   1      45.691  30.226  34.227  1.00  0.00    -0.206 F 
ATOM     89  C   UNL A   1      46.529  27.795  36.773  1.00  0.00     0.022 A 
BRANCH  86  90
ATOM     90  S   UNL A   1      45.056  26.044  38.368  1.00  0.00     0.124 S 
ATOM     91  O   UNL A   1      46.418  25.911  38.875  1.00  0.00    -0.237 OA
ATOM     92  O   UNL A   1      44.111  26.719  39.252  1.00  0.00    -0.237 OA
ATOM     93  O   UNL A   1      44.531  24.863  37.685  1.00  0.00    -0.744 OA
ENDBRANCH  86  90
ENDBRANCH  60  83
ENDBRANCH  34  35
ENDBRANCH  26  29
ENDBRANCH  24  25
ENDBRANCH  23  24
ENDBRANCH   1  23
TORSDOF 17
ENDMDL
