MODEL 1
REMARK VINA RESULT:     -11.8      0.000      0.000
REMARK SMILES C[N@@H+]1CCC[C@@H](NC(=O)N(CC(=O)NCCCNC(=O)c2ccc(-c3c4nc(c(-c5cc(S(=O)(=O)[O-])ccc5F)c5ccc([nH]5)c(-c5cc(S(=O)(=O)[O-])ccc5F)c5nc(c(-c6cc(S(=O)(=O)[O-])ccc6F)c6ccc3[nH]6)C=C5)C=C4)cc2)C(C)(C)C)C1
REMARK SMILES IDX 16 1 15 2 14 3 12 4 13 5 11 7 10 8 8 9 7 10 9 12 6 13 1 14
REMARK SMILES IDX 2 15 3 16 88 17 4 19 5 20 84 21 85 22 86 23 87 24 17 25
REMARK SMILES IDX 18 26 19 27 20 29 21 30 22 31 83 32 23 33 82 34 24 35 25 36
REMARK SMILES IDX 26 37 76 38 27 39 81 40 75 41 77 42 28 43 80 44 74 45 73 46
REMARK SMILES IDX 29 48 61 49 41 50 60 51 42 52 45 53 59 54 78 55 43 56 44 57
REMARK SMILES IDX 58 59 79 60 46 61 30 62 31 63 39 64 32 65 38 66 40 67 37 68
REMARK SMILES IDX 33 69 34 70 35 71 36 72 62 73 63 74 71 75 64 76 70 77 72 78
REMARK SMILES IDX 69 79 65 80 66 81 67 82 68 83 47 84 48 85 56 86 49 87 55 88
REMARK SMILES IDX 57 89 54 90 50 91 51 92 52 93 53 94
REMARK H PARENT 14 6 7 11 2 18 18 28 77 47 45 58
REMARK Flexibility Score: inf
ROOT
ATOM      1  C   UNL A   1      31.532  32.178  26.787  1.00  0.00     0.042 C 
ENDROOT
BRANCH   1   2
ATOM      2  C   UNL A   1      31.561  30.664  26.718  1.00  0.00     0.117 C 
BRANCH   2   3
ATOM      3  N   UNL A   1      32.862  30.043  26.766  1.00  0.00    -0.354 N 
ATOM      4  C   UNL A   1      33.278  28.884  26.182  1.00  0.00     0.239 C 
ATOM      5  O   UNL A   1      34.487  28.796  25.935  1.00  0.00    -0.273 OA
ATOM      6  H   UNL A   1      33.542  30.522  27.294  1.00  0.00     0.163 HD
BRANCH   4   7
ATOM      7  C   UNL A   1      32.323  27.768  25.703  1.00  0.00     0.221 C 
BRANCH   7   8
ATOM      8  N   UNL A   1      31.898  27.754  24.302  1.00  0.00    -0.311 N 
BRANCH   8   9
ATOM      9  C   UNL A   1      31.951  28.832  23.439  1.00  0.00     0.318 C 
ATOM     10  N   UNL A   1      30.932  29.675  23.165  1.00  0.00    -0.330 N 
ATOM     11  H   UNL A   1      31.247  30.368  22.540  1.00  0.00     0.165 HD
ATOM     12  O   UNL A   1      32.981  29.112  22.815  1.00  0.00    -0.249 OA
BRANCH  10  13
ATOM     13  C   UNL A   1      29.509  29.918  23.478  1.00  0.00     0.139 C 
ATOM     14  C   UNL A   1      29.012  33.691  23.182  1.00  0.00     0.332 C 
ATOM     15  N   UNL A   1      29.224  32.315  22.730  1.00  0.00    -0.336 N 
ATOM     16  C   UNL A   1      28.161  31.925  21.798  1.00  0.00     0.262 C 
ATOM     17  C   UNL A   1      29.282  31.395  23.883  1.00  0.00     0.287 C 
ATOM     18  H   UNL A   1      30.119  32.262  22.241  1.00  0.00     0.347 HD
ATOM     19  C   UNL A   1      28.457  30.550  21.220  1.00  0.00     0.064 C 
ATOM     20  C   UNL A   1      28.576  29.508  22.319  1.00  0.00     0.037 C 
ENDBRANCH  10  13
ENDBRANCH   8   9
BRANCH   8  21
ATOM     21  C   UNL A   1      31.408  26.401  23.762  1.00  0.00     0.037 C 
ATOM     22  C   UNL A   1      31.352  26.386  22.220  1.00  0.00     0.034 C 
ATOM     23  C   UNL A   1      32.312  25.247  24.255  1.00  0.00     0.034 C 
ATOM     24  C   UNL A   1      29.969  26.007  24.215  1.00  0.00     0.034 C 
ENDBRANCH   8  21
ENDBRANCH   7   8
ENDBRANCH   4   7
ENDBRANCH   2   3
ENDBRANCH   1   2
BRANCH   1  25
ATOM     25  C   UNL A   1      32.778  32.785  27.398  1.00  0.00     0.118 C 
BRANCH  25  26
ATOM     26  N   UNL A   1      32.585  34.186  27.741  1.00  0.00    -0.352 N 
ATOM     27  C   UNL A   1      33.152  34.921  28.754  1.00  0.00     0.251 C 
ATOM     28  H   UNL A   1      31.958  34.679  27.163  1.00  0.00     0.163 HD
ATOM     29  O   UNL A   1      32.686  36.021  29.032  1.00  0.00    -0.269 OA
BRANCH  27  30
ATOM     30  C   UNL A   1      34.301  34.375  29.515  1.00  0.00     0.039 A 
ATOM     31  C   UNL A   1      34.058  33.656  30.687  1.00  0.00     0.014 A 
ATOM     32  C   UNL A   1      35.614  34.576  29.079  1.00  0.00     0.014 A 
ATOM     33  C   UNL A   1      35.128  33.090  31.386  1.00  0.00     0.010 A 
ATOM     34  C   UNL A   1      36.666  33.930  29.719  1.00  0.00     0.010 A 
ATOM     35  C   UNL A   1      36.438  33.190  30.888  1.00  0.00    -0.014 A 
BRANCH  35  36
ATOM     36  C   UNL A   1      37.584  32.550  31.588  1.00  0.00     0.031 A 
ATOM     37  C   UNL A   1      38.320  31.409  30.937  1.00  0.00     0.074 A 
ATOM     38  C   UNL A   1      37.926  32.961  32.825  1.00  0.00     0.049 A 
ATOM     39  N   UNL A   1      39.300  30.680  31.407  1.00  0.00    -0.248 NA
ATOM     40  C   UNL A   1      37.874  31.015  29.591  1.00  0.00     0.031 C 
ATOM     41  C   UNL A   1      37.260  34.028  33.576  1.00  0.00     0.029 A 
ATOM     42  N   UNL A   1      38.914  32.529  33.674  1.00  0.00    -0.354 N 
ATOM     43  C   UNL A   1      39.578  29.736  30.423  1.00  0.00     0.074 A 
ATOM     44  C   UNL A   1      38.616  29.943  29.362  1.00  0.00     0.031 C 
ATOM     45  C   UNL A   1      37.880  34.190  34.755  1.00  0.00     0.029 A 
ATOM     46  C   UNL A   1      38.951  33.206  34.871  1.00  0.00     0.049 A 
ATOM     47  H   UNL A   1      39.540  31.803  33.447  1.00  0.00     0.167 HD
ATOM     48  C   UNL A   1      40.561  28.804  30.394  1.00  0.00     0.034 A 
ATOM     49  C   UNL A   1      39.750  33.045  35.946  1.00  0.00     0.034 A 
ATOM     50  C   UNL A   1      41.519  28.620  31.457  1.00  0.00     0.049 A 
ATOM     51  C   UNL A   1      40.815  31.979  35.904  1.00  0.00     0.074 A 
ATOM     52  C   UNL A   1      42.587  27.741  31.511  1.00  0.00     0.029 A 
ATOM     53  N   UNL A   1      41.521  29.319  32.657  1.00  0.00    -0.354 N 
ATOM     54  N   UNL A   1      41.099  31.129  34.942  1.00  0.00    -0.248 NA
ATOM     55  C   UNL A   1      41.676  31.856  37.088  1.00  0.00     0.031 C 
ATOM     56  C   UNL A   1      43.185  27.855  32.770  1.00  0.00     0.029 A 
ATOM     57  C   UNL A   1      42.549  28.867  33.471  1.00  0.00     0.049 A 
ATOM     58  H   UNL A   1      40.885  30.032  32.895  1.00  0.00     0.167 HD
ATOM     59  C   UNL A   1      42.194  30.397  35.394  1.00  0.00     0.074 A 
ATOM     60  C   UNL A   1      42.527  30.917  36.704  1.00  0.00     0.031 C 
ATOM     61  C   UNL A   1      42.866  29.389  34.781  1.00  0.00     0.034 A 
BRANCH  48  62
ATOM     62  C   UNL A   1      40.631  27.900  29.184  1.00  0.00     0.023 A 
ATOM     63  C   UNL A   1      41.586  28.092  28.170  1.00  0.00     0.031 A 
ATOM     64  C   UNL A   1      39.713  26.845  29.028  1.00  0.00     0.131 A 
ATOM     65  C   UNL A   1      41.555  27.295  27.015  1.00  0.00     0.055 A 
ATOM     66  C   UNL A   1      39.744  25.999  27.918  1.00  0.00     0.041 A 
ATOM     67  F   UNL A   1      38.762  26.624  29.950  1.00  0.00    -0.206 F 
ATOM     68  C   UNL A   1      40.658  26.232  26.895  1.00  0.00     0.022 A 
BRANCH  65  69
ATOM     69  S   UNL A   1      42.602  27.764  25.611  1.00  0.00     0.124 S 
ATOM     70  O   UNL A   1      41.842  28.872  25.035  1.00  0.00    -0.237 OA
ATOM     71  O   UNL A   1      43.859  28.120  26.258  1.00  0.00    -0.237 OA
ATOM     72  O   UNL A   1      42.641  26.554  24.792  1.00  0.00    -0.744 OA
ENDBRANCH  65  69
ENDBRANCH  48  62
BRANCH  49  73
ATOM     73  C   UNL A   1      39.574  33.898  37.157  1.00  0.00     0.023 A 
ATOM     74  C   UNL A   1      38.934  33.403  38.306  1.00  0.00     0.031 A 
ATOM     75  C   UNL A   1      39.997  35.239  37.169  1.00  0.00     0.131 A 
ATOM     76  C   UNL A   1      38.688  34.255  39.394  1.00  0.00     0.055 A 
ATOM     77  C   UNL A   1      39.806  36.066  38.277  1.00  0.00     0.041 A 
ATOM     78  F   UNL A   1      40.615  35.766  36.099  1.00  0.00    -0.206 F 
ATOM     79  C   UNL A   1      39.133  35.579  39.393  1.00  0.00     0.022 A 
BRANCH  76  80
ATOM     80  S   UNL A   1      37.684  33.636  40.771  1.00  0.00     0.124 S 
ATOM     81  O   UNL A   1      37.365  34.868  41.483  1.00  0.00    -0.237 OA
ATOM     82  O   UNL A   1      36.575  32.994  40.073  1.00  0.00    -0.237 OA
ATOM     83  O   UNL A   1      38.588  32.726  41.471  1.00  0.00    -0.744 OA
ENDBRANCH  76  80
ENDBRANCH  49  73
BRANCH  61  84
ATOM     84  C   UNL A   1      44.063  28.819  35.505  1.00  0.00     0.023 A 
ATOM     85  C   UNL A   1      43.945  27.746  36.404  1.00  0.00     0.031 A 
ATOM     86  C   UNL A   1      45.339  29.372  35.300  1.00  0.00     0.131 A 
ATOM     87  C   UNL A   1      45.072  27.300  37.112  1.00  0.00     0.055 A 
ATOM     88  C   UNL A   1      46.469  28.879  35.954  1.00  0.00     0.041 A 
ATOM     89  F   UNL A   1      45.512  30.402  34.456  1.00  0.00    -0.206 F 
ATOM     90  C   UNL A   1      46.337  27.846  36.877  1.00  0.00     0.022 A 
BRANCH  87  91
ATOM     91  S   UNL A   1      44.846  26.065  38.421  1.00  0.00     0.124 S 
ATOM     92  O   UNL A   1      43.796  26.673  39.232  1.00  0.00    -0.237 OA
ATOM     93  O   UNL A   1      44.462  24.876  37.666  1.00  0.00    -0.237 OA
ATOM     94  O   UNL A   1      46.160  25.996  39.058  1.00  0.00    -0.744 OA
ENDBRANCH  87  91
ENDBRANCH  61  84
ENDBRANCH  35  36
ENDBRANCH  27  30
ENDBRANCH  25  26
ENDBRANCH   1  25
TORSDOF 17
ENDMDL
MODEL 2
REMARK VINA RESULT:     -11.7      1.391      1.701
REMARK SMILES C[N@@H+]1CCC[C@@H](NC(=O)N(CC(=O)NCCCNC(=O)c2ccc(-c3c4nc(c(-c5cc(S(=O)(=O)[O-])ccc5F)c5ccc([nH]5)c(-c5cc(S(=O)(=O)[O-])ccc5F)c5nc(c(-c6cc(S(=O)(=O)[O-])ccc6F)c6ccc3[nH]6)C=C5)C=C4)cc2)C(C)(C)C)C1
REMARK SMILES IDX 16 1 15 2 14 3 12 4 13 5 11 7 10 8 8 9 7 10 9 12 6 13 1 14
REMARK SMILES IDX 2 15 3 16 88 17 4 19 5 20 84 21 85 22 86 23 87 24 17 25
REMARK SMILES IDX 18 26 19 27 20 29 21 30 22 31 83 32 23 33 82 34 24 35 25 36
REMARK SMILES IDX 26 37 76 38 27 39 81 40 75 41 77 42 28 43 80 44 74 45 73 46
REMARK SMILES IDX 29 48 61 49 41 50 60 51 42 52 45 53 59 54 78 55 43 56 44 57
REMARK SMILES IDX 58 59 79 60 46 61 30 62 31 63 39 64 32 65 38 66 40 67 37 68
REMARK SMILES IDX 33 69 34 70 35 71 36 72 62 73 63 74 71 75 64 76 70 77 72 78
REMARK SMILES IDX 69 79 65 80 66 81 67 82 68 83 47 84 48 85 56 86 49 87 55 88
REMARK SMILES IDX 57 89 54 90 50 91 51 92 52 93 53 94
REMARK H PARENT 14 6 7 11 2 18 18 28 77 47 45 58
REMARK Flexibility Score: inf
ROOT
ATOM      1  C   UNL A   1      31.478  32.662  26.718  1.00  0.00     0.042 C 
ENDROOT
BRANCH   1   2
ATOM      2  C   UNL A   1      31.381  31.178  26.423  1.00  0.00     0.117 C 
BRANCH   2   3
ATOM      3  N   UNL A   1      32.605  30.422  26.516  1.00  0.00    -0.354 N 
ATOM      4  C   UNL A   1      32.853  29.143  26.115  1.00  0.00     0.239 C 
ATOM      5  O   UNL A   1      34.027  28.872  25.832  1.00  0.00    -0.273 OA
ATOM      6  H   UNL A   1      33.366  30.895  26.925  1.00  0.00     0.163 HD
BRANCH   4   7
ATOM      7  C   UNL A   1      31.752  28.087  25.872  1.00  0.00     0.221 C 
BRANCH   7   8
ATOM      8  N   UNL A   1      31.299  27.839  24.502  1.00  0.00    -0.311 N 
BRANCH   8   9
ATOM      9  C   UNL A   1      31.439  28.716  23.443  1.00  0.00     0.318 C 
ATOM     10  N   UNL A   1      30.489  29.564  22.990  1.00  0.00    -0.330 N 
ATOM     11  H   UNL A   1      30.858  30.092  22.245  1.00  0.00     0.165 HD
ATOM     12  O   UNL A   1      32.487  28.784  22.792  1.00  0.00    -0.249 OA
BRANCH  10  13
ATOM     13  C   UNL A   1      29.089  29.974  23.225  1.00  0.00     0.139 C 
ATOM     14  C   UNL A   1      29.123  33.790  23.280  1.00  0.00     0.332 C 
ATOM     15  N   UNL A   1      29.188  32.445  22.706  1.00  0.00    -0.336 N 
ATOM     16  C   UNL A   1      28.165  32.294  21.667  1.00  0.00     0.262 C 
ATOM     17  C   UNL A   1      29.027  31.425  23.761  1.00  0.00     0.287 C 
ATOM     18  H   UNL A   1      30.106  32.312  22.279  1.00  0.00     0.347 HD
ATOM     19  C   UNL A   1      28.324  30.950  20.974  1.00  0.00     0.064 C 
ATOM     20  C   UNL A   1      28.211  29.805  21.968  1.00  0.00     0.037 C 
ENDBRANCH  10  13
ENDBRANCH   8   9
BRANCH   8  21
ATOM     21  C   UNL A   1      30.672  26.461  24.240  1.00  0.00     0.037 C 
ATOM     22  C   UNL A   1      31.304  25.766  23.016  1.00  0.00     0.034 C 
ATOM     23  C   UNL A   1      30.809  25.545  25.479  1.00  0.00     0.034 C 
ATOM     24  C   UNL A   1      29.144  26.494  23.932  1.00  0.00     0.034 C 
ENDBRANCH   8  21
ENDBRANCH   7   8
ENDBRANCH   4   7
ENDBRANCH   2   3
ENDBRANCH   1   2
BRANCH   1  25
ATOM     25  C   UNL A   1      32.793  33.074  27.348  1.00  0.00     0.118 C 
BRANCH  25  26
ATOM     26  N   UNL A   1      32.732  34.421  27.896  1.00  0.00    -0.352 N 
ATOM     27  C   UNL A   1      33.395  34.953  28.975  1.00  0.00     0.251 C 
ATOM     28  H   UNL A   1      32.130  35.041  27.424  1.00  0.00     0.163 HD
ATOM     29  O   UNL A   1      33.034  36.034  29.428  1.00  0.00    -0.269 OA
BRANCH  27  30
ATOM     30  C   UNL A   1      34.518  34.213  29.596  1.00  0.00     0.039 A 
ATOM     31  C   UNL A   1      35.814  34.415  29.115  1.00  0.00     0.014 A 
ATOM     32  C   UNL A   1      34.297  33.317  30.646  1.00  0.00     0.014 A 
ATOM     33  C   UNL A   1      36.889  33.765  29.725  1.00  0.00     0.010 A 
ATOM     34  C   UNL A   1      35.376  32.748  31.315  1.00  0.00     0.010 A 
ATOM     35  C   UNL A   1      36.684  32.954  30.854  1.00  0.00    -0.014 A 
BRANCH  35  36
ATOM     36  C   UNL A   1      37.821  32.296  31.551  1.00  0.00     0.031 A 
ATOM     37  C   UNL A   1      38.552  31.157  30.889  1.00  0.00     0.074 A 
ATOM     38  C   UNL A   1      38.160  32.687  32.795  1.00  0.00     0.049 A 
ATOM     39  N   UNL A   1      39.523  30.414  31.355  1.00  0.00    -0.248 NA
ATOM     40  C   UNL A   1      38.110  30.785  29.536  1.00  0.00     0.031 C 
ATOM     41  C   UNL A   1      37.499  33.750  33.556  1.00  0.00     0.029 A 
ATOM     42  N   UNL A   1      39.140  32.236  33.644  1.00  0.00    -0.354 N 
ATOM     43  C   UNL A   1      39.799  29.481  30.360  1.00  0.00     0.074 A 
ATOM     44  C   UNL A   1      38.844  29.710  29.297  1.00  0.00     0.031 C 
ATOM     45  C   UNL A   1      38.113  33.891  34.741  1.00  0.00     0.029 A 
ATOM     46  C   UNL A   1      39.176  32.897  34.850  1.00  0.00     0.049 A 
ATOM     47  H   UNL A   1      39.761  31.508  33.411  1.00  0.00     0.167 HD
ATOM     48  C   UNL A   1      40.775  28.541  30.324  1.00  0.00     0.034 A 
ATOM     49  C   UNL A   1      39.967  32.715  35.927  1.00  0.00     0.034 A 
ATOM     50  C   UNL A   1      41.726  28.335  31.389  1.00  0.00     0.049 A 
ATOM     51  C   UNL A   1      41.024  31.641  35.877  1.00  0.00     0.074 A 
ATOM     52  C   UNL A   1      42.786  27.447  31.438  1.00  0.00     0.029 A 
ATOM     53  N   UNL A   1      41.727  29.019  32.599  1.00  0.00    -0.354 N 
ATOM     54  N   UNL A   1      41.306  30.802  34.905  1.00  0.00    -0.248 NA
ATOM     55  C   UNL A   1      41.878  31.496  37.063  1.00  0.00     0.031 C 
ATOM     56  C   UNL A   1      43.378  27.540  32.701  1.00  0.00     0.029 A 
ATOM     57  C   UNL A   1      42.747  28.548  33.412  1.00  0.00     0.049 A 
ATOM     58  H   UNL A   1      41.095  29.733  32.843  1.00  0.00     0.167 HD
ATOM     59  C   UNL A   1      42.393  30.055  35.353  1.00  0.00     0.074 A 
ATOM     60  C   UNL A   1      42.723  30.556  36.671  1.00  0.00     0.031 C 
ATOM     61  C   UNL A   1      43.060  29.050  34.730  1.00  0.00     0.034 A 
BRANCH  48  62
ATOM     62  C   UNL A   1      40.843  27.653  29.103  1.00  0.00     0.023 A 
ATOM     63  C   UNL A   1      41.775  27.879  28.074  1.00  0.00     0.031 A 
ATOM     64  C   UNL A   1      39.949  26.577  28.952  1.00  0.00     0.131 A 
ATOM     65  C   UNL A   1      41.741  27.094  26.910  1.00  0.00     0.055 A 
ATOM     66  C   UNL A   1      39.980  25.744  27.831  1.00  0.00     0.041 A 
ATOM     67  F   UNL A   1      39.021  26.323  29.888  1.00  0.00    -0.206 F 
ATOM     68  C   UNL A   1      40.868  26.011  26.794  1.00  0.00     0.022 A 
BRANCH  65  69
ATOM     69  S   UNL A   1      42.750  27.604  25.493  1.00  0.00     0.124 S 
ATOM     70  O   UNL A   1      42.616  26.449  24.606  1.00  0.00    -0.237 OA
ATOM     71  O   UNL A   1      42.087  28.826  25.054  1.00  0.00    -0.237 OA
ATOM     72  O   UNL A   1      44.082  27.787  26.066  1.00  0.00    -0.744 OA
ENDBRANCH  65  69
ENDBRANCH  48  62
BRANCH  49  73
ATOM     73  C   UNL A   1      39.792  33.554  37.148  1.00  0.00     0.023 A 
ATOM     74  C   UNL A   1      40.601  34.679  37.377  1.00  0.00     0.031 A 
ATOM     75  C   UNL A   1      38.844  33.217  38.132  1.00  0.00     0.131 A 
ATOM     76  C   UNL A   1      40.487  35.392  38.581  1.00  0.00     0.055 A 
ATOM     77  C   UNL A   1      38.692  33.965  39.300  1.00  0.00     0.041 A 
ATOM     78  F   UNL A   1      38.043  32.152  37.965  1.00  0.00    -0.206 F 
ATOM     79  C   UNL A   1      39.528  35.051  39.538  1.00  0.00     0.022 A 
BRANCH  76  80
ATOM     80  S   UNL A   1      41.685  36.710  38.926  1.00  0.00     0.124 S 
ATOM     81  O   UNL A   1      42.317  36.224  40.147  1.00  0.00    -0.237 OA
ATOM     82  O   UNL A   1      42.513  36.689  37.724  1.00  0.00    -0.237 OA
ATOM     83  O   UNL A   1      40.849  37.897  39.084  1.00  0.00    -0.744 OA
ENDBRANCH  76  80
ENDBRANCH  49  73
BRANCH  61  84
ATOM     84  C   UNL A   1      44.248  28.461  35.453  1.00  0.00     0.023 A 
ATOM     85  C   UNL A   1      44.107  27.432  36.399  1.00  0.00     0.031 A 
ATOM     86  C   UNL A   1      45.542  28.950  35.199  1.00  0.00     0.131 A 
ATOM     87  C   UNL A   1      45.230  26.969  37.102  1.00  0.00     0.055 A 
ATOM     88  C   UNL A   1      46.664  28.438  35.849  1.00  0.00     0.041 A 
ATOM     89  F   UNL A   1      45.738  29.936  34.308  1.00  0.00    -0.206 F 
ATOM     90  C   UNL A   1      46.511  27.451  36.818  1.00  0.00     0.022 A 
BRANCH  87  91
ATOM     91  S   UNL A   1      44.982  25.800  38.468  1.00  0.00     0.124 S 
ATOM     92  O   UNL A   1      43.929  26.454  39.238  1.00  0.00    -0.237 OA
ATOM     93  O   UNL A   1      44.597  24.579  37.767  1.00  0.00    -0.237 OA
ATOM     94  O   UNL A   1      46.289  25.754  39.120  1.00  0.00    -0.744 OA
ENDBRANCH  87  91
ENDBRANCH  61  84
ENDBRANCH  35  36
ENDBRANCH  27  30
ENDBRANCH  25  26
ENDBRANCH   1  25
TORSDOF 17
ENDMDL
MODEL 3
REMARK VINA RESULT:     -11.6      6.777     12.745
REMARK SMILES C[N@@H+]1CCC[C@@H](NC(=O)N(CC(=O)NCCCNC(=O)c2ccc(-c3c4nc(c(-c5cc(S(=O)(=O)[O-])ccc5F)c5ccc([nH]5)c(-c5cc(S(=O)(=O)[O-])ccc5F)c5nc(c(-c6cc(S(=O)(=O)[O-])ccc6F)c6ccc3[nH]6)C=C5)C=C4)cc2)C(C)(C)C)C1
REMARK SMILES IDX 16 1 15 2 14 3 12 4 13 5 11 7 10 8 8 9 7 10 9 12 6 13 1 14
REMARK SMILES IDX 2 15 3 16 88 17 4 19 5 20 84 21 85 22 86 23 87 24 17 25
REMARK SMILES IDX 18 26 19 27 20 29 21 30 22 31 83 32 23 33 82 34 24 35 25 36
REMARK SMILES IDX 26 37 76 38 27 39 81 40 75 41 77 42 28 43 80 44 74 45 73 46
REMARK SMILES IDX 29 48 61 49 41 50 60 51 42 52 45 53 59 54 78 55 43 56 44 57
REMARK SMILES IDX 58 59 79 60 46 61 30 62 31 63 39 64 32 65 38 66 40 67 37 68
REMARK SMILES IDX 33 69 34 70 35 71 36 72 62 73 63 74 71 75 64 76 70 77 72 78
REMARK SMILES IDX 69 79 65 80 66 81 67 82 68 83 47 84 48 85 56 86 49 87 55 88
REMARK SMILES IDX 57 89 54 90 50 91 51 92 52 93 53 94
REMARK H PARENT 14 6 7 11 2 18 18 28 77 47 45 58
REMARK Flexibility Score: inf
ROOT
ATOM      1  C   UNL A   1      38.281  19.693  25.290  1.00  0.00     0.042 C 
ENDROOT
BRANCH   1   2
ATOM      2  C   UNL A   1      37.500  20.777  24.576  1.00  0.00     0.117 C 
BRANCH   2   3
ATOM      3  N   UNL A   1      37.559  22.098  25.153  1.00  0.00    -0.354 N 
ATOM      4  C   UNL A   1      36.559  23.014  25.296  1.00  0.00     0.239 C 
ATOM      5  O   UNL A   1      36.687  23.829  26.218  1.00  0.00    -0.273 OA
ATOM      6  H   UNL A   1      38.442  22.375  25.490  1.00  0.00     0.163 HD
BRANCH   4   7
ATOM      7  C   UNL A   1      35.251  22.998  24.475  1.00  0.00     0.221 C 
BRANCH   7   8
ATOM      8  N   UNL A   1      34.108  22.234  24.980  1.00  0.00    -0.311 N 
BRANCH   8   9
ATOM      9  C   UNL A   1      34.181  21.186  25.878  1.00  0.00     0.318 C 
ATOM     10  N   UNL A   1      34.116  19.874  25.567  1.00  0.00    -0.330 N 
ATOM     11  H   UNL A   1      34.220  19.342  26.389  1.00  0.00     0.165 HD
ATOM     12  O   UNL A   1      34.303  21.382  27.093  1.00  0.00    -0.249 OA
BRANCH  10  13
ATOM     13  C   UNL A   1      33.944  18.958  24.420  1.00  0.00     0.139 C 
ATOM     14  C   UNL A   1      35.691  15.714  25.412  1.00  0.00     0.332 C 
ATOM     15  N   UNL A   1      34.658  16.749  25.419  1.00  0.00    -0.336 N 
ATOM     16  C   UNL A   1      33.353  16.157  25.104  1.00  0.00     0.262 C 
ATOM     17  C   UNL A   1      34.996  17.823  24.463  1.00  0.00     0.287 C 
ATOM     18  H   UNL A   1      34.609  17.163  26.351  1.00  0.00     0.347 HD
ATOM     19  C   UNL A   1      32.260  17.204  25.250  1.00  0.00     0.064 C 
ATOM     20  C   UNL A   1      32.512  18.390  24.333  1.00  0.00     0.037 C 
ENDBRANCH  10  13
ENDBRANCH   8   9
BRANCH   8  21
ATOM     21  C   UNL A   1      32.725  22.695  24.495  1.00  0.00     0.037 C 
ATOM     22  C   UNL A   1      32.593  24.232  24.513  1.00  0.00     0.034 C 
ATOM     23  C   UNL A   1      32.434  22.171  23.068  1.00  0.00     0.034 C 
ATOM     24  C   UNL A   1      31.533  22.185  25.361  1.00  0.00     0.034 C 
ENDBRANCH   8  21
ENDBRANCH   7   8
ENDBRANCH   4   7
ENDBRANCH   2   3
ENDBRANCH   1   2
BRANCH   1  25
ATOM     25  C   UNL A   1      39.535  20.194  25.976  1.00  0.00     0.118 C 
BRANCH  25  26
ATOM     26  N   UNL A   1      40.567  19.170  26.034  1.00  0.00    -0.352 N 
ATOM     27  C   UNL A   1      41.933  19.312  26.088  1.00  0.00     0.251 C 
ATOM     28  H   UNL A   1      40.240  18.242  26.037  1.00  0.00     0.163 HD
ATOM     29  O   UNL A   1      42.647  18.335  25.889  1.00  0.00    -0.269 OA
BRANCH  27  30
ATOM     30  C   UNL A   1      42.532  20.640  26.361  1.00  0.00     0.039 A 
ATOM     31  C   UNL A   1      43.002  21.406  25.291  1.00  0.00     0.014 A 
ATOM     32  C   UNL A   1      42.636  21.128  27.667  1.00  0.00     0.014 A 
ATOM     33  C   UNL A   1      43.520  22.681  25.528  1.00  0.00     0.010 A 
ATOM     34  C   UNL A   1      43.059  22.434  27.890  1.00  0.00     0.010 A 
ATOM     35  C   UNL A   1      43.520  23.222  26.825  1.00  0.00    -0.014 A 
BRANCH  35  36
ATOM     36  C   UNL A   1      44.017  24.598  27.091  1.00  0.00     0.031 A 
ATOM     37  C   UNL A   1      43.075  25.652  27.609  1.00  0.00     0.074 A 
ATOM     38  C   UNL A   1      45.300  24.910  26.818  1.00  0.00     0.049 A 
ATOM     39  N   UNL A   1      43.297  26.920  27.843  1.00  0.00    -0.248 NA
ATOM     40  C   UNL A   1      41.689  25.231  27.868  1.00  0.00     0.031 C 
ATOM     41  C   UNL A   1      46.297  23.985  26.273  1.00  0.00     0.029 A 
ATOM     42  N   UNL A   1      45.987  26.090  26.955  1.00  0.00    -0.354 N 
ATOM     43  C   UNL A   1      42.081  27.449  28.264  1.00  0.00     0.074 A 
ATOM     44  C   UNL A   1      41.111  26.379  28.184  1.00  0.00     0.031 C 
ATOM     45  C   UNL A   1      47.471  24.623  26.156  1.00  0.00     0.029 A 
ATOM     46  C   UNL A   1      47.304  26.014  26.564  1.00  0.00     0.049 A 
ATOM     47  H   UNL A   1      45.575  26.915  27.301  1.00  0.00     0.167 HD
ATOM     48  C   UNL A   1      41.806  28.702  28.703  1.00  0.00     0.034 A 
ATOM     49  C   UNL A   1      48.264  26.960  26.528  1.00  0.00     0.034 A 
ATOM     50  C   UNL A   1      42.790  29.753  28.786  1.00  0.00     0.049 A 
ATOM     51  C   UNL A   1      47.926  28.354  26.990  1.00  0.00     0.074 A 
ATOM     52  C   UNL A   1      42.634  31.043  29.263  1.00  0.00     0.029 A 
ATOM     53  N   UNL A   1      44.113  29.640  28.375  1.00  0.00    -0.354 N 
ATOM     54  N   UNL A   1      46.782  28.825  27.435  1.00  0.00    -0.248 NA
ATOM     55  C   UNL A   1      49.010  29.345  26.955  1.00  0.00     0.031 C 
ATOM     56  C   UNL A   1      43.836  31.731  29.069  1.00  0.00     0.029 A 
ATOM     57  C   UNL A   1      44.773  30.847  28.555  1.00  0.00     0.049 A 
ATOM     58  H   UNL A   1      44.522  28.823  28.009  1.00  0.00     0.167 HD
ATOM     59  C   UNL A   1      47.023  30.155  27.766  1.00  0.00     0.074 A 
ATOM     60  C   UNL A   1      48.421  30.405  27.485  1.00  0.00     0.031 C 
ATOM     61  C   UNL A   1      46.167  31.086  28.262  1.00  0.00     0.034 A 
BRANCH  48  62
ATOM     62  C   UNL A   1      40.380  29.003  29.102  1.00  0.00     0.023 A 
ATOM     63  C   UNL A   1      39.971  29.002  30.448  1.00  0.00     0.031 A 
ATOM     64  C   UNL A   1      39.407  29.273  28.122  1.00  0.00     0.131 A 
ATOM     65  C   UNL A   1      38.618  29.188  30.771  1.00  0.00     0.055 A 
ATOM     66  C   UNL A   1      38.079  29.546  28.457  1.00  0.00     0.041 A 
ATOM     67  F   UNL A   1      39.729  29.266  26.819  1.00  0.00    -0.206 F 
ATOM     68  C   UNL A   1      37.674  29.487  29.788  1.00  0.00     0.022 A 
BRANCH  65  69
ATOM     69  S   UNL A   1      38.086  28.884  32.478  1.00  0.00     0.124 S 
ATOM     70  O   UNL A   1      38.954  29.795  33.223  1.00  0.00    -0.237 OA
ATOM     71  O   UNL A   1      36.673  29.238  32.437  1.00  0.00    -0.237 OA
ATOM     72  O   UNL A   1      38.369  27.464  32.678  1.00  0.00    -0.744 OA
ENDBRANCH  65  69
ENDBRANCH  48  62
BRANCH  49  73
ATOM     73  C   UNL A   1      49.632  26.633  26.029  1.00  0.00     0.023 A 
ATOM     74  C   UNL A   1      50.075  27.089  24.777  1.00  0.00     0.031 A 
ATOM     75  C   UNL A   1      50.503  25.818  26.776  1.00  0.00     0.131 A 
ATOM     76  C   UNL A   1      51.325  26.684  24.284  1.00  0.00     0.055 A 
ATOM     77  C   UNL A   1      51.770  25.468  26.309  1.00  0.00     0.041 A 
ATOM     78  F   UNL A   1      50.133  25.355  27.981  1.00  0.00    -0.206 F 
ATOM     79  C   UNL A   1      52.182  25.888  25.048  1.00  0.00     0.022 A 
BRANCH  76  80
ATOM     80  S   UNL A   1      51.773  27.125  22.583  1.00  0.00     0.124 S 
ATOM     81  O   UNL A   1      50.504  26.949  21.886  1.00  0.00    -0.237 OA
ATOM     82  O   UNL A   1      52.233  28.501  22.739  1.00  0.00    -0.237 OA
ATOM     83  O   UNL A   1      52.813  26.157  22.243  1.00  0.00    -0.744 OA
ENDBRANCH  76  80
ENDBRANCH  49  73
BRANCH  61  84
ATOM     84  C   UNL A   1      46.738  32.448  28.577  1.00  0.00     0.023 A 
ATOM     85  C   UNL A   1      46.843  33.454  27.602  1.00  0.00     0.031 A 
ATOM     86  C   UNL A   1      47.199  32.736  29.874  1.00  0.00     0.131 A 
ATOM     87  C   UNL A   1      47.451  34.678  27.923  1.00  0.00     0.055 A 
ATOM     88  C   UNL A   1      47.739  33.978  30.205  1.00  0.00     0.041 A 
ATOM     89  F   UNL A   1      47.129  31.811  30.846  1.00  0.00    -0.206 F 
ATOM     90  C   UNL A   1      47.881  34.954  29.223  1.00  0.00     0.022 A 
BRANCH  87  91
ATOM     91  S   UNL A   1      47.768  35.868  26.590  1.00  0.00     0.124 S 
ATOM     92  O   UNL A   1      48.971  36.543  27.067  1.00  0.00    -0.237 OA
ATOM     93  O   UNL A   1      47.941  34.999  25.430  1.00  0.00    -0.237 OA
ATOM     94  O   UNL A   1      46.561  36.692  26.573  1.00  0.00    -0.744 OA
ENDBRANCH  87  91
ENDBRANCH  61  84
ENDBRANCH  35  36
ENDBRANCH  27  30
ENDBRANCH  25  26
ENDBRANCH   1  25
TORSDOF 17
ENDMDL
