MODEL 1
REMARK VINA RESULT:     -13.0      0.000      0.000
REMARK SMILES O=C(NCCCNC(=O)c1ccc(-c2c3nc(c(-c4cc(S(=O)(=O)[O-])ccc4F)c4ccc([nH]4)c(-c4cc(S(=O)(=O)[O-])ccc4F)c4nc(c(-c5cc(S(=O)(=O)[O-])ccc5F)c5ccc2[nH]5)C=C4)C=C3)cc1)C1=Cc2cc(Cl)ccc2O[C@@H]1C(F)(F)F
REMARK SMILES IDX 6 1 5 2 4 3 3 4 1 5 2 6 73 8 74 9 83 10 75 11 82 12 76 13
REMARK SMILES IDX 81 14 77 15 80 16 78 17 79 18 84 19 85 20 86 21 87 22 7 23
REMARK SMILES IDX 8 24 9 26 10 27 11 28 72 29 12 30 71 31 13 32 14 33 15 34
REMARK SMILES IDX 65 35 16 36 70 37 64 38 66 39 17 40 69 41 63 42 62 43 18 45
REMARK SMILES IDX 50 46 30 47 49 48 31 49 34 50 48 51 67 52 32 53 33 54 47 56
REMARK SMILES IDX 68 57 35 58 19 59 20 60 28 61 21 62 27 63 29 64 26 65 22 66
REMARK SMILES IDX 23 67 24 68 25 69 51 70 52 71 60 72 53 73 59 74 61 75 58 76
REMARK SMILES IDX 54 77 55 78 56 79 57 80 36 81 37 82 45 83 38 84 44 85 46 86
REMARK SMILES IDX 43 87 39 88 40 89 41 90 42 91
REMARK H PARENT 3 7 7 25 66 44 34 55
REMARK Flexibility Score: inf
ROOT
ATOM      1  C   UNL A   1      36.663  21.506  25.647  1.00  0.00     0.118 C 
ENDROOT
BRANCH   1   2
ATOM      2  C   UNL A   1      36.150  21.881  24.259  1.00  0.00     0.042 C 
BRANCH   2   3
ATOM      3  C   UNL A   1      35.367  23.190  24.250  1.00  0.00     0.118 C 
BRANCH   3   4
ATOM      4  N   UNL A   1      34.870  23.559  22.919  1.00  0.00    -0.352 N 
ATOM      5  O   UNL A   1      33.327  24.010  21.321  1.00  0.00    -0.270 OA
ATOM      6  C   UNL A   1      33.617  23.452  22.369  1.00  0.00     0.251 C 
ATOM      7  H   UNL A   1      35.548  23.948  22.322  1.00  0.00     0.163 HD
BRANCH   6   8
ATOM      8  C   UNL A   1      32.610  22.696  23.134  1.00  0.00     0.067 C 
ATOM      9  C   UNL A   1      32.226  21.510  22.647  1.00  0.00     0.025 C 
ATOM     10  C   UNL A   1      32.381  23.109  24.554  1.00  0.00     0.314 C 
ATOM     11  C   UNL A   1      32.316  20.445  23.652  1.00  0.00     0.019 A 
ATOM     12  O   UNL A   1      32.612  22.035  25.499  1.00  0.00    -0.475 OA
ATOM     13  C   UNL A   1      32.513  19.139  23.188  1.00  0.00     0.032 A 
ATOM     14  C   UNL A   1      32.621  20.760  24.991  1.00  0.00     0.128 A 
ATOM     15  C   UNL A   1      33.089  18.189  24.029  1.00  0.00     0.041 A 
ATOM     16  C   UNL A   1      33.161  19.789  25.835  1.00  0.00     0.048 A 
ATOM     17  Cl  UNL A   1      33.497  16.642  23.400  1.00  0.00    -0.084 Cl
ATOM     18  C   UNL A   1      33.424  18.511  25.343  1.00  0.00     0.024 A 
BRANCH  10  19
ATOM     19  C   UNL A   1      30.967  23.686  24.731  1.00  0.00     0.429 C 
ATOM     20  F   UNL A   1      30.329  23.786  23.538  1.00  0.00    -0.167 F 
ATOM     21  F   UNL A   1      30.193  22.901  25.517  1.00  0.00    -0.167 F 
ATOM     22  F   UNL A   1      30.977  24.921  25.283  1.00  0.00    -0.167 F 
ENDBRANCH  10  19
ENDBRANCH   6   8
ENDBRANCH   3   4
ENDBRANCH   2   3
ENDBRANCH   1   2
BRANCH   1  23
ATOM     23  N   UNL A   1      37.822  20.621  25.640  1.00  0.00    -0.352 N 
ATOM     24  C   UNL A   1      39.135  20.857  26.004  1.00  0.00     0.251 C 
ATOM     25  H   UNL A   1      37.640  19.707  25.325  1.00  0.00     0.163 HD
ATOM     26  O   UNL A   1      39.962  19.976  25.845  1.00  0.00    -0.269 OA
BRANCH  24  27
ATOM     27  C   UNL A   1      39.546  22.186  26.529  1.00  0.00     0.039 A 
ATOM     28  C   UNL A   1      40.638  22.263  27.399  1.00  0.00     0.014 A 
ATOM     29  C   UNL A   1      38.890  23.355  26.147  1.00  0.00     0.014 A 
ATOM     30  C   UNL A   1      41.133  23.514  27.787  1.00  0.00     0.010 A 
ATOM     31  C   UNL A   1      39.459  24.592  26.427  1.00  0.00     0.010 A 
ATOM     32  C   UNL A   1      40.589  24.692  27.250  1.00  0.00    -0.014 A 
BRANCH  32  33
ATOM     33  C   UNL A   1      41.174  26.034  27.528  1.00  0.00     0.031 A 
ATOM     34  C   UNL A   1      42.552  26.376  27.017  1.00  0.00     0.074 A 
ATOM     35  C   UNL A   1      40.515  26.905  28.321  1.00  0.00     0.049 A 
ATOM     36  N   UNL A   1      43.299  27.419  27.272  1.00  0.00    -0.248 NA
ATOM     37  C   UNL A   1      43.199  25.381  26.145  1.00  0.00     0.031 C 
ATOM     38  C   UNL A   1      39.206  26.669  28.936  1.00  0.00     0.029 A 
ATOM     39  N   UNL A   1      40.858  28.162  28.759  1.00  0.00    -0.354 N 
ATOM     40  C   UNL A   1      44.511  27.187  26.627  1.00  0.00     0.074 A 
ATOM     41  C   UNL A   1      44.423  25.871  26.032  1.00  0.00     0.031 C 
ATOM     42  C   UNL A   1      38.842  27.756  29.637  1.00  0.00     0.029 A 
ATOM     43  C   UNL A   1      39.911  28.746  29.571  1.00  0.00     0.049 A 
ATOM     44  H   UNL A   1      41.703  28.604  28.515  1.00  0.00     0.167 HD
ATOM     45  C   UNL A   1      45.586  28.006  26.515  1.00  0.00     0.034 A 
ATOM     46  C   UNL A   1      39.908  29.939  30.200  1.00  0.00     0.034 A 
ATOM     47  C   UNL A   1      45.635  29.336  27.069  1.00  0.00     0.049 A 
ATOM     48  C   UNL A   1      41.101  30.846  30.032  1.00  0.00     0.074 A 
ATOM     49  C   UNL A   1      46.634  30.284  26.946  1.00  0.00     0.029 A 
ATOM     50  N   UNL A   1      44.637  29.909  27.847  1.00  0.00    -0.354 N 
ATOM     51  N   UNL A   1      42.215  30.632  29.370  1.00  0.00    -0.248 NA
ATOM     52  C   UNL A   1      41.031  32.160  30.685  1.00  0.00     0.031 C 
ATOM     53  C   UNL A   1      46.269  31.407  27.697  1.00  0.00     0.029 A 
ATOM     54  C   UNL A   1      45.008  31.189  28.229  1.00  0.00     0.049 A 
ATOM     55  H   UNL A   1      43.790  29.470  28.091  1.00  0.00     0.167 HD
ATOM     56  C   UNL A   1      42.964  31.799  29.502  1.00  0.00     0.074 A 
ATOM     57  C   UNL A   1      42.166  32.716  30.289  1.00  0.00     0.031 C 
ATOM     58  C   UNL A   1      44.200  32.087  29.018  1.00  0.00     0.034 A 
BRANCH  45  59
ATOM     59  C   UNL A   1      46.793  27.479  25.773  1.00  0.00     0.023 A 
ATOM     60  C   UNL A   1      47.098  27.894  24.465  1.00  0.00     0.031 A 
ATOM     61  C   UNL A   1      47.640  26.530  26.374  1.00  0.00     0.131 A 
ATOM     62  C   UNL A   1      48.164  27.303  23.771  1.00  0.00     0.055 A 
ATOM     63  C   UNL A   1      48.754  26.011  25.709  1.00  0.00     0.041 A 
ATOM     64  F   UNL A   1      47.393  26.080  27.614  1.00  0.00    -0.206 F 
ATOM     65  C   UNL A   1      49.013  26.384  24.393  1.00  0.00     0.022 A 
BRANCH  62  66
ATOM     66  S   UNL A   1      48.339  27.646  21.999  1.00  0.00     0.124 S 
ATOM     67  O   UNL A   1      49.476  28.564  21.989  1.00  0.00    -0.237 OA
ATOM     68  O   UNL A   1      48.585  26.321  21.443  1.00  0.00    -0.237 OA
ATOM     69  O   UNL A   1      47.058  28.249  21.637  1.00  0.00    -0.744 OA
ENDBRANCH  62  66
ENDBRANCH  45  59
BRANCH  46  70
ATOM     70  C   UNL A   1      38.750  30.352  31.046  1.00  0.00     0.023 A 
ATOM     71  C   UNL A   1      37.661  31.045  30.492  1.00  0.00     0.031 A 
ATOM     72  C   UNL A   1      38.734  30.104  32.430  1.00  0.00     0.131 A 
ATOM     73  C   UNL A   1      36.631  31.513  31.322  1.00  0.00     0.055 A 
ATOM     74  C   UNL A   1      37.679  30.522  33.243  1.00  0.00     0.041 A 
ATOM     75  F   UNL A   1      39.745  29.441  33.013  1.00  0.00    -0.206 F 
ATOM     76  C   UNL A   1      36.626  31.245  32.692  1.00  0.00     0.022 A 
BRANCH  73  77
ATOM     77  S   UNL A   1      35.343  32.566  30.598  1.00  0.00     0.124 S 
ATOM     78  O   UNL A   1      36.060  33.821  30.404  1.00  0.00    -0.237 OA
ATOM     79  O   UNL A   1      34.998  31.831  29.386  1.00  0.00    -0.237 OA
ATOM     80  O   UNL A   1      34.305  32.592  31.626  1.00  0.00    -0.744 OA
ENDBRANCH  73  77
ENDBRANCH  46  70
BRANCH  58  81
ATOM     81  C   UNL A   1      44.733  33.470  29.291  1.00  0.00     0.023 A 
ATOM     82  C   UNL A   1      44.561  34.523  28.376  1.00  0.00     0.031 A 
ATOM     83  C   UNL A   1      45.435  33.734  30.482  1.00  0.00     0.131 A 
ATOM     84  C   UNL A   1      45.134  35.776  28.638  1.00  0.00     0.055 A 
ATOM     85  C   UNL A   1      45.948  35.000  30.765  1.00  0.00     0.041 A 
ATOM     86  F   UNL A   1      45.628  32.765  31.390  1.00  0.00    -0.206 F 
ATOM     87  C   UNL A   1      45.810  36.025  29.835  1.00  0.00     0.022 A 
BRANCH  84  88
ATOM     88  S   UNL A   1      45.063  37.051  27.350  1.00  0.00     0.124 S 
ATOM     89  O   UNL A   1      45.508  38.238  28.075  1.00  0.00    -0.237 OA
ATOM     90  O   UNL A   1      45.989  36.533  26.348  1.00  0.00    -0.237 OA
ATOM     91  O   UNL A   1      43.657  37.058  26.952  1.00  0.00    -0.744 OA
ENDBRANCH  84  88
ENDBRANCH  58  81
ENDBRANCH  32  33
ENDBRANCH  24  27
ENDBRANCH   1  23
TORSDOF 14
ENDMDL
MODEL 2
REMARK VINA RESULT:     -12.9      0.525      7.610
REMARK SMILES O=C(NCCCNC(=O)c1ccc(-c2c3nc(c(-c4cc(S(=O)(=O)[O-])ccc4F)c4ccc([nH]4)c(-c4cc(S(=O)(=O)[O-])ccc4F)c4nc(c(-c5cc(S(=O)(=O)[O-])ccc5F)c5ccc2[nH]5)C=C4)C=C3)cc1)C1=Cc2cc(Cl)ccc2O[C@@H]1C(F)(F)F
REMARK SMILES IDX 6 1 5 2 4 3 3 4 1 5 2 6 73 8 74 9 83 10 75 11 82 12 76 13
REMARK SMILES IDX 81 14 77 15 80 16 78 17 79 18 84 19 85 20 86 21 87 22 7 23
REMARK SMILES IDX 8 24 9 26 10 27 11 28 72 29 12 30 71 31 13 32 14 33 15 34
REMARK SMILES IDX 65 35 16 36 70 37 64 38 66 39 17 40 69 41 63 42 62 43 18 45
REMARK SMILES IDX 50 46 30 47 49 48 31 49 34 50 48 51 67 52 32 53 33 54 47 56
REMARK SMILES IDX 68 57 35 58 19 59 20 60 28 61 21 62 27 63 29 64 26 65 22 66
REMARK SMILES IDX 23 67 24 68 25 69 51 70 52 71 60 72 53 73 59 74 61 75 58 76
REMARK SMILES IDX 54 77 55 78 56 79 57 80 36 81 37 82 45 83 38 84 44 85 46 86
REMARK SMILES IDX 43 87 39 88 40 89 41 90 42 91
REMARK H PARENT 3 7 7 25 66 44 34 55
REMARK Flexibility Score: inf
ROOT
ATOM      1  C   UNL A   1      36.570  21.492  25.571  1.00  0.00     0.118 C 
ENDROOT
BRANCH   1   2
ATOM      2  C   UNL A   1      36.097  21.985  24.206  1.00  0.00     0.042 C 
BRANCH   2   3
ATOM      3  C   UNL A   1      35.330  23.301  24.282  1.00  0.00     0.118 C 
BRANCH   3   4
ATOM      4  N   UNL A   1      34.814  23.748  22.984  1.00  0.00    -0.352 N 
ATOM      5  O   UNL A   1      33.248  24.292  21.437  1.00  0.00    -0.270 OA
ATOM      6  C   UNL A   1      33.553  23.673  22.447  1.00  0.00     0.251 C 
ATOM      7  H   UNL A   1      35.484  24.171  22.401  1.00  0.00     0.163 HD
BRANCH   6   8
ATOM      8  C   UNL A   1      32.556  22.873  23.179  1.00  0.00     0.067 C 
ATOM      9  C   UNL A   1      32.191  21.702  22.647  1.00  0.00     0.025 C 
ATOM     10  C   UNL A   1      32.321  23.227  24.614  1.00  0.00     0.314 C 
ATOM     11  C   UNL A   1      32.296  20.600  23.609  1.00  0.00     0.019 A 
ATOM     12  O   UNL A   1      32.567  22.121  25.517  1.00  0.00    -0.475 OA
ATOM     13  C   UNL A   1      32.512  19.316  23.096  1.00  0.00     0.032 A 
ATOM     14  C   UNL A   1      32.595  20.866  24.960  1.00  0.00     0.128 A 
ATOM     15  C   UNL A   1      33.102  18.343  23.899  1.00  0.00     0.041 A 
ATOM     16  C   UNL A   1      33.148  19.872  25.767  1.00  0.00     0.048 A 
ATOM     17  Cl  UNL A   1      33.533  16.827  23.211  1.00  0.00    -0.084 Cl
ATOM     18  C   UNL A   1      33.430  18.618  25.226  1.00  0.00     0.024 A 
BRANCH  10  19
ATOM     19  C   UNL A   1      30.898  23.775  24.811  1.00  0.00     0.429 C 
ATOM     20  F   UNL A   1      30.921  24.973  25.448  1.00  0.00    -0.167 F 
ATOM     21  F   UNL A   1      30.263  23.977  23.633  1.00  0.00    -0.167 F 
ATOM     22  F   UNL A   1      30.121  22.947  25.549  1.00  0.00    -0.167 F 
ENDBRANCH  10  19
ENDBRANCH   6   8
ENDBRANCH   3   4
ENDBRANCH   2   3
ENDBRANCH   1   2
BRANCH   1  23
ATOM     23  N   UNL A   1      37.668  20.533  25.517  1.00  0.00    -0.352 N 
ATOM     24  C   UNL A   1      38.998  20.669  25.868  1.00  0.00     0.251 C 
ATOM     25  H   UNL A   1      37.420  19.644  25.175  1.00  0.00     0.163 HD
ATOM     26  O   UNL A   1      39.762  19.741  25.667  1.00  0.00    -0.269 OA
BRANCH  24  27
ATOM     27  C   UNL A   1      39.503  21.949  26.430  1.00  0.00     0.039 A 
ATOM     28  C   UNL A   1      40.541  21.915  27.367  1.00  0.00     0.014 A 
ATOM     29  C   UNL A   1      38.991  23.178  26.018  1.00  0.00     0.014 A 
ATOM     30  C   UNL A   1      41.131  23.110  27.797  1.00  0.00     0.010 A 
ATOM     31  C   UNL A   1      39.660  24.352  26.345  1.00  0.00     0.010 A 
ATOM     32  C   UNL A   1      40.741  24.337  27.238  1.00  0.00    -0.014 A 
BRANCH  32  33
ATOM     33  C   UNL A   1      41.436  25.615  27.565  1.00  0.00     0.031 A 
ATOM     34  C   UNL A   1      40.724  26.674  28.370  1.00  0.00     0.074 A 
ATOM     35  C   UNL A   1      42.661  25.864  27.057  1.00  0.00     0.049 A 
ATOM     36  N   UNL A   1      41.088  27.903  28.634  1.00  0.00    -0.248 NA
ATOM     37  C   UNL A   1      39.399  26.319  28.904  1.00  0.00     0.031 C 
ATOM     38  C   UNL A   1      43.429  24.951  26.206  1.00  0.00     0.029 A 
ATOM     39  N   UNL A   1      43.475  26.966  27.169  1.00  0.00    -0.354 N 
ATOM     40  C   UNL A   1      40.024  28.475  29.324  1.00  0.00     0.074 A 
ATOM     41  C   UNL A   1      38.974  27.481  29.374  1.00  0.00     0.031 C 
ATOM     42  C   UNL A   1      44.612  25.512  25.907  1.00  0.00     0.029 A 
ATOM     43  C   UNL A   1      44.670  26.845  26.494  1.00  0.00     0.049 A 
ATOM     44  H   UNL A   1      43.227  27.767  27.684  1.00  0.00     0.167 HD
ATOM     45  C   UNL A   1      39.940  29.704  29.893  1.00  0.00     0.034 A 
ATOM     46  C   UNL A   1      45.692  27.714  26.354  1.00  0.00     0.034 A 
ATOM     47  C   UNL A   1      41.017  30.662  29.880  1.00  0.00     0.049 A 
ATOM     48  C   UNL A   1      45.589  29.063  27.024  1.00  0.00     0.074 A 
ATOM     49  C   UNL A   1      41.077  31.900  30.494  1.00  0.00     0.029 A 
ATOM     50  N   UNL A   1      42.229  30.485  29.225  1.00  0.00    -0.354 N 
ATOM     51  N   UNL A   1      44.597  29.564  27.723  1.00  0.00    -0.248 NA
ATOM     52  C   UNL A   1      46.748  29.955  26.897  1.00  0.00     0.031 C 
ATOM     53  C   UNL A   1      42.297  32.497  30.161  1.00  0.00     0.029 A 
ATOM     54  C   UNL A   1      43.032  31.601  29.400  1.00  0.00     0.049 A 
ATOM     55  H   UNL A   1      42.481  29.684  28.710  1.00  0.00     0.167 HD
ATOM     56  C   UNL A   1      45.028  30.819  28.144  1.00  0.00     0.074 A 
ATOM     57  C   UNL A   1      46.373  30.987  27.637  1.00  0.00     0.031 C 
ATOM     58  C   UNL A   1      44.371  31.751  28.883  1.00  0.00     0.034 A 
BRANCH  45  59
ATOM     59  C   UNL A   1      38.638  30.078  30.564  1.00  0.00     0.023 A 
ATOM     60  C   UNL A   1      37.615  30.751  29.874  1.00  0.00     0.031 A 
ATOM     61  C   UNL A   1      38.425  29.777  31.921  1.00  0.00     0.131 A 
ATOM     62  C   UNL A   1      36.467  31.175  30.558  1.00  0.00     0.055 A 
ATOM     63  C   UNL A   1      37.240  30.124  32.576  1.00  0.00     0.041 A 
ATOM     64  F   UNL A   1      39.370  29.152  32.640  1.00  0.00    -0.206 F 
ATOM     65  C   UNL A   1      36.258  30.842  31.899  1.00  0.00     0.022 A 
BRANCH  62  66
ATOM     66  S   UNL A   1      35.316  32.292  29.710  1.00  0.00     0.124 S 
ATOM     67  O   UNL A   1      34.373  32.608  30.780  1.00  0.00    -0.237 OA
ATOM     68  O   UNL A   1      36.188  33.380  29.286  1.00  0.00    -0.237 OA
ATOM     69  O   UNL A   1      34.772  31.470  28.632  1.00  0.00    -0.744 OA
ENDBRANCH  62  66
ENDBRANCH  45  59
BRANCH  46  70
ATOM     70  C   UNL A   1      46.897  27.352  25.553  1.00  0.00     0.023 A 
ATOM     71  C   UNL A   1      47.052  27.809  24.233  1.00  0.00     0.031 A 
ATOM     72  C   UNL A   1      47.889  26.503  26.073  1.00  0.00     0.131 A 
ATOM     73  C   UNL A   1      48.141  27.374  23.463  1.00  0.00     0.055 A 
ATOM     74  C   UNL A   1      49.002  26.119  25.322  1.00  0.00     0.041 A 
ATOM     75  F   UNL A   1      47.797  26.040  27.330  1.00  0.00    -0.206 F 
ATOM     76  C   UNL A   1      49.125  26.543  24.003  1.00  0.00     0.022 A 
BRANCH  73  77
ATOM     77  S   UNL A   1      48.203  27.834  21.709  1.00  0.00     0.124 S 
ATOM     78  O   UNL A   1      46.888  28.434  21.513  1.00  0.00    -0.237 OA
ATOM     79  O   UNL A   1      49.337  28.751  21.677  1.00  0.00    -0.237 OA
ATOM     80  O   UNL A   1      48.416  26.558  21.030  1.00  0.00    -0.744 OA
ENDBRANCH  73  77
ENDBRANCH  46  70
BRANCH  58  81
ATOM     81  C   UNL A   1      45.128  33.010  29.222  1.00  0.00     0.023 A 
ATOM     82  C   UNL A   1      45.079  34.147  28.397  1.00  0.00     0.031 A 
ATOM     83  C   UNL A   1      45.918  33.067  30.385  1.00  0.00     0.131 A 
ATOM     84  C   UNL A   1      45.854  35.272  28.714  1.00  0.00     0.055 A 
ATOM     85  C   UNL A   1      46.636  34.213  30.728  1.00  0.00     0.041 A 
ATOM     86  F   UNL A   1      45.999  32.010  31.208  1.00  0.00    -0.206 F 
ATOM     87  C   UNL A   1      46.617  35.318  29.883  1.00  0.00     0.022 A 
BRANCH  84  88
ATOM     88  S   UNL A   1      45.923  36.642  27.527  1.00  0.00     0.124 S 
ATOM     89  O   UNL A   1      46.679  36.051  26.426  1.00  0.00    -0.237 OA
ATOM     90  O   UNL A   1      44.512  36.899  27.265  1.00  0.00    -0.237 OA
ATOM     91  O   UNL A   1      46.621  37.696  28.262  1.00  0.00    -0.744 OA
ENDBRANCH  84  88
ENDBRANCH  58  81
ENDBRANCH  32  33
ENDBRANCH  24  27
ENDBRANCH   1  23
TORSDOF 14
ENDMDL
MODEL 3
REMARK VINA RESULT:     -12.9      5.548     10.489
REMARK SMILES O=C(NCCCNC(=O)c1ccc(-c2c3nc(c(-c4cc(S(=O)(=O)[O-])ccc4F)c4ccc([nH]4)c(-c4cc(S(=O)(=O)[O-])ccc4F)c4nc(c(-c5cc(S(=O)(=O)[O-])ccc5F)c5ccc2[nH]5)C=C4)C=C3)cc1)C1=Cc2cc(Cl)ccc2O[C@@H]1C(F)(F)F
REMARK SMILES IDX 6 1 5 2 4 3 3 4 1 5 2 6 73 8 74 9 83 10 75 11 82 12 76 13
REMARK SMILES IDX 81 14 77 15 80 16 78 17 79 18 84 19 85 20 86 21 87 22 7 23
REMARK SMILES IDX 8 24 9 26 10 27 11 28 72 29 12 30 71 31 13 32 14 33 15 34
REMARK SMILES IDX 65 35 16 36 70 37 64 38 66 39 17 40 69 41 63 42 62 43 18 45
REMARK SMILES IDX 50 46 30 47 49 48 31 49 34 50 48 51 67 52 32 53 33 54 47 56
REMARK SMILES IDX 68 57 35 58 19 59 20 60 28 61 21 62 27 63 29 64 26 65 22 66
REMARK SMILES IDX 23 67 24 68 25 69 51 70 52 71 60 72 53 73 59 74 61 75 58 76
REMARK SMILES IDX 54 77 55 78 56 79 57 80 36 81 37 82 45 83 38 84 44 85 46 86
REMARK SMILES IDX 43 87 39 88 40 89 41 90 42 91
REMARK H PARENT 3 7 7 25 66 44 34 55
REMARK Flexibility Score: inf
ROOT
ATOM      1  C   UNL A   1      32.528  30.072  25.815  1.00  0.00     0.118 C 
ENDROOT
BRANCH   1   2
ATOM      2  C   UNL A   1      31.541  29.037  26.347  1.00  0.00     0.042 C 
BRANCH   2   3
ATOM      3  C   UNL A   1      32.108  27.621  26.346  1.00  0.00     0.118 C 
BRANCH   3   4
ATOM      4  N   UNL A   1      31.172  26.622  26.873  1.00  0.00    -0.352 N 
ATOM      5  O   UNL A   1      29.826  24.798  26.829  1.00  0.00    -0.270 OA
ATOM      6  C   UNL A   1      30.383  25.703  26.225  1.00  0.00     0.251 C 
ATOM      7  H   UNL A   1      31.098  26.607  27.854  1.00  0.00     0.163 HD
BRANCH   6   8
ATOM      8  C   UNL A   1      30.295  25.808  24.759  1.00  0.00     0.067 C 
ATOM      9  C   UNL A   1      29.176  26.329  24.243  1.00  0.00     0.025 C 
ATOM     10  C   UNL A   1      31.573  25.694  23.989  1.00  0.00     0.314 C 
ATOM     11  C   UNL A   1      29.456  27.412  23.293  1.00  0.00     0.019 A 
ATOM     12  O   UNL A   1      31.844  26.857  23.169  1.00  0.00    -0.475 OA
ATOM     13  C   UNL A   1      28.472  28.392  23.127  1.00  0.00     0.032 A 
ATOM     14  C   UNL A   1      30.783  27.687  22.906  1.00  0.00     0.128 A 
ATOM     15  C   UNL A   1      28.830  29.657  22.663  1.00  0.00     0.041 A 
ATOM     16  C   UNL A   1      31.122  28.944  22.406  1.00  0.00     0.048 A 
ATOM     17  Cl  UNL A   1      27.653  30.910  22.635  1.00  0.00    -0.084 Cl
ATOM     18  C   UNL A   1      30.149  29.939  22.314  1.00  0.00     0.024 A 
BRANCH  10  19
ATOM     19  C   UNL A   1      31.578  24.418  23.131  1.00  0.00     0.429 C 
ATOM     20  F   UNL A   1      32.390  23.474  23.667  1.00  0.00    -0.167 F 
ATOM     21  F   UNL A   1      30.346  23.862  23.040  1.00  0.00    -0.167 F 
ATOM     22  F   UNL A   1      32.009  24.645  21.868  1.00  0.00    -0.167 F 
ENDBRANCH  10  19
ENDBRANCH   6   8
ENDBRANCH   3   4
ENDBRANCH   2   3
ENDBRANCH   1   2
BRANCH   1  23
ATOM     23  N   UNL A   1      32.359  31.408  26.376  1.00  0.00    -0.352 N 
ATOM     24  C   UNL A   1      33.155  32.124  27.251  1.00  0.00     0.251 C 
ATOM     25  H   UNL A   1      31.544  31.877  26.082  1.00  0.00     0.163 HD
ATOM     26  O   UNL A   1      32.773  33.212  27.645  1.00  0.00    -0.269 OA
BRANCH  24  27
ATOM     27  C   UNL A   1      34.433  31.550  27.749  1.00  0.00     0.039 A 
ATOM     28  C   UNL A   1      35.509  32.408  27.998  1.00  0.00     0.014 A 
ATOM     29  C   UNL A   1      34.569  30.188  28.005  1.00  0.00     0.014 A 
ATOM     30  C   UNL A   1      36.669  31.912  28.606  1.00  0.00     0.010 A 
ATOM     31  C   UNL A   1      35.665  29.723  28.724  1.00  0.00     0.010 A 
ATOM     32  C   UNL A   1      36.731  30.578  29.037  1.00  0.00    -0.014 A 
BRANCH  32  33
ATOM     33  C   UNL A   1      37.890  30.047  29.810  1.00  0.00     0.031 A 
ATOM     34  C   UNL A   1      38.127  30.513  31.226  1.00  0.00     0.074 A 
ATOM     35  C   UNL A   1      38.783  29.231  29.211  1.00  0.00     0.049 A 
ATOM     36  N   UNL A   1      39.148  30.294  32.013  1.00  0.00    -0.248 NA
ATOM     37  C   UNL A   1      37.100  31.388  31.814  1.00  0.00     0.031 C 
ATOM     38  C   UNL A   1      38.707  28.762  27.825  1.00  0.00     0.029 A 
ATOM     39  N   UNL A   1      39.938  28.658  29.685  1.00  0.00    -0.354 N 
ATOM     40  C   UNL A   1      38.905  31.034  33.167  1.00  0.00     0.074 A 
ATOM     41  C   UNL A   1      37.676  31.764  32.944  1.00  0.00     0.031 C 
ATOM     42  C   UNL A   1      39.744  27.946  27.574  1.00  0.00     0.029 A 
ATOM     43  C   UNL A   1      40.592  27.875  28.759  1.00  0.00     0.049 A 
ATOM     44  H   UNL A   1      40.268  28.794  30.602  1.00  0.00     0.167 HD
ATOM     45  C   UNL A   1      39.622  31.078  34.317  1.00  0.00     0.034 A 
ATOM     46  C   UNL A   1      41.748  27.187  28.848  1.00  0.00     0.034 A 
ATOM     47  C   UNL A   1      40.816  30.301  34.541  1.00  0.00     0.049 A 
ATOM     48  C   UNL A   1      42.511  27.225  30.150  1.00  0.00     0.074 A 
ATOM     49  C   UNL A   1      41.575  30.200  35.693  1.00  0.00     0.029 A 
ATOM     50  N   UNL A   1      41.421  29.485  33.594  1.00  0.00    -0.354 N 
ATOM     51  N   UNL A   1      42.234  27.885  31.251  1.00  0.00    -0.248 NA
ATOM     52  C   UNL A   1      43.732  26.413  30.225  1.00  0.00     0.031 C 
ATOM     53  C   UNL A   1      42.671  29.372  35.425  1.00  0.00     0.029 A 
ATOM     54  C   UNL A   1      42.556  28.896  34.129  1.00  0.00     0.049 A 
ATOM     55  H   UNL A   1      41.093  29.345  32.676  1.00  0.00     0.167 HD
ATOM     56  C   UNL A   1      43.232  27.543  32.158  1.00  0.00     0.074 A 
ATOM     57  C   UNL A   1      44.103  26.605  31.482  1.00  0.00     0.031 C 
ATOM     58  C   UNL A   1      43.415  27.966  33.436  1.00  0.00     0.034 A 
BRANCH  45  59
ATOM     59  C   UNL A   1      39.136  32.001  35.411  1.00  0.00     0.023 A 
ATOM     60  C   UNL A   1      39.579  33.331  35.508  1.00  0.00     0.031 A 
ATOM     61  C   UNL A   1      38.234  31.537  36.385  1.00  0.00     0.131 A 
ATOM     62  C   UNL A   1      39.188  34.124  36.597  1.00  0.00     0.055 A 
ATOM     63  C   UNL A   1      37.778  32.360  37.419  1.00  0.00     0.041 A 
ATOM     64  F   UNL A   1      37.788  30.272  36.358  1.00  0.00    -0.206 F 
ATOM     65  C   UNL A   1      38.268  33.658  37.539  1.00  0.00     0.022 A 
BRANCH  62  66
ATOM     66  S   UNL A   1      40.010  35.722  36.844  1.00  0.00     0.124 S 
ATOM     67  O   UNL A   1      41.409  35.317  36.957  1.00  0.00    -0.237 OA
ATOM     68  O   UNL A   1      39.653  36.451  35.633  1.00  0.00    -0.237 OA
ATOM     69  O   UNL A   1      39.414  36.228  38.078  1.00  0.00    -0.744 OA
ENDBRANCH  62  66
ENDBRANCH  45  59
BRANCH  46  70
ATOM     70  C   UNL A   1      42.264  26.407  27.685  1.00  0.00     0.023 A 
ATOM     71  C   UNL A   1      41.867  25.076  27.475  1.00  0.00     0.031 A 
ATOM     72  C   UNL A   1      43.199  26.962  26.794  1.00  0.00     0.131 A 
ATOM     73  C   UNL A   1      42.442  24.329  26.435  1.00  0.00     0.055 A 
ATOM     74  C   UNL A   1      43.725  26.232  25.726  1.00  0.00     0.041 A 
ATOM     75  F   UNL A   1      43.610  28.232  26.943  1.00  0.00    -0.206 F 
ATOM     76  C   UNL A   1      43.358  24.902  25.551  1.00  0.00     0.022 A 
BRANCH  73  77
ATOM     77  S   UNL A   1      42.046  22.562  26.315  1.00  0.00     0.124 S 
ATOM     78  O   UNL A   1      42.653  22.209  25.037  1.00  0.00    -0.237 OA
ATOM     79  O   UNL A   1      42.698  22.025  27.504  1.00  0.00    -0.237 OA
ATOM     80  O   UNL A   1      40.586  22.537  26.342  1.00  0.00    -0.744 OA
ENDBRANCH  73  77
ENDBRANCH  46  70
BRANCH  58  81
ATOM     81  C   UNL A   1      44.577  27.372  34.192  1.00  0.00     0.023 A 
ATOM     82  C   UNL A   1      44.444  26.192  34.944  1.00  0.00     0.031 A 
ATOM     83  C   UNL A   1      45.833  28.005  34.166  1.00  0.00     0.131 A 
ATOM     84  C   UNL A   1      45.532  25.713  35.687  1.00  0.00     0.055 A 
ATOM     85  C   UNL A   1      46.929  27.487  34.857  1.00  0.00     0.041 A 
ATOM     86  F   UNL A   1      46.015  29.134  33.463  1.00  0.00    -0.206 F 
ATOM     87  C   UNL A   1      46.778  26.343  35.634  1.00  0.00     0.022 A 
BRANCH  84  88
ATOM     88  S   UNL A   1      45.272  24.306  36.801  1.00  0.00     0.124 S 
ATOM     89  O   UNL A   1      44.291  24.840  37.741  1.00  0.00    -0.237 OA
ATOM     90  O   UNL A   1      44.787  23.274  35.891  1.00  0.00    -0.237 OA
ATOM     91  O   UNL A   1      46.600  24.063  37.362  1.00  0.00    -0.744 OA
ENDBRANCH  84  88
ENDBRANCH  58  81
ENDBRANCH  32  33
ENDBRANCH  24  27
ENDBRANCH   1  23
TORSDOF 14
ENDMDL
