MODEL 1
REMARK VINA RESULT:     -12.3      0.000      0.000
REMARK SMILES COc1ccc(-c2ccc(CCC(=O)NCCCNC(=O)c3ccc(-c4c5nc(c(-c6cc(S(=O)(=O)[O-])ccc6F)c6ccc([nH]6)c(-c6cc(S(=O)(=O)[O-])ccc6F)c6nc(c(-c7cc(S(=O)(=O)[O-])ccc7F)c7ccc4[nH]7)C=C6)C=C5)cc3)n2-c2ccc(C(C)=O)cc2)cc1
REMARK SMILES IDX 16 1 15 2 13 3 14 4 12 6 11 7 10 8 7 9 8 10 85 11 9 12 6 13
REMARK SMILES IDX 3 14 4 15 96 16 5 17 95 18 2 19 1 20 86 21 87 22 94 23 88 24
REMARK SMILES IDX 93 25 89 26 90 27 91 28 92 29 17 30 18 31 19 32 20 33 21 35
REMARK SMILES IDX 22 36 23 37 84 38 24 39 83 40 25 41 26 42 27 43 77 44 28 45
REMARK SMILES IDX 82 46 76 47 78 48 29 49 81 50 75 51 74 52 30 54 62 55 42 56
REMARK SMILES IDX 61 57 43 58 46 59 60 60 79 61 44 62 45 63 59 65 80 66 47 67
REMARK SMILES IDX 31 68 32 69 40 70 33 71 39 72 41 73 38 74 34 75 35 76 36 77
REMARK SMILES IDX 37 78 63 79 64 80 72 81 65 82 71 83 73 84 70 85 66 86 67 87
REMARK SMILES IDX 68 88 69 89 48 90 49 91 57 92 50 93 56 94 58 95 55 96 51 97
REMARK SMILES IDX 52 98 53 99 54 100
REMARK H PARENT 15 5 19 34 78 53 46 64
REMARK Flexibility Score: inf
ROOT
ATOM      1  C   UNL A   1      32.056  28.057  26.402  1.00  0.00     0.117 C 
ENDROOT
BRANCH   1   2
ATOM      2  N   UNL A   1      31.865  26.690  26.858  1.00  0.00    -0.356 N 
ATOM      3  C   UNL A   1      31.000  25.740  26.397  1.00  0.00     0.220 C 
ATOM      4  O   UNL A   1      30.859  24.707  27.054  1.00  0.00    -0.275 OA
ATOM      5  H   UNL A   1      32.441  26.409  27.604  1.00  0.00     0.163 HD
BRANCH   3   6
ATOM      6  C   UNL A   1      30.277  25.924  25.076  1.00  0.00     0.106 C 
BRANCH   6   7
ATOM      7  C   UNL A   1      30.767  24.970  23.984  1.00  0.00     0.064 C 
BRANCH   7   8
ATOM      8  C   UNL A   1      32.260  25.027  23.776  1.00  0.00     0.024 A 
ATOM      9  C   UNL A   1      34.437  24.516  24.111  1.00  0.00     0.053 A 
ATOM     10  C   UNL A   1      34.366  25.761  23.502  1.00  0.00     0.029 A 
ATOM     11  N   UNL A   1      33.145  23.991  24.074  1.00  0.00    -0.314 N 
ATOM     12  C   UNL A   1      33.010  26.070  23.268  1.00  0.00     0.024 A 
BRANCH   9  13
ATOM     13  C   UNL A   1      35.668  23.795  24.439  1.00  0.00    -0.001 A 
ATOM     14  C   UNL A   1      37.887  22.241  25.206  1.00  0.00     0.118 A 
ATOM     15  C   UNL A   1      37.363  23.208  26.066  1.00  0.00     0.047 A 
ATOM     16  C   UNL A   1      37.297  22.050  23.956  1.00  0.00     0.047 A 
ATOM     17  C   UNL A   1      36.267  23.984  25.686  1.00  0.00     0.014 A 
ATOM     18  C   UNL A   1      36.189  22.822  23.576  1.00  0.00     0.014 A 
BRANCH  14  19
ATOM     19  O   UNL A   1      38.932  21.527  25.722  1.00  0.00    -0.497 OA
ATOM     20  C   UNL A   1      39.675  22.142  26.766  1.00  0.00     0.278 C 
ENDBRANCH  14  19
ENDBRANCH   9  13
BRANCH  11  21
ATOM     21  C   UNL A   1      32.814  22.611  24.057  1.00  0.00     0.046 A 
ATOM     22  C   UNL A   1      32.517  22.040  22.813  1.00  0.00     0.027 A 
ATOM     23  C   UNL A   1      32.886  21.815  25.198  1.00  0.00     0.027 A 
ATOM     24  C   UNL A   1      32.299  20.669  22.701  1.00  0.00     0.014 A 
ATOM     25  C   UNL A   1      32.642  20.439  25.082  1.00  0.00     0.014 A 
ATOM     26  C   UNL A   1      32.365  19.853  23.832  1.00  0.00     0.017 A 
BRANCH  26  27
ATOM     27  C   UNL A   1      32.165  18.372  23.769  1.00  0.00     0.159 C 
ATOM     28  C   UNL A   1      32.264  17.522  25.014  1.00  0.00     0.093 C 
ATOM     29  O   UNL A   1      31.900  17.845  22.689  1.00  0.00    -0.295 OA
ENDBRANCH  26  27
ENDBRANCH  11  21
ENDBRANCH   7   8
ENDBRANCH   6   7
ENDBRANCH   3   6
ENDBRANCH   1   2
BRANCH   1  30
ATOM     30  C   UNL A   1      33.460  28.239  25.843  1.00  0.00     0.042 C 
BRANCH  30  31
ATOM     31  C   UNL A   1      34.517  28.522  26.897  1.00  0.00     0.118 C 
BRANCH  31  32
ATOM     32  N   UNL A   1      34.822  29.937  26.972  1.00  0.00    -0.352 N 
ATOM     33  C   UNL A   1      35.878  30.566  27.583  1.00  0.00     0.251 C 
ATOM     34  H   UNL A   1      34.181  30.532  26.520  1.00  0.00     0.163 HD
ATOM     35  O   UNL A   1      35.794  31.778  27.776  1.00  0.00    -0.269 OA
BRANCH  33  36
ATOM     36  C   UNL A   1      37.088  29.823  28.024  1.00  0.00     0.039 A 
ATOM     37  C   UNL A   1      38.228  29.903  27.213  1.00  0.00     0.014 A 
ATOM     38  C   UNL A   1      37.106  28.999  29.157  1.00  0.00     0.014 A 
ATOM     39  C   UNL A   1      39.380  29.196  27.551  1.00  0.00     0.010 A 
ATOM     40  C   UNL A   1      38.265  28.315  29.515  1.00  0.00     0.010 A 
ATOM     41  C   UNL A   1      39.403  28.411  28.710  1.00  0.00    -0.014 A 
BRANCH  41  42
ATOM     42  C   UNL A   1      40.674  27.762  29.112  1.00  0.00     0.031 A 
ATOM     43  C   UNL A   1      41.066  26.608  28.174  1.00  0.00     0.074 A 
ATOM     44  C   UNL A   1      41.278  28.240  30.242  1.00  0.00     0.049 A 
ATOM     45  N   UNL A   1      41.705  25.505  28.420  1.00  0.00    -0.248 NA
ATOM     46  C   UNL A   1      40.577  26.637  26.768  1.00  0.00     0.031 C 
ATOM     47  C   UNL A   1      40.780  29.383  31.042  1.00  0.00     0.029 A 
ATOM     48  N   UNL A   1      42.408  27.886  30.951  1.00  0.00    -0.354 N 
ATOM     49  C   UNL A   1      41.894  24.834  27.186  1.00  0.00     0.074 A 
ATOM     50  C   UNL A   1      41.046  25.502  26.244  1.00  0.00     0.031 C 
ATOM     51  C   UNL A   1      41.547  29.583  32.136  1.00  0.00     0.029 A 
ATOM     52  C   UNL A   1      42.620  28.608  32.158  1.00  0.00     0.049 A 
ATOM     53  H   UNL A   1      43.025  27.183  30.644  1.00  0.00     0.167 HD
ATOM     54  C   UNL A   1      42.850  23.876  26.983  1.00  0.00     0.034 A 
ATOM     55  C   UNL A   1      43.566  28.422  33.132  1.00  0.00     0.034 A 
ATOM     56  C   UNL A   1      43.582  23.664  28.189  1.00  0.00     0.049 A 
ATOM     57  C   UNL A   1      44.451  27.366  32.618  1.00  0.00     0.074 A 
ATOM     58  C   UNL A   1      43.291  23.059  29.381  1.00  0.00     0.029 A 
ATOM     59  N   UNL A   1      44.764  24.356  28.321  1.00  0.00    -0.354 N 
ATOM     60  N   UNL A   1      45.331  27.531  31.679  1.00  0.00    -0.248 NA
ATOM     61  C   UNL A   1      44.313  26.002  33.143  1.00  0.00     0.031 C 
ATOM     62  C   UNL A   1      44.068  23.774  30.317  1.00  0.00     0.029 A 
ATOM     63  C   UNL A   1      44.882  24.697  29.642  1.00  0.00     0.049 A 
ATOM     64  H   UNL A   1      45.404  24.566  27.603  1.00  0.00     0.167 HD
ATOM     65  C   UNL A   1      45.612  26.245  31.294  1.00  0.00     0.074 A 
ATOM     66  C   UNL A   1      45.239  25.396  32.404  1.00  0.00     0.031 C 
ATOM     67  C   UNL A   1      45.583  25.924  29.975  1.00  0.00     0.034 A 
BRANCH  54  68
ATOM     68  C   UNL A   1      43.422  23.216  25.743  1.00  0.00     0.023 A 
ATOM     69  C   UNL A   1      43.270  21.806  25.654  1.00  0.00     0.031 A 
ATOM     70  C   UNL A   1      44.315  23.792  24.832  1.00  0.00     0.131 A 
ATOM     71  C   UNL A   1      44.067  21.023  24.807  1.00  0.00     0.055 A 
ATOM     72  C   UNL A   1      45.063  23.011  23.931  1.00  0.00     0.041 A 
ATOM     73  F   UNL A   1      44.568  25.106  24.823  1.00  0.00    -0.206 F 
ATOM     74  C   UNL A   1      44.971  21.621  23.941  1.00  0.00     0.022 A 
BRANCH  71  75
ATOM     75  S   UNL A   1      44.021  19.216  25.004  1.00  0.00     0.124 S 
ATOM     76  O   UNL A   1      44.328  18.748  23.656  1.00  0.00    -0.237 OA
ATOM     77  O   UNL A   1      45.057  18.993  26.008  1.00  0.00    -0.237 OA
ATOM     78  O   UNL A   1      42.654  18.959  25.453  1.00  0.00    -0.744 OA
ENDBRANCH  71  75
ENDBRANCH  54  68
BRANCH  55  79
ATOM     79  C   UNL A   1      43.883  28.937  34.526  1.00  0.00     0.023 A 
ATOM     80  C   UNL A   1      45.116  29.449  34.961  1.00  0.00     0.031 A 
ATOM     81  C   UNL A   1      42.849  28.965  35.516  1.00  0.00     0.131 A 
ATOM     82  C   UNL A   1      45.248  30.003  36.264  1.00  0.00     0.055 A 
ATOM     83  C   UNL A   1      42.964  29.570  36.767  1.00  0.00     0.041 A 
ATOM     84  F   UNL A   1      41.649  28.402  35.317  1.00  0.00    -0.206 F 
ATOM     85  C   UNL A   1      44.169  30.109  37.145  1.00  0.00     0.022 A 
BRANCH  82  86
ATOM     86  S   UNL A   1      46.838  30.642  36.871  1.00  0.00     0.124 S 
ATOM     87  O   UNL A   1      47.565  29.413  37.167  1.00  0.00    -0.237 OA
ATOM     88  O   UNL A   1      47.336  31.425  35.745  1.00  0.00    -0.237 OA
ATOM     89  O   UNL A   1      46.446  31.429  38.041  1.00  0.00    -0.744 OA
ENDBRANCH  82  86
ENDBRANCH  55  79
BRANCH  67  90
ATOM     90  C   UNL A   1      45.849  27.109  29.042  1.00  0.00     0.023 A 
ATOM     91  C   UNL A   1      44.781  27.895  28.559  1.00  0.00     0.031 A 
ATOM     92  C   UNL A   1      47.115  27.408  28.505  1.00  0.00     0.131 A 
ATOM     93  C   UNL A   1      44.992  28.878  27.568  1.00  0.00     0.055 A 
ATOM     94  C   UNL A   1      47.332  28.395  27.535  1.00  0.00     0.041 A 
ATOM     95  F   UNL A   1      48.199  26.741  28.892  1.00  0.00    -0.206 F 
ATOM     96  C   UNL A   1      46.263  29.131  27.054  1.00  0.00     0.022 A 
BRANCH  93  97
ATOM     97  S   UNL A   1      43.583  29.844  26.959  1.00  0.00     0.124 S 
ATOM     98  O   UNL A   1      44.233  30.981  26.306  1.00  0.00    -0.237 OA
ATOM     99  O   UNL A   1      42.906  28.907  26.084  1.00  0.00    -0.237 OA
ATOM    100  O   UNL A   1      42.848  30.184  28.183  1.00  0.00    -0.744 OA
ENDBRANCH  93  97
ENDBRANCH  67  90
ENDBRANCH  41  42
ENDBRANCH  33  36
ENDBRANCH  31  32
ENDBRANCH  30  31
ENDBRANCH   1  30
TORSDOF 19
ENDMDL
MODEL 2
REMARK VINA RESULT:     -12.0      3.636      7.819
REMARK SMILES COc1ccc(-c2ccc(CCC(=O)NCCCNC(=O)c3ccc(-c4c5nc(c(-c6cc(S(=O)(=O)[O-])ccc6F)c6ccc([nH]6)c(-c6cc(S(=O)(=O)[O-])ccc6F)c6nc(c(-c7cc(S(=O)(=O)[O-])ccc7F)c7ccc4[nH]7)C=C6)C=C5)cc3)n2-c2ccc(C(C)=O)cc2)cc1
REMARK SMILES IDX 16 1 15 2 13 3 14 4 12 6 11 7 10 8 7 9 8 10 85 11 9 12 6 13
REMARK SMILES IDX 3 14 4 15 96 16 5 17 95 18 2 19 1 20 86 21 87 22 94 23 88 24
REMARK SMILES IDX 93 25 89 26 90 27 91 28 92 29 17 30 18 31 19 32 20 33 21 35
REMARK SMILES IDX 22 36 23 37 84 38 24 39 83 40 25 41 26 42 27 43 77 44 28 45
REMARK SMILES IDX 82 46 76 47 78 48 29 49 81 50 75 51 74 52 30 54 62 55 42 56
REMARK SMILES IDX 61 57 43 58 46 59 60 60 79 61 44 62 45 63 59 65 80 66 47 67
REMARK SMILES IDX 31 68 32 69 40 70 33 71 39 72 41 73 38 74 34 75 35 76 36 77
REMARK SMILES IDX 37 78 63 79 64 80 72 81 65 82 71 83 73 84 70 85 66 86 67 87
REMARK SMILES IDX 68 88 69 89 48 90 49 91 57 92 50 93 56 94 58 95 55 96 51 97
REMARK SMILES IDX 52 98 53 99 54 100
REMARK H PARENT 15 5 19 34 78 53 46 64
REMARK Flexibility Score: inf
ROOT
ATOM      1  C   UNL A   1      36.170  21.861  24.749  1.00  0.00     0.117 C 
ENDROOT
BRANCH   1   2
ATOM      2  N   UNL A   1      35.378  21.342  25.852  1.00  0.00    -0.356 N 
ATOM      3  C   UNL A   1      34.415  21.967  26.590  1.00  0.00     0.220 C 
ATOM      4  O   UNL A   1      34.004  21.411  27.610  1.00  0.00    -0.275 OA
ATOM      5  H   UNL A   1      35.562  20.409  26.102  1.00  0.00     0.163 HD
BRANCH   3   6
ATOM      6  C   UNL A   1      33.819  23.285  26.132  1.00  0.00     0.106 C 
BRANCH   6   7
ATOM      7  C   UNL A   1      32.303  23.362  26.333  1.00  0.00     0.064 C 
BRANCH   7   8
ATOM      8  C   UNL A   1      31.588  24.032  25.186  1.00  0.00     0.024 A 
ATOM      9  C   UNL A   1      30.302  25.571  24.140  1.00  0.00     0.053 A 
ATOM     10  C   UNL A   1      30.314  24.413  23.374  1.00  0.00     0.029 A 
ATOM     11  N   UNL A   1      31.262  25.388  25.136  1.00  0.00    -0.314 N 
ATOM     12  C   UNL A   1      31.136  23.461  24.012  1.00  0.00     0.024 A 
BRANCH   9  13
ATOM     13  C   UNL A   1      29.639  26.825  23.779  1.00  0.00    -0.001 A 
ATOM     14  C   UNL A   1      28.370  29.155  22.838  1.00  0.00     0.118 A 
ATOM     15  C   UNL A   1      29.759  29.025  22.773  1.00  0.00     0.047 A 
ATOM     16  C   UNL A   1      27.613  28.114  23.375  1.00  0.00     0.047 A 
ATOM     17  C   UNL A   1      30.391  27.874  23.245  1.00  0.00     0.014 A 
ATOM     18  C   UNL A   1      28.246  26.952  23.841  1.00  0.00     0.014 A 
BRANCH  14  19
ATOM     19  O   UNL A   1      27.882  30.314  22.303  1.00  0.00    -0.497 OA
ATOM     20  C   UNL A   1      28.246  30.603  20.960  1.00  0.00     0.278 C 
ENDBRANCH  14  19
ENDBRANCH   9  13
BRANCH  11  21
ATOM     21  C   UNL A   1      31.987  26.421  25.784  1.00  0.00     0.046 A 
ATOM     22  C   UNL A   1      33.272  26.700  25.302  1.00  0.00     0.027 A 
ATOM     23  C   UNL A   1      31.423  27.213  26.782  1.00  0.00     0.027 A 
ATOM     24  C   UNL A   1      33.997  27.776  25.808  1.00  0.00     0.014 A 
ATOM     25  C   UNL A   1      32.168  28.280  27.304  1.00  0.00     0.014 A 
ATOM     26  C   UNL A   1      33.452  28.581  26.810  1.00  0.00     0.017 A 
BRANCH  26  27
ATOM     27  C   UNL A   1      34.171  29.764  27.374  1.00  0.00     0.159 C 
ATOM     28  C   UNL A   1      35.679  29.781  27.472  1.00  0.00     0.093 C 
ATOM     29  O   UNL A   1      33.523  30.742  27.746  1.00  0.00    -0.295 OA
ENDBRANCH  26  27
ENDBRANCH  11  21
ENDBRANCH   7   8
ENDBRANCH   6   7
ENDBRANCH   3   6
ENDBRANCH   1   2
BRANCH   1  30
ATOM     30  C   UNL A   1      37.470  21.079  24.616  1.00  0.00     0.042 C 
BRANCH  30  31
ATOM     31  C   UNL A   1      38.508  21.413  25.675  1.00  0.00     0.118 C 
BRANCH  31  32
ATOM     32  N   UNL A   1      39.612  20.475  25.645  1.00  0.00    -0.352 N 
ATOM     33  C   UNL A   1      40.930  20.676  25.975  1.00  0.00     0.251 C 
ATOM     34  H   UNL A   1      39.386  19.565  25.347  1.00  0.00     0.163 HD
ATOM     35  O   UNL A   1      41.750  19.838  25.605  1.00  0.00    -0.269 OA
BRANCH  33  36
ATOM     36  C   UNL A   1      41.377  21.871  26.738  1.00  0.00     0.039 A 
ATOM     37  C   UNL A   1      41.746  23.007  26.006  1.00  0.00     0.014 A 
ATOM     38  C   UNL A   1      41.516  21.876  28.133  1.00  0.00     0.014 A 
ATOM     39  C   UNL A   1      42.213  24.143  26.661  1.00  0.00     0.010 A 
ATOM     40  C   UNL A   1      41.953  23.021  28.795  1.00  0.00     0.010 A 
ATOM     41  C   UNL A   1      42.305  24.155  28.058  1.00  0.00    -0.014 A 
BRANCH  41  42
ATOM     42  C   UNL A   1      42.692  25.413  28.741  1.00  0.00     0.031 A 
ATOM     43  C   UNL A   1      44.149  25.388  29.235  1.00  0.00     0.074 A 
ATOM     44  C   UNL A   1      41.723  26.370  28.865  1.00  0.00     0.049 A 
ATOM     45  N   UNL A   1      44.696  25.952  30.269  1.00  0.00    -0.248 NA
ATOM     46  C   UNL A   1      45.124  24.513  28.528  1.00  0.00     0.031 C 
ATOM     47  C   UNL A   1      40.352  26.252  28.318  1.00  0.00     0.029 A 
ATOM     48  N   UNL A   1      41.672  27.615  29.459  1.00  0.00    -0.354 N 
ATOM     49  C   UNL A   1      46.089  25.697  30.209  1.00  0.00     0.074 A 
ATOM     50  C   UNL A   1      46.260  24.685  29.210  1.00  0.00     0.031 C 
ATOM     51  C   UNL A   1      39.600  27.324  28.653  1.00  0.00     0.029 A 
ATOM     52  C   UNL A   1      40.398  28.248  29.436  1.00  0.00     0.049 A 
ATOM     53  H   UNL A   1      42.461  28.037  29.870  1.00  0.00     0.167 HD
ATOM     54  C   UNL A   1      47.025  26.445  30.871  1.00  0.00     0.034 A 
ATOM     55  C   UNL A   1      39.991  29.413  30.031  1.00  0.00     0.034 A 
ATOM     56  C   UNL A   1      46.377  27.473  31.619  1.00  0.00     0.049 A 
ATOM     57  C   UNL A   1      41.206  29.992  30.624  1.00  0.00     0.074 A 
ATOM     58  C   UNL A   1      45.624  27.484  32.761  1.00  0.00     0.029 A 
ATOM     59  N   UNL A   1      46.287  28.707  31.018  1.00  0.00    -0.354 N 
ATOM     60  N   UNL A   1      42.154  30.568  29.952  1.00  0.00    -0.248 NA
ATOM     61  C   UNL A   1      41.419  29.871  32.072  1.00  0.00     0.031 C 
ATOM     62  C   UNL A   1      44.747  28.573  32.572  1.00  0.00     0.029 A 
ATOM     63  C   UNL A   1      45.082  29.244  31.386  1.00  0.00     0.049 A 
ATOM     64  H   UNL A   1      46.961  29.126  30.434  1.00  0.00     0.167 HD
ATOM     65  C   UNL A   1      43.194  30.587  30.846  1.00  0.00     0.074 A 
ATOM     66  C   UNL A   1      42.604  30.470  32.162  1.00  0.00     0.031 C 
ATOM     67  C   UNL A   1      44.415  30.137  30.456  1.00  0.00     0.034 A 
BRANCH  54  68
ATOM     68  C   UNL A   1      48.534  26.553  30.775  1.00  0.00     0.023 A 
ATOM     69  C   UNL A   1      49.076  26.656  29.465  1.00  0.00     0.031 A 
ATOM     70  C   UNL A   1      49.454  26.281  31.795  1.00  0.00     0.131 A 
ATOM     71  C   UNL A   1      50.419  26.365  29.189  1.00  0.00     0.055 A 
ATOM     72  C   UNL A   1      50.817  26.059  31.526  1.00  0.00     0.041 A 
ATOM     73  F   UNL A   1      49.074  26.136  33.070  1.00  0.00    -0.206 F 
ATOM     74  C   UNL A   1      51.298  26.061  30.218  1.00  0.00     0.022 A 
BRANCH  71  75
ATOM     75  S   UNL A   1      50.931  26.210  27.451  1.00  0.00     0.124 S 
ATOM     76  O   UNL A   1      52.299  26.715  27.483  1.00  0.00    -0.237 OA
ATOM     77  O   UNL A   1      50.785  24.776  27.217  1.00  0.00    -0.237 OA
ATOM     78  O   UNL A   1      49.973  27.056  26.740  1.00  0.00    -0.744 OA
ENDBRANCH  71  75
ENDBRANCH  54  68
BRANCH  55  79
ATOM     79  C   UNL A   1      38.701  30.178  30.274  1.00  0.00     0.023 A 
ATOM     80  C   UNL A   1      38.362  31.428  29.729  1.00  0.00     0.031 A 
ATOM     81  C   UNL A   1      37.683  29.596  31.095  1.00  0.00     0.131 A 
ATOM     82  C   UNL A   1      37.072  31.985  29.949  1.00  0.00     0.055 A 
ATOM     83  C   UNL A   1      36.398  30.113  31.253  1.00  0.00     0.041 A 
ATOM     84  F   UNL A   1      37.883  28.471  31.797  1.00  0.00    -0.206 F 
ATOM     85  C   UNL A   1      36.079  31.312  30.664  1.00  0.00     0.022 A 
BRANCH  82  86
ATOM     86  S   UNL A   1      36.614  33.615  29.288  1.00  0.00     0.124 S 
ATOM     87  O   UNL A   1      37.883  34.331  29.340  1.00  0.00    -0.237 OA
ATOM     88  O   UNL A   1      36.107  33.304  27.955  1.00  0.00    -0.237 OA
ATOM     89  O   UNL A   1      35.601  34.077  30.237  1.00  0.00    -0.744 OA
ENDBRANCH  82  86
ENDBRANCH  55  79
BRANCH  67  90
ATOM     90  C   UNL A   1      44.661  30.239  28.948  1.00  0.00     0.023 A 
ATOM     91  C   UNL A   1      44.843  29.076  28.171  1.00  0.00     0.031 A 
ATOM     92  C   UNL A   1      44.855  31.458  28.272  1.00  0.00     0.131 A 
ATOM     93  C   UNL A   1      45.239  29.159  26.818  1.00  0.00     0.055 A 
ATOM     94  C   UNL A   1      45.230  31.546  26.925  1.00  0.00     0.041 A 
ATOM     95  F   UNL A   1      44.700  32.621  28.898  1.00  0.00    -0.206 F 
ATOM     96  C   UNL A   1      45.434  30.390  26.192  1.00  0.00     0.022 A 
BRANCH  93  97
ATOM     97  S   UNL A   1      45.488  27.634  25.868  1.00  0.00     0.124 S 
ATOM     98  O   UNL A   1      45.834  28.139  24.538  1.00  0.00    -0.237 OA
ATOM     99  O   UNL A   1      46.553  26.972  26.597  1.00  0.00    -0.237 OA
ATOM    100  O   UNL A   1      44.182  26.969  25.945  1.00  0.00    -0.744 OA
ENDBRANCH  93  97
ENDBRANCH  67  90
ENDBRANCH  41  42
ENDBRANCH  33  36
ENDBRANCH  31  32
ENDBRANCH  30  31
ENDBRANCH   1  30
TORSDOF 19
ENDMDL
MODEL 3
REMARK VINA RESULT:     -11.9      3.886      9.140
REMARK SMILES COc1ccc(-c2ccc(CCC(=O)NCCCNC(=O)c3ccc(-c4c5nc(c(-c6cc(S(=O)(=O)[O-])ccc6F)c6ccc([nH]6)c(-c6cc(S(=O)(=O)[O-])ccc6F)c6nc(c(-c7cc(S(=O)(=O)[O-])ccc7F)c7ccc4[nH]7)C=C6)C=C5)cc3)n2-c2ccc(C(C)=O)cc2)cc1
REMARK SMILES IDX 16 1 15 2 13 3 14 4 12 6 11 7 10 8 7 9 8 10 85 11 9 12 6 13
REMARK SMILES IDX 3 14 4 15 96 16 5 17 95 18 2 19 1 20 86 21 87 22 94 23 88 24
REMARK SMILES IDX 93 25 89 26 90 27 91 28 92 29 17 30 18 31 19 32 20 33 21 35
REMARK SMILES IDX 22 36 23 37 84 38 24 39 83 40 25 41 26 42 27 43 77 44 28 45
REMARK SMILES IDX 82 46 76 47 78 48 29 49 81 50 75 51 74 52 30 54 62 55 42 56
REMARK SMILES IDX 61 57 43 58 46 59 60 60 79 61 44 62 45 63 59 65 80 66 47 67
REMARK SMILES IDX 31 68 32 69 40 70 33 71 39 72 41 73 38 74 34 75 35 76 36 77
REMARK SMILES IDX 37 78 63 79 64 80 72 81 65 82 71 83 73 84 70 85 66 86 67 87
REMARK SMILES IDX 68 88 69 89 48 90 49 91 57 92 50 93 56 94 58 95 55 96 51 97
REMARK SMILES IDX 52 98 53 99 54 100
REMARK H PARENT 15 5 19 34 78 53 46 64
REMARK Flexibility Score: inf
ROOT
ATOM      1  C   UNL A   1      32.693  29.506  25.611  1.00  0.00     0.117 C 
ENDROOT
BRANCH   1   2
ATOM      2  N   UNL A   1      33.094  29.519  24.213  1.00  0.00    -0.356 N 
ATOM      3  C   UNL A   1      33.505  28.484  23.425  1.00  0.00     0.220 C 
ATOM      4  O   UNL A   1      33.989  28.744  22.322  1.00  0.00    -0.275 OA
ATOM      5  H   UNL A   1      33.062  30.399  23.773  1.00  0.00     0.163 HD
BRANCH   3   6
ATOM      6  C   UNL A   1      33.316  27.046  23.870  1.00  0.00     0.106 C 
BRANCH   6   7
ATOM      7  C   UNL A   1      33.224  26.063  22.701  1.00  0.00     0.064 C 
BRANCH   7   8
ATOM      8  C   UNL A   1      32.510  24.783  23.059  1.00  0.00     0.024 A 
ATOM      9  C   UNL A   1      32.205  22.553  23.283  1.00  0.00     0.053 A 
ATOM     10  C   UNL A   1      30.960  23.167  23.252  1.00  0.00     0.029 A 
ATOM     11  N   UNL A   1      33.143  23.582  23.380  1.00  0.00    -0.314 N 
ATOM     12  C   UNL A   1      31.149  24.560  23.139  1.00  0.00     0.024 A 
BRANCH   9  13
ATOM     13  C   UNL A   1      32.446  21.123  23.482  1.00  0.00    -0.001 A 
ATOM     14  C   UNL A   1      32.670  18.360  23.969  1.00  0.00     0.118 A 
ATOM     15  C   UNL A   1      32.914  19.284  24.987  1.00  0.00     0.047 A 
ATOM     16  C   UNL A   1      32.312  18.820  22.702  1.00  0.00     0.047 A 
ATOM     17  C   UNL A   1      32.810  20.655  24.746  1.00  0.00     0.014 A 
ATOM     18  C   UNL A   1      32.197  20.198  22.461  1.00  0.00     0.014 A 
BRANCH  14  19
ATOM     19  O   UNL A   1      32.768  17.052  24.354  1.00  0.00    -0.497 OA
ATOM     20  C   UNL A   1      32.771  16.794  25.751  1.00  0.00     0.278 C 
ENDBRANCH  14  19
ENDBRANCH   9  13
BRANCH  11  21
ATOM     21  C   UNL A   1      34.429  23.474  23.970  1.00  0.00     0.046 A 
ATOM     22  C   UNL A   1      34.519  23.701  25.349  1.00  0.00     0.027 A 
ATOM     23  C   UNL A   1      35.545  23.051  23.252  1.00  0.00     0.027 A 
ATOM     24  C   UNL A   1      35.723  23.499  26.019  1.00  0.00     0.014 A 
ATOM     25  C   UNL A   1      36.759  22.872  23.928  1.00  0.00     0.014 A 
ATOM     26  C   UNL A   1      36.855  23.077  25.318  1.00  0.00     0.017 A 
BRANCH  26  27
ATOM     27  C   UNL A   1      38.167  22.818  25.987  1.00  0.00     0.159 C 
ATOM     28  C   UNL A   1      38.900  23.923  26.711  1.00  0.00     0.093 C 
ATOM     29  O   UNL A   1      38.644  21.683  25.961  1.00  0.00    -0.295 OA
ENDBRANCH  26  27
ENDBRANCH  11  21
ENDBRANCH   7   8
ENDBRANCH   6   7
ENDBRANCH   3   6
ENDBRANCH   1   2
BRANCH   1  30
ATOM     30  C   UNL A   1      32.304  30.906  26.065  1.00  0.00     0.042 C 
BRANCH  30  31
ATOM     31  C   UNL A   1      32.706  31.232  27.494  1.00  0.00     0.118 C 
BRANCH  31  32
ATOM     32  N   UNL A   1      32.630  32.656  27.752  1.00  0.00    -0.352 N 
ATOM     33  C   UNL A   1      33.489  33.455  28.466  1.00  0.00     0.251 C 
ATOM     34  H   UNL A   1      31.852  33.115  27.361  1.00  0.00     0.163 HD
ATOM     35  O   UNL A   1      33.092  34.568  28.806  1.00  0.00    -0.269 OA
BRANCH  33  36
ATOM     36  C   UNL A   1      34.854  33.003  28.843  1.00  0.00     0.039 A 
ATOM     37  C   UNL A   1      35.896  33.272  27.945  1.00  0.00     0.014 A 
ATOM     38  C   UNL A   1      35.118  32.264  30.003  1.00  0.00     0.014 A 
ATOM     39  C   UNL A   1      37.190  32.838  28.223  1.00  0.00     0.010 A 
ATOM     40  C   UNL A   1      36.416  31.854  30.299  1.00  0.00     0.010 A 
ATOM     41  C   UNL A   1      37.454  32.139  29.407  1.00  0.00    -0.014 A 
BRANCH  41  42
ATOM     42  C   UNL A   1      38.856  31.790  29.737  1.00  0.00     0.031 A 
ATOM     43  C   UNL A   1      39.571  32.908  30.516  1.00  0.00     0.074 A 
ATOM     44  C   UNL A   1      39.312  30.582  29.288  1.00  0.00     0.049 A 
ATOM     45  N   UNL A   1      40.819  33.265  30.517  1.00  0.00    -0.248 NA
ATOM     46  C   UNL A   1      38.750  33.840  31.336  1.00  0.00     0.031 C 
ATOM     47  C   UNL A   1      38.488  29.594  28.553  1.00  0.00     0.029 A 
ATOM     48  N   UNL A   1      40.529  29.933  29.342  1.00  0.00    -0.354 N 
ATOM     49  C   UNL A   1      40.972  34.286  31.489  1.00  0.00     0.074 A 
ATOM     50  C   UNL A   1      39.644  34.696  31.837  1.00  0.00     0.031 C 
ATOM     51  C   UNL A   1      39.227  28.524  28.182  1.00  0.00     0.029 A 
ATOM     52  C   UNL A   1      40.592  28.698  28.640  1.00  0.00     0.049 A 
ATOM     53  H   UNL A   1      41.301  30.298  29.833  1.00  0.00     0.167 HD
ATOM     54  C   UNL A   1      42.172  34.618  32.056  1.00  0.00     0.034 A 
ATOM     55  C   UNL A   1      41.667  27.881  28.404  1.00  0.00     0.034 A 
ATOM     56  C   UNL A   1      43.206  33.803  31.507  1.00  0.00     0.049 A 
ATOM     57  C   UNL A   1      42.780  28.476  29.159  1.00  0.00     0.074 A 
ATOM     58  C   UNL A   1      43.840  33.763  30.296  1.00  0.00     0.029 A 
ATOM     59  N   UNL A   1      43.546  32.678  32.221  1.00  0.00    -0.354 N 
ATOM     60  N   UNL A   1      42.913  28.419  30.448  1.00  0.00    -0.248 NA
ATOM     61  C   UNL A   1      43.798  29.247  28.435  1.00  0.00     0.031 C 
ATOM     62  C   UNL A   1      44.180  32.403  30.141  1.00  0.00     0.029 A 
ATOM     63  C   UNL A   1      43.846  31.701  31.309  1.00  0.00     0.049 A 
ATOM     64  H   UNL A   1      43.571  32.590  33.202  1.00  0.00     0.167 HD
ATOM     65  C   UNL A   1      43.837  29.401  30.702  1.00  0.00     0.074 A 
ATOM     66  C   UNL A   1      44.556  29.617  29.466  1.00  0.00     0.031 C 
ATOM     67  C   UNL A   1      43.582  30.319  31.669  1.00  0.00     0.034 A 
BRANCH  54  68
ATOM     68  C   UNL A   1      42.563  35.452  33.261  1.00  0.00     0.023 A 
ATOM     69  C   UNL A   1      41.936  35.113  34.491  1.00  0.00     0.031 A 
ATOM     70  C   UNL A   1      43.241  36.677  33.241  1.00  0.00     0.131 A 
ATOM     71  C   UNL A   1      41.879  36.007  35.570  1.00  0.00     0.055 A 
ATOM     72  C   UNL A   1      43.244  37.543  34.349  1.00  0.00     0.041 A 
ATOM     73  F   UNL A   1      43.855  37.127  32.139  1.00  0.00    -0.206 F 
ATOM     74  C   UNL A   1      42.531  37.229  35.505  1.00  0.00     0.022 A 
BRANCH  71  75
ATOM     75  S   UNL A   1      40.785  35.608  36.966  1.00  0.00     0.124 S 
ATOM     76  O   UNL A   1      40.540  34.183  36.773  1.00  0.00    -0.237 OA
ATOM     77  O   UNL A   1      41.613  35.964  38.114  1.00  0.00    -0.237 OA
ATOM     78  O   UNL A   1      39.626  36.472  36.744  1.00  0.00    -0.744 OA
ENDBRANCH  71  75
ENDBRANCH  54  68
BRANCH  55  79
ATOM     79  C   UNL A   1      42.002  26.648  27.582  1.00  0.00     0.023 A 
ATOM     80  C   UNL A   1      42.396  25.396  28.085  1.00  0.00     0.031 A 
ATOM     81  C   UNL A   1      41.881  26.700  26.157  1.00  0.00     0.131 A 
ATOM     82  C   UNL A   1      42.573  24.290  27.210  1.00  0.00     0.055 A 
ATOM     83  C   UNL A   1      41.990  25.598  25.310  1.00  0.00     0.041 A 
ATOM     84  F   UNL A   1      41.641  27.842  25.498  1.00  0.00    -0.206 F 
ATOM     85  C   UNL A   1      42.325  24.375  25.838  1.00  0.00     0.022 A 
BRANCH  82  86
ATOM     86  S   UNL A   1      43.115  22.667  27.823  1.00  0.00     0.124 S 
ATOM     87  O   UNL A   1      43.745  22.092  26.640  1.00  0.00    -0.237 OA
ATOM     88  O   UNL A   1      44.010  23.008  28.924  1.00  0.00    -0.237 OA
ATOM     89  O   UNL A   1      41.858  22.037  28.227  1.00  0.00    -0.744 OA
ENDBRANCH  82  86
ENDBRANCH  55  79
BRANCH  67  90
ATOM     90  C   UNL A   1      42.626  29.824  32.760  1.00  0.00     0.023 A 
ATOM     91  C   UNL A   1      41.329  30.367  32.877  1.00  0.00     0.031 A 
ATOM     92  C   UNL A   1      43.002  28.924  33.773  1.00  0.00     0.131 A 
ATOM     93  C   UNL A   1      40.504  30.046  33.976  1.00  0.00     0.055 A 
ATOM     94  C   UNL A   1      42.180  28.588  34.856  1.00  0.00     0.041 A 
ATOM     95  F   UNL A   1      44.198  28.340  33.763  1.00  0.00    -0.206 F 
ATOM     96  C   UNL A   1      40.924  29.159  34.967  1.00  0.00     0.022 A 
BRANCH  93  97
ATOM     97  S   UNL A   1      38.854  30.792  34.098  1.00  0.00     0.124 S 
ATOM     98  O   UNL A   1      39.156  32.219  34.218  1.00  0.00    -0.237 OA
ATOM     99  O   UNL A   1      38.222  30.374  32.862  1.00  0.00    -0.237 OA
ATOM    100  O   UNL A   1      38.295  30.184  35.312  1.00  0.00    -0.744 OA
ENDBRANCH  93  97
ENDBRANCH  67  90
ENDBRANCH  41  42
ENDBRANCH  33  36
ENDBRANCH  31  32
ENDBRANCH  30  31
ENDBRANCH   1  30
TORSDOF 19
ENDMDL
