MODEL 1
REMARK VINA RESULT:     -10.8      0.000      0.000
REMARK SMILES O=C(NCCCNC(=O)C1(Cc2nccs2)CC1)c1ccc(-c2c3nc(c(-c4cc(S(=O)(=O)[O-])ccc4F)c4ccc([nH]4)c(-c4cc(S(=O)(=O)[O-])ccc4F)c4nc(c(-c5cc(S(=O)(=O)[O-])ccc5F)c5ccc2[nH]5)C=C4)C=C3)cc1
REMARK SMILES IDX 4 1 3 2 1 3 2 4 19 6 20 7 81 8 21 9 80 10 22 11 23 12 24 13
REMARK SMILES IDX 74 14 25 15 79 16 73 17 75 18 26 19 78 20 72 21 71 22 27 24
REMARK SMILES IDX 59 25 39 26 58 27 40 28 43 29 57 30 76 31 41 32 42 33 56 35
REMARK SMILES IDX 77 36 44 37 28 38 29 39 37 40 30 41 36 42 38 43 35 44 31 45
REMARK SMILES IDX 32 46 33 47 34 48 60 49 61 50 69 51 62 52 68 53 70 54 67 55
REMARK SMILES IDX 63 56 64 57 65 58 66 59 45 60 46 61 54 62 47 63 53 64 55 65
REMARK SMILES IDX 52 66 48 67 49 68 50 69 51 70 5 71 6 72 7 73 8 74 9 76 10 77
REMARK SMILES IDX 17 78 18 79 11 80 12 81 13 82 16 83 14 84 15 85
REMARK H PARENT 3 5 75 23 43 34 7 75
REMARK Flexibility Score: inf
ROOT
ATOM      1  C   UNL A   1      38.980  20.562  25.690  1.00  0.00     0.118 C 
ENDROOT
BRANCH   1   2
ATOM      2  N   UNL A   1      39.972  19.519  25.909  1.00  0.00    -0.352 N 
ATOM      3  O   UNL A   1      42.014  18.600  26.078  1.00  0.00    -0.269 OA
ATOM      4  C   UNL A   1      41.325  19.616  26.125  1.00  0.00     0.251 C 
ATOM      5  H   UNL A   1      39.619  18.601  25.898  1.00  0.00     0.163 HD
BRANCH   4   6
ATOM      6  C   UNL A   1      41.954  20.927  26.409  1.00  0.00     0.039 A 
ATOM      7  C   UNL A   1      42.191  21.848  25.386  1.00  0.00     0.014 A 
ATOM      8  C   UNL A   1      42.249  21.271  27.733  1.00  0.00     0.014 A 
ATOM      9  C   UNL A   1      42.824  23.054  25.664  1.00  0.00     0.010 A 
ATOM     10  C   UNL A   1      42.799  22.524  28.025  1.00  0.00     0.010 A 
ATOM     11  C   UNL A   1      43.096  23.424  26.990  1.00  0.00    -0.014 A 
BRANCH  11  12
ATOM     12  C   UNL A   1      43.554  24.809  27.274  1.00  0.00     0.031 A 
ATOM     13  C   UNL A   1      42.620  25.845  27.830  1.00  0.00     0.074 A 
ATOM     14  C   UNL A   1      44.844  25.113  27.019  1.00  0.00     0.049 A 
ATOM     15  N   UNL A   1      42.864  27.098  28.116  1.00  0.00    -0.248 NA
ATOM     16  C   UNL A   1      41.235  25.429  28.094  1.00  0.00     0.031 C 
ATOM     17  C   UNL A   1      45.833  24.179  26.468  1.00  0.00     0.029 A 
ATOM     18  N   UNL A   1      45.551  26.275  27.188  1.00  0.00    -0.354 N 
ATOM     19  C   UNL A   1      41.665  27.628  28.577  1.00  0.00     0.074 A 
ATOM     20  C   UNL A   1      40.687  26.562  28.517  1.00  0.00     0.031 C 
ATOM     21  C   UNL A   1      47.019  24.793  26.376  1.00  0.00     0.029 A 
ATOM     22  C   UNL A   1      46.863  26.185  26.779  1.00  0.00     0.049 A 
ATOM     23  H   UNL A   1      45.159  27.095  27.566  1.00  0.00     0.167 HD
ATOM     24  C   UNL A   1      41.414  28.889  29.007  1.00  0.00     0.034 A 
ATOM     25  C   UNL A   1      47.824  27.125  26.694  1.00  0.00     0.034 A 
ATOM     26  C   UNL A   1      42.410  29.934  29.064  1.00  0.00     0.049 A 
ATOM     27  C   UNL A   1      47.491  28.528  27.128  1.00  0.00     0.074 A 
ATOM     28  C   UNL A   1      42.276  31.222  29.553  1.00  0.00     0.029 A 
ATOM     29  N   UNL A   1      43.714  29.821  28.598  1.00  0.00    -0.354 N 
ATOM     30  N   UNL A   1      46.367  28.993  27.622  1.00  0.00    -0.248 NA
ATOM     31  C   UNL A   1      48.553  29.533  26.993  1.00  0.00     0.031 C 
ATOM     32  C   UNL A   1      43.467  31.912  29.305  1.00  0.00     0.029 A 
ATOM     33  C   UNL A   1      44.375  31.034  28.737  1.00  0.00     0.049 A 
ATOM     34  H   UNL A   1      44.111  29.002  28.224  1.00  0.00     0.167 HD
ATOM     35  C   UNL A   1      46.594  30.343  27.869  1.00  0.00     0.074 A 
ATOM     36  C   UNL A   1      47.971  30.606  27.504  1.00  0.00     0.031 C 
ATOM     37  C   UNL A   1      45.741  31.283  28.347  1.00  0.00     0.034 A 
BRANCH  24  38
ATOM     38  C   UNL A   1      40.001  29.240  29.406  1.00  0.00     0.023 A 
ATOM     39  C   UNL A   1      39.608  29.354  30.750  1.00  0.00     0.031 A 
ATOM     40  C   UNL A   1      39.044  29.519  28.413  1.00  0.00     0.131 A 
ATOM     41  C   UNL A   1      38.286  29.706  31.065  1.00  0.00     0.055 A 
ATOM     42  C   UNL A   1      37.748  29.929  28.732  1.00  0.00     0.041 A 
ATOM     43  F   UNL A   1      39.357  29.408  27.113  1.00  0.00    -0.206 F 
ATOM     44  C   UNL A   1      37.361  30.020  30.064  1.00  0.00     0.022 A 
BRANCH  41  45
ATOM     45  S   UNL A   1      37.762  29.673  32.801  1.00  0.00     0.124 S 
ATOM     46  O   UNL A   1      38.974  30.120  33.486  1.00  0.00    -0.237 OA
ATOM     47  O   UNL A   1      36.643  30.608  32.812  1.00  0.00    -0.237 OA
ATOM     48  O   UNL A   1      37.408  28.273  33.027  1.00  0.00    -0.744 OA
ENDBRANCH  41  45
ENDBRANCH  24  38
BRANCH  25  49
ATOM     49  C   UNL A   1      49.160  26.797  26.114  1.00  0.00     0.023 A 
ATOM     50  C   UNL A   1      50.274  26.579  26.938  1.00  0.00     0.031 A 
ATOM     51  C   UNL A   1      49.356  26.771  24.721  1.00  0.00     0.131 A 
ATOM     52  C   UNL A   1      51.543  26.408  26.365  1.00  0.00     0.055 A 
ATOM     53  C   UNL A   1      50.608  26.527  24.155  1.00  0.00     0.041 A 
ATOM     54  F   UNL A   1      48.327  26.978  23.884  1.00  0.00    -0.206 F 
ATOM     55  C   UNL A   1      51.716  26.364  24.979  1.00  0.00     0.022 A 
BRANCH  52  56
ATOM     56  S   UNL A   1      52.989  26.381  27.459  1.00  0.00     0.124 S 
ATOM     57  O   UNL A   1      52.364  26.296  28.774  1.00  0.00    -0.237 OA
ATOM     58  O   UNL A   1      53.690  25.185  27.004  1.00  0.00    -0.237 OA
ATOM     59  O   UNL A   1      53.660  27.647  27.167  1.00  0.00    -0.744 OA
ENDBRANCH  52  56
ENDBRANCH  25  49
BRANCH  37  60
ATOM     60  C   UNL A   1      46.295  32.676  28.516  1.00  0.00     0.023 A 
ATOM     61  C   UNL A   1      46.312  33.592  27.449  1.00  0.00     0.031 A 
ATOM     62  C   UNL A   1      46.833  33.085  29.748  1.00  0.00     0.131 A 
ATOM     63  C   UNL A   1      46.906  34.851  27.618  1.00  0.00     0.055 A 
ATOM     64  C   UNL A   1      47.366  34.361  29.928  1.00  0.00     0.041 A 
ATOM     65  F   UNL A   1      46.848  32.248  30.798  1.00  0.00    -0.206 F 
ATOM     66  C   UNL A   1      47.417  35.248  28.857  1.00  0.00     0.022 A 
BRANCH  63  67
ATOM     67  S   UNL A   1      47.089  35.927  26.170  1.00  0.00     0.124 S 
ATOM     68  O   UNL A   1      46.005  36.883  26.364  1.00  0.00    -0.237 OA
ATOM     69  O   UNL A   1      48.441  36.452  26.338  1.00  0.00    -0.237 OA
ATOM     70  O   UNL A   1      46.918  35.014  25.041  1.00  0.00    -0.744 OA
ENDBRANCH  63  67
ENDBRANCH  37  60
ENDBRANCH  11  12
ENDBRANCH   4   6
ENDBRANCH   1   2
BRANCH   1  71
ATOM     71  C   UNL A   1      37.710  20.031  25.043  1.00  0.00     0.042 C 
BRANCH  71  72
ATOM     72  C   UNL A   1      36.592  21.058  24.914  1.00  0.00     0.117 C 
BRANCH  72  73
ATOM     73  N   UNL A   1      35.796  21.193  26.117  1.00  0.00    -0.356 N 
ATOM     74  C   UNL A   1      34.436  21.254  26.256  1.00  0.00     0.226 C 
ATOM     75  H   UNL A   1      36.307  21.249  26.956  1.00  0.00     0.163 HD
ATOM     76  O   UNL A   1      33.930  21.270  27.376  1.00  0.00    -0.274 OA
BRANCH  74  77
ATOM     77  C   UNL A   1      33.569  21.223  25.028  1.00  0.00     0.056 C 
ATOM     78  C   UNL A   1      32.194  21.879  25.145  1.00  0.00     0.018 C 
ATOM     79  C   UNL A   1      33.268  22.567  24.366  1.00  0.00     0.018 C 
BRANCH  77  80
ATOM     80  C   UNL A   1      33.718  20.036  24.080  1.00  0.00     0.084 C 
BRANCH  80  81
ATOM     81  C   UNL A   1      33.485  18.685  24.697  1.00  0.00     0.094 A 
ATOM     82  N   UNL A   1      32.534  18.419  25.567  1.00  0.00    -0.250 NA
ATOM     83  S   UNL A   1      34.475  17.346  24.259  1.00  0.00    -0.127 S 
ATOM     84  C   UNL A   1      32.630  17.106  25.980  1.00  0.00     0.123 A 
ATOM     85  C   UNL A   1      33.611  16.362  25.363  1.00  0.00     0.087 A 
ENDBRANCH  80  81
ENDBRANCH  77  80
ENDBRANCH  74  77
ENDBRANCH  72  73
ENDBRANCH  71  72
ENDBRANCH   1  71
TORSDOF 15
ENDMDL
MODEL 2
REMARK VINA RESULT:     -10.8      6.419     11.935
REMARK SMILES O=C(NCCCNC(=O)C1(Cc2nccs2)CC1)c1ccc(-c2c3nc(c(-c4cc(S(=O)(=O)[O-])ccc4F)c4ccc([nH]4)c(-c4cc(S(=O)(=O)[O-])ccc4F)c4nc(c(-c5cc(S(=O)(=O)[O-])ccc5F)c5ccc2[nH]5)C=C4)C=C3)cc1
REMARK SMILES IDX 4 1 3 2 1 3 2 4 19 6 20 7 81 8 21 9 80 10 22 11 23 12 24 13
REMARK SMILES IDX 74 14 25 15 79 16 73 17 75 18 26 19 78 20 72 21 71 22 27 24
REMARK SMILES IDX 59 25 39 26 58 27 40 28 43 29 57 30 76 31 41 32 42 33 56 35
REMARK SMILES IDX 77 36 44 37 28 38 29 39 37 40 30 41 36 42 38 43 35 44 31 45
REMARK SMILES IDX 32 46 33 47 34 48 60 49 61 50 69 51 62 52 68 53 70 54 67 55
REMARK SMILES IDX 63 56 64 57 65 58 66 59 45 60 46 61 54 62 47 63 53 64 55 65
REMARK SMILES IDX 52 66 48 67 49 68 50 69 51 70 5 71 6 72 7 73 8 74 9 76 10 77
REMARK SMILES IDX 17 78 18 79 11 80 12 81 13 82 16 83 14 84 15 85
REMARK H PARENT 3 5 75 23 43 34 7 75
REMARK Flexibility Score: inf
ROOT
ATOM      1  C   UNL A   1      32.696  32.376  27.260  1.00  0.00     0.118 C 
ENDROOT
BRANCH   1   2
ATOM      2  N   UNL A   1      32.539  33.785  27.593  1.00  0.00    -0.352 N 
ATOM      3  O   UNL A   1      32.729  35.665  28.805  1.00  0.00    -0.269 OA
ATOM      4  C   UNL A   1      33.160  34.542  28.555  1.00  0.00     0.251 C 
ATOM      5  H   UNL A   1      31.884  34.270  27.042  1.00  0.00     0.163 HD
BRANCH   4   6
ATOM      6  C   UNL A   1      34.335  34.017  29.290  1.00  0.00     0.039 A 
ATOM      7  C   UNL A   1      34.180  33.106  30.337  1.00  0.00     0.014 A 
ATOM      8  C   UNL A   1      35.620  34.390  28.879  1.00  0.00     0.014 A 
ATOM      9  C   UNL A   1      35.290  32.660  31.045  1.00  0.00     0.010 A 
ATOM     10  C   UNL A   1      36.742  33.866  29.531  1.00  0.00     0.010 A 
ATOM     11  C   UNL A   1      36.585  33.001  30.624  1.00  0.00    -0.014 A 
BRANCH  11  12
ATOM     12  C   UNL A   1      37.749  32.324  31.252  1.00  0.00     0.031 A 
ATOM     13  C   UNL A   1      38.461  31.192  30.568  1.00  0.00     0.074 A 
ATOM     14  C   UNL A   1      38.157  32.759  32.462  1.00  0.00     0.049 A 
ATOM     15  N   UNL A   1      39.481  30.491  30.991  1.00  0.00    -0.248 NA
ATOM     16  C   UNL A   1      37.965  30.788  29.243  1.00  0.00     0.031 C 
ATOM     17  C   UNL A   1      37.527  33.849  33.218  1.00  0.00     0.029 A 
ATOM     18  N   UNL A   1      39.188  32.356  33.270  1.00  0.00    -0.354 N 
ATOM     19  C   UNL A   1      39.741  29.553  29.999  1.00  0.00     0.074 A 
ATOM     20  C   UNL A   1      38.759  29.764  28.957  1.00  0.00     0.031 C 
ATOM     21  C   UNL A   1      38.201  34.045  34.357  1.00  0.00     0.029 A 
ATOM     22  C   UNL A   1      39.258  33.047  34.459  1.00  0.00     0.049 A 
ATOM     23  H   UNL A   1      39.817  31.640  33.024  1.00  0.00     0.167 HD
ATOM     24  C   UNL A   1      40.711  28.606  29.972  1.00  0.00     0.034 A 
ATOM     25  C   UNL A   1      40.054  32.873  35.532  1.00  0.00     0.034 A 
ATOM     26  C   UNL A   1      41.685  28.420  31.023  1.00  0.00     0.049 A 
ATOM     27  C   UNL A   1      41.083  31.775  35.487  1.00  0.00     0.074 A 
ATOM     28  C   UNL A   1      42.754  27.541  31.057  1.00  0.00     0.029 A 
ATOM     29  N   UNL A   1      41.698  29.106  32.231  1.00  0.00    -0.354 N 
ATOM     30  N   UNL A   1      41.355  30.939  34.511  1.00  0.00    -0.248 NA
ATOM     31  C   UNL A   1      41.912  31.594  36.686  1.00  0.00     0.031 C 
ATOM     32  C   UNL A   1      43.358  27.633  32.315  1.00  0.00     0.029 A 
ATOM     33  C   UNL A   1      42.721  28.628  33.038  1.00  0.00     0.049 A 
ATOM     34  H   UNL A   1      41.073  29.825  32.479  1.00  0.00     0.167 HD
ATOM     35  C   UNL A   1      42.396  30.143  34.976  1.00  0.00     0.074 A 
ATOM     36  C   UNL A   1      42.726  30.623  36.302  1.00  0.00     0.031 C 
ATOM     37  C   UNL A   1      43.020  29.104  34.367  1.00  0.00     0.034 A 
BRANCH  24  38
ATOM     38  C   UNL A   1      40.752  27.658  28.798  1.00  0.00     0.023 A 
ATOM     39  C   UNL A   1      41.713  27.766  27.779  1.00  0.00     0.031 A 
ATOM     40  C   UNL A   1      39.837  26.590  28.731  1.00  0.00     0.131 A 
ATOM     41  C   UNL A   1      41.720  26.842  26.722  1.00  0.00     0.055 A 
ATOM     42  C   UNL A   1      39.887  25.639  27.711  1.00  0.00     0.041 A 
ATOM     43  F   UNL A   1      38.885  26.448  29.666  1.00  0.00    -0.206 F 
ATOM     44  C   UNL A   1      40.829  25.764  26.696  1.00  0.00     0.022 A 
BRANCH  41  45
ATOM     45  S   UNL A   1      42.856  27.109  25.334  1.00  0.00     0.124 S 
ATOM     46  O   UNL A   1      44.110  27.395  26.028  1.00  0.00    -0.237 OA
ATOM     47  O   UNL A   1      42.795  25.836  24.626  1.00  0.00    -0.237 OA
ATOM     48  O   UNL A   1      42.272  28.246  24.625  1.00  0.00    -0.744 OA
ENDBRANCH  41  45
ENDBRANCH  24  38
BRANCH  25  49
ATOM     49  C   UNL A   1      39.867  33.700  36.760  1.00  0.00     0.023 A 
ATOM     50  C   UNL A   1      39.236  33.176  37.898  1.00  0.00     0.031 A 
ATOM     51  C   UNL A   1      40.254  35.052  36.785  1.00  0.00     0.131 A 
ATOM     52  C   UNL A   1      38.953  34.015  38.987  1.00  0.00     0.055 A 
ATOM     53  C   UNL A   1      40.037  35.864  37.900  1.00  0.00     0.041 A 
ATOM     54  F   UNL A   1      40.858  35.608  35.723  1.00  0.00    -0.206 F 
ATOM     55  C   UNL A   1      39.364  35.351  39.003  1.00  0.00     0.022 A 
BRANCH  52  56
ATOM     56  S   UNL A   1      37.918  33.370  40.328  1.00  0.00     0.124 S 
ATOM     57  O   UNL A   1      37.882  34.502  41.247  1.00  0.00    -0.237 OA
ATOM     58  O   UNL A   1      36.671  33.072  39.630  1.00  0.00    -0.237 OA
ATOM     59  O   UNL A   1      38.661  32.204  40.801  1.00  0.00    -0.744 OA
ENDBRANCH  52  56
ENDBRANCH  25  49
BRANCH  37  60
ATOM     60  C   UNL A   1      44.134  28.439  35.135  1.00  0.00     0.023 A 
ATOM     61  C   UNL A   1      43.875  27.416  36.065  1.00  0.00     0.031 A 
ATOM     62  C   UNL A   1      45.467  28.846  34.954  1.00  0.00     0.131 A 
ATOM     63  C   UNL A   1      44.926  26.875  36.820  1.00  0.00     0.055 A 
ATOM     64  C   UNL A   1      46.516  28.260  35.662  1.00  0.00     0.041 A 
ATOM     65  F   UNL A   1      45.771  29.822  34.083  1.00  0.00    -0.206 F 
ATOM     66  C   UNL A   1      46.247  27.278  36.611  1.00  0.00     0.022 A 
BRANCH  63  67
ATOM     67  S   UNL A   1      44.529  25.705  38.147  1.00  0.00     0.124 S 
ATOM     68  O   UNL A   1      45.760  25.706  38.930  1.00  0.00    -0.237 OA
ATOM     69  O   UNL A   1      43.371  26.329  38.779  1.00  0.00    -0.237 OA
ATOM     70  O   UNL A   1      44.247  24.461  37.433  1.00  0.00    -0.744 OA
ENDBRANCH  63  67
ENDBRANCH  37  60
ENDBRANCH  11  12
ENDBRANCH   4   6
ENDBRANCH   1   2
BRANCH   1  71
ATOM     71  C   UNL A   1      31.500  31.818  26.506  1.00  0.00     0.042 C 
BRANCH  71  72
ATOM     72  C   UNL A   1      31.608  30.338  26.160  1.00  0.00     0.117 C 
BRANCH  72  73
ATOM     73  N   UNL A   1      31.586  30.079  24.734  1.00  0.00    -0.356 N 
ATOM     74  C   UNL A   1      31.922  28.941  24.053  1.00  0.00     0.226 C 
ATOM     75  H   UNL A   1      31.286  30.831  24.175  1.00  0.00     0.163 HD
ATOM     76  O   UNL A   1      31.745  28.873  22.839  1.00  0.00    -0.274 OA
BRANCH  74  77
ATOM     77  C   UNL A   1      32.436  27.752  24.816  1.00  0.00     0.056 C 
ATOM     78  C   UNL A   1      33.715  27.102  24.289  1.00  0.00     0.018 C 
ATOM     79  C   UNL A   1      33.774  27.924  25.536  1.00  0.00     0.018 C 
BRANCH  77  80
ATOM     80  C   UNL A   1      31.416  26.860  25.519  1.00  0.00     0.084 C 
BRANCH  80  81
ATOM     81  C   UNL A   1      31.235  25.494  24.919  1.00  0.00     0.094 A 
ATOM     82  N   UNL A   1      30.747  25.267  23.717  1.00  0.00    -0.250 NA
ATOM     83  S   UNL A   1      31.701  24.088  25.798  1.00  0.00    -0.127 S 
ATOM     84  C   UNL A   1      30.657  23.908  23.496  1.00  0.00     0.123 A 
ATOM     85  C   UNL A   1      31.148  23.110  24.505  1.00  0.00     0.087 A 
ENDBRANCH  80  81
ENDBRANCH  77  80
ENDBRANCH  74  77
ENDBRANCH  72  73
ENDBRANCH  71  72
ENDBRANCH   1  71
TORSDOF 15
ENDMDL
MODEL 3
REMARK VINA RESULT:     -10.7      6.874     12.232
REMARK SMILES O=C(NCCCNC(=O)C1(Cc2nccs2)CC1)c1ccc(-c2c3nc(c(-c4cc(S(=O)(=O)[O-])ccc4F)c4ccc([nH]4)c(-c4cc(S(=O)(=O)[O-])ccc4F)c4nc(c(-c5cc(S(=O)(=O)[O-])ccc5F)c5ccc2[nH]5)C=C4)C=C3)cc1
REMARK SMILES IDX 4 1 3 2 1 3 2 4 19 6 20 7 81 8 21 9 80 10 22 11 23 12 24 13
REMARK SMILES IDX 74 14 25 15 79 16 73 17 75 18 26 19 78 20 72 21 71 22 27 24
REMARK SMILES IDX 59 25 39 26 58 27 40 28 43 29 57 30 76 31 41 32 42 33 56 35
REMARK SMILES IDX 77 36 44 37 28 38 29 39 37 40 30 41 36 42 38 43 35 44 31 45
REMARK SMILES IDX 32 46 33 47 34 48 60 49 61 50 69 51 62 52 68 53 70 54 67 55
REMARK SMILES IDX 63 56 64 57 65 58 66 59 45 60 46 61 54 62 47 63 53 64 55 65
REMARK SMILES IDX 52 66 48 67 49 68 50 69 51 70 5 71 6 72 7 73 8 74 9 76 10 77
REMARK SMILES IDX 17 78 18 79 11 80 12 81 13 82 16 83 14 84 15 85
REMARK H PARENT 3 5 75 23 43 34 7 75
REMARK Flexibility Score: inf
ROOT
ATOM      1  C   UNL A   1      32.670  32.013  27.143  1.00  0.00     0.118 C 
ENDROOT
BRANCH   1   2
ATOM      2  N   UNL A   1      32.502  33.436  27.402  1.00  0.00    -0.352 N 
ATOM      3  O   UNL A   1      32.662  35.373  28.526  1.00  0.00    -0.269 OA
ATOM      4  C   UNL A   1      33.101  34.241  28.340  1.00  0.00     0.251 C 
ATOM      5  H   UNL A   1      31.857  33.891  26.815  1.00  0.00     0.163 HD
BRANCH   4   6
ATOM      6  C   UNL A   1      34.262  33.757  29.123  1.00  0.00     0.039 A 
ATOM      7  C   UNL A   1      34.109  32.767  30.097  1.00  0.00     0.014 A 
ATOM      8  C   UNL A   1      35.538  34.251  28.830  1.00  0.00     0.014 A 
ATOM      9  C   UNL A   1      35.201  32.359  30.855  1.00  0.00     0.010 A 
ATOM     10  C   UNL A   1      36.651  33.769  29.528  1.00  0.00     0.010 A 
ATOM     11  C   UNL A   1      36.490  32.822  30.550  1.00  0.00    -0.014 A 
BRANCH  11  12
ATOM     12  C   UNL A   1      37.660  32.194  31.217  1.00  0.00     0.031 A 
ATOM     13  C   UNL A   1      38.442  31.095  30.557  1.00  0.00     0.074 A 
ATOM     14  C   UNL A   1      38.007  32.642  32.442  1.00  0.00     0.049 A 
ATOM     15  N   UNL A   1      39.476  30.436  31.014  1.00  0.00    -0.248 NA
ATOM     16  C   UNL A   1      38.009  30.675  29.215  1.00  0.00     0.031 C 
ATOM     17  C   UNL A   1      37.305  33.701  33.177  1.00  0.00     0.029 A 
ATOM     18  N   UNL A   1      39.025  32.280  33.285  1.00  0.00    -0.354 N 
ATOM     19  C   UNL A   1      39.809  29.512  30.030  1.00  0.00     0.074 A 
ATOM     20  C   UNL A   1      38.855  29.685  28.955  1.00  0.00     0.031 C 
ATOM     21  C   UNL A   1      37.931  33.923  34.339  1.00  0.00     0.029 A 
ATOM     22  C   UNL A   1      39.025  32.970  34.476  1.00  0.00     0.049 A 
ATOM     23  H   UNL A   1      39.692  31.592  33.059  1.00  0.00     0.167 HD
ATOM     24  C   UNL A   1      40.819  28.607  30.035  1.00  0.00     0.034 A 
ATOM     25  C   UNL A   1      39.789  32.826  35.576  1.00  0.00     0.034 A 
ATOM     26  C   UNL A   1      41.763  28.460  31.119  1.00  0.00     0.049 A 
ATOM     27  C   UNL A   1      40.865  31.772  35.565  1.00  0.00     0.074 A 
ATOM     28  C   UNL A   1      42.865  27.626  31.189  1.00  0.00     0.029 A 
ATOM     29  N   UNL A   1      41.705  29.142  32.328  1.00  0.00    -0.354 N 
ATOM     30  N   UNL A   1      41.205  30.952  34.598  1.00  0.00    -0.248 NA
ATOM     31  C   UNL A   1      41.659  31.623  36.791  1.00  0.00     0.031 C 
ATOM     32  C   UNL A   1      43.421  27.740  32.468  1.00  0.00     0.029 A 
ATOM     33  C   UNL A   1      42.718  28.705  33.170  1.00  0.00     0.049 A 
ATOM     34  H   UNL A   1      41.041  29.833  32.555  1.00  0.00     0.167 HD
ATOM     35  C   UNL A   1      42.262  30.199  35.098  1.00  0.00     0.074 A 
ATOM     36  C   UNL A   1      42.526  30.688  36.435  1.00  0.00     0.031 C 
ATOM     37  C   UNL A   1      42.951  29.189  34.509  1.00  0.00     0.034 A 
BRANCH  24  38
ATOM     38  C   UNL A   1      40.940  27.665  28.862  1.00  0.00     0.023 A 
ATOM     39  C   UNL A   1      41.921  27.826  27.869  1.00  0.00     0.031 A 
ATOM     40  C   UNL A   1      40.084  26.551  28.770  1.00  0.00     0.131 A 
ATOM     41  C   UNL A   1      42.004  26.906  26.812  1.00  0.00     0.055 A 
ATOM     42  C   UNL A   1      40.211  25.606  27.750  1.00  0.00     0.041 A 
ATOM     43  F   UNL A   1      39.116  26.357  29.679  1.00  0.00    -0.206 F 
ATOM     44  C   UNL A   1      41.172  25.783  26.761  1.00  0.00     0.022 A 
BRANCH  41  45
ATOM     45  S   UNL A   1      43.161  27.235  25.455  1.00  0.00     0.124 S 
ATOM     46  O   UNL A   1      42.384  28.146  24.617  1.00  0.00    -0.237 OA
ATOM     47  O   UNL A   1      44.301  27.823  26.147  1.00  0.00    -0.237 OA
ATOM     48  O   UNL A   1      43.396  25.915  24.874  1.00  0.00    -0.744 OA
ENDBRANCH  41  45
ENDBRANCH  24  38
BRANCH  25  49
ATOM     49  C   UNL A   1      39.526  33.641  36.798  1.00  0.00     0.023 A 
ATOM     50  C   UNL A   1      40.255  34.810  37.061  1.00  0.00     0.031 A 
ATOM     51  C   UNL A   1      38.588  33.219  37.759  1.00  0.00     0.131 A 
ATOM     52  C   UNL A   1      40.081  35.480  38.282  1.00  0.00     0.055 A 
ATOM     53  C   UNL A   1      38.366  33.931  38.939  1.00  0.00     0.041 A 
ATOM     54  F   UNL A   1      37.865  32.105  37.563  1.00  0.00    -0.206 F 
ATOM     55  C   UNL A   1      39.131  35.059  39.215  1.00  0.00     0.022 A 
BRANCH  52  56
ATOM     56  S   UNL A   1      41.215  36.835  38.692  1.00  0.00     0.124 S 
ATOM     57  O   UNL A   1      42.005  36.941  37.470  1.00  0.00    -0.237 OA
ATOM     58  O   UNL A   1      40.291  37.933  38.954  1.00  0.00    -0.237 OA
ATOM     59  O   UNL A   1      41.936  36.333  39.860  1.00  0.00    -0.744 OA
ENDBRANCH  52  56
ENDBRANCH  25  49
BRANCH  37  60
ATOM     60  C   UNL A   1      44.065  28.569  35.314  1.00  0.00     0.023 A 
ATOM     61  C   UNL A   1      43.832  27.474  36.165  1.00  0.00     0.031 A 
ATOM     62  C   UNL A   1      45.368  29.092  35.250  1.00  0.00     0.131 A 
ATOM     63  C   UNL A   1      44.874  26.973  36.960  1.00  0.00     0.055 A 
ATOM     64  C   UNL A   1      46.414  28.549  35.995  1.00  0.00     0.041 A 
ATOM     65  F   UNL A   1      45.644  30.141  34.458  1.00  0.00    -0.206 F 
ATOM     66  C   UNL A   1      46.168  27.492  36.866  1.00  0.00     0.022 A 
BRANCH  63  67
ATOM     67  S   UNL A   1      44.492  25.696  38.189  1.00  0.00     0.124 S 
ATOM     68  O   UNL A   1      45.630  24.794  38.053  1.00  0.00    -0.237 OA
ATOM     69  O   UNL A   1      44.429  26.463  39.429  1.00  0.00    -0.237 OA
ATOM     70  O   UNL A   1      43.212  25.155  37.733  1.00  0.00    -0.744 OA
ENDBRANCH  63  67
ENDBRANCH  37  60
ENDBRANCH  11  12
ENDBRANCH   4   6
ENDBRANCH   1   2
BRANCH   1  71
ATOM     71  C   UNL A   1      31.530  31.431  26.322  1.00  0.00     0.042 C 
BRANCH  71  72
ATOM     72  C   UNL A   1      31.740  29.987  25.887  1.00  0.00     0.117 C 
BRANCH  72  73
ATOM     73  N   UNL A   1      32.239  29.863  24.532  1.00  0.00    -0.356 N 
ATOM     74  C   UNL A   1      31.842  29.015  23.535  1.00  0.00     0.226 C 
ATOM     75  H   UNL A   1      32.969  30.479  24.295  1.00  0.00     0.163 HD
ATOM     76  O   UNL A   1      32.319  29.122  22.407  1.00  0.00    -0.274 OA
BRANCH  74  77
ATOM     77  C   UNL A   1      30.764  28.005  23.813  1.00  0.00     0.056 C 
ATOM     78  C   UNL A   1      31.070  26.555  23.439  1.00  0.00     0.018 C 
ATOM     79  C   UNL A   1      31.067  26.952  24.880  1.00  0.00     0.018 C 
BRANCH  77  80
ATOM     80  C   UNL A   1      29.312  28.472  23.739  1.00  0.00     0.084 C 
BRANCH  80  81
ATOM     81  C   UNL A   1      29.074  29.703  22.910  1.00  0.00     0.094 A 
ATOM     82  N   UNL A   1      28.984  29.709  21.596  1.00  0.00    -0.250 NA
ATOM     83  S   UNL A   1      28.868  31.236  23.666  1.00  0.00    -0.127 S 
ATOM     84  C   UNL A   1      28.823  31.003  21.143  1.00  0.00     0.123 A 
ATOM     85  C   UNL A   1      28.716  31.964  22.124  1.00  0.00     0.087 A 
ENDBRANCH  80  81
ENDBRANCH  77  80
ENDBRANCH  74  77
ENDBRANCH  72  73
ENDBRANCH  71  72
ENDBRANCH   1  71
TORSDOF 15
ENDMDL
