MODEL 1
REMARK VINA RESULT:     -13.5      0.000      0.000
REMARK SMILES O=C(NCCCNC(=O)[C@@H](CO)NC(=O)[C@H](Cc1c[nH]c2ccccc12)NC(=O)c1ccc(F)cc1)c1ccc(-c2c3nc(c(-c4cc(S(=O)(=O)[O-])ccc4F)c4ccc([nH]4)c(-c4cc(S(=O)(=O)[O-])ccc4F)c4nc(c(-c5cc(S(=O)(=O)[O-])ccc5F)c5ccc2[nH]5)C=C4)C=C3)cc1
REMARK SMILES IDX 5 1 4 2 3 3 1 4 2 5 37 7 38 8 99 9 39 10 98 11 40 12 41 13
REMARK SMILES IDX 42 14 92 15 43 16 97 17 91 18 93 19 44 20 96 21 90 22 89 23
REMARK SMILES IDX 45 25 77 26 57 27 76 28 58 29 61 30 75 31 94 32 59 33 60 34
REMARK SMILES IDX 74 36 95 37 62 38 46 39 47 40 55 41 48 42 54 43 56 44 53 45
REMARK SMILES IDX 49 46 50 47 51 48 52 49 78 50 79 51 87 52 80 53 86 54 88 55
REMARK SMILES IDX 85 56 81 57 82 58 83 59 84 60 63 61 64 62 72 63 65 64 71 65
REMARK SMILES IDX 73 66 70 67 66 68 67 69 68 70 69 71 6 72 7 73 8 74 9 76
REMARK SMILES IDX 10 77 13 78 14 79 15 81 16 82 27 83 28 84 29 86 30 87 31 88
REMARK SMILES IDX 36 89 32 90 35 91 33 92 34 93 17 94 18 95 19 96 26 97 20 98
REMARK SMILES IDX 21 99 25 100 22 102 24 103 23 104 11 105 12 106
REMARK H PARENT 3 6 93 24 61 35 7 75 13 80 27 85 20 101 12 107
REMARK Flexibility Score: inf
ROOT
ATOM      1  C   UNL A   1      38.256  19.959  24.799  1.00  0.00     0.042 C 
ENDROOT
BRANCH   1   2
ATOM      2  C   UNL A   1      39.190  20.373  25.894  1.00  0.00     0.118 C 
BRANCH   2   3
ATOM      3  N   UNL A   1      40.214  19.347  26.073  1.00  0.00    -0.352 N 
ATOM      4  O   UNL A   1      42.325  18.588  25.801  1.00  0.00    -0.269 OA
ATOM      5  C   UNL A   1      41.580  19.516  26.090  1.00  0.00     0.251 C 
ATOM      6  H   UNL A   1      39.888  18.426  26.196  1.00  0.00     0.163 HD
BRANCH   5   7
ATOM      7  C   UNL A   1      42.100  20.842  26.472  1.00  0.00     0.039 A 
ATOM      8  C   UNL A   1      42.151  21.819  25.483  1.00  0.00     0.014 A 
ATOM      9  C   UNL A   1      42.564  21.115  27.757  1.00  0.00     0.014 A 
ATOM     10  C   UNL A   1      42.921  22.937  25.675  1.00  0.00     0.010 A 
ATOM     11  C   UNL A   1      43.094  22.381  28.025  1.00  0.00     0.010 A 
ATOM     12  C   UNL A   1      43.280  23.295  26.977  1.00  0.00    -0.014 A 
BRANCH  12  13
ATOM     13  C   UNL A   1      43.683  24.705  27.169  1.00  0.00     0.031 A 
ATOM     14  C   UNL A   1      42.743  25.716  27.736  1.00  0.00     0.074 A 
ATOM     15  C   UNL A   1      44.972  25.013  26.901  1.00  0.00     0.049 A 
ATOM     16  N   UNL A   1      42.981  26.968  28.017  1.00  0.00    -0.248 NA
ATOM     17  C   UNL A   1      41.364  25.285  28.011  1.00  0.00     0.031 C 
ATOM     18  C   UNL A   1      45.964  24.075  26.352  1.00  0.00     0.029 A 
ATOM     19  N   UNL A   1      45.697  26.152  27.117  1.00  0.00    -0.354 N 
ATOM     20  C   UNL A   1      41.779  27.488  28.470  1.00  0.00     0.074 A 
ATOM     21  C   UNL A   1      40.805  26.420  28.406  1.00  0.00     0.031 C 
ATOM     22  C   UNL A   1      47.178  24.626  26.408  1.00  0.00     0.029 A 
ATOM     23  C   UNL A   1      47.035  26.008  26.832  1.00  0.00     0.049 A 
ATOM     24  H   UNL A   1      45.300  26.992  27.443  1.00  0.00     0.167 HD
ATOM     25  C   UNL A   1      41.529  28.748  28.896  1.00  0.00     0.034 A 
ATOM     26  C   UNL A   1      48.043  26.898  26.861  1.00  0.00     0.034 A 
ATOM     27  C   UNL A   1      42.533  29.782  28.946  1.00  0.00     0.049 A 
ATOM     28  C   UNL A   1      47.721  28.300  27.266  1.00  0.00     0.074 A 
ATOM     29  C   UNL A   1      42.395  31.087  29.378  1.00  0.00     0.029 A 
ATOM     30  N   UNL A   1      43.855  29.634  28.540  1.00  0.00    -0.354 N 
ATOM     31  N   UNL A   1      46.569  28.786  27.665  1.00  0.00    -0.248 NA
ATOM     32  C   UNL A   1      48.810  29.276  27.208  1.00  0.00     0.031 C 
ATOM     33  C   UNL A   1      43.601  31.751  29.148  1.00  0.00     0.029 A 
ATOM     34  C   UNL A   1      44.529  30.837  28.670  1.00  0.00     0.049 A 
ATOM     35  H   UNL A   1      44.255  28.796  28.210  1.00  0.00     0.167 HD
ATOM     36  C   UNL A   1      46.797  30.128  27.922  1.00  0.00     0.074 A 
ATOM     37  C   UNL A   1      48.197  30.374  27.633  1.00  0.00     0.031 C 
ATOM     38  C   UNL A   1      45.923  31.064  28.367  1.00  0.00     0.034 A 
BRANCH  25  39
ATOM     39  C   UNL A   1      40.114  29.092  29.279  1.00  0.00     0.023 A 
ATOM     40  C   UNL A   1      39.699  29.142  30.620  1.00  0.00     0.031 A 
ATOM     41  C   UNL A   1      39.167  29.389  28.283  1.00  0.00     0.131 A 
ATOM     42  C   UNL A   1      38.361  29.434  30.926  1.00  0.00     0.055 A 
ATOM     43  C   UNL A   1      37.858  29.749  28.596  1.00  0.00     0.041 A 
ATOM     44  F   UNL A   1      39.503  29.333  26.984  1.00  0.00    -0.206 F 
ATOM     45  C   UNL A   1      37.444  29.764  29.925  1.00  0.00     0.022 A 
BRANCH  42  46
ATOM     46  S   UNL A   1      37.814  29.276  32.647  1.00  0.00     0.124 S 
ATOM     47  O   UNL A   1      37.731  27.825  32.798  1.00  0.00    -0.237 OA
ATOM     48  O   UNL A   1      38.889  29.932  33.382  1.00  0.00    -0.237 OA
ATOM     49  O   UNL A   1      36.529  29.973  32.663  1.00  0.00    -0.744 OA
ENDBRANCH  42  46
ENDBRANCH  25  39
BRANCH  26  50
ATOM     50  C   UNL A   1      49.403  26.469  26.439  1.00  0.00     0.023 A 
ATOM     51  C   UNL A   1      49.948  26.893  25.221  1.00  0.00     0.031 A 
ATOM     52  C   UNL A   1      50.216  25.709  27.303  1.00  0.00     0.131 A 
ATOM     53  C   UNL A   1      51.273  26.559  24.900  1.00  0.00     0.055 A 
ATOM     54  C   UNL A   1      51.545  25.417  27.000  1.00  0.00     0.041 A 
ATOM     55  F   UNL A   1      49.746  25.301  28.493  1.00  0.00    -0.206 F 
ATOM     56  C   UNL A   1      52.080  25.841  25.789  1.00  0.00     0.022 A 
BRANCH  53  57
ATOM     57  S   UNL A   1      51.936  27.079  23.295  1.00  0.00     0.124 S 
ATOM     58  O   UNL A   1      52.354  28.446  23.578  1.00  0.00    -0.237 OA
ATOM     59  O   UNL A   1      53.006  26.110  23.080  1.00  0.00    -0.237 OA
ATOM     60  O   UNL A   1      50.791  26.948  22.396  1.00  0.00    -0.744 OA
ENDBRANCH  53  57
ENDBRANCH  26  50
BRANCH  38  61
ATOM     61  C   UNL A   1      46.459  32.447  28.616  1.00  0.00     0.023 A 
ATOM     62  C   UNL A   1      46.372  33.458  27.646  1.00  0.00     0.031 A 
ATOM     63  C   UNL A   1      46.978  32.773  29.881  1.00  0.00     0.131 A 
ATOM     64  C   UNL A   1      46.804  34.753  27.959  1.00  0.00     0.055 A 
ATOM     65  C   UNL A   1      47.358  34.074  30.202  1.00  0.00     0.041 A 
ATOM     66  F   UNL A   1      47.080  31.837  30.838  1.00  0.00    -0.206 F 
ATOM     67  C   UNL A   1      47.273  35.073  29.238  1.00  0.00     0.022 A 
BRANCH  64  68
ATOM     68  S   UNL A   1      46.758  36.023  26.665  1.00  0.00     0.124 S 
ATOM     69  O   UNL A   1      47.618  37.057  27.231  1.00  0.00    -0.237 OA
ATOM     70  O   UNL A   1      47.290  35.313  25.506  1.00  0.00    -0.237 OA
ATOM     71  O   UNL A   1      45.341  36.373  26.580  1.00  0.00    -0.744 OA
ENDBRANCH  64  68
ENDBRANCH  38  61
ENDBRANCH  12  13
ENDBRANCH   5   7
ENDBRANCH   2   3
ENDBRANCH   1   2
BRANCH   1  72
ATOM     72  C   UNL A   1      36.859  20.512  25.077  1.00  0.00     0.117 C 
BRANCH  72  73
ATOM     73  N   UNL A   1      35.803  19.508  24.817  1.00  0.00    -0.354 N 
ATOM     74  C   UNL A   1      34.427  19.391  24.818  1.00  0.00     0.244 C 
ATOM     75  H   UNL A   1      36.211  18.650  24.560  1.00  0.00     0.163 HD
ATOM     76  O   UNL A   1      34.043  18.332  24.290  1.00  0.00    -0.273 OA
BRANCH  74  77
ATOM     77  C   UNL A   1      33.196  20.453  25.629  1.00  0.00     0.197 C 
BRANCH  77  78
ATOM     78  N   UNL A   1      32.416  20.926  24.171  1.00  0.00    -0.340 N 
ATOM     79  C   UNL A   1      32.236  22.036  23.392  1.00  0.00     0.243 C 
ATOM     80  H   UNL A   1      31.953  20.154  23.771  1.00  0.00     0.164 HD
ATOM     81  O   UNL A   1      31.307  22.009  22.576  1.00  0.00    -0.273 OA
BRANCH  79  82
ATOM     82  C   UNL A   1      33.095  23.319  23.546  1.00  0.00     0.176 C 
BRANCH  82  83
ATOM     83  N   UNL A   1      34.320  23.221  24.372  1.00  0.00    -0.340 N 
ATOM     84  C   UNL A   1      34.818  24.172  25.226  1.00  0.00     0.251 C 
ATOM     85  H   UNL A   1      34.830  22.383  24.302  1.00  0.00     0.164 HD
ATOM     86  O   UNL A   1      36.000  24.196  25.547  1.00  0.00    -0.269 OA
BRANCH  84  87
ATOM     87  C   UNL A   1      33.892  25.211  25.707  1.00  0.00     0.040 A 
ATOM     88  C   UNL A   1      32.656  24.823  26.236  1.00  0.00     0.017 A 
ATOM     89  C   UNL A   1      34.206  26.559  25.516  1.00  0.00     0.017 A 
ATOM     90  C   UNL A   1      31.684  25.786  26.483  1.00  0.00     0.040 A 
ATOM     91  C   UNL A   1      33.234  27.522  25.789  1.00  0.00     0.040 A 
ATOM     92  C   UNL A   1      31.978  27.124  26.247  1.00  0.00     0.123 A 
ATOM     93  F   UNL A   1      31.031  28.049  26.450  1.00  0.00    -0.207 F 
ENDBRANCH  84  87
ENDBRANCH  82  83
BRANCH  82  94
ATOM     94  C   UNL A   1      33.464  23.917  22.218  1.00  0.00     0.072 C 
BRANCH  94  95
ATOM     95  C   UNL A   1      32.840  25.245  22.113  1.00  0.00    -0.020 A 
ATOM     96  C   UNL A   1      33.778  26.723  21.796  1.00  0.00     0.087 A 
ATOM     97  C   UNL A   1      31.058  25.818  22.746  1.00  0.00     0.003 A 
ATOM     98  N   UNL A   1      32.640  28.176  22.138  1.00  0.00    -0.361 N 
ATOM     99  C   UNL A   1      31.020  27.572  22.756  1.00  0.00     0.046 A 
ATOM    100  C   UNL A   1      29.891  25.219  23.243  1.00  0.00     0.010 A 
ATOM    101  H   UNL A   1      32.877  29.122  22.007  1.00  0.00     0.166 HD
ATOM    102  C   UNL A   1      30.011  28.265  23.412  1.00  0.00     0.026 A 
ATOM    103  C   UNL A   1      28.909  26.059  23.817  1.00  0.00     0.001 A 
ATOM    104  C   UNL A   1      28.983  27.474  23.930  1.00  0.00     0.002 A 
ENDBRANCH  94  95
ENDBRANCH  82  94
ENDBRANCH  79  82
ENDBRANCH  77  78
BRANCH  77 105
ATOM    105  C   UNL A   1      33.381  21.683  27.537  1.00  0.00     0.191 C 
BRANCH 105 106
ATOM    106  O   UNL A   1      32.204  22.261  28.453  1.00  0.00    -0.394 OA
ATOM    107  H   UNL A   1      31.384  22.305  27.937  1.00  0.00     0.210 HD
ENDBRANCH 105 106
ENDBRANCH  77 105
ENDBRANCH  74  77
ENDBRANCH  72  73
ENDBRANCH   1  72
TORSDOF 21
ENDMDL
MODEL 2
REMARK VINA RESULT:     -13.1      2.556      7.598
REMARK SMILES O=C(NCCCNC(=O)[C@@H](CO)NC(=O)[C@H](Cc1c[nH]c2ccccc12)NC(=O)c1ccc(F)cc1)c1ccc(-c2c3nc(c(-c4cc(S(=O)(=O)[O-])ccc4F)c4ccc([nH]4)c(-c4cc(S(=O)(=O)[O-])ccc4F)c4nc(c(-c5cc(S(=O)(=O)[O-])ccc5F)c5ccc2[nH]5)C=C4)C=C3)cc1
REMARK SMILES IDX 5 1 4 2 3 3 1 4 2 5 37 7 38 8 99 9 39 10 98 11 40 12 41 13
REMARK SMILES IDX 42 14 92 15 43 16 97 17 91 18 93 19 44 20 96 21 90 22 89 23
REMARK SMILES IDX 45 25 77 26 57 27 76 28 58 29 61 30 75 31 94 32 59 33 60 34
REMARK SMILES IDX 74 36 95 37 62 38 46 39 47 40 55 41 48 42 54 43 56 44 53 45
REMARK SMILES IDX 49 46 50 47 51 48 52 49 78 50 79 51 87 52 80 53 86 54 88 55
REMARK SMILES IDX 85 56 81 57 82 58 83 59 84 60 63 61 64 62 72 63 65 64 71 65
REMARK SMILES IDX 73 66 70 67 66 68 67 69 68 70 69 71 6 72 7 73 8 74 9 76
REMARK SMILES IDX 10 77 13 78 14 79 15 81 16 82 27 83 28 84 29 86 30 87 31 88
REMARK SMILES IDX 36 89 32 90 35 91 33 92 34 93 17 94 18 95 19 96 26 97 20 98
REMARK SMILES IDX 21 99 25 100 22 102 24 103 23 104 11 105 12 106
REMARK H PARENT 3 6 93 24 61 35 7 75 13 80 27 85 20 101 12 107
REMARK Flexibility Score: inf
ROOT
ATOM      1  C   UNL A   1      35.871  21.659  24.464  1.00  0.00     0.042 C 
ENDROOT
BRANCH   1   2
ATOM      2  C   UNL A   1      37.339  21.936  24.584  1.00  0.00     0.118 C 
BRANCH   2   3
ATOM      3  N   UNL A   1      37.965  20.890  25.389  1.00  0.00    -0.352 N 
ATOM      4  O   UNL A   1      39.793  19.911  26.288  1.00  0.00    -0.269 OA
ATOM      5  C   UNL A   1      39.180  20.941  26.036  1.00  0.00     0.251 C 
ATOM      6  H   UNL A   1      37.459  20.051  25.481  1.00  0.00     0.163 HD
BRANCH   5   7
ATOM      7  C   UNL A   1      39.701  22.268  26.410  1.00  0.00     0.039 A 
ATOM      8  C   UNL A   1      40.922  22.314  27.074  1.00  0.00     0.014 A 
ATOM      9  C   UNL A   1      38.994  23.441  26.154  1.00  0.00     0.014 A 
ATOM     10  C   UNL A   1      41.290  23.455  27.738  1.00  0.00     0.010 A 
ATOM     11  C   UNL A   1      39.530  24.657  26.591  1.00  0.00     0.010 A 
ATOM     12  C   UNL A   1      40.680  24.664  27.393  1.00  0.00    -0.014 A 
BRANCH  12  13
ATOM     13  C   UNL A   1      41.416  25.888  27.777  1.00  0.00     0.031 A 
ATOM     14  C   UNL A   1      42.797  26.157  27.282  1.00  0.00     0.074 A 
ATOM     15  C   UNL A   1      40.741  26.799  28.514  1.00  0.00     0.049 A 
ATOM     16  N   UNL A   1      43.533  27.216  27.486  1.00  0.00    -0.248 NA
ATOM     17  C   UNL A   1      43.446  25.115  26.473  1.00  0.00     0.031 C 
ATOM     18  C   UNL A   1      39.375  26.617  29.031  1.00  0.00     0.029 A 
ATOM     19  N   UNL A   1      41.057  28.073  28.894  1.00  0.00    -0.354 N 
ATOM     20  C   UNL A   1      44.745  26.959  26.862  1.00  0.00     0.074 A 
ATOM     21  C   UNL A   1      44.653  25.633  26.289  1.00  0.00     0.031 C 
ATOM     22  C   UNL A   1      38.928  27.772  29.528  1.00  0.00     0.029 A 
ATOM     23  C   UNL A   1      40.023  28.727  29.524  1.00  0.00     0.049 A 
ATOM     24  H   UNL A   1      41.937  28.483  28.734  1.00  0.00     0.167 HD
ATOM     25  C   UNL A   1      45.825  27.769  26.786  1.00  0.00     0.034 A 
ATOM     26  C   UNL A   1      39.963  29.947  30.085  1.00  0.00     0.034 A 
ATOM     27  C   UNL A   1      45.872  29.087  27.370  1.00  0.00     0.049 A 
ATOM     28  C   UNL A   1      41.196  30.791  30.048  1.00  0.00     0.074 A 
ATOM     29  C   UNL A   1      46.908  30.001  27.337  1.00  0.00     0.029 A 
ATOM     30  N   UNL A   1      44.845  29.674  28.102  1.00  0.00    -0.354 N 
ATOM     31  N   UNL A   1      42.347  30.522  29.478  1.00  0.00    -0.248 NA
ATOM     32  C   UNL A   1      41.142  32.080  30.738  1.00  0.00     0.031 C 
ATOM     33  C   UNL A   1      46.547  31.096  28.124  1.00  0.00     0.029 A 
ATOM     34  C   UNL A   1      45.243  30.918  28.564  1.00  0.00     0.049 A 
ATOM     35  H   UNL A   1      43.964  29.266  28.269  1.00  0.00     0.167 HD
ATOM     36  C   UNL A   1      43.155  31.619  29.728  1.00  0.00     0.074 A 
ATOM     37  C   UNL A   1      42.359  32.554  30.500  1.00  0.00     0.031 C 
ATOM     38  C   UNL A   1      44.437  31.831  29.341  1.00  0.00     0.034 A 
BRANCH  25  39
ATOM     39  C   UNL A   1      47.057  27.234  26.105  1.00  0.00     0.023 A 
ATOM     40  C   UNL A   1      48.044  26.523  26.807  1.00  0.00     0.031 A 
ATOM     41  C   UNL A   1      47.240  27.430  24.724  1.00  0.00     0.131 A 
ATOM     42  C   UNL A   1      49.191  26.074  26.135  1.00  0.00     0.055 A 
ATOM     43  C   UNL A   1      48.347  26.918  24.049  1.00  0.00     0.041 A 
ATOM     44  F   UNL A   1      46.339  28.124  24.008  1.00  0.00    -0.206 F 
ATOM     45  C   UNL A   1      49.336  26.243  24.756  1.00  0.00     0.022 A 
BRANCH  42  46
ATOM     46  S   UNL A   1      50.538  25.354  27.112  1.00  0.00     0.124 S 
ATOM     47  O   UNL A   1      51.490  24.978  26.069  1.00  0.00    -0.237 OA
ATOM     48  O   UNL A   1      50.938  26.466  27.967  1.00  0.00    -0.237 OA
ATOM     49  O   UNL A   1      49.902  24.233  27.800  1.00  0.00    -0.744 OA
ENDBRANCH  42  46
ENDBRANCH  25  39
BRANCH  26  50
ATOM     50  C   UNL A   1      38.708  30.377  30.757  1.00  0.00     0.023 A 
ATOM     51  C   UNL A   1      37.727  31.097  30.065  1.00  0.00     0.031 A 
ATOM     52  C   UNL A   1      38.431  29.978  32.081  1.00  0.00     0.131 A 
ATOM     53  C   UNL A   1      36.510  31.395  30.696  1.00  0.00     0.055 A 
ATOM     54  C   UNL A   1      37.203  30.238  32.688  1.00  0.00     0.041 A 
ATOM     55  F   UNL A   1      39.330  29.264  32.776  1.00  0.00    -0.206 F 
ATOM     56  C   UNL A   1      36.234  30.954  31.994  1.00  0.00     0.022 A 
BRANCH  53  57
ATOM     57  S   UNL A   1      35.279  32.371  29.792  1.00  0.00     0.124 S 
ATOM     58  O   UNL A   1      34.290  32.634  30.830  1.00  0.00    -0.237 OA
ATOM     59  O   UNL A   1      36.066  33.516  29.347  1.00  0.00    -0.237 OA
ATOM     60  O   UNL A   1      34.844  31.468  28.728  1.00  0.00    -0.744 OA
ENDBRANCH  53  57
ENDBRANCH  26  50
BRANCH  38  61
ATOM     61  C   UNL A   1      45.060  33.150  29.707  1.00  0.00     0.023 A 
ATOM     62  C   UNL A   1      45.830  33.305  30.870  1.00  0.00     0.031 A 
ATOM     63  C   UNL A   1      44.954  34.237  28.822  1.00  0.00     0.131 A 
ATOM     64  C   UNL A   1      46.464  34.529  31.120  1.00  0.00     0.055 A 
ATOM     65  C   UNL A   1      45.628  35.434  29.050  1.00  0.00     0.041 A 
ATOM     66  F   UNL A   1      44.227  34.133  27.697  1.00  0.00    -0.206 F 
ATOM     67  C   UNL A   1      46.388  35.585  30.206  1.00  0.00     0.022 A 
BRANCH  64  68
ATOM     68  S   UNL A   1      47.385  34.733  32.668  1.00  0.00     0.124 S 
ATOM     69  O   UNL A   1      46.699  35.868  33.277  1.00  0.00    -0.237 OA
ATOM     70  O   UNL A   1      47.191  33.444  33.324  1.00  0.00    -0.237 OA
ATOM     71  O   UNL A   1      48.751  35.001  32.221  1.00  0.00    -0.744 OA
ENDBRANCH  64  68
ENDBRANCH  38  61
ENDBRANCH  12  13
ENDBRANCH   5   7
ENDBRANCH   2   3
ENDBRANCH   1   2
BRANCH   1  72
ATOM     72  C   UNL A   1      35.323  21.190  25.811  1.00  0.00     0.117 C 
BRANCH  72  73
ATOM     73  N   UNL A   1      34.196  20.243  25.651  1.00  0.00    -0.354 N 
ATOM     74  C   UNL A   1      32.868  20.230  25.274  1.00  0.00     0.244 C 
ATOM     75  H   UNL A   1      34.485  19.333  25.889  1.00  0.00     0.163 HD
ATOM     76  O   UNL A   1      32.435  19.075  25.110  1.00  0.00    -0.273 OA
BRANCH  74  77
ATOM     77  C   UNL A   1      31.696  21.616  25.183  1.00  0.00     0.197 C 
BRANCH  77  78
ATOM     78  N   UNL A   1      32.139  22.088  23.589  1.00  0.00    -0.340 N 
ATOM     79  C   UNL A   1      32.602  23.181  22.911  1.00  0.00     0.243 C 
ATOM     80  H   UNL A   1      32.021  21.331  22.969  1.00  0.00     0.164 HD
ATOM     81  O   UNL A   1      32.470  23.182  21.681  1.00  0.00    -0.273 OA
BRANCH  79  82
ATOM     82  C   UNL A   1      33.208  24.419  23.626  1.00  0.00     0.176 C 
BRANCH  82  83
ATOM     83  N   UNL A   1      34.120  24.165  24.764  1.00  0.00    -0.340 N 
ATOM     84  C   UNL A   1      34.513  25.065  25.723  1.00  0.00     0.251 C 
ATOM     85  H   UNL A   1      34.483  23.254  24.841  1.00  0.00     0.164 HD
ATOM     86  O   UNL A   1      35.546  24.914  26.364  1.00  0.00    -0.269 OA
BRANCH  84  87
ATOM     87  C   UNL A   1      33.677  26.260  25.922  1.00  0.00     0.040 A 
ATOM     88  C   UNL A   1      32.345  26.095  26.321  1.00  0.00     0.017 A 
ATOM     89  C   UNL A   1      34.182  27.520  25.594  1.00  0.00     0.017 A 
ATOM     90  C   UNL A   1      31.483  27.185  26.295  1.00  0.00     0.040 A 
ATOM     91  C   UNL A   1      33.316  28.614  25.593  1.00  0.00     0.040 A 
ATOM     92  C   UNL A   1      31.973  28.431  25.921  1.00  0.00     0.123 A 
ATOM     93  F   UNL A   1      31.135  29.474  25.860  1.00  0.00    -0.207 F 
ENDBRANCH  84  87
ENDBRANCH  82  83
BRANCH  82  94
ATOM     94  C   UNL A   1      33.893  25.349  22.665  1.00  0.00     0.072 C 
BRANCH  94  95
ATOM     95  C   UNL A   1      32.984  26.467  22.368  1.00  0.00    -0.020 A 
ATOM     96  C   UNL A   1      33.569  28.098  21.966  1.00  0.00     0.087 A 
ATOM     97  C   UNL A   1      31.062  26.634  22.794  1.00  0.00     0.003 A 
ATOM     98  N   UNL A   1      32.088  29.248  22.058  1.00  0.00    -0.361 N 
ATOM     99  C   UNL A   1      30.606  28.317  22.610  1.00  0.00     0.046 A 
ATOM    100  C   UNL A   1      30.027  25.809  23.261  1.00  0.00     0.010 A 
ATOM    101  H   UNL A   1      32.105  30.208  21.843  1.00  0.00     0.166 HD
ATOM    102  C   UNL A   1      29.399  28.794  23.106  1.00  0.00     0.026 A 
ATOM    103  C   UNL A   1      28.819  26.427  23.662  1.00  0.00     0.001 A 
ATOM    104  C   UNL A   1      28.541  27.821  23.626  1.00  0.00     0.002 A 
ENDBRANCH  94  95
ENDBRANCH  82  94
ENDBRANCH  79  82
ENDBRANCH  77  78
BRANCH  77 105
ATOM    105  C   UNL A   1      30.935  22.975  26.844  1.00  0.00     0.191 C 
BRANCH 105 106
ATOM    106  O   UNL A   1      29.513  23.702  26.947  1.00  0.00    -0.394 OA
ATOM    107  H   UNL A   1      29.634  24.661  26.863  1.00  0.00     0.210 HD
ENDBRANCH 105 106
ENDBRANCH  77 105
ENDBRANCH  74  77
ENDBRANCH  72  73
ENDBRANCH   1  72
TORSDOF 21
ENDMDL
MODEL 3
REMARK VINA RESULT:     -13.0      1.885      2.519
REMARK SMILES O=C(NCCCNC(=O)[C@@H](CO)NC(=O)[C@H](Cc1c[nH]c2ccccc12)NC(=O)c1ccc(F)cc1)c1ccc(-c2c3nc(c(-c4cc(S(=O)(=O)[O-])ccc4F)c4ccc([nH]4)c(-c4cc(S(=O)(=O)[O-])ccc4F)c4nc(c(-c5cc(S(=O)(=O)[O-])ccc5F)c5ccc2[nH]5)C=C4)C=C3)cc1
REMARK SMILES IDX 5 1 4 2 3 3 1 4 2 5 37 7 38 8 99 9 39 10 98 11 40 12 41 13
REMARK SMILES IDX 42 14 92 15 43 16 97 17 91 18 93 19 44 20 96 21 90 22 89 23
REMARK SMILES IDX 45 25 77 26 57 27 76 28 58 29 61 30 75 31 94 32 59 33 60 34
REMARK SMILES IDX 74 36 95 37 62 38 46 39 47 40 55 41 48 42 54 43 56 44 53 45
REMARK SMILES IDX 49 46 50 47 51 48 52 49 78 50 79 51 87 52 80 53 86 54 88 55
REMARK SMILES IDX 85 56 81 57 82 58 83 59 84 60 63 61 64 62 72 63 65 64 71 65
REMARK SMILES IDX 73 66 70 67 66 68 67 69 68 70 69 71 6 72 7 73 8 74 9 76
REMARK SMILES IDX 10 77 13 78 14 79 15 81 16 82 27 83 28 84 29 86 30 87 31 88
REMARK SMILES IDX 36 89 32 90 35 91 33 92 34 93 17 94 18 95 19 96 26 97 20 98
REMARK SMILES IDX 21 99 25 100 22 102 24 103 23 104 11 105 12 106
REMARK H PARENT 3 6 93 24 61 35 7 75 13 80 27 85 20 101 12 107
REMARK Flexibility Score: inf
ROOT
ATOM      1  C   UNL A   1      36.161  21.447  24.680  1.00  0.00     0.042 C 
ENDROOT
BRANCH   1   2
ATOM      2  C   UNL A   1      37.414  22.122  25.149  1.00  0.00     0.118 C 
BRANCH   2   3
ATOM      3  N   UNL A   1      38.155  21.216  26.023  1.00  0.00    -0.352 N 
ATOM      4  O   UNL A   1      40.096  20.441  26.882  1.00  0.00    -0.269 OA
ATOM      5  C   UNL A   1      39.410  21.402  26.557  1.00  0.00     0.251 C 
ATOM      6  H   UNL A   1      37.703  20.373  26.257  1.00  0.00     0.163 HD
BRANCH   5   7
ATOM      7  C   UNL A   1      39.884  22.788  26.722  1.00  0.00     0.039 A 
ATOM      8  C   UNL A   1      41.093  22.977  27.383  1.00  0.00     0.014 A 
ATOM      9  C   UNL A   1      39.147  23.883  26.276  1.00  0.00     0.014 A 
ATOM     10  C   UNL A   1      41.416  24.221  27.861  1.00  0.00     0.010 A 
ATOM     11  C   UNL A   1      39.638  25.168  26.520  1.00  0.00     0.010 A 
ATOM     12  C   UNL A   1      40.775  25.339  27.324  1.00  0.00    -0.014 A 
BRANCH  12  13
ATOM     13  C   UNL A   1      41.467  26.632  27.517  1.00  0.00     0.031 A 
ATOM     14  C   UNL A   1      40.912  27.690  28.411  1.00  0.00     0.074 A 
ATOM     15  C   UNL A   1      42.675  26.771  26.926  1.00  0.00     0.049 A 
ATOM     16  N   UNL A   1      41.442  28.842  28.721  1.00  0.00    -0.248 NA
ATOM     17  C   UNL A   1      39.598  27.444  29.023  1.00  0.00     0.031 C 
ATOM     18  C   UNL A   1      43.298  25.774  26.041  1.00  0.00     0.029 A 
ATOM     19  N   UNL A   1      43.629  27.746  27.028  1.00  0.00    -0.354 N 
ATOM     20  C   UNL A   1      40.518  29.475  29.537  1.00  0.00     0.074 A 
ATOM     21  C   UNL A   1      39.381  28.588  29.657  1.00  0.00     0.031 C 
ATOM     22  C   UNL A   1      44.565  26.119  25.801  1.00  0.00     0.029 A 
ATOM     23  C   UNL A   1      44.796  27.437  26.367  1.00  0.00     0.049 A 
ATOM     24  H   UNL A   1      43.494  28.585  27.523  1.00  0.00     0.167 HD
ATOM     25  C   UNL A   1      40.626  30.690  30.124  1.00  0.00     0.034 A 
ATOM     26  C   UNL A   1      45.922  28.149  26.189  1.00  0.00     0.034 A 
ATOM     27  C   UNL A   1      41.781  31.540  29.980  1.00  0.00     0.049 A 
ATOM     28  C   UNL A   1      45.982  29.517  26.788  1.00  0.00     0.074 A 
ATOM     29  C   UNL A   1      42.004  32.782  30.545  1.00  0.00     0.029 A 
ATOM     30  N   UNL A   1      42.900  31.246  29.208  1.00  0.00    -0.354 N 
ATOM     31  N   UNL A   1      45.086  30.116  27.535  1.00  0.00    -0.248 NA
ATOM     32  C   UNL A   1      47.179  30.312  26.512  1.00  0.00     0.031 C 
ATOM     33  C   UNL A   1      43.209  33.277  30.044  1.00  0.00     0.029 A 
ATOM     34  C   UNL A   1      43.794  32.303  29.247  1.00  0.00     0.049 A 
ATOM     35  H   UNL A   1      43.037  30.409  28.707  1.00  0.00     0.167 HD
ATOM     36  C   UNL A   1      45.616  31.361  27.834  1.00  0.00     0.074 A 
ATOM     37  C   UNL A   1      46.913  31.425  27.186  1.00  0.00     0.031 C 
ATOM     38  C   UNL A   1      45.078  32.352  28.586  1.00  0.00     0.034 A 
BRANCH  25  39
ATOM     39  C   UNL A   1      39.449  31.193  30.917  1.00  0.00     0.023 A 
ATOM     40  C   UNL A   1      39.453  31.212  32.321  1.00  0.00     0.031 A 
ATOM     41  C   UNL A   1      38.306  31.674  30.254  1.00  0.00     0.131 A 
ATOM     42  C   UNL A   1      38.320  31.659  33.017  1.00  0.00     0.055 A 
ATOM     43  C   UNL A   1      37.211  32.184  30.949  1.00  0.00     0.041 A 
ATOM     44  F   UNL A   1      38.238  31.656  28.912  1.00  0.00    -0.206 F 
ATOM     45  C   UNL A   1      37.209  32.170  32.341  1.00  0.00     0.022 A 
BRANCH  42  46
ATOM     46  S   UNL A   1      38.280  31.466  34.819  1.00  0.00     0.124 S 
ATOM     47  O   UNL A   1      37.058  32.188  35.166  1.00  0.00    -0.237 OA
ATOM     48  O   UNL A   1      38.231  30.018  34.981  1.00  0.00    -0.237 OA
ATOM     49  O   UNL A   1      39.519  32.103  35.260  1.00  0.00    -0.744 OA
ENDBRANCH  42  46
ENDBRANCH  25  39
BRANCH  26  50
ATOM     50  C   UNL A   1      47.021  27.576  25.366  1.00  0.00     0.023 A 
ATOM     51  C   UNL A   1      47.144  27.889  24.007  1.00  0.00     0.031 A 
ATOM     52  C   UNL A   1      48.026  26.787  25.961  1.00  0.00     0.131 A 
ATOM     53  C   UNL A   1      48.251  27.419  23.284  1.00  0.00     0.055 A 
ATOM     54  C   UNL A   1      49.146  26.359  25.250  1.00  0.00     0.041 A 
ATOM     55  F   UNL A   1      47.965  26.483  27.268  1.00  0.00    -0.206 F 
ATOM     56  C   UNL A   1      49.261  26.673  23.900  1.00  0.00     0.022 A 
BRANCH  53  57
ATOM     57  S   UNL A   1      48.358  27.797  21.515  1.00  0.00     0.124 S 
ATOM     58  O   UNL A   1      48.664  26.489  20.951  1.00  0.00    -0.237 OA
ATOM     59  O   UNL A   1      47.025  28.323  21.236  1.00  0.00    -0.237 OA
ATOM     60  O   UNL A   1      49.438  28.779  21.442  1.00  0.00    -0.744 OA
ENDBRANCH  53  57
ENDBRANCH  26  50
BRANCH  38  61
ATOM     61  C   UNL A   1      45.906  33.590  28.793  1.00  0.00     0.023 A 
ATOM     62  C   UNL A   1      45.772  34.715  27.965  1.00  0.00     0.031 A 
ATOM     63  C   UNL A   1      46.773  33.668  29.898  1.00  0.00     0.131 A 
ATOM     64  C   UNL A   1      46.501  35.876  28.254  1.00  0.00     0.055 A 
ATOM     65  C   UNL A   1      47.455  34.841  30.209  1.00  0.00     0.041 A 
ATOM     66  F   UNL A   1      46.932  32.615  30.716  1.00  0.00    -0.206 F 
ATOM     67  C   UNL A   1      47.322  35.954  29.385  1.00  0.00     0.022 A 
BRANCH  64  68
ATOM     68  S   UNL A   1      46.374  37.288  27.125  1.00  0.00     0.124 S 
ATOM     69  O   UNL A   1      47.397  38.186  27.653  1.00  0.00    -0.237 OA
ATOM     70  O   UNL A   1      46.663  36.683  25.829  1.00  0.00    -0.237 OA
ATOM     71  O   UNL A   1      44.996  37.745  27.302  1.00  0.00    -0.744 OA
ENDBRANCH  64  68
ENDBRANCH  38  61
ENDBRANCH  12  13
ENDBRANCH   5   7
ENDBRANCH   2   3
ENDBRANCH   1   2
BRANCH   1  72
ATOM     72  C   UNL A   1      35.223  21.220  25.864  1.00  0.00     0.117 C 
BRANCH  72  73
ATOM     73  N   UNL A   1      34.137  20.269  25.537  1.00  0.00    -0.354 N 
ATOM     74  C   UNL A   1      32.886  20.248  24.953  1.00  0.00     0.244 C 
ATOM     75  H   UNL A   1      34.386  19.362  25.827  1.00  0.00     0.163 HD
ATOM     76  O   UNL A   1      32.486  19.090  24.734  1.00  0.00    -0.273 OA
BRANCH  74  77
ATOM     77  C   UNL A   1      31.742  21.630  24.663  1.00  0.00     0.197 C 
BRANCH  77  78
ATOM     78  N   UNL A   1      32.478  22.133  23.192  1.00  0.00    -0.340 N 
ATOM     79  C   UNL A   1      33.067  23.237  22.639  1.00  0.00     0.243 C 
ATOM     80  H   UNL A   1      32.473  21.392  22.542  1.00  0.00     0.164 HD
ATOM     81  O   UNL A   1      33.167  23.266  21.406  1.00  0.00    -0.273 OA
BRANCH  79  82
ATOM     82  C   UNL A   1      33.538  24.450  23.484  1.00  0.00     0.176 C 
BRANCH  82  83
ATOM     83  N   UNL A   1      34.416  24.171  24.642  1.00  0.00    -0.340 N 
ATOM     84  C   UNL A   1      34.711  25.020  25.679  1.00  0.00     0.251 C 
ATOM     85  H   UNL A   1      34.833  23.280  24.672  1.00  0.00     0.164 HD
ATOM     86  O   UNL A   1      35.724  24.887  26.354  1.00  0.00    -0.269 OA
BRANCH  84  87
ATOM     87  C   UNL A   1      33.792  26.144  25.923  1.00  0.00     0.040 A 
ATOM     88  C   UNL A   1      32.474  25.870  26.304  1.00  0.00     0.017 A 
ATOM     89  C   UNL A   1      34.210  27.450  25.653  1.00  0.00     0.017 A 
ATOM     90  C   UNL A   1      31.538  26.898  26.318  1.00  0.00     0.040 A 
ATOM     91  C   UNL A   1      33.270  28.480  25.693  1.00  0.00     0.040 A 
ATOM     92  C   UNL A   1      31.942  28.190  26.003  1.00  0.00     0.123 A 
ATOM     93  F   UNL A   1      31.033  29.174  25.980  1.00  0.00    -0.207 F 
ENDBRANCH  84  87
ENDBRANCH  82  83
BRANCH  82  94
ATOM     94  C   UNL A   1      34.185  25.512  22.641  1.00  0.00     0.072 C 
BRANCH  94  95
ATOM     95  C   UNL A   1      33.190  26.559  22.360  1.00  0.00    -0.020 A 
ATOM     96  C   UNL A   1      33.644  28.239  21.993  1.00  0.00     0.087 A 
ATOM     97  C   UNL A   1      31.259  26.562  22.779  1.00  0.00     0.003 A 
ATOM     98  N   UNL A   1      32.075  29.264  22.100  1.00  0.00    -0.361 N 
ATOM     99  C   UNL A   1      30.669  28.206  22.626  1.00  0.00     0.046 A 
ATOM    100  C   UNL A   1      30.292  25.648  23.224  1.00  0.00     0.010 A 
ATOM    101  H   UNL A   1      32.015  30.227  21.904  1.00  0.00     0.166 HD
ATOM    102  C   UNL A   1      29.427  28.574  23.125  1.00  0.00     0.026 A 
ATOM    103  C   UNL A   1      29.037  26.158  23.631  1.00  0.00     0.001 A 
ATOM    104  C   UNL A   1      28.648  27.525  23.620  1.00  0.00     0.002 A 
ENDBRANCH  94  95
ENDBRANCH  82  94
ENDBRANCH  79  82
ENDBRANCH  77  78
BRANCH  77 105
ATOM    105  C   UNL A   1      30.666  22.955  26.170  1.00  0.00     0.191 C 
BRANCH 105 106
ATOM    106  O   UNL A   1      30.211  22.584  27.659  1.00  0.00    -0.394 OA
ATOM    107  H   UNL A   1      29.378  22.087  27.627  1.00  0.00     0.210 HD
ENDBRANCH 105 106
ENDBRANCH  77 105
ENDBRANCH  74  77
ENDBRANCH  72  73
ENDBRANCH   1  72
TORSDOF 21
ENDMDL
