MODEL 1
REMARK VINA RESULT:      -9.3      0.000      0.000
REMARK SMILES CC[C@@H](Oc1ccc(/C=C2/SC(=S)N(N3CCOCC3)C2=O)cc1OC)C(=O)NCCCNC(=O)c1ccc(-c2c3nc(c(-c4cc(S(=O)(=O)[O-])ccc4F)c4ccc([nH]4)c(-c4cc(S(=O)(=O)[O-])ccc4F)c4nc(c(-c5cc(S(=O)(=O)[O-])ccc5F)c5ccc2[nH]5)C=C4)C=C3)cc1
REMARK SMILES IDX 30 1 29 2 27 3 28 4 3 6 2 7 1 8 4 9 5 10 6 11 24 12 7 13
REMARK SMILES IDX 23 14 8 15 25 16 26 17 9 18 10 19 11 20 21 21 12 22 14 23
REMARK SMILES IDX 22 24 13 25 15 26 16 27 20 28 17 29 19 30 18 31 31 32 32 33
REMARK SMILES IDX 33 34 34 35 35 37 36 38 37 39 98 40 38 41 97 42 39 43 40 44
REMARK SMILES IDX 41 45 91 46 42 47 96 48 90 49 92 50 43 51 95 52 89 53 88 54
REMARK SMILES IDX 44 56 76 57 56 58 75 59 57 60 60 61 74 62 93 63 58 64 59 65
REMARK SMILES IDX 73 67 94 68 61 69 45 70 46 71 54 72 47 73 53 74 55 75 52 76
REMARK SMILES IDX 48 77 49 78 50 79 51 80 77 81 78 82 86 83 79 84 85 85 87 86
REMARK SMILES IDX 84 87 80 88 81 89 82 90 83 91 62 92 63 93 71 94 64 95 70 96
REMARK SMILES IDX 72 97 69 98 65 99 66 100 67 101 68 102
REMARK H PARENT 29 5 33 36 92 55 60 66
REMARK Flexibility Score: inf
ROOT
ATOM      1  C   UNL A   1      42.697  20.475  25.768  1.00  0.00     0.118 C 
ENDROOT
BRANCH   1   2
ATOM      2  N   UNL A   1      42.618  21.857  25.308  1.00  0.00    -0.353 N 
ATOM      3  C   UNL A   1      43.539  22.869  25.292  1.00  0.00     0.261 C 
ATOM      4  O   UNL A   1      43.252  23.867  24.616  1.00  0.00    -0.271 OA
ATOM      5  H   UNL A   1      41.739  22.107  24.943  1.00  0.00     0.163 HD
BRANCH   3   6
ATOM      6  C   UNL A   1      44.825  22.867  26.153  1.00  0.00     0.261 C 
BRANCH   6   7
ATOM      7  C   UNL A   1      46.003  22.696  25.174  1.00  0.00     0.052 C 
ATOM      8  C   UNL A   1      46.244  21.269  24.693  1.00  0.00     0.008 C 
ENDBRANCH   6   7
BRANCH   6   9
ATOM      9  O   UNL A   1      44.920  24.086  26.872  1.00  0.00    -0.477 OA
BRANCH   9  10
ATOM     10  C   UNL A   1      44.899  24.035  28.229  1.00  0.00     0.162 A 
ATOM     11  C   UNL A   1      43.883  23.345  28.896  1.00  0.00     0.051 A 
ATOM     12  C   UNL A   1      45.787  24.837  28.946  1.00  0.00     0.161 A 
ATOM     13  C   UNL A   1      43.755  23.466  30.286  1.00  0.00     0.012 A 
ATOM     14  C   UNL A   1      45.706  24.890  30.329  1.00  0.00     0.058 A 
ATOM     15  C   UNL A   1      44.648  24.268  31.003  1.00  0.00    -0.020 A 
BRANCH  12  16
ATOM     16  O   UNL A   1      46.808  25.562  28.390  1.00  0.00    -0.493 OA
ATOM     17  C   UNL A   1      47.970  24.776  28.138  1.00  0.00     0.278 C 
ENDBRANCH  12  16
BRANCH  15  18
ATOM     18  C   UNL A   1      44.516  24.485  32.447  1.00  0.00     0.029 C 
ATOM     19  C   UNL A   1      44.223  25.677  32.993  1.00  0.00     0.082 C 
ATOM     20  S   UNL A   1      44.410  25.994  34.678  1.00  0.00    -0.053 SA
ATOM     21  C   UNL A   1      43.814  26.931  32.289  1.00  0.00     0.280 C 
ATOM     22  C   UNL A   1      44.349  27.746  34.447  1.00  0.00     0.163 C 
ATOM     23  N   UNL A   1      44.009  28.021  33.131  1.00  0.00    -0.220 N 
ATOM     24  O   UNL A   1      43.313  26.956  31.165  1.00  0.00    -0.267 OA
ATOM     25  S   UNL A   1      44.667  28.787  35.712  1.00  0.00    -0.050 S 
BRANCH  23  26
ATOM     26  N   UNL A   1      43.719  29.297  32.639  1.00  0.00    -0.208 NA
ATOM     27  C   UNL A   1      44.756  30.249  32.285  1.00  0.00     0.137 C 
ATOM     28  C   UNL A   1      42.370  29.821  32.752  1.00  0.00     0.137 C 
ATOM     29  C   UNL A   1      44.624  31.560  33.084  1.00  0.00     0.177 C 
ATOM     30  C   UNL A   1      42.364  31.084  33.615  1.00  0.00     0.177 C 
ATOM     31  O   UNL A   1      43.278  32.061  33.097  1.00  0.00    -0.379 OA
ENDBRANCH  23  26
ENDBRANCH  15  18
ENDBRANCH   9  10
ENDBRANCH   6   9
ENDBRANCH   3   6
ENDBRANCH   1   2
BRANCH   1  32
ATOM     32  C   UNL A   1      41.591  20.085  26.743  1.00  0.00     0.042 C 
BRANCH  32  33
ATOM     33  C   UNL A   1      40.800  21.268  27.295  1.00  0.00     0.118 C 
BRANCH  33  34
ATOM     34  N   UNL A   1      39.580  21.526  26.539  1.00  0.00    -0.352 N 
ATOM     35  C   UNL A   1      38.848  22.674  26.372  1.00  0.00     0.251 C 
ATOM     36  H   UNL A   1      39.219  20.740  26.067  1.00  0.00     0.163 HD
ATOM     37  O   UNL A   1      37.743  22.594  25.838  1.00  0.00    -0.269 OA
BRANCH  35  38
ATOM     38  C   UNL A   1      39.354  23.986  26.833  1.00  0.00     0.039 A 
ATOM     39  C   UNL A   1      40.016  24.809  25.916  1.00  0.00     0.014 A 
ATOM     40  C   UNL A   1      39.229  24.394  28.163  1.00  0.00     0.014 A 
ATOM     41  C   UNL A   1      40.494  26.060  26.316  1.00  0.00     0.010 A 
ATOM     42  C   UNL A   1      39.638  25.671  28.543  1.00  0.00     0.010 A 
ATOM     43  C   UNL A   1      40.277  26.517  27.625  1.00  0.00    -0.014 A 
BRANCH  43  44
ATOM     44  C   UNL A   1      40.714  27.873  28.052  1.00  0.00     0.031 A 
ATOM     45  C   UNL A   1      42.173  28.240  28.032  1.00  0.00     0.074 A 
ATOM     46  C   UNL A   1      39.802  28.750  28.517  1.00  0.00     0.049 A 
ATOM     47  N   UNL A   1      42.759  29.334  28.448  1.00  0.00    -0.248 NA
ATOM     48  C   UNL A   1      43.100  27.230  27.499  1.00  0.00     0.031 C 
ATOM     49  C   UNL A   1      38.362  28.498  28.615  1.00  0.00     0.029 A 
ATOM     50  N   UNL A   1      39.947  30.025  29.005  1.00  0.00    -0.354 N 
ATOM     51  C   UNL A   1      44.120  29.140  28.241  1.00  0.00     0.074 A 
ATOM     52  C   UNL A   1      44.275  27.799  27.718  1.00  0.00     0.031 C 
ATOM     53  C   UNL A   1      37.757  29.588  29.110  1.00  0.00     0.029 A 
ATOM     54  C   UNL A   1      38.766  30.600  29.413  1.00  0.00     0.049 A 
ATOM     55  H   UNL A   1      40.816  30.485  29.058  1.00  0.00     0.167 HD
ATOM     56  C   UNL A   1      45.144  30.007  28.449  1.00  0.00     0.034 A 
ATOM     57  C   UNL A   1      38.522  31.797  29.983  1.00  0.00     0.034 A 
ATOM     58  C   UNL A   1      44.969  31.345  28.962  1.00  0.00     0.049 A 
ATOM     59  C   UNL A   1      39.679  32.732  30.232  1.00  0.00     0.074 A 
ATOM     60  C   UNL A   1      45.927  32.323  29.164  1.00  0.00     0.029 A 
ATOM     61  N   UNL A   1      43.757  31.891  29.365  1.00  0.00    -0.354 N 
ATOM     62  N   UNL A   1      40.956  32.550  29.990  1.00  0.00    -0.248 NA
ATOM     63  C   UNL A   1      39.359  34.038  30.822  1.00  0.00     0.031 C 
ATOM     64  C   UNL A   1      45.308  33.431  29.751  1.00  0.00     0.029 A 
ATOM     65  C   UNL A   1      43.949  33.180  29.842  1.00  0.00     0.049 A 
ATOM     66  H   UNL A   1      42.887  31.432  29.318  1.00  0.00     0.167 HD
ATOM     67  C   UNL A   1      41.586  33.732  30.366  1.00  0.00     0.074 A 
ATOM     68  C   UNL A   1      40.547  34.623  30.838  1.00  0.00     0.031 C 
ATOM     69  C   UNL A   1      42.904  34.055  30.320  1.00  0.00     0.034 A 
BRANCH  56  70
ATOM     70  C   UNL A   1      46.542  29.521  28.146  1.00  0.00     0.023 A 
ATOM     71  C   UNL A   1      47.340  28.903  29.125  1.00  0.00     0.031 A 
ATOM     72  C   UNL A   1      47.096  29.698  26.865  1.00  0.00     0.131 A 
ATOM     73  C   UNL A   1      48.668  28.555  28.832  1.00  0.00     0.055 A 
ATOM     74  C   UNL A   1      48.389  29.272  26.555  1.00  0.00     0.041 A 
ATOM     75  F   UNL A   1      46.392  30.300  25.892  1.00  0.00    -0.206 F 
ATOM     76  C   UNL A   1      49.190  28.712  27.546  1.00  0.00     0.022 A 
BRANCH  73  77
ATOM     77  S   UNL A   1      49.747  28.035  30.194  1.00  0.00     0.124 S 
ATOM     78  O   UNL A   1      48.917  27.033  30.860  1.00  0.00    -0.237 OA
ATOM     79  O   UNL A   1      50.919  27.528  29.491  1.00  0.00    -0.237 OA
ATOM     80  O   UNL A   1      49.957  29.264  30.955  1.00  0.00    -0.744 OA
ENDBRANCH  73  77
ENDBRANCH  56  70
BRANCH  57  81
ATOM     81  C   UNL A   1      37.134  32.182  30.370  1.00  0.00     0.023 A 
ATOM     82  C   UNL A   1      36.277  32.814  29.456  1.00  0.00     0.031 A 
ATOM     83  C   UNL A   1      36.658  31.961  31.675  1.00  0.00     0.131 A 
ATOM     84  C   UNL A   1      35.009  33.250  29.871  1.00  0.00     0.055 A 
ATOM     85  C   UNL A   1      35.374  32.345  32.067  1.00  0.00     0.041 A 
ATOM     86  F   UNL A   1      37.435  31.356  32.589  1.00  0.00    -0.206 F 
ATOM     87  C   UNL A   1      34.547  33.006  31.166  1.00  0.00     0.022 A 
BRANCH  84  88
ATOM     88  S   UNL A   1      34.005  34.223  28.716  1.00  0.00     0.124 S 
ATOM     89  O   UNL A   1      33.317  33.178  27.967  1.00  0.00    -0.237 OA
ATOM     90  O   UNL A   1      33.179  35.013  29.623  1.00  0.00    -0.237 OA
ATOM     91  O   UNL A   1      34.998  34.983  27.961  1.00  0.00    -0.744 OA
ENDBRANCH  84  88
ENDBRANCH  57  81
BRANCH  69  92
ATOM     92  C   UNL A   1      43.283  35.454  30.747  1.00  0.00     0.023 A 
ATOM     93  C   UNL A   1      43.437  35.801  32.100  1.00  0.00     0.031 A 
ATOM     94  C   UNL A   1      43.485  36.455  29.780  1.00  0.00     0.131 A 
ATOM     95  C   UNL A   1      43.726  37.129  32.452  1.00  0.00     0.055 A 
ATOM     96  C   UNL A   1      43.834  37.759  30.133  1.00  0.00     0.041 A 
ATOM     97  F   UNL A   1      43.349  36.180  28.472  1.00  0.00    -0.206 F 
ATOM     98  C   UNL A   1      43.943  38.105  31.476  1.00  0.00     0.022 A 
BRANCH  95  99
ATOM     99  S   UNL A   1      43.723  37.585  34.207  1.00  0.00     0.124 S 
ATOM    100  O   UNL A   1      45.124  37.924  34.434  1.00  0.00    -0.237 OA
ATOM    101  O   UNL A   1      42.785  38.700  34.239  1.00  0.00    -0.237 OA
ATOM    102  O   UNL A   1      43.263  36.369  34.878  1.00  0.00    -0.744 OA
ENDBRANCH  95  99
ENDBRANCH  69  92
ENDBRANCH  43  44
ENDBRANCH  35  38
ENDBRANCH  33  34
ENDBRANCH  32  33
ENDBRANCH   1  32
TORSDOF 19
ENDMDL
MODEL 2
REMARK VINA RESULT:      -9.3      5.029     11.144
REMARK SMILES CC[C@@H](Oc1ccc(/C=C2/SC(=S)N(N3CCOCC3)C2=O)cc1OC)C(=O)NCCCNC(=O)c1ccc(-c2c3nc(c(-c4cc(S(=O)(=O)[O-])ccc4F)c4ccc([nH]4)c(-c4cc(S(=O)(=O)[O-])ccc4F)c4nc(c(-c5cc(S(=O)(=O)[O-])ccc5F)c5ccc2[nH]5)C=C4)C=C3)cc1
REMARK SMILES IDX 30 1 29 2 27 3 28 4 3 6 2 7 1 8 4 9 5 10 6 11 24 12 7 13
REMARK SMILES IDX 23 14 8 15 25 16 26 17 9 18 10 19 11 20 21 21 12 22 14 23
REMARK SMILES IDX 22 24 13 25 15 26 16 27 20 28 17 29 19 30 18 31 31 32 32 33
REMARK SMILES IDX 33 34 34 35 35 37 36 38 37 39 98 40 38 41 97 42 39 43 40 44
REMARK SMILES IDX 41 45 91 46 42 47 96 48 90 49 92 50 43 51 95 52 89 53 88 54
REMARK SMILES IDX 44 56 76 57 56 58 75 59 57 60 60 61 74 62 93 63 58 64 59 65
REMARK SMILES IDX 73 67 94 68 61 69 45 70 46 71 54 72 47 73 53 74 55 75 52 76
REMARK SMILES IDX 48 77 49 78 50 79 51 80 77 81 78 82 86 83 79 84 85 85 87 86
REMARK SMILES IDX 84 87 80 88 81 89 82 90 83 91 62 92 63 93 71 94 64 95 70 96
REMARK SMILES IDX 72 97 69 98 65 99 66 100 67 101 68 102
REMARK H PARENT 29 5 33 36 92 55 60 66
REMARK Flexibility Score: inf
ROOT
ATOM      1  C   UNL A   1      37.443  21.078  24.554  1.00  0.00     0.118 C 
ENDROOT
BRANCH   1   2
ATOM      2  N   UNL A   1      36.582  21.600  25.610  1.00  0.00    -0.353 N 
ATOM      3  C   UNL A   1      35.244  21.450  25.855  1.00  0.00     0.261 C 
ATOM      4  O   UNL A   1      34.841  21.817  26.967  1.00  0.00    -0.271 OA
ATOM      5  H   UNL A   1      37.050  22.165  26.266  1.00  0.00     0.163 HD
BRANCH   3   6
ATOM      6  C   UNL A   1      34.229  20.969  24.790  1.00  0.00     0.261 C 
BRANCH   6   7
ATOM      7  C   UNL A   1      34.290  19.429  24.796  1.00  0.00     0.052 C 
ATOM      8  C   UNL A   1      33.179  18.733  24.016  1.00  0.00     0.008 C 
ENDBRANCH   6   7
BRANCH   6   9
ATOM      9  O   UNL A   1      32.932  21.439  25.120  1.00  0.00    -0.477 OA
BRANCH   9  10
ATOM     10  C   UNL A   1      32.377  22.399  24.337  1.00  0.00     0.162 A 
ATOM     11  C   UNL A   1      32.984  22.769  23.133  1.00  0.00     0.051 A 
ATOM     12  C   UNL A   1      31.309  23.142  24.839  1.00  0.00     0.161 A 
ATOM     13  C   UNL A   1      32.520  23.892  22.435  1.00  0.00     0.012 A 
ATOM     14  C   UNL A   1      30.802  24.204  24.106  1.00  0.00     0.058 A 
ATOM     15  C   UNL A   1      31.447  24.634  22.940  1.00  0.00    -0.020 A 
BRANCH  12  16
ATOM     16  O   UNL A   1      30.652  22.874  26.011  1.00  0.00    -0.493 OA
ATOM     17  C   UNL A   1      30.094  24.040  26.611  1.00  0.00     0.278 C 
ENDBRANCH  12  16
BRANCH  15  18
ATOM     18  C   UNL A   1      30.970  25.857  22.287  1.00  0.00     0.029 C 
ATOM     19  C   UNL A   1      31.054  27.076  22.845  1.00  0.00     0.082 C 
ATOM     20  S   UNL A   1      30.190  28.436  22.232  1.00  0.00    -0.053 SA
ATOM     21  C   UNL A   1      31.771  27.461  24.100  1.00  0.00     0.280 C 
ATOM     22  C   UNL A   1      30.413  29.363  23.721  1.00  0.00     0.163 C 
ATOM     23  N   UNL A   1      31.285  28.682  24.556  1.00  0.00    -0.220 N 
ATOM     24  O   UNL A   1      32.699  26.815  24.586  1.00  0.00    -0.267 OA
ATOM     25  S   UNL A   1      29.635  30.823  23.944  1.00  0.00    -0.050 S 
BRANCH  23  26
ATOM     26  N   UNL A   1      31.807  29.198  25.746  1.00  0.00    -0.208 NA
ATOM     27  C   UNL A   1      32.825  30.233  25.766  1.00  0.00     0.137 C 
ATOM     28  C   UNL A   1      31.566  28.502  26.997  1.00  0.00     0.137 C 
ATOM     29  C   UNL A   1      34.089  29.775  26.518  1.00  0.00     0.177 C 
ATOM     30  C   UNL A   1      32.891  28.048  27.612  1.00  0.00     0.177 C 
ATOM     31  O   UNL A   1      33.784  29.158  27.778  1.00  0.00    -0.379 OA
ENDBRANCH  23  26
ENDBRANCH  15  18
ENDBRANCH   9  10
ENDBRANCH   6   9
ENDBRANCH   3   6
ENDBRANCH   1   2
BRANCH   1  32
ATOM     32  C   UNL A   1      38.263  19.862  24.974  1.00  0.00     0.042 C 
BRANCH  32  33
ATOM     33  C   UNL A   1      39.228  20.127  26.126  1.00  0.00     0.118 C 
BRANCH  33  34
ATOM     34  N   UNL A   1      40.434  19.310  26.044  1.00  0.00    -0.352 N 
ATOM     35  C   UNL A   1      41.761  19.659  26.045  1.00  0.00     0.251 C 
ATOM     36  H   UNL A   1      40.267  18.342  25.975  1.00  0.00     0.163 HD
ATOM     37  O   UNL A   1      42.595  18.797  25.772  1.00  0.00    -0.269 OA
BRANCH  35  38
ATOM     38  C   UNL A   1      42.197  21.040  26.350  1.00  0.00     0.039 A 
ATOM     39  C   UNL A   1      42.510  21.367  27.674  1.00  0.00     0.014 A 
ATOM     40  C   UNL A   1      42.253  22.026  25.362  1.00  0.00     0.014 A 
ATOM     41  C   UNL A   1      42.937  22.660  27.993  1.00  0.00     0.010 A 
ATOM     42  C   UNL A   1      42.751  23.292  25.667  1.00  0.00     0.010 A 
ATOM     43  C   UNL A   1      43.095  23.623  26.985  1.00  0.00    -0.014 A 
BRANCH  43  44
ATOM     44  C   UNL A   1      43.617  24.982  27.292  1.00  0.00     0.031 A 
ATOM     45  C   UNL A   1      42.706  26.031  27.871  1.00  0.00     0.074 A 
ATOM     46  C   UNL A   1      44.893  25.289  26.988  1.00  0.00     0.049 A 
ATOM     47  N   UNL A   1      42.947  27.292  28.121  1.00  0.00    -0.248 NA
ATOM     48  C   UNL A   1      41.331  25.610  28.182  1.00  0.00     0.031 C 
ATOM     49  C   UNL A   1      45.865  24.366  26.394  1.00  0.00     0.029 A 
ATOM     50  N   UNL A   1      45.595  26.461  27.126  1.00  0.00    -0.354 N 
ATOM     51  C   UNL A   1      41.755  27.819  28.606  1.00  0.00     0.074 A 
ATOM     52  C   UNL A   1      40.777  26.752  28.556  1.00  0.00     0.031 C 
ATOM     53  C   UNL A   1      47.037  25.001  26.239  1.00  0.00     0.029 A 
ATOM     54  C   UNL A   1      46.892  26.387  26.674  1.00  0.00     0.049 A 
ATOM     55  H   UNL A   1      45.205  27.278  27.514  1.00  0.00     0.167 HD
ATOM     56  C   UNL A   1      41.504  29.070  29.068  1.00  0.00     0.034 A 
ATOM     57  C   UNL A   1      47.851  27.332  26.599  1.00  0.00     0.034 A 
ATOM     58  C   UNL A   1      42.496  30.119  29.120  1.00  0.00     0.049 A 
ATOM     59  C   UNL A   1      47.541  28.723  27.091  1.00  0.00     0.074 A 
ATOM     60  C   UNL A   1      42.365  31.405  29.615  1.00  0.00     0.029 A 
ATOM     61  N   UNL A   1      43.799  30.007  28.651  1.00  0.00    -0.354 N 
ATOM     62  N   UNL A   1      46.420  29.194  27.587  1.00  0.00    -0.248 NA
ATOM     63  C   UNL A   1      48.628  29.707  27.022  1.00  0.00     0.031 C 
ATOM     64  C   UNL A   1      43.563  32.089  29.382  1.00  0.00     0.029 A 
ATOM     65  C   UNL A   1      44.470  31.209  28.817  1.00  0.00     0.049 A 
ATOM     66  H   UNL A   1      44.189  29.193  28.259  1.00  0.00     0.167 HD
ATOM     67  C   UNL A   1      46.681  30.520  27.921  1.00  0.00     0.074 A 
ATOM     68  C   UNL A   1      48.066  30.768  27.582  1.00  0.00     0.031 C 
ATOM     69  C   UNL A   1      45.851  31.446  28.465  1.00  0.00     0.034 A 
BRANCH  56  70
ATOM     70  C   UNL A   1      40.098  29.376  29.528  1.00  0.00     0.023 A 
ATOM     71  C   UNL A   1      39.767  29.463  30.892  1.00  0.00     0.031 A 
ATOM     72  C   UNL A   1      39.066  29.560  28.591  1.00  0.00     0.131 A 
ATOM     73  C   UNL A   1      38.432  29.649  31.281  1.00  0.00     0.055 A 
ATOM     74  C   UNL A   1      37.752  29.830  28.983  1.00  0.00     0.041 A 
ATOM     75  F   UNL A   1      39.312  29.469  27.274  1.00  0.00    -0.206 F 
ATOM     76  C   UNL A   1      37.426  29.860  30.335  1.00  0.00     0.022 A 
BRANCH  73  77
ATOM     77  S   UNL A   1      38.006  29.463  33.034  1.00  0.00     0.124 S 
ATOM     78  O   UNL A   1      37.133  30.615  33.248  1.00  0.00    -0.237 OA
ATOM     79  O   UNL A   1      37.360  28.157  33.065  1.00  0.00    -0.237 OA
ATOM     80  O   UNL A   1      39.299  29.537  33.711  1.00  0.00    -0.744 OA
ENDBRANCH  73  77
ENDBRANCH  56  70
BRANCH  57  81
ATOM     81  C   UNL A   1      49.190  27.006  26.028  1.00  0.00     0.023 A 
ATOM     82  C   UNL A   1      49.539  27.404  24.728  1.00  0.00     0.031 A 
ATOM     83  C   UNL A   1      50.127  26.254  26.761  1.00  0.00     0.131 A 
ATOM     84  C   UNL A   1      50.768  27.005  24.181  1.00  0.00     0.055 A 
ATOM     85  C   UNL A   1      51.372  25.909  26.232  1.00  0.00     0.041 A 
ATOM     86  F   UNL A   1      49.847  25.851  28.012  1.00  0.00    -0.206 F 
ATOM     87  C   UNL A   1      51.693  26.274  24.929  1.00  0.00     0.022 A 
BRANCH  84  88
ATOM     88  S   UNL A   1      51.104  27.382  22.438  1.00  0.00     0.124 S 
ATOM     89  O   UNL A   1      49.985  26.726  21.772  1.00  0.00    -0.237 OA
ATOM     90  O   UNL A   1      51.087  28.841  22.435  1.00  0.00    -0.237 OA
ATOM     91  O   UNL A   1      52.412  26.775  22.206  1.00  0.00    -0.744 OA
ENDBRANCH  84  88
ENDBRANCH  57  81
BRANCH  69  92
ATOM     92  C   UNL A   1      46.444  32.801  28.773  1.00  0.00     0.023 A 
ATOM     93  C   UNL A   1      46.265  33.902  27.916  1.00  0.00     0.031 A 
ATOM     94  C   UNL A   1      47.207  32.988  29.939  1.00  0.00     0.131 A 
ATOM     95  C   UNL A   1      46.890  35.124  28.210  1.00  0.00     0.055 A 
ATOM     96  C   UNL A   1      47.774  34.223  30.258  1.00  0.00     0.041 A 
ATOM     97  F   UNL A   1      47.412  31.971  30.791  1.00  0.00    -0.206 F 
ATOM     98  C   UNL A   1      47.627  35.296  29.384  1.00  0.00     0.022 A 
BRANCH  95  99
ATOM     99  S   UNL A   1      46.803  36.462  26.990  1.00  0.00     0.124 S 
ATOM    100  O   UNL A   1      45.627  37.203  27.435  1.00  0.00    -0.237 OA
ATOM    101  O   UNL A   1      48.085  37.133  27.168  1.00  0.00    -0.237 OA
ATOM    102  O   UNL A   1      46.645  35.758  25.717  1.00  0.00    -0.744 OA
ENDBRANCH  95  99
ENDBRANCH  69  92
ENDBRANCH  43  44
ENDBRANCH  35  38
ENDBRANCH  33  34
ENDBRANCH  32  33
ENDBRANCH   1  32
TORSDOF 19
ENDMDL
MODEL 3
REMARK VINA RESULT:      -9.1      5.005      8.691
REMARK SMILES CC[C@@H](Oc1ccc(/C=C2/SC(=S)N(N3CCOCC3)C2=O)cc1OC)C(=O)NCCCNC(=O)c1ccc(-c2c3nc(c(-c4cc(S(=O)(=O)[O-])ccc4F)c4ccc([nH]4)c(-c4cc(S(=O)(=O)[O-])ccc4F)c4nc(c(-c5cc(S(=O)(=O)[O-])ccc5F)c5ccc2[nH]5)C=C4)C=C3)cc1
REMARK SMILES IDX 30 1 29 2 27 3 28 4 3 6 2 7 1 8 4 9 5 10 6 11 24 12 7 13
REMARK SMILES IDX 23 14 8 15 25 16 26 17 9 18 10 19 11 20 21 21 12 22 14 23
REMARK SMILES IDX 22 24 13 25 15 26 16 27 20 28 17 29 19 30 18 31 31 32 32 33
REMARK SMILES IDX 33 34 34 35 35 37 36 38 37 39 98 40 38 41 97 42 39 43 40 44
REMARK SMILES IDX 41 45 91 46 42 47 96 48 90 49 92 50 43 51 95 52 89 53 88 54
REMARK SMILES IDX 44 56 76 57 56 58 75 59 57 60 60 61 74 62 93 63 58 64 59 65
REMARK SMILES IDX 73 67 94 68 61 69 45 70 46 71 54 72 47 73 53 74 55 75 52 76
REMARK SMILES IDX 48 77 49 78 50 79 51 80 77 81 78 82 86 83 79 84 85 85 87 86
REMARK SMILES IDX 84 87 80 88 81 89 82 90 83 91 62 92 63 93 71 94 64 95 70 96
REMARK SMILES IDX 72 97 69 98 65 99 66 100 67 101 68 102
REMARK H PARENT 29 5 33 36 92 55 60 66
REMARK Flexibility Score: inf
ROOT
ATOM      1  C   UNL A   1      35.987  20.277  24.821  1.00  0.00     0.118 C 
ENDROOT
BRANCH   1   2
ATOM      2  N   UNL A   1      34.807  19.716  25.470  1.00  0.00    -0.353 N 
ATOM      3  C   UNL A   1      33.648  19.193  24.965  1.00  0.00     0.261 C 
ATOM      4  O   UNL A   1      32.929  18.571  25.758  1.00  0.00    -0.271 OA
ATOM      5  H   UNL A   1      34.854  19.714  26.453  1.00  0.00     0.163 HD
BRANCH   3   6
ATOM      6  C   UNL A   1      33.157  19.444  23.518  1.00  0.00     0.261 C 
BRANCH   6   7
ATOM      7  C   UNL A   1      32.684  18.080  22.977  1.00  0.00     0.052 C 
ATOM      8  C   UNL A   1      33.746  16.987  22.958  1.00  0.00     0.008 C 
ENDBRANCH   6   7
BRANCH   6   9
ATOM      9  O   UNL A   1      32.103  20.393  23.529  1.00  0.00    -0.477 OA
BRANCH   9  10
ATOM     10  C   UNL A   1      32.187  21.436  24.394  1.00  0.00     0.162 A 
ATOM     11  C   UNL A   1      31.305  21.533  25.474  1.00  0.00     0.051 A 
ATOM     12  C   UNL A   1      33.031  22.502  24.083  1.00  0.00     0.161 A 
ATOM     13  C   UNL A   1      31.266  22.706  26.240  1.00  0.00     0.012 A 
ATOM     14  C   UNL A   1      33.045  23.629  24.890  1.00  0.00     0.058 A 
ATOM     15  C   UNL A   1      32.115  23.772  25.927  1.00  0.00    -0.020 A 
BRANCH  12  16
ATOM     16  O   UNL A   1      33.922  22.516  23.042  1.00  0.00    -0.493 OA
ATOM     17  C   UNL A   1      34.988  23.440  23.241  1.00  0.00     0.278 C 
ENDBRANCH  12  16
BRANCH  15  18
ATOM     18  C   UNL A   1      32.064  25.047  26.650  1.00  0.00     0.029 C 
ATOM     19  C   UNL A   1      31.515  26.164  26.145  1.00  0.00     0.082 C 
ATOM     20  S   UNL A   1      31.767  27.718  26.847  1.00  0.00    -0.053 SA
ATOM     21  C   UNL A   1      30.722  26.305  24.885  1.00  0.00     0.280 C 
ATOM     22  C   UNL A   1      31.219  28.564  25.395  1.00  0.00     0.163 C 
ATOM     23  N   UNL A   1      30.696  27.642  24.500  1.00  0.00    -0.220 N 
ATOM     24  O   UNL A   1      30.130  25.375  24.338  1.00  0.00    -0.267 OA
ATOM     25  S   UNL A   1      31.363  30.221  25.264  1.00  0.00    -0.050 S 
BRANCH  23  26
ATOM     26  N   UNL A   1      30.031  27.977  23.317  1.00  0.00    -0.208 NA
ATOM     27  C   UNL A   1      30.728  28.484  22.149  1.00  0.00     0.137 C 
ATOM     28  C   UNL A   1      28.586  28.116  23.321  1.00  0.00     0.137 C 
ATOM     29  C   UNL A   1      30.198  29.867  21.725  1.00  0.00     0.177 C 
ATOM     30  C   UNL A   1      28.191  29.544  22.942  1.00  0.00     0.177 C 
ATOM     31  O   UNL A   1      28.764  29.915  21.680  1.00  0.00    -0.379 OA
ENDBRANCH  23  26
ENDBRANCH  15  18
ENDBRANCH   9  10
ENDBRANCH   6   9
ENDBRANCH   3   6
ENDBRANCH   1   2
BRANCH   1  32
ATOM     32  C   UNL A   1      37.242  19.425  24.981  1.00  0.00     0.042 C 
BRANCH  32  33
ATOM     33  C   UNL A   1      38.510  20.227  25.258  1.00  0.00     0.118 C 
BRANCH  33  34
ATOM     34  N   UNL A   1      39.575  19.409  25.827  1.00  0.00    -0.352 N 
ATOM     35  C   UNL A   1      40.786  19.756  26.371  1.00  0.00     0.251 C 
ATOM     36  H   UNL A   1      39.395  18.441  25.819  1.00  0.00     0.163 HD
ATOM     37  O   UNL A   1      41.599  18.865  26.612  1.00  0.00    -0.269 OA
BRANCH  35  38
ATOM     38  C   UNL A   1      41.131  21.167  26.653  1.00  0.00     0.039 A 
ATOM     39  C   UNL A   1      41.799  21.469  27.844  1.00  0.00     0.014 A 
ATOM     40  C   UNL A   1      40.761  22.199  25.787  1.00  0.00     0.014 A 
ATOM     41  C   UNL A   1      42.149  22.791  28.135  1.00  0.00     0.010 A 
ATOM     42  C   UNL A   1      41.178  23.505  26.040  1.00  0.00     0.010 A 
ATOM     43  C   UNL A   1      41.873  23.816  27.217  1.00  0.00    -0.014 A 
BRANCH  43  44
ATOM     44  C   UNL A   1      42.302  25.217  27.473  1.00  0.00     0.031 A 
ATOM     45  C   UNL A   1      43.673  25.678  27.057  1.00  0.00     0.074 A 
ATOM     46  C   UNL A   1      41.480  26.053  28.137  1.00  0.00     0.049 A 
ATOM     47  N   UNL A   1      44.262  26.826  27.271  1.00  0.00    -0.248 NA
ATOM     48  C   UNL A   1      44.501  24.705  26.328  1.00  0.00     0.031 C 
ATOM     49  C   UNL A   1      40.140  25.713  28.620  1.00  0.00     0.029 A 
ATOM     50  N   UNL A   1      41.651  27.357  28.532  1.00  0.00    -0.354 N 
ATOM     51  C   UNL A   1      45.532  26.712  26.716  1.00  0.00     0.074 A 
ATOM     52  C   UNL A   1      45.646  25.360  26.211  1.00  0.00     0.031 C 
ATOM     53  C   UNL A   1      39.604  26.784  29.225  1.00  0.00     0.029 A 
ATOM     54  C   UNL A   1      40.577  27.873  29.221  1.00  0.00     0.049 A 
ATOM     55  H   UNL A   1      42.465  27.875  28.339  1.00  0.00     0.167 HD
ATOM     56  C   UNL A   1      46.506  27.653  26.621  1.00  0.00     0.034 A 
ATOM     57  C   UNL A   1      40.401  29.078  29.799  1.00  0.00     0.034 A 
ATOM     58  C   UNL A   1      46.370  29.000  27.122  1.00  0.00     0.049 A 
ATOM     59  C   UNL A   1      41.508  30.097  29.706  1.00  0.00     0.074 A 
ATOM     60  C   UNL A   1      47.271  30.047  27.034  1.00  0.00     0.029 A 
ATOM     61  N   UNL A   1      45.268  29.485  27.815  1.00  0.00    -0.354 N 
ATOM     62  N   UNL A   1      42.688  29.988  29.139  1.00  0.00    -0.248 NA
ATOM     63  C   UNL A   1      41.256  31.406  30.320  1.00  0.00     0.031 C 
ATOM     64  C   UNL A   1      46.745  31.140  27.731  1.00  0.00     0.029 A 
ATOM     65  C   UNL A   1      45.481  30.805  28.186  1.00  0.00     0.049 A 
ATOM     66  H   UNL A   1      44.454  28.968  28.014  1.00  0.00     0.167 HD
ATOM     67  C   UNL A   1      43.302  31.226  29.301  1.00  0.00     0.074 A 
ATOM     68  C   UNL A   1      42.359  32.068  30.005  1.00  0.00     0.031 C 
ATOM     69  C   UNL A   1      44.534  31.631  28.897  1.00  0.00     0.034 A 
BRANCH  56  70
ATOM     70  C   UNL A   1      47.808  27.245  25.972  1.00  0.00     0.023 A 
ATOM     71  C   UNL A   1      48.847  26.647  26.708  1.00  0.00     0.031 A 
ATOM     72  C   UNL A   1      48.026  27.478  24.603  1.00  0.00     0.131 A 
ATOM     73  C   UNL A   1      50.078  26.374  26.092  1.00  0.00     0.055 A 
ATOM     74  C   UNL A   1      49.224  27.126  23.976  1.00  0.00     0.041 A 
ATOM     75  F   UNL A   1      47.082  28.065  23.850  1.00  0.00    -0.206 F 
ATOM     76  C   UNL A   1      50.264  26.585  24.724  1.00  0.00     0.022 A 
BRANCH  73  77
ATOM     77  S   UNL A   1      51.477  25.879  27.135  1.00  0.00     0.124 S 
ATOM     78  O   UNL A   1      50.802  25.516  28.379  1.00  0.00    -0.237 OA
ATOM     79  O   UNL A   1      52.060  24.778  26.378  1.00  0.00    -0.237 OA
ATOM     80  O   UNL A   1      52.295  27.088  27.209  1.00  0.00    -0.744 OA
ENDBRANCH  73  77
ENDBRANCH  56  70
BRANCH  57  81
ATOM     81  C   UNL A   1      39.138  29.389  30.528  1.00  0.00     0.023 A 
ATOM     82  C   UNL A   1      38.158  30.217  29.958  1.00  0.00     0.031 A 
ATOM     83  C   UNL A   1      38.910  28.896  31.826  1.00  0.00     0.131 A 
ATOM     84  C   UNL A   1      37.021  30.570  30.701  1.00  0.00     0.055 A 
ATOM     85  C   UNL A   1      37.750  29.204  32.539  1.00  0.00     0.041 A 
ATOM     86  F   UNL A   1      39.812  28.096  32.418  1.00  0.00    -0.206 F 
ATOM     87  C   UNL A   1      36.803  30.058  31.981  1.00  0.00     0.022 A 
BRANCH  84  88
ATOM     88  S   UNL A   1      35.871  31.786  30.001  1.00  0.00     0.124 S 
ATOM     89  O   UNL A   1      35.009  32.069  31.142  1.00  0.00    -0.237 OA
ATOM     90  O   UNL A   1      36.774  32.859  29.597  1.00  0.00    -0.237 OA
ATOM     91  O   UNL A   1      35.238  31.060  28.903  1.00  0.00    -0.744 OA
ENDBRANCH  84  88
ENDBRANCH  57  81
BRANCH  69  92
ATOM     92  C   UNL A   1      44.904  33.071  29.168  1.00  0.00     0.023 A 
ATOM     93  C   UNL A   1      44.866  34.049  28.159  1.00  0.00     0.031 A 
ATOM     94  C   UNL A   1      45.310  33.464  30.455  1.00  0.00     0.131 A 
ATOM     95  C   UNL A   1      45.281  35.360  28.442  1.00  0.00     0.055 A 
ATOM     96  C   UNL A   1      45.662  34.783  30.746  1.00  0.00     0.041 A 
ATOM     97  F   UNL A   1      45.367  32.570  31.456  1.00  0.00    -0.206 F 
ATOM     98  C   UNL A   1      45.661  35.737  29.732  1.00  0.00     0.022 A 
BRANCH  95  99
ATOM     99  S   UNL A   1      45.407  36.547  27.077  1.00  0.00     0.124 S 
ATOM    100  O   UNL A   1      45.858  35.700  25.978  1.00  0.00    -0.237 OA
ATOM    101  O   UNL A   1      44.042  37.052  26.974  1.00  0.00    -0.237 OA
ATOM    102  O   UNL A   1      46.391  37.518  27.555  1.00  0.00    -0.744 OA
ENDBRANCH  95  99
ENDBRANCH  69  92
ENDBRANCH  43  44
ENDBRANCH  35  38
ENDBRANCH  33  34
ENDBRANCH  32  33
ENDBRANCH   1  32
TORSDOF 19
ENDMDL
