MODEL 1
REMARK VINA RESULT:     -12.1      0.000      0.000
REMARK SMILES O=C(C[C@@H](C[NH+]1CCCCC1)C(=O)NCCCNC(=O)c1ccc(-c2c3nc(c(-c4cc(S(=O)(=O)[O-])ccc4F)c4ccc([nH]4)c(-c4cc(S(=O)(=O)[O-])ccc4F)c4nc(c(-c5cc(S(=O)(=O)[O-])ccc5F)c5ccc2[nH]5)C=C4)C=C3)cc1)Nc1ccccc1O
REMARK SMILES IDX 15 1 14 2 12 3 13 4 4 6 3 7 2 8 1 9 84 10 85 12 86 13 90 14
REMARK SMILES IDX 87 15 89 16 88 17 91 18 5 20 6 21 7 22 11 23 8 25 10 26 9 27
REMARK SMILES IDX 16 28 17 29 18 30 19 31 20 33 21 34 22 35 83 36 23 37 82 38
REMARK SMILES IDX 24 39 25 40 26 41 76 42 27 43 81 44 75 45 77 46 28 47 80 48
REMARK SMILES IDX 74 49 73 50 29 52 61 53 41 54 60 55 42 56 45 57 59 58 78 59
REMARK SMILES IDX 43 60 44 61 58 63 79 64 46 65 30 66 31 67 39 68 32 69 38 70
REMARK SMILES IDX 40 71 37 72 33 73 34 74 35 75 36 76 62 77 63 78 71 79 64 80
REMARK SMILES IDX 70 81 72 82 69 83 65 84 66 85 67 86 68 87 47 88 48 89 56 90
REMARK SMILES IDX 49 91 55 92 57 93 54 94 50 95 51 96 52 97 53 98
REMARK H PARENT 14 5 84 11 91 19 6 24 18 32 77 51 45 62
REMARK Flexibility Score: inf
ROOT
ATOM      1  C   UNL A   1      31.963  27.557  26.255  1.00  0.00     0.117 C 
ENDROOT
BRANCH   1   2
ATOM      2  N   UNL A   1      30.942  26.631  26.698  1.00  0.00    -0.356 N 
ATOM      3  C   UNL A   1      30.195  25.783  25.930  1.00  0.00     0.229 C 
ATOM      4  O   UNL A   1      29.567  24.882  26.490  1.00  0.00    -0.275 OA
ATOM      5  H   UNL A   1      30.765  26.610  27.667  1.00  0.00     0.163 HD
BRANCH   3   6
ATOM      6  C   UNL A   1      30.119  25.951  24.407  1.00  0.00     0.142 C 
BRANCH   6   7
ATOM      7  C   UNL A   1      30.597  24.652  23.739  1.00  0.00     0.119 C 
BRANCH   7   8
ATOM      8  C   UNL A   1      31.795  23.920  24.303  1.00  0.00     0.225 C 
ATOM      9  O   UNL A   1      31.703  22.741  24.639  1.00  0.00    -0.275 OA
ATOM     10  N   UNL A   1      32.976  24.610  24.258  1.00  0.00    -0.323 N 
ATOM     11  H   UNL A   1      32.894  25.587  24.163  1.00  0.00     0.170 HD
BRANCH  10  12
ATOM     12  C   UNL A   1      34.293  24.112  24.328  1.00  0.00     0.083 A 
ATOM     13  C   UNL A   1      34.960  24.366  25.538  1.00  0.00     0.030 A 
ATOM     14  C   UNL A   1      35.000  23.472  23.301  1.00  0.00     0.139 A 
ATOM     15  C   UNL A   1      36.277  23.953  25.737  1.00  0.00     0.002 A 
ATOM     16  C   UNL A   1      36.327  23.082  23.494  1.00  0.00     0.048 A 
ATOM     17  C   UNL A   1      36.961  23.307  24.713  1.00  0.00     0.004 A 
BRANCH  14  18
ATOM     18  O   UNL A   1      34.518  23.231  22.047  1.00  0.00    -0.506 OA
ATOM     19  H   UNL A   1      33.675  23.557  21.798  1.00  0.00     0.293 HD
ENDBRANCH  14  18
ENDBRANCH  10  12
ENDBRANCH   7   8
ENDBRANCH   6   7
BRANCH   6  20
ATOM     20  C   UNL A   1      28.788  26.660  24.007  1.00  0.00     0.276 C 
BRANCH  20  21
ATOM     21  N   UNL A   1      28.873  28.014  23.455  1.00  0.00    -0.334 N 
ATOM     22  C   UNL A   1      29.984  28.189  22.510  1.00  0.00     0.262 C 
ATOM     23  C   UNL A   1      27.628  28.572  22.922  1.00  0.00     0.262 C 
ATOM     24  H   UNL A   1      29.075  28.573  24.285  1.00  0.00     0.348 HD
ATOM     25  C   UNL A   1      30.218  29.672  22.205  1.00  0.00     0.062 C 
ATOM     26  C   UNL A   1      27.783  30.072  22.656  1.00  0.00     0.062 C 
ATOM     27  C   UNL A   1      28.949  30.362  21.720  1.00  0.00     0.012 C 
ENDBRANCH  20  21
ENDBRANCH   6  20
ENDBRANCH   3   6
ENDBRANCH   1   2
BRANCH   1  28
ATOM     28  C   UNL A   1      31.777  28.985  26.704  1.00  0.00     0.042 C 
BRANCH  28  29
ATOM     29  C   UNL A   1      32.662  29.948  25.945  1.00  0.00     0.118 C 
BRANCH  29  30
ATOM     30  N   UNL A   1      32.458  31.339  26.349  1.00  0.00    -0.352 N 
ATOM     31  C   UNL A   1      33.156  32.133  27.225  1.00  0.00     0.251 C 
ATOM     32  H   UNL A   1      31.690  31.781  25.919  1.00  0.00     0.163 HD
ATOM     33  O   UNL A   1      32.680  33.216  27.561  1.00  0.00    -0.269 OA
BRANCH  31  34
ATOM     34  C   UNL A   1      34.446  31.673  27.779  1.00  0.00     0.039 A 
ATOM     35  C   UNL A   1      35.494  32.584  27.926  1.00  0.00     0.014 A 
ATOM     36  C   UNL A   1      34.619  30.346  28.170  1.00  0.00     0.014 A 
ATOM     37  C   UNL A   1      36.679  32.173  28.540  1.00  0.00     0.010 A 
ATOM     38  C   UNL A   1      35.729  29.982  28.916  1.00  0.00     0.010 A 
ATOM     39  C   UNL A   1      36.786  30.882  29.085  1.00  0.00    -0.014 A 
BRANCH  39  40
ATOM     40  C   UNL A   1      38.007  30.445  29.806  1.00  0.00     0.031 A 
ATOM     41  C   UNL A   1      38.262  30.915  31.214  1.00  0.00     0.074 A 
ATOM     42  C   UNL A   1      38.908  29.669  29.173  1.00  0.00     0.049 A 
ATOM     43  N   UNL A   1      39.271  30.654  32.005  1.00  0.00    -0.248 NA
ATOM     44  C   UNL A   1      37.274  31.838  31.791  1.00  0.00     0.031 C 
ATOM     45  C   UNL A   1      38.802  29.207  27.787  1.00  0.00     0.029 A 
ATOM     46  N   UNL A   1      40.082  29.119  29.616  1.00  0.00    -0.354 N 
ATOM     47  C   UNL A   1      39.040  31.386  33.165  1.00  0.00     0.074 A 
ATOM     48  C   UNL A   1      37.857  32.183  32.926  1.00  0.00     0.031 C 
ATOM     49  C   UNL A   1      39.827  28.385  27.518  1.00  0.00     0.029 A 
ATOM     50  C   UNL A   1      40.689  28.302  28.691  1.00  0.00     0.049 A 
ATOM     51  H   UNL A   1      40.456  29.292  30.510  1.00  0.00     0.167 HD
ATOM     52  C   UNL A   1      39.720  31.364  34.339  1.00  0.00     0.034 A 
ATOM     53  C   UNL A   1      41.807  27.558  28.788  1.00  0.00     0.034 A 
ATOM     54  C   UNL A   1      40.899  30.561  34.553  1.00  0.00     0.049 A 
ATOM     55  C   UNL A   1      42.570  27.570  30.087  1.00  0.00     0.074 A 
ATOM     56  C   UNL A   1      41.656  30.424  35.703  1.00  0.00     0.029 A 
ATOM     57  N   UNL A   1      41.502  29.763  33.586  1.00  0.00    -0.354 N 
ATOM     58  N   UNL A   1      42.307  28.218  31.199  1.00  0.00    -0.248 NA
ATOM     59  C   UNL A   1      43.772  26.733  30.143  1.00  0.00     0.031 C 
ATOM     60  C   UNL A   1      42.754  29.606  35.410  1.00  0.00     0.029 A 
ATOM     61  C   UNL A   1      42.638  29.158  34.103  1.00  0.00     0.049 A 
ATOM     62  H   UNL A   1      41.170  29.645  32.667  1.00  0.00     0.167 HD
ATOM     63  C   UNL A   1      43.297  27.838  32.101  1.00  0.00     0.074 A 
ATOM     64  C   UNL A   1      44.143  26.889  31.404  1.00  0.00     0.031 C 
ATOM     65  C   UNL A   1      43.488  28.233  33.387  1.00  0.00     0.034 A 
BRANCH  52  66
ATOM     66  C   UNL A   1      39.203  32.256  35.449  1.00  0.00     0.023 A 
ATOM     67  C   UNL A   1      39.570  33.614  35.532  1.00  0.00     0.031 A 
ATOM     68  C   UNL A   1      38.408  31.732  36.482  1.00  0.00     0.131 A 
ATOM     69  C   UNL A   1      39.250  34.360  36.676  1.00  0.00     0.055 A 
ATOM     70  C   UNL A   1      38.000  32.513  37.567  1.00  0.00     0.041 A 
ATOM     71  F   UNL A   1      38.041  30.441  36.477  1.00  0.00    -0.206 F 
ATOM     72  C   UNL A   1      38.442  33.828  37.682  1.00  0.00     0.022 A 
BRANCH  69  73
ATOM     73  S   UNL A   1      40.085  35.953  36.927  1.00  0.00     0.124 S 
ATOM     74  O   UNL A   1      41.463  35.529  37.166  1.00  0.00    -0.237 OA
ATOM     75  O   UNL A   1      39.836  36.641  35.666  1.00  0.00    -0.237 OA
ATOM     76  O   UNL A   1      39.406  36.516  38.093  1.00  0.00    -0.744 OA
ENDBRANCH  69  73
ENDBRANCH  52  66
BRANCH  53  77
ATOM     77  C   UNL A   1      42.249  26.709  27.646  1.00  0.00     0.023 A 
ATOM     78  C   UNL A   1      41.867  25.360  27.568  1.00  0.00     0.031 A 
ATOM     79  C   UNL A   1      43.070  27.222  26.628  1.00  0.00     0.131 A 
ATOM     80  C   UNL A   1      42.339  24.558  26.518  1.00  0.00     0.055 A 
ATOM     81  C   UNL A   1      43.495  26.435  25.556  1.00  0.00     0.041 A 
ATOM     82  F   UNL A   1      43.457  28.509  26.650  1.00  0.00    -0.206 F 
ATOM     83  C   UNL A   1      43.138  25.089  25.503  1.00  0.00     0.022 A 
BRANCH  80  84
ATOM     84  S   UNL A   1      41.945  22.788  26.533  1.00  0.00     0.124 S 
ATOM     85  O   UNL A   1      42.717  22.322  27.679  1.00  0.00    -0.237 OA
ATOM     86  O   UNL A   1      40.495  22.801  26.697  1.00  0.00    -0.237 OA
ATOM     87  O   UNL A   1      42.418  22.324  25.230  1.00  0.00    -0.744 OA
ENDBRANCH  80  84
ENDBRANCH  53  77
BRANCH  65  88
ATOM     88  C   UNL A   1      44.644  27.596  34.126  1.00  0.00     0.023 A 
ATOM     89  C   UNL A   1      44.485  26.414  34.870  1.00  0.00     0.031 A 
ATOM     90  C   UNL A   1      45.909  28.212  34.129  1.00  0.00     0.131 A 
ATOM     91  C   UNL A   1      45.542  25.937  35.660  1.00  0.00     0.055 A 
ATOM     92  C   UNL A   1      46.981  27.686  34.851  1.00  0.00     0.041 A 
ATOM     93  F   UNL A   1      46.122  29.345  33.439  1.00  0.00    -0.206 F 
ATOM     94  C   UNL A   1      46.795  26.555  35.640  1.00  0.00     0.022 A 
BRANCH  91  95
ATOM     95  S   UNL A   1      45.211  24.592  36.831  1.00  0.00     0.124 S 
ATOM     96  O   UNL A   1      43.959  25.025  37.444  1.00  0.00    -0.237 OA
ATOM     97  O   UNL A   1      45.121  23.430  35.951  1.00  0.00    -0.237 OA
ATOM     98  O   UNL A   1      46.375  24.612  37.714  1.00  0.00    -0.744 OA
ENDBRANCH  91  95
ENDBRANCH  65  88
ENDBRANCH  39  40
ENDBRANCH  31  34
ENDBRANCH  29  30
ENDBRANCH  28  29
ENDBRANCH   1  28
TORSDOF 19
ENDMDL
MODEL 2
REMARK VINA RESULT:     -12.0      1.593      1.976
REMARK SMILES O=C(C[C@@H](C[NH+]1CCCCC1)C(=O)NCCCNC(=O)c1ccc(-c2c3nc(c(-c4cc(S(=O)(=O)[O-])ccc4F)c4ccc([nH]4)c(-c4cc(S(=O)(=O)[O-])ccc4F)c4nc(c(-c5cc(S(=O)(=O)[O-])ccc5F)c5ccc2[nH]5)C=C4)C=C3)cc1)Nc1ccccc1O
REMARK SMILES IDX 15 1 14 2 12 3 13 4 4 6 3 7 2 8 1 9 84 10 85 12 86 13 90 14
REMARK SMILES IDX 87 15 89 16 88 17 91 18 5 20 6 21 7 22 11 23 8 25 10 26 9 27
REMARK SMILES IDX 16 28 17 29 18 30 19 31 20 33 21 34 22 35 83 36 23 37 82 38
REMARK SMILES IDX 24 39 25 40 26 41 76 42 27 43 81 44 75 45 77 46 28 47 80 48
REMARK SMILES IDX 74 49 73 50 29 52 61 53 41 54 60 55 42 56 45 57 59 58 78 59
REMARK SMILES IDX 43 60 44 61 58 63 79 64 46 65 30 66 31 67 39 68 32 69 38 70
REMARK SMILES IDX 40 71 37 72 33 73 34 74 35 75 36 76 62 77 63 78 71 79 64 80
REMARK SMILES IDX 70 81 72 82 69 83 65 84 66 85 67 86 68 87 47 88 48 89 56 90
REMARK SMILES IDX 49 91 55 92 57 93 54 94 50 95 51 96 52 97 53 98
REMARK H PARENT 14 5 84 11 91 19 6 24 18 32 77 51 45 62
REMARK Flexibility Score: inf
ROOT
ATOM      1  C   UNL A   1      32.196  27.318  26.410  1.00  0.00     0.117 C 
ENDROOT
BRANCH   1   2
ATOM      2  N   UNL A   1      31.082  26.505  26.846  1.00  0.00    -0.356 N 
ATOM      3  C   UNL A   1      30.251  25.744  26.073  1.00  0.00     0.229 C 
ATOM      4  O   UNL A   1      29.530  24.912  26.628  1.00  0.00    -0.275 OA
ATOM      5  H   UNL A   1      30.901  26.499  27.814  1.00  0.00     0.163 HD
BRANCH   3   6
ATOM      6  C   UNL A   1      30.199  25.925  24.550  1.00  0.00     0.142 C 
BRANCH   6   7
ATOM      7  C   UNL A   1      30.650  24.618  23.878  1.00  0.00     0.119 C 
BRANCH   7   8
ATOM      8  C   UNL A   1      31.870  23.892  24.402  1.00  0.00     0.225 C 
ATOM      9  O   UNL A   1      31.795  22.713  24.742  1.00  0.00    -0.275 OA
ATOM     10  N   UNL A   1      33.045  24.588  24.316  1.00  0.00    -0.323 N 
ATOM     11  H   UNL A   1      32.956  25.565  24.223  1.00  0.00     0.170 HD
BRANCH  10  12
ATOM     12  C   UNL A   1      34.367  24.096  24.342  1.00  0.00     0.083 A 
ATOM     13  C   UNL A   1      35.076  24.365  25.524  1.00  0.00     0.030 A 
ATOM     14  C   UNL A   1      35.038  23.450  23.295  1.00  0.00     0.139 A 
ATOM     15  C   UNL A   1      36.403  23.960  25.678  1.00  0.00     0.002 A 
ATOM     16  C   UNL A   1      36.373  23.068  23.442  1.00  0.00     0.048 A 
ATOM     17  C   UNL A   1      37.051  23.308  24.635  1.00  0.00     0.004 A 
BRANCH  14  18
ATOM     18  O   UNL A   1      34.511  23.195  22.063  1.00  0.00    -0.506 OA
ATOM     19  H   UNL A   1      33.954  22.453  21.935  1.00  0.00     0.293 HD
ENDBRANCH  14  18
ENDBRANCH  10  12
ENDBRANCH   7   8
ENDBRANCH   6   7
BRANCH   6  20
ATOM     20  C   UNL A   1      28.891  26.671  24.140  1.00  0.00     0.276 C 
BRANCH  20  21
ATOM     21  N   UNL A   1      29.025  27.985  23.507  1.00  0.00    -0.334 N 
ATOM     22  C   UNL A   1      30.169  28.076  22.589  1.00  0.00     0.262 C 
ATOM     23  C   UNL A   1      27.810  28.534  22.900  1.00  0.00     0.262 C 
ATOM     24  H   UNL A   1      29.214  28.591  24.306  1.00  0.00     0.348 HD
ATOM     25  C   UNL A   1      30.446  29.532  22.198  1.00  0.00     0.062 C 
ATOM     26  C   UNL A   1      28.007  30.011  22.545  1.00  0.00     0.062 C 
ATOM     27  C   UNL A   1      29.209  30.215  21.630  1.00  0.00     0.012 C 
ENDBRANCH  20  21
ENDBRANCH   6  20
ENDBRANCH   3   6
ENDBRANCH   1   2
BRANCH   1  28
ATOM     28  C   UNL A   1      32.076  28.792  26.709  1.00  0.00     0.042 C 
BRANCH  28  29
ATOM     29  C   UNL A   1      33.329  29.559  26.349  1.00  0.00     0.118 C 
BRANCH  29  30
ATOM     30  N   UNL A   1      33.285  30.951  26.794  1.00  0.00    -0.352 N 
ATOM     31  C   UNL A   1      34.115  31.653  27.634  1.00  0.00     0.251 C 
ATOM     32  H   UNL A   1      32.534  31.473  26.430  1.00  0.00     0.163 HD
ATOM     33  O   UNL A   1      33.768  32.766  28.025  1.00  0.00    -0.269 OA
BRANCH  31  34
ATOM     34  C   UNL A   1      35.391  31.061  28.083  1.00  0.00     0.039 A 
ATOM     35  C   UNL A   1      36.561  31.819  28.015  1.00  0.00     0.014 A 
ATOM     36  C   UNL A   1      35.434  29.762  28.588  1.00  0.00     0.014 A 
ATOM     37  C   UNL A   1      37.749  31.296  28.529  1.00  0.00     0.010 A 
ATOM     38  C   UNL A   1      36.571  29.308  29.237  1.00  0.00     0.010 A 
ATOM     39  C   UNL A   1      37.752  30.056  29.190  1.00  0.00    -0.014 A 
BRANCH  39  40
ATOM     40  C   UNL A   1      38.985  29.511  29.810  1.00  0.00     0.031 A 
ATOM     41  C   UNL A   1      39.437  30.009  31.158  1.00  0.00     0.074 A 
ATOM     42  C   UNL A   1      39.722  28.608  29.135  1.00  0.00     0.049 A 
ATOM     43  N   UNL A   1      40.487  29.667  31.859  1.00  0.00    -0.248 NA
ATOM     44  C   UNL A   1      38.624  31.066  31.778  1.00  0.00     0.031 C 
ATOM     45  C   UNL A   1      39.420  28.101  27.794  1.00  0.00     0.029 A 
ATOM     46  N   UNL A   1      40.867  27.945  29.490  1.00  0.00    -0.354 N 
ATOM     47  C   UNL A   1      40.462  30.471  32.993  1.00  0.00     0.074 A 
ATOM     48  C   UNL A   1      39.358  31.390  32.828  1.00  0.00     0.031 C 
ATOM     49  C   UNL A   1      40.313  27.154  27.472  1.00  0.00     0.029 A 
ATOM     50  C   UNL A   1      41.279  27.022  28.557  1.00  0.00     0.049 A 
ATOM     51  H   UNL A   1      41.349  28.112  30.332  1.00  0.00     0.167 HD
ATOM     52  C   UNL A   1      41.255  30.421  34.094  1.00  0.00     0.034 A 
ATOM     53  C   UNL A   1      42.310  26.157  28.583  1.00  0.00     0.034 A 
ATOM     54  C   UNL A   1      42.353  29.496  34.235  1.00  0.00     0.049 A 
ATOM     55  C   UNL A   1      43.201  26.137  29.798  1.00  0.00     0.074 A 
ATOM     56  C   UNL A   1      43.206  29.322  35.309  1.00  0.00     0.029 A 
ATOM     57  N   UNL A   1      42.758  28.591  33.258  1.00  0.00    -0.354 N 
ATOM     58  N   UNL A   1      43.131  26.860  30.892  1.00  0.00    -0.248 NA
ATOM     59  C   UNL A   1      44.302  25.169  29.780  1.00  0.00     0.031 C 
ATOM     60  C   UNL A   1      44.169  28.369  34.955  1.00  0.00     0.029 A 
ATOM     61  C   UNL A   1      43.867  27.881  33.693  1.00  0.00     0.049 A 
ATOM     62  H   UNL A   1      42.320  28.473  32.384  1.00  0.00     0.167 HD
ATOM     63  C   UNL A   1      44.161  26.407  31.712  1.00  0.00     0.074 A 
ATOM     64  C   UNL A   1      44.818  25.335  30.988  1.00  0.00     0.031 C 
ATOM     65  C   UNL A   1      44.529  26.832  32.949  1.00  0.00     0.034 A 
BRANCH  52  66
ATOM     66  C   UNL A   1      40.960  31.415  35.198  1.00  0.00     0.023 A 
ATOM     67  C   UNL A   1      39.810  31.302  36.003  1.00  0.00     0.031 A 
ATOM     68  C   UNL A   1      41.785  32.536  35.396  1.00  0.00     0.131 A 
ATOM     69  C   UNL A   1      39.454  32.344  36.872  1.00  0.00     0.055 A 
ATOM     70  C   UNL A   1      41.481  33.517  36.344  1.00  0.00     0.041 A 
ATOM     71  F   UNL A   1      42.885  32.718  34.649  1.00  0.00    -0.206 F 
ATOM     72  C   UNL A   1      40.297  33.438  37.071  1.00  0.00     0.022 A 
BRANCH  69  73
ATOM     73  S   UNL A   1      37.778  32.348  37.570  1.00  0.00     0.124 S 
ATOM     74  O   UNL A   1      37.014  32.986  36.499  1.00  0.00    -0.237 OA
ATOM     75  O   UNL A   1      37.520  30.929  37.782  1.00  0.00    -0.237 OA
ATOM     76  O   UNL A   1      37.915  33.148  38.785  1.00  0.00    -0.744 OA
ENDBRANCH  69  73
ENDBRANCH  52  66
BRANCH  53  77
ATOM     77  C   UNL A   1      42.532  25.213  27.452  1.00  0.00     0.023 A 
ATOM     78  C   UNL A   1      41.866  23.979  27.410  1.00  0.00     0.031 A 
ATOM     79  C   UNL A   1      43.423  25.518  26.409  1.00  0.00     0.131 A 
ATOM     80  C   UNL A   1      42.129  23.076  26.369  1.00  0.00     0.055 A 
ATOM     81  C   UNL A   1      43.643  24.639  25.347  1.00  0.00     0.041 A 
ATOM     82  F   UNL A   1      44.080  26.690  26.396  1.00  0.00    -0.206 F 
ATOM     83  C   UNL A   1      43.002  23.403  25.329  1.00  0.00     0.022 A 
BRANCH  80  84
ATOM     84  S   UNL A   1      41.361  21.434  26.429  1.00  0.00     0.124 S 
ATOM     85  O   UNL A   1      41.310  21.182  27.864  1.00  0.00    -0.237 OA
ATOM     86  O   UNL A   1      40.080  21.674  25.773  1.00  0.00    -0.237 OA
ATOM     87  O   UNL A   1      42.294  20.595  25.679  1.00  0.00    -0.744 OA
ENDBRANCH  80  84
ENDBRANCH  53  77
BRANCH  65  88
ATOM     88  C   UNL A   1      45.677  26.098  33.603  1.00  0.00     0.023 A 
ATOM     89  C   UNL A   1      45.473  24.932  34.362  1.00  0.00     0.031 A 
ATOM     90  C   UNL A   1      46.987  26.603  33.512  1.00  0.00     0.131 A 
ATOM     91  C   UNL A   1      46.540  24.364  35.074  1.00  0.00     0.055 A 
ATOM     92  C   UNL A   1      48.060  25.987  34.157  1.00  0.00     0.041 A 
ATOM     93  F   UNL A   1      47.244  27.715  32.805  1.00  0.00    -0.206 F 
ATOM     94  C   UNL A   1      47.836  24.873  34.961  1.00  0.00     0.022 A 
BRANCH  91  95
ATOM     95  S   UNL A   1      46.182  23.049  36.271  1.00  0.00     0.124 S 
ATOM     96  O   UNL A   1      47.455  22.337  36.329  1.00  0.00    -0.237 OA
ATOM     97  O   UNL A   1      45.821  23.806  37.466  1.00  0.00    -0.237 OA
ATOM     98  O   UNL A   1      45.085  22.309  35.650  1.00  0.00    -0.744 OA
ENDBRANCH  91  95
ENDBRANCH  65  88
ENDBRANCH  39  40
ENDBRANCH  31  34
ENDBRANCH  29  30
ENDBRANCH  28  29
ENDBRANCH   1  28
TORSDOF 19
ENDMDL
MODEL 3
REMARK VINA RESULT:     -12.0      4.867      9.679
REMARK SMILES O=C(C[C@@H](C[NH+]1CCCCC1)C(=O)NCCCNC(=O)c1ccc(-c2c3nc(c(-c4cc(S(=O)(=O)[O-])ccc4F)c4ccc([nH]4)c(-c4cc(S(=O)(=O)[O-])ccc4F)c4nc(c(-c5cc(S(=O)(=O)[O-])ccc5F)c5ccc2[nH]5)C=C4)C=C3)cc1)Nc1ccccc1O
REMARK SMILES IDX 15 1 14 2 12 3 13 4 4 6 3 7 2 8 1 9 84 10 85 12 86 13 90 14
REMARK SMILES IDX 87 15 89 16 88 17 91 18 5 20 6 21 7 22 11 23 8 25 10 26 9 27
REMARK SMILES IDX 16 28 17 29 18 30 19 31 20 33 21 34 22 35 83 36 23 37 82 38
REMARK SMILES IDX 24 39 25 40 26 41 76 42 27 43 81 44 75 45 77 46 28 47 80 48
REMARK SMILES IDX 74 49 73 50 29 52 61 53 41 54 60 55 42 56 45 57 59 58 78 59
REMARK SMILES IDX 43 60 44 61 58 63 79 64 46 65 30 66 31 67 39 68 32 69 38 70
REMARK SMILES IDX 40 71 37 72 33 73 34 74 35 75 36 76 62 77 63 78 71 79 64 80
REMARK SMILES IDX 70 81 72 82 69 83 65 84 66 85 67 86 68 87 47 88 48 89 56 90
REMARK SMILES IDX 49 91 55 92 57 93 54 94 50 95 51 96 52 97 53 98
REMARK H PARENT 14 5 84 11 91 19 6 24 18 32 77 51 45 62
REMARK Flexibility Score: inf
ROOT
ATOM      1  C   UNL A   1      35.501  23.744  23.773  1.00  0.00     0.117 C 
ENDROOT
BRANCH   1   2
ATOM      2  N   UNL A   1      34.919  24.330  24.961  1.00  0.00    -0.356 N 
ATOM      3  C   UNL A   1      33.594  24.438  25.274  1.00  0.00     0.229 C 
ATOM      4  O   UNL A   1      33.285  24.718  26.435  1.00  0.00    -0.275 OA
ATOM      5  H   UNL A   1      35.553  24.694  25.622  1.00  0.00     0.163 HD
BRANCH   3   6
ATOM      6  C   UNL A   1      32.508  24.232  24.211  1.00  0.00     0.142 C 
BRANCH   6   7
ATOM      7  C   UNL A   1      31.795  22.897  24.479  1.00  0.00     0.119 C 
BRANCH   7   8
ATOM      8  C   UNL A   1      32.217  21.660  23.715  1.00  0.00     0.225 C 
ATOM      9  O   UNL A   1      32.540  21.739  22.531  1.00  0.00    -0.275 OA
ATOM     10  N   UNL A   1      32.354  20.527  24.469  1.00  0.00    -0.323 N 
ATOM     11  H   UNL A   1      31.885  20.533  25.336  1.00  0.00     0.170 HD
BRANCH  10  12
ATOM     12  C   UNL A   1      33.076  19.351  24.175  1.00  0.00     0.083 A 
ATOM     13  C   UNL A   1      32.378  18.404  23.406  1.00  0.00     0.030 A 
ATOM     14  C   UNL A   1      34.360  19.023  24.631  1.00  0.00     0.139 A 
ATOM     15  C   UNL A   1      32.962  17.185  23.061  1.00  0.00     0.002 A 
ATOM     16  C   UNL A   1      34.931  17.791  24.306  1.00  0.00     0.048 A 
ATOM     17  C   UNL A   1      34.241  16.879  23.510  1.00  0.00     0.004 A 
BRANCH  14  18
ATOM     18  O   UNL A   1      35.124  19.800  25.451  1.00  0.00    -0.506 OA
ATOM     19  H   UNL A   1      35.812  20.326  25.092  1.00  0.00     0.293 HD
ENDBRANCH  14  18
ENDBRANCH  10  12
ENDBRANCH   7   8
ENDBRANCH   6   7
BRANCH   6  20
ATOM     20  C   UNL A   1      31.732  25.563  23.967  1.00  0.00     0.276 C 
BRANCH  20  21
ATOM     21  N   UNL A   1      32.099  26.727  24.776  1.00  0.00    -0.334 N 
ATOM     22  C   UNL A   1      32.626  27.846  23.983  1.00  0.00     0.262 C 
ATOM     23  C   UNL A   1      31.094  27.184  25.739  1.00  0.00     0.262 C 
ATOM     24  H   UNL A   1      32.861  26.361  25.348  1.00  0.00     0.348 HD
ATOM     25  C   UNL A   1      33.275  28.902  24.884  1.00  0.00     0.062 C 
ATOM     26  C   UNL A   1      31.705  28.199  26.711  1.00  0.00     0.062 C 
ATOM     27  C   UNL A   1      32.326  29.380  25.976  1.00  0.00     0.012 C 
ENDBRANCH  20  21
ENDBRANCH   6  20
ENDBRANCH   3   6
ENDBRANCH   1   2
BRANCH   1  28
ATOM     28  C   UNL A   1      36.499  22.640  24.020  1.00  0.00     0.042 C 
BRANCH  28  29
ATOM     29  C   UNL A   1      36.872  22.515  25.480  1.00  0.00     0.118 C 
BRANCH  29  30
ATOM     30  N   UNL A   1      37.930  21.532  25.710  1.00  0.00    -0.352 N 
ATOM     31  C   UNL A   1      39.210  21.682  26.185  1.00  0.00     0.251 C 
ATOM     32  H   UNL A   1      37.683  20.605  25.486  1.00  0.00     0.163 HD
ATOM     33  O   UNL A   1      39.993  20.738  26.105  1.00  0.00    -0.269 OA
BRANCH  31  34
ATOM     34  C   UNL A   1      39.643  22.974  26.755  1.00  0.00     0.039 A 
ATOM     35  C   UNL A   1      40.600  22.989  27.772  1.00  0.00     0.014 A 
ATOM     36  C   UNL A   1      39.120  24.174  26.276  1.00  0.00     0.014 A 
ATOM     37  C   UNL A   1      41.082  24.212  28.243  1.00  0.00     0.010 A 
ATOM     38  C   UNL A   1      39.710  25.377  26.630  1.00  0.00     0.010 A 
ATOM     39  C   UNL A   1      40.677  25.415  27.640  1.00  0.00    -0.014 A 
BRANCH  39  40
ATOM     40  C   UNL A   1      41.229  26.723  28.072  1.00  0.00     0.031 A 
ATOM     41  C   UNL A   1      42.664  27.071  27.777  1.00  0.00     0.074 A 
ATOM     42  C   UNL A   1      40.453  27.570  28.775  1.00  0.00     0.049 A 
ATOM     43  N   UNL A   1      43.333  28.155  28.080  1.00  0.00    -0.248 NA
ATOM     44  C   UNL A   1      43.466  26.047  27.092  1.00  0.00     0.031 C 
ATOM     45  C   UNL A   1      39.068  27.312  29.178  1.00  0.00     0.029 A 
ATOM     46  N   UNL A   1      40.710  28.825  29.260  1.00  0.00    -0.354 N 
ATOM     47  C   UNL A   1      44.631  27.934  27.629  1.00  0.00     0.074 A 
ATOM     48  C   UNL A   1      44.676  26.575  27.137  1.00  0.00     0.031 C 
ATOM     49  C   UNL A   1      38.576  28.404  29.782  1.00  0.00     0.029 A 
ATOM     50  C   UNL A   1      39.622  29.417  29.857  1.00  0.00     0.049 A 
ATOM     51  H   UNL A   1      41.590  29.261  29.188  1.00  0.00     0.167 HD
ATOM     52  C   UNL A   1      45.677  28.797  27.584  1.00  0.00     0.034 A 
ATOM     53  C   UNL A   1      39.482  30.646  30.389  1.00  0.00     0.034 A 
ATOM     54  C   UNL A   1      45.609  30.148  28.084  1.00  0.00     0.049 A 
ATOM     55  C   UNL A   1      40.663  31.581  30.362  1.00  0.00     0.074 A 
ATOM     56  C   UNL A   1      46.584  31.129  28.066  1.00  0.00     0.029 A 
ATOM     57  N   UNL A   1      44.497  30.708  28.707  1.00  0.00    -0.354 N 
ATOM     58  N   UNL A   1      41.868  31.384  29.877  1.00  0.00    -0.248 NA
ATOM     59  C   UNL A   1      40.454  32.910  30.943  1.00  0.00     0.031 C 
ATOM     60  C   UNL A   1      46.090  32.252  28.742  1.00  0.00     0.029 A 
ATOM     61  C   UNL A   1      44.774  32.008  29.105  1.00  0.00     0.049 A 
ATOM     62  H   UNL A   1      43.637  30.248  28.844  1.00  0.00     0.167 HD
ATOM     63  C   UNL A   1      42.552  32.581  30.063  1.00  0.00     0.074 A 
ATOM     64  C   UNL A   1      41.613  33.496  30.685  1.00  0.00     0.031 C 
ATOM     65  C   UNL A   1      43.835  32.900  29.748  1.00  0.00     0.034 A 
BRANCH  52  66
ATOM     66  C   UNL A   1      46.973  28.275  26.998  1.00  0.00     0.023 A 
ATOM     67  C   UNL A   1      47.227  28.326  25.614  1.00  0.00     0.031 A 
ATOM     68  C   UNL A   1      47.928  27.643  27.812  1.00  0.00     0.131 A 
ATOM     69  C   UNL A   1      48.334  27.651  25.077  1.00  0.00     0.055 A 
ATOM     70  C   UNL A   1      49.086  27.068  27.281  1.00  0.00     0.041 A 
ATOM     71  F   UNL A   1      47.738  27.540  29.137  1.00  0.00    -0.206 F 
ATOM     72  C   UNL A   1      49.282  27.047  25.903  1.00  0.00     0.022 A 
BRANCH  69  73
ATOM     73  S   UNL A   1      48.396  27.392  23.280  1.00  0.00     0.124 S 
ATOM     74  O   UNL A   1      47.202  28.110  22.838  1.00  0.00    -0.237 OA
ATOM     75  O   UNL A   1      49.675  27.992  22.919  1.00  0.00    -0.237 OA
ATOM     76  O   UNL A   1      48.324  25.939  23.141  1.00  0.00    -0.744 OA
ENDBRANCH  69  73
ENDBRANCH  52  66
BRANCH  53  77
ATOM     77  C   UNL A   1      38.172  31.081  30.949  1.00  0.00     0.023 A 
ATOM     78  C   UNL A   1      37.219  31.710  30.133  1.00  0.00     0.031 A 
ATOM     79  C   UNL A   1      37.858  30.892  32.306  1.00  0.00     0.131 A 
ATOM     80  C   UNL A   1      36.014  32.166  30.688  1.00  0.00     0.055 A 
ATOM     81  C   UNL A   1      36.636  31.300  32.843  1.00  0.00     0.041 A 
ATOM     82  F   UNL A   1      38.731  30.286  33.128  1.00  0.00    -0.206 F 
ATOM     83  C   UNL A   1      35.709  31.953  32.034  1.00  0.00     0.022 A 
BRANCH  80  84
ATOM     84  S   UNL A   1      34.874  33.105  29.635  1.00  0.00     0.124 S 
ATOM     85  O   UNL A   1      35.793  33.960  28.892  1.00  0.00    -0.237 OA
ATOM     86  O   UNL A   1      34.223  32.046  28.873  1.00  0.00    -0.237 OA
ATOM     87  O   UNL A   1      34.016  33.796  30.595  1.00  0.00    -0.744 OA
ENDBRANCH  80  84
ENDBRANCH  53  77
BRANCH  65  88
ATOM     88  C   UNL A   1      44.272  34.318  30.042  1.00  0.00     0.023 A 
ATOM     89  C   UNL A   1      44.123  35.349  29.099  1.00  0.00     0.031 A 
ATOM     90  C   UNL A   1      44.898  34.628  31.263  1.00  0.00     0.131 A 
ATOM     91  C   UNL A   1      44.674  36.614  29.351  1.00  0.00     0.055 A 
ATOM     92  C   UNL A   1      45.371  35.910  31.542  1.00  0.00     0.041 A 
ATOM     93  F   UNL A   1      45.072  33.684  32.203  1.00  0.00    -0.206 F 
ATOM     94  C   UNL A   1      45.280  36.906  30.575  1.00  0.00     0.022 A 
BRANCH  91  95
ATOM     95  S   UNL A   1      44.725  37.823  27.999  1.00  0.00     0.124 S 
ATOM     96  O   UNL A   1      45.317  38.985  28.655  1.00  0.00    -0.237 OA
ATOM     97  O   UNL A   1      45.566  37.151  27.014  1.00  0.00    -0.237 OA
ATOM     98  O   UNL A   1      43.322  37.972  27.620  1.00  0.00    -0.744 OA
ENDBRANCH  91  95
ENDBRANCH  65  88
ENDBRANCH  39  40
ENDBRANCH  31  34
ENDBRANCH  29  30
ENDBRANCH  28  29
ENDBRANCH   1  28
TORSDOF 19
ENDMDL
