MODEL 1
REMARK VINA RESULT:     -11.0      0.000      0.000
REMARK SMILES CCC[N@H+]1CCC[C@H](CC(=O)NCCCNC(=O)c2ccc(-c3c4nc(c(-c5cc(S(=O)(=O)[O-])ccc5F)c5ccc([nH]5)c(-c5cc(S(=O)(=O)[O-])ccc5F)c5nc(c(-c6cc(S(=O)(=O)[O-])ccc6F)c6ccc3[nH]6)C=C5)C=C4)cc2)C1
REMARK SMILES IDX 14 1 13 2 12 3 10 4 11 5 9 7 8 8 4 9 5 10 82 11 6 13 7 14
REMARK SMILES IDX 3 15 2 16 1 17 15 18 16 19 17 20 18 22 19 23 20 24 81 25
REMARK SMILES IDX 21 26 80 27 22 28 23 29 24 30 74 31 25 32 79 33 73 34 75 35
REMARK SMILES IDX 26 36 78 37 72 38 71 39 27 41 59 42 39 43 58 44 40 45 43 46
REMARK SMILES IDX 57 47 76 48 41 49 42 50 56 52 77 53 44 54 28 55 29 56 37 57
REMARK SMILES IDX 30 58 36 59 38 60 35 61 31 62 32 63 33 64 34 65 60 66 61 67
REMARK SMILES IDX 69 68 62 69 68 70 70 71 67 72 63 73 64 74 65 75 66 76 45 77
REMARK SMILES IDX 46 78 54 79 47 80 53 81 55 82 52 83 48 84 49 85 50 86 51 87
REMARK H PARENT 12 6 4 12 16 21 75 40 43 51
REMARK Flexibility Score: inf
ROOT
ATOM      1  C   UNL A   1      33.232  29.052  23.818  1.00  0.00     0.042 C 
ENDROOT
BRANCH   1   2
ATOM      2  C   UNL A   1      32.074  28.403  23.069  1.00  0.00     0.117 C 
BRANCH   2   3
ATOM      3  N   UNL A   1      32.551  27.530  22.009  1.00  0.00    -0.356 N 
ATOM      4  C   UNL A   1      32.920  26.218  22.040  1.00  0.00     0.220 C 
ATOM      5  O   UNL A   1      33.357  25.718  21.000  1.00  0.00    -0.275 OA
ATOM      6  H   UNL A   1      32.621  27.956  21.124  1.00  0.00     0.163 HD
BRANCH   4   7
ATOM      7  C   UNL A   1      32.772  25.380  23.299  1.00  0.00     0.109 C 
BRANCH   7   8
ATOM      8  C   UNL A   1      34.028  25.377  24.200  1.00  0.00     0.054 C 
ATOM      9  N   UNL A   1      34.028  22.918  24.648  1.00  0.00    -0.335 N 
ATOM     10  C   UNL A   1      33.689  23.133  26.068  1.00  0.00     0.262 C 
ATOM     11  C   UNL A   1      34.797  24.047  24.095  1.00  0.00     0.266 C 
ATOM     12  H   UNL A   1      33.152  22.853  24.128  1.00  0.00     0.348 HD
ATOM     13  C   UNL A   1      32.947  24.448  26.285  1.00  0.00     0.062 C 
ATOM     14  C   UNL A   1      33.736  25.605  25.684  1.00  0.00     0.016 C 
BRANCH   9  15
ATOM     15  C   UNL A   1      34.778  21.661  24.483  1.00  0.00     0.261 C 
BRANCH  15  16
ATOM     16  C   UNL A   1      33.902  20.427  24.719  1.00  0.00     0.058 C 
ATOM     17  C   UNL A   1      32.619  20.461  23.899  1.00  0.00     0.010 C 
ENDBRANCH  15  16
ENDBRANCH   9  15
ENDBRANCH   7   8
ENDBRANCH   4   7
ENDBRANCH   2   3
ENDBRANCH   1   2
BRANCH   1  18
ATOM     18  C   UNL A   1      33.062  29.061  25.325  1.00  0.00     0.118 C 
BRANCH  18  19
ATOM     19  N   UNL A   1      32.506  30.312  25.812  1.00  0.00    -0.352 N 
ATOM     20  C   UNL A   1      32.943  31.124  26.835  1.00  0.00     0.251 C 
ATOM     21  H   UNL A   1      31.699  30.625  25.343  1.00  0.00     0.163 HD
ATOM     22  O   UNL A   1      32.215  32.031  27.234  1.00  0.00    -0.269 OA
BRANCH  20  23
ATOM     23  C   UNL A   1      34.259  30.887  27.475  1.00  0.00     0.039 A 
ATOM     24  C   UNL A   1      35.140  31.958  27.650  1.00  0.00     0.014 A 
ATOM     25  C   UNL A   1      34.630  29.612  27.907  1.00  0.00     0.014 A 
ATOM     26  C   UNL A   1      36.350  31.765  28.326  1.00  0.00     0.010 A 
ATOM     27  C   UNL A   1      35.778  29.445  28.676  1.00  0.00     0.010 A 
ATOM     28  C   UNL A   1      36.660  30.515  28.884  1.00  0.00    -0.014 A 
BRANCH  28  29
ATOM     29  C   UNL A   1      37.912  30.274  29.652  1.00  0.00     0.031 A 
ATOM     30  C   UNL A   1      38.944  29.324  29.105  1.00  0.00     0.074 A 
ATOM     31  C   UNL A   1      38.081  30.822  30.873  1.00  0.00     0.049 A 
ATOM     32  N   UNL A   1      40.010  28.829  29.680  1.00  0.00    -0.248 NA
ATOM     33  C   UNL A   1      38.715  28.833  27.738  1.00  0.00     0.031 C 
ATOM     34  C   UNL A   1      37.140  31.732  31.528  1.00  0.00     0.029 A 
ATOM     35  N   UNL A   1      39.090  30.670  31.791  1.00  0.00    -0.354 N 
ATOM     36  C   UNL A   1      40.563  27.949  28.755  1.00  0.00     0.074 A 
ATOM     37  C   UNL A   1      39.668  27.922  27.618  1.00  0.00     0.031 C 
ATOM     38  C   UNL A   1      37.620  32.064  32.738  1.00  0.00     0.029 A 
ATOM     39  C   UNL A   1      38.870  31.344  32.971  1.00  0.00     0.049 A 
ATOM     40  H   UNL A   1      39.896  30.131  31.621  1.00  0.00     0.167 HD
ATOM     41  C   UNL A   1      41.724  27.250  28.832  1.00  0.00     0.034 A 
ATOM     42  C   UNL A   1      39.572  31.357  34.122  1.00  0.00     0.034 A 
ATOM     43  C   UNL A   1      42.604  27.296  29.974  1.00  0.00     0.049 A 
ATOM     44  C   UNL A   1      40.838  30.543  34.212  1.00  0.00     0.074 A 
ATOM     45  C   UNL A   1      43.824  26.666  30.150  1.00  0.00     0.029 A 
ATOM     46  N   UNL A   1      42.354  28.008  31.143  1.00  0.00    -0.354 N 
ATOM     47  N   UNL A   1      41.369  29.741  33.317  1.00  0.00    -0.248 NA
ATOM     48  C   UNL A   1      41.605  30.642  35.461  1.00  0.00     0.031 C 
ATOM     49  C   UNL A   1      44.271  26.931  31.449  1.00  0.00     0.029 A 
ATOM     50  C   UNL A   1      43.380  27.805  32.053  1.00  0.00     0.049 A 
ATOM     51  H   UNL A   1      41.564  28.573  31.301  1.00  0.00     0.167 HD
ATOM     52  C   UNL A   1      42.550  29.267  33.883  1.00  0.00     0.074 A 
ATOM     53  C   UNL A   1      42.655  29.876  35.194  1.00  0.00     0.031 C 
ATOM     54  C   UNL A   1      43.469  28.415  33.361  1.00  0.00     0.034 A 
BRANCH  41  55
ATOM     55  C   UNL A   1      42.074  26.361  27.659  1.00  0.00     0.023 A 
ATOM     56  C   UNL A   1      41.636  25.026  27.592  1.00  0.00     0.031 A 
ATOM     57  C   UNL A   1      42.910  26.827  26.630  1.00  0.00     0.131 A 
ATOM     58  C   UNL A   1      42.126  24.176  26.589  1.00  0.00     0.055 A 
ATOM     59  C   UNL A   1      43.308  26.003  25.573  1.00  0.00     0.041 A 
ATOM     60  F   UNL A   1      43.378  28.084  26.644  1.00  0.00    -0.206 F 
ATOM     61  C   UNL A   1      42.936  24.662  25.562  1.00  0.00     0.022 A 
BRANCH  58  62
ATOM     62  S   UNL A   1      41.854  22.391  26.766  1.00  0.00     0.124 S 
ATOM     63  O   UNL A   1      42.304  21.895  25.467  1.00  0.00    -0.237 OA
ATOM     64  O   UNL A   1      42.698  22.054  27.905  1.00  0.00    -0.237 OA
ATOM     65  O   UNL A   1      40.415  22.284  27.000  1.00  0.00    -0.744 OA
ENDBRANCH  58  62
ENDBRANCH  41  55
BRANCH  42  66
ATOM     66  C   UNL A   1      39.075  32.141  35.290  1.00  0.00     0.023 A 
ATOM     67  C   UNL A   1      38.461  31.512  36.385  1.00  0.00     0.031 A 
ATOM     68  C   UNL A   1      39.203  33.542  35.322  1.00  0.00     0.131 A 
ATOM     69  C   UNL A   1      37.969  32.285  37.449  1.00  0.00     0.055 A 
ATOM     70  C   UNL A   1      38.759  34.300  36.406  1.00  0.00     0.041 A 
ATOM     71  F   UNL A   1      39.785  34.193  34.303  1.00  0.00    -0.206 F 
ATOM     72  C   UNL A   1      38.129  33.672  37.475  1.00  0.00     0.022 A 
BRANCH  69  73
ATOM     73  S   UNL A   1      37.052  31.455  38.777  1.00  0.00     0.124 S 
ATOM     74  O   UNL A   1      35.819  32.233  38.816  1.00  0.00    -0.237 OA
ATOM     75  O   UNL A   1      36.939  30.095  38.264  1.00  0.00    -0.237 OA
ATOM     76  O   UNL A   1      37.924  31.609  39.939  1.00  0.00    -0.744 OA
ENDBRANCH  69  73
ENDBRANCH  42  66
BRANCH  54  77
ATOM     77  C   UNL A   1      44.706  28.138  34.183  1.00  0.00     0.023 A 
ATOM     78  C   UNL A   1      44.790  27.048  35.065  1.00  0.00     0.031 A 
ATOM     79  C   UNL A   1      45.831  28.975  34.056  1.00  0.00     0.131 A 
ATOM     80  C   UNL A   1      45.960  26.848  35.818  1.00  0.00     0.055 A 
ATOM     81  C   UNL A   1      47.010  28.735  34.760  1.00  0.00     0.041 A 
ATOM     82  F   UNL A   1      45.804  30.035  33.232  1.00  0.00    -0.206 F 
ATOM     83  C   UNL A   1      47.076  27.672  35.655  1.00  0.00     0.022 A 
BRANCH  80  84
ATOM     84  S   UNL A   1      45.977  25.540  37.075  1.00  0.00     0.124 S 
ATOM     85  O   UNL A   1      46.965  26.045  38.023  1.00  0.00    -0.237 OA
ATOM     86  O   UNL A   1      44.593  25.533  37.538  1.00  0.00    -0.237 OA
ATOM     87  O   UNL A   1      46.386  24.353  36.328  1.00  0.00    -0.744 OA
ENDBRANCH  80  84
ENDBRANCH  54  77
ENDBRANCH  28  29
ENDBRANCH  20  23
ENDBRANCH  18  19
ENDBRANCH   1  18
TORSDOF 16
ENDMDL
MODEL 2
REMARK VINA RESULT:     -10.8      5.830      9.124
REMARK SMILES CCC[N@H+]1CCC[C@H](CC(=O)NCCCNC(=O)c2ccc(-c3c4nc(c(-c5cc(S(=O)(=O)[O-])ccc5F)c5ccc([nH]5)c(-c5cc(S(=O)(=O)[O-])ccc5F)c5nc(c(-c6cc(S(=O)(=O)[O-])ccc6F)c6ccc3[nH]6)C=C5)C=C4)cc2)C1
REMARK SMILES IDX 14 1 13 2 12 3 10 4 11 5 9 7 8 8 4 9 5 10 82 11 6 13 7 14
REMARK SMILES IDX 3 15 2 16 1 17 15 18 16 19 17 20 18 22 19 23 20 24 81 25
REMARK SMILES IDX 21 26 80 27 22 28 23 29 24 30 74 31 25 32 79 33 73 34 75 35
REMARK SMILES IDX 26 36 78 37 72 38 71 39 27 41 59 42 39 43 58 44 40 45 43 46
REMARK SMILES IDX 57 47 76 48 41 49 42 50 56 52 77 53 44 54 28 55 29 56 37 57
REMARK SMILES IDX 30 58 36 59 38 60 35 61 31 62 32 63 33 64 34 65 60 66 61 67
REMARK SMILES IDX 69 68 62 69 68 70 70 71 67 72 63 73 64 74 65 75 66 76 45 77
REMARK SMILES IDX 46 78 54 79 47 80 53 81 55 82 52 83 48 84 49 85 50 86 51 87
REMARK H PARENT 12 6 4 12 16 21 75 40 43 51
REMARK Flexibility Score: inf
ROOT
ATOM      1  C   UNL A   1      42.042  20.400  27.638  1.00  0.00     0.042 C 
ENDROOT
BRANCH   1   2
ATOM      2  C   UNL A   1      41.953  19.725  26.274  1.00  0.00     0.117 C 
BRANCH   2   3
ATOM      3  N   UNL A   1      43.084  18.841  26.044  1.00  0.00    -0.356 N 
ATOM      4  C   UNL A   1      44.215  19.023  25.306  1.00  0.00     0.220 C 
ATOM      5  O   UNL A   1      45.005  18.078  25.220  1.00  0.00    -0.275 OA
ATOM      6  H   UNL A   1      43.022  17.967  26.494  1.00  0.00     0.163 HD
BRANCH   4   7
ATOM      7  C   UNL A   1      44.522  20.351  24.635  1.00  0.00     0.109 C 
BRANCH   7   8
ATOM      8  C   UNL A   1      45.628  21.169  25.341  1.00  0.00     0.054 C 
ATOM      9  N   UNL A   1      44.170  23.101  25.965  1.00  0.00    -0.335 N 
ATOM     10  C   UNL A   1      44.881  23.994  25.029  1.00  0.00     0.262 C 
ATOM     11  C   UNL A   1      45.052  22.036  26.475  1.00  0.00     0.266 C 
ATOM     12  H   UNL A   1      43.410  22.656  25.450  1.00  0.00     0.348 HD
ATOM     13  C   UNL A   1      45.518  23.224  23.877  1.00  0.00     0.062 C 
ATOM     14  C   UNL A   1      46.403  22.107  24.415  1.00  0.00     0.016 C 
BRANCH   9  15
ATOM     15  C   UNL A   1      43.605  23.874  27.084  1.00  0.00     0.261 C 
BRANCH  15  16
ATOM     16  C   UNL A   1      44.126  23.395  28.442  1.00  0.00     0.058 C 
ATOM     17  C   UNL A   1      43.372  24.023  29.607  1.00  0.00     0.010 C 
ENDBRANCH  15  16
ENDBRANCH   9  15
ENDBRANCH   7   8
ENDBRANCH   4   7
ENDBRANCH   2   3
ENDBRANCH   1   2
BRANCH   1  18
ATOM     18  C   UNL A   1      41.016  21.494  27.852  1.00  0.00     0.118 C 
BRANCH  18  19
ATOM     19  N   UNL A   1      39.977  21.486  26.835  1.00  0.00    -0.352 N 
ATOM     20  C   UNL A   1      39.188  22.520  26.383  1.00  0.00     0.251 C 
ATOM     21  H   UNL A   1      39.814  20.615  26.407  1.00  0.00     0.163 HD
ATOM     22  O   UNL A   1      38.220  22.267  25.667  1.00  0.00    -0.269 OA
BRANCH  20  23
ATOM     23  C   UNL A   1      39.477  23.918  26.782  1.00  0.00     0.039 A 
ATOM     24  C   UNL A   1      39.127  24.353  28.064  1.00  0.00     0.014 A 
ATOM     25  C   UNL A   1      40.097  24.805  25.899  1.00  0.00     0.014 A 
ATOM     26  C   UNL A   1      39.468  25.643  28.483  1.00  0.00     0.010 A 
ATOM     27  C   UNL A   1      40.534  26.046  26.353  1.00  0.00     0.010 A 
ATOM     28  C   UNL A   1      40.214  26.487  27.646  1.00  0.00    -0.014 A 
BRANCH  28  29
ATOM     29  C   UNL A   1      40.641  27.850  28.064  1.00  0.00     0.031 A 
ATOM     30  C   UNL A   1      42.110  28.163  28.179  1.00  0.00     0.074 A 
ATOM     31  C   UNL A   1      39.726  28.769  28.433  1.00  0.00     0.049 A 
ATOM     32  N   UNL A   1      42.702  29.210  28.694  1.00  0.00    -0.248 NA
ATOM     33  C   UNL A   1      43.034  27.132  27.685  1.00  0.00     0.031 C 
ATOM     34  C   UNL A   1      38.275  28.579  28.399  1.00  0.00     0.029 A 
ATOM     35  N   UNL A   1      39.882  30.037  28.936  1.00  0.00    -0.354 N 
ATOM     36  C   UNL A   1      44.066  28.951  28.608  1.00  0.00     0.074 A 
ATOM     37  C   UNL A   1      44.205  27.616  28.068  1.00  0.00     0.031 C 
ATOM     38  C   UNL A   1      37.675  29.691  28.853  1.00  0.00     0.029 A 
ATOM     39  C   UNL A   1      38.695  30.650  29.268  1.00  0.00     0.049 A 
ATOM     40  H   UNL A   1      40.760  30.468  29.048  1.00  0.00     0.167 HD
ATOM     41  C   UNL A   1      45.108  29.761  28.924  1.00  0.00     0.034 A 
ATOM     42  C   UNL A   1      38.454  31.833  29.868  1.00  0.00     0.034 A 
ATOM     43  C   UNL A   1      44.947  31.092  29.458  1.00  0.00     0.049 A 
ATOM     44  C   UNL A   1      39.620  32.707  30.254  1.00  0.00     0.074 A 
ATOM     45  C   UNL A   1      45.924  32.019  29.777  1.00  0.00     0.029 A 
ATOM     46  N   UNL A   1      43.726  31.684  29.762  1.00  0.00    -0.354 N 
ATOM     47  N   UNL A   1      40.906  32.465  30.137  1.00  0.00    -0.248 NA
ATOM     48  C   UNL A   1      39.305  34.016  30.842  1.00  0.00     0.031 C 
ATOM     49  C   UNL A   1      45.301  33.135  30.344  1.00  0.00     0.029 A 
ATOM     50  C   UNL A   1      43.928  32.948  30.293  1.00  0.00     0.049 A 
ATOM     51  H   UNL A   1      42.846  31.266  29.620  1.00  0.00     0.167 HD
ATOM     52  C   UNL A   1      41.552  33.606  30.607  1.00  0.00     0.074 A 
ATOM     53  C   UNL A   1      40.514  34.536  31.004  1.00  0.00     0.031 C 
ATOM     54  C   UNL A   1      42.882  33.865  30.691  1.00  0.00     0.034 A 
BRANCH  41  55
ATOM     55  C   UNL A   1      46.501  29.204  28.726  1.00  0.00     0.023 A 
ATOM     56  C   UNL A   1      47.066  29.076  27.444  1.00  0.00     0.031 A 
ATOM     57  C   UNL A   1      47.248  28.732  29.819  1.00  0.00     0.131 A 
ATOM     58  C   UNL A   1      48.278  28.390  27.276  1.00  0.00     0.055 A 
ATOM     59  C   UNL A   1      48.505  28.145  29.655  1.00  0.00     0.041 A 
ATOM     60  F   UNL A   1      46.758  28.807  31.066  1.00  0.00    -0.206 F 
ATOM     61  C   UNL A   1      49.017  27.949  28.375  1.00  0.00     0.022 A 
BRANCH  58  62
ATOM     62  S   UNL A   1      48.767  27.906  25.597  1.00  0.00     0.124 S 
ATOM     63  O   UNL A   1      48.919  26.459  25.741  1.00  0.00    -0.237 OA
ATOM     64  O   UNL A   1      47.634  28.352  24.797  1.00  0.00    -0.237 OA
ATOM     65  O   UNL A   1      50.014  28.635  25.380  1.00  0.00    -0.744 OA
ENDBRANCH  58  62
ENDBRANCH  41  55
BRANCH  42  66
ATOM     66  C   UNL A   1      37.051  32.243  30.170  1.00  0.00     0.023 A 
ATOM     67  C   UNL A   1      36.236  32.836  29.193  1.00  0.00     0.031 A 
ATOM     68  C   UNL A   1      36.506  32.052  31.454  1.00  0.00     0.131 A 
ATOM     69  C   UNL A   1      34.935  33.247  29.523  1.00  0.00     0.055 A 
ATOM     70  C   UNL A   1      35.194  32.414  31.762  1.00  0.00     0.041 A 
ATOM     71  F   UNL A   1      37.240  31.485  32.424  1.00  0.00    -0.206 F 
ATOM     72  C   UNL A   1      34.403  33.025  30.795  1.00  0.00     0.022 A 
BRANCH  69  73
ATOM     73  S   UNL A   1      33.962  34.142  28.280  1.00  0.00     0.124 S 
ATOM     74  O   UNL A   1      33.054  33.102  27.811  1.00  0.00    -0.237 OA
ATOM     75  O   UNL A   1      33.363  35.209  29.073  1.00  0.00    -0.237 OA
ATOM     76  O   UNL A   1      34.966  34.577  27.311  1.00  0.00    -0.744 OA
ENDBRANCH  69  73
ENDBRANCH  42  66
BRANCH  54  77
ATOM     77  C   UNL A   1      43.295  35.235  31.174  1.00  0.00     0.023 A 
ATOM     78  C   UNL A   1      43.469  36.318  30.296  1.00  0.00     0.031 A 
ATOM     79  C   UNL A   1      43.494  35.460  32.549  1.00  0.00     0.131 A 
ATOM     80  C   UNL A   1      43.871  37.567  30.799  1.00  0.00     0.055 A 
ATOM     81  C   UNL A   1      43.832  36.717  33.049  1.00  0.00     0.041 A 
ATOM     82  F   UNL A   1      43.347  34.459  33.433  1.00  0.00    -0.206 F 
ATOM     83  C   UNL A   1      44.032  37.777  32.171  1.00  0.00     0.022 A 
BRANCH  80  84
ATOM     84  S   UNL A   1      44.258  38.897  29.628  1.00  0.00     0.124 S 
ATOM     85  O   UNL A   1      45.450  38.380  28.965  1.00  0.00    -0.237 OA
ATOM     86  O   UNL A   1      43.049  38.957  28.812  1.00  0.00    -0.237 OA
ATOM     87  O   UNL A   1      44.481  40.057  30.489  1.00  0.00    -0.744 OA
ENDBRANCH  80  84
ENDBRANCH  54  77
ENDBRANCH  28  29
ENDBRANCH  20  23
ENDBRANCH  18  19
ENDBRANCH   1  18
TORSDOF 16
ENDMDL
MODEL 3
REMARK VINA RESULT:     -10.8      2.187      3.258
REMARK SMILES CCC[N@H+]1CCC[C@H](CC(=O)NCCCNC(=O)c2ccc(-c3c4nc(c(-c5cc(S(=O)(=O)[O-])ccc5F)c5ccc([nH]5)c(-c5cc(S(=O)(=O)[O-])ccc5F)c5nc(c(-c6cc(S(=O)(=O)[O-])ccc6F)c6ccc3[nH]6)C=C5)C=C4)cc2)C1
REMARK SMILES IDX 14 1 13 2 12 3 10 4 11 5 9 7 8 8 4 9 5 10 82 11 6 13 7 14
REMARK SMILES IDX 3 15 2 16 1 17 15 18 16 19 17 20 18 22 19 23 20 24 81 25
REMARK SMILES IDX 21 26 80 27 22 28 23 29 24 30 74 31 25 32 79 33 73 34 75 35
REMARK SMILES IDX 26 36 78 37 72 38 71 39 27 41 59 42 39 43 58 44 40 45 43 46
REMARK SMILES IDX 57 47 76 48 41 49 42 50 56 52 77 53 44 54 28 55 29 56 37 57
REMARK SMILES IDX 30 58 36 59 38 60 35 61 31 62 32 63 33 64 34 65 60 66 61 67
REMARK SMILES IDX 69 68 62 69 68 70 70 71 67 72 63 73 64 74 65 75 66 76 45 77
REMARK SMILES IDX 46 78 54 79 47 80 53 81 55 82 52 83 48 84 49 85 50 86 51 87
REMARK H PARENT 12 6 4 12 16 21 75 40 43 51
REMARK Flexibility Score: inf
ROOT
ATOM      1  C   UNL A   1      31.449  31.390  26.366  1.00  0.00     0.042 C 
ENDROOT
BRANCH   1   2
ATOM      2  C   UNL A   1      31.676  29.966  25.868  1.00  0.00     0.117 C 
BRANCH   2   3
ATOM      3  N   UNL A   1      32.592  29.940  24.738  1.00  0.00    -0.356 N 
ATOM      4  C   UNL A   1      33.043  28.895  23.988  1.00  0.00     0.220 C 
ATOM      5  O   UNL A   1      33.879  29.135  23.112  1.00  0.00    -0.275 OA
ATOM      6  H   UNL A   1      32.944  30.820  24.473  1.00  0.00     0.163 HD
BRANCH   4   7
ATOM      7  C   UNL A   1      32.519  27.484  24.192  1.00  0.00     0.109 C 
BRANCH   7   8
ATOM      8  C   UNL A   1      31.763  26.914  22.970  1.00  0.00     0.054 C 
ATOM      9  N   UNL A   1      29.581  28.029  23.465  1.00  0.00    -0.335 N 
ATOM     10  C   UNL A   1      28.940  26.734  23.765  1.00  0.00     0.262 C 
ATOM     11  C   UNL A   1      30.669  27.881  22.481  1.00  0.00     0.266 C 
ATOM     12  H   UNL A   1      29.990  28.379  24.332  1.00  0.00     0.348 HD
ATOM     13  C   UNL A   1      29.950  25.691  24.231  1.00  0.00     0.062 C 
ATOM     14  C   UNL A   1      31.085  25.568  23.223  1.00  0.00     0.016 C 
BRANCH   9  15
ATOM     15  C   UNL A   1      28.583  28.997  22.980  1.00  0.00     0.261 C 
BRANCH  15  16
ATOM     16  C   UNL A   1      29.085  30.442  23.068  1.00  0.00     0.058 C 
ATOM     17  C   UNL A   1      28.001  31.404  23.535  1.00  0.00     0.010 C 
ENDBRANCH  15  16
ENDBRANCH   9  15
ENDBRANCH   7   8
ENDBRANCH   4   7
ENDBRANCH   2   3
ENDBRANCH   1   2
BRANCH   1  18
ATOM     18  C   UNL A   1      32.680  32.032  26.974  1.00  0.00     0.118 C 
BRANCH  18  19
ATOM     19  N   UNL A   1      32.480  33.441  27.273  1.00  0.00    -0.352 N 
ATOM     20  C   UNL A   1      33.096  34.231  28.217  1.00  0.00     0.251 C 
ATOM     21  H   UNL A   1      31.805  33.896  26.720  1.00  0.00     0.163 HD
ATOM     22  O   UNL A   1      32.637  35.346  28.458  1.00  0.00    -0.269 OA
BRANCH  20  23
ATOM     23  C   UNL A   1      34.277  33.732  28.962  1.00  0.00     0.039 A 
ATOM     24  C   UNL A   1      34.114  32.707  29.900  1.00  0.00     0.014 A 
ATOM     25  C   UNL A   1      35.547  34.266  28.739  1.00  0.00     0.014 A 
ATOM     26  C   UNL A   1      35.230  32.170  30.550  1.00  0.00     0.010 A 
ATOM     27  C   UNL A   1      36.666  33.657  29.300  1.00  0.00     0.010 A 
ATOM     28  C   UNL A   1      36.522  32.610  30.223  1.00  0.00    -0.014 A 
BRANCH  28  29
ATOM     29  C   UNL A   1      37.742  32.036  30.852  1.00  0.00     0.031 A 
ATOM     30  C   UNL A   1      38.524  30.976  30.120  1.00  0.00     0.074 A 
ATOM     31  C   UNL A   1      38.094  32.386  32.106  1.00  0.00     0.049 A 
ATOM     32  N   UNL A   1      39.499  30.216  30.547  1.00  0.00    -0.248 NA
ATOM     33  C   UNL A   1      38.117  30.711  28.733  1.00  0.00     0.031 C 
ATOM     34  C   UNL A   1      37.401  33.376  32.932  1.00  0.00     0.029 A 
ATOM     35  N   UNL A   1      39.105  31.929  32.914  1.00  0.00    -0.354 N 
ATOM     36  C   UNL A   1      39.803  29.365  29.489  1.00  0.00     0.074 A 
ATOM     37  C   UNL A   1      38.854  29.653  28.435  1.00  0.00     0.031 C 
ATOM     38  C   UNL A   1      38.011  33.457  34.126  1.00  0.00     0.029 A 
ATOM     39  C   UNL A   1      39.099  32.483  34.174  1.00  0.00     0.049 A 
ATOM     40  H   UNL A   1      39.772  31.267  32.620  1.00  0.00     0.167 HD
ATOM     41  C   UNL A   1      40.799  28.448  29.393  1.00  0.00     0.034 A 
ATOM     42  C   UNL A   1      39.858  32.217  35.256  1.00  0.00     0.034 A 
ATOM     43  C   UNL A   1      41.738  28.180  30.454  1.00  0.00     0.049 A 
ATOM     44  C   UNL A   1      40.935  31.167  35.151  1.00  0.00     0.074 A 
ATOM     45  C   UNL A   1      42.811  27.306  30.458  1.00  0.00     0.029 A 
ATOM     46  N   UNL A   1      41.710  28.778  31.710  1.00  0.00    -0.354 N 
ATOM     47  N   UNL A   1      41.235  30.392  34.133  1.00  0.00    -0.248 NA
ATOM     48  C   UNL A   1      41.780  30.960  36.334  1.00  0.00     0.031 C 
ATOM     49  C   UNL A   1      43.381  27.318  31.735  1.00  0.00     0.029 A 
ATOM     50  C   UNL A   1      42.726  28.269  32.503  1.00  0.00     0.049 A 
ATOM     51  H   UNL A   1      41.063  29.463  31.994  1.00  0.00     0.167 HD
ATOM     52  C   UNL A   1      42.326  29.629  34.543  1.00  0.00     0.074 A 
ATOM     53  C   UNL A   1      42.633  30.042  35.899  1.00  0.00     0.031 C 
ATOM     54  C   UNL A   1      43.018  28.685  33.857  1.00  0.00     0.034 A 
BRANCH  41  55
ATOM     55  C   UNL A   1      40.888  27.658  28.105  1.00  0.00     0.023 A 
ATOM     56  C   UNL A   1      40.508  26.305  28.045  1.00  0.00     0.031 A 
ATOM     57  C   UNL A   1      41.421  28.239  26.942  1.00  0.00     0.131 A 
ATOM     58  C   UNL A   1      40.773  25.552  26.891  1.00  0.00     0.055 A 
ATOM     59  C   UNL A   1      41.582  27.510  25.760  1.00  0.00     0.041 A 
ATOM     60  F   UNL A   1      41.820  29.520  26.937  1.00  0.00    -0.206 F 
ATOM     61  C   UNL A   1      41.280  26.151  25.738  1.00  0.00     0.022 A 
BRANCH  58  62
ATOM     62  S   UNL A   1      40.634  23.745  26.993  1.00  0.00     0.124 S 
ATOM     63  O   UNL A   1      41.598  23.320  25.979  1.00  0.00    -0.237 OA
ATOM     64  O   UNL A   1      41.004  23.477  28.377  1.00  0.00    -0.237 OA
ATOM     65  O   UNL A   1      39.236  23.489  26.656  1.00  0.00    -0.744 OA
ENDBRANCH  58  62
ENDBRANCH  41  55
BRANCH  42  66
ATOM     66  C   UNL A   1      39.604  32.934  36.540  1.00  0.00     0.023 A 
ATOM     67  C   UNL A   1      38.719  32.422  37.501  1.00  0.00     0.031 A 
ATOM     68  C   UNL A   1      40.244  34.156  36.819  1.00  0.00     0.131 A 
ATOM     69  C   UNL A   1      38.473  33.143  38.680  1.00  0.00     0.055 A 
ATOM     70  C   UNL A   1      40.035  34.843  38.016  1.00  0.00     0.041 A 
ATOM     71  F   UNL A   1      41.103  34.690  35.936  1.00  0.00    -0.206 F 
ATOM     72  C   UNL A   1      39.138  34.341  38.951  1.00  0.00     0.022 A 
BRANCH  69  73
ATOM     73  S   UNL A   1      37.215  32.526  39.833  1.00  0.00     0.124 S 
ATOM     74  O   UNL A   1      36.068  32.344  38.950  1.00  0.00    -0.237 OA
ATOM     75  O   UNL A   1      37.838  31.308  40.338  1.00  0.00    -0.237 OA
ATOM     76  O   UNL A   1      37.087  33.607  40.807  1.00  0.00    -0.744 OA
ENDBRANCH  69  73
ENDBRANCH  42  66
BRANCH  54  77
ATOM     77  C   UNL A   1      44.220  28.072  34.537  1.00  0.00     0.023 A 
ATOM     78  C   UNL A   1      44.126  26.908  35.318  1.00  0.00     0.031 A 
ATOM     79  C   UNL A   1      45.489  28.659  34.375  1.00  0.00     0.131 A 
ATOM     80  C   UNL A   1      45.274  26.392  35.942  1.00  0.00     0.055 A 
ATOM     81  C   UNL A   1      46.635  28.107  34.946  1.00  0.00     0.041 A 
ATOM     82  F   UNL A   1      45.636  29.777  33.644  1.00  0.00    -0.206 F 
ATOM     83  C   UNL A   1      46.529  26.972  35.743  1.00  0.00     0.022 A 
BRANCH  80  84
ATOM     84  S   UNL A   1      45.095  24.993  37.084  1.00  0.00     0.124 S 
ATOM     85  O   UNL A   1      44.207  25.546  38.101  1.00  0.00    -0.237 OA
ATOM     86  O   UNL A   1      44.520  23.961  36.227  1.00  0.00    -0.237 OA
ATOM     87  O   UNL A   1      46.463  24.737  37.529  1.00  0.00    -0.744 OA
ENDBRANCH  80  84
ENDBRANCH  54  77
ENDBRANCH  28  29
ENDBRANCH  20  23
ENDBRANCH  18  19
ENDBRANCH   1  18
TORSDOF 16
ENDMDL
