MODEL 1
REMARK VINA RESULT:     -11.7      0.000      0.000
REMARK SMILES CC(C)(C[S@](=O)c1cccc(Cl)c1)C(=O)NCCCNC(=O)c1ccc(-c2c3nc(c(-c4cc(S(=O)(=O)[O-])ccc4F)c4ccc([nH]4)c(-c4cc(S(=O)(=O)[O-])ccc4F)c4nc(c(-c5cc(S(=O)(=O)[O-])ccc5F)c5ccc2[nH]5)C=C4)C=C3)cc1
REMARK SMILES IDX 18 1 17 2 16 3 14 4 15 5 2 7 1 8 3 9 4 10 5 11 6 12 7 13
REMARK SMILES IDX 8 14 13 15 9 16 11 17 10 18 12 19 19 20 20 21 21 22 22 24
REMARK SMILES IDX 23 25 24 26 85 27 25 28 84 29 26 30 27 31 28 32 78 33 29 34
REMARK SMILES IDX 83 35 77 36 79 37 30 38 82 39 76 40 75 41 31 43 63 44 43 45
REMARK SMILES IDX 62 46 44 47 47 48 61 49 80 50 45 51 46 52 60 54 81 55 48 56
REMARK SMILES IDX 32 57 33 58 41 59 34 60 40 61 42 62 39 63 35 64 36 65 37 66
REMARK SMILES IDX 38 67 64 68 65 69 73 70 66 71 72 72 74 73 71 74 67 75 68 76
REMARK SMILES IDX 69 77 70 78 49 79 50 80 58 81 51 82 57 83 59 84 56 85 52 86
REMARK SMILES IDX 53 87 54 88 55 89
REMARK H PARENT 16 6 20 23 79 42 47 53
REMARK Flexibility Score: inf
ROOT
ATOM      1  C   UNL A   1      38.160  19.655  25.028  1.00  0.00     0.042 C 
ENDROOT
BRANCH   1   2
ATOM      2  C   UNL A   1      37.137  20.715  24.649  1.00  0.00     0.117 C 
BRANCH   2   3
ATOM      3  N   UNL A   1      37.417  22.041  25.178  1.00  0.00    -0.356 N 
ATOM      4  C   UNL A   1      36.630  23.118  25.452  1.00  0.00     0.226 C 
ATOM      5  O   UNL A   1      37.137  23.994  26.160  1.00  0.00    -0.274 OA
ATOM      6  H   UNL A   1      38.369  22.190  25.381  1.00  0.00     0.163 HD
BRANCH   4   7
ATOM      7  C   UNL A   1      35.180  23.255  24.966  1.00  0.00     0.055 C 
ATOM      8  C   UNL A   1      35.129  23.410  23.427  1.00  0.00     0.022 C 
ATOM      9  C   UNL A   1      34.647  24.622  25.472  1.00  0.00     0.022 C 
BRANCH   7  10
ATOM     10  C   UNL A   1      34.251  22.120  25.425  1.00  0.00     0.126 C 
BRANCH  10  11
ATOM     11  S   UNL A   1      32.749  21.592  24.533  1.00  0.00     0.054 S 
ATOM     12  O   UNL A   1      31.632  21.532  25.532  1.00  0.00    -0.254 OA
BRANCH  11  13
ATOM     13  C   UNL A   1      32.994  19.900  24.004  1.00  0.00     0.040 A 
ATOM     14  C   UNL A   1      32.218  19.395  22.950  1.00  0.00     0.018 A 
ATOM     15  C   UNL A   1      33.875  19.048  24.671  1.00  0.00     0.038 A 
ATOM     16  C   UNL A   1      32.419  18.095  22.485  1.00  0.00     0.003 A 
ATOM     17  C   UNL A   1      34.087  17.756  24.192  1.00  0.00     0.042 A 
ATOM     18  C   UNL A   1      33.376  17.282  23.091  1.00  0.00     0.020 A 
ATOM     19  Cl  UNL A   1      35.259  16.746  24.948  1.00  0.00    -0.084 Cl
ENDBRANCH  11  13
ENDBRANCH  10  11
ENDBRANCH   7  10
ENDBRANCH   4   7
ENDBRANCH   2   3
ENDBRANCH   1   2
BRANCH   1  20
ATOM     20  C   UNL A   1      39.332  20.157  25.858  1.00  0.00     0.118 C 
BRANCH  20  21
ATOM     21  N   UNL A   1      40.385  19.159  26.000  1.00  0.00    -0.352 N 
ATOM     22  C   UNL A   1      41.742  19.304  26.145  1.00  0.00     0.251 C 
ATOM     23  H   UNL A   1      40.070  18.226  25.989  1.00  0.00     0.163 HD
ATOM     24  O   UNL A   1      42.460  18.307  26.019  1.00  0.00    -0.269 OA
BRANCH  22  25
ATOM     25  C   UNL A   1      42.354  20.623  26.424  1.00  0.00     0.039 A 
ATOM     26  C   UNL A   1      42.800  21.405  25.354  1.00  0.00     0.014 A 
ATOM     27  C   UNL A   1      42.528  21.083  27.731  1.00  0.00     0.014 A 
ATOM     28  C   UNL A   1      43.345  22.672  25.591  1.00  0.00     0.010 A 
ATOM     29  C   UNL A   1      42.986  22.379  27.962  1.00  0.00     0.010 A 
ATOM     30  C   UNL A   1      43.403  23.189  26.894  1.00  0.00    -0.014 A 
BRANCH  30  31
ATOM     31  C   UNL A   1      43.908  24.562  27.169  1.00  0.00     0.031 A 
ATOM     32  C   UNL A   1      42.960  25.629  27.654  1.00  0.00     0.074 A 
ATOM     33  C   UNL A   1      45.199  24.867  26.929  1.00  0.00     0.049 A 
ATOM     34  N   UNL A   1      43.175  26.907  27.843  1.00  0.00    -0.248 NA
ATOM     35  C   UNL A   1      41.580  25.206  27.939  1.00  0.00     0.031 C 
ATOM     36  C   UNL A   1      46.212  23.928  26.440  1.00  0.00     0.029 A 
ATOM     37  N   UNL A   1      45.882  26.052  27.052  1.00  0.00    -0.354 N 
ATOM     38  C   UNL A   1      41.962  27.439  28.264  1.00  0.00     0.074 A 
ATOM     39  C   UNL A   1      40.998  26.359  28.233  1.00  0.00     0.031 C 
ATOM     40  C   UNL A   1      47.389  24.567  26.335  1.00  0.00     0.029 A 
ATOM     41  C   UNL A   1      47.207  25.971  26.688  1.00  0.00     0.049 A 
ATOM     42  H   UNL A   1      45.463  26.883  27.372  1.00  0.00     0.167 HD
ATOM     43  C   UNL A   1      41.680  28.702  28.669  1.00  0.00     0.034 A 
ATOM     44  C   UNL A   1      48.161  26.921  26.627  1.00  0.00     0.034 A 
ATOM     45  C   UNL A   1      42.649  29.771  28.699  1.00  0.00     0.049 A 
ATOM     46  C   UNL A   1      47.803  28.338  27.013  1.00  0.00     0.074 A 
ATOM     47  C   UNL A   1      42.474  31.083  29.103  1.00  0.00     0.029 A 
ATOM     48  N   UNL A   1      43.977  29.652  28.306  1.00  0.00    -0.354 N 
ATOM     49  N   UNL A   1      46.655  28.817  27.432  1.00  0.00    -0.248 NA
ATOM     50  C   UNL A   1      48.875  29.339  26.927  1.00  0.00     0.031 C 
ATOM     51  C   UNL A   1      43.674  31.771  28.897  1.00  0.00     0.029 A 
ATOM     52  C   UNL A   1      44.623  30.871  28.441  1.00  0.00     0.049 A 
ATOM     53  H   UNL A   1      44.396  28.823  27.982  1.00  0.00     0.167 HD
ATOM     54  C   UNL A   1      46.883  30.164  27.704  1.00  0.00     0.074 A 
ATOM     55  C   UNL A   1      48.278  30.416  27.413  1.00  0.00     0.031 C 
ATOM     56  C   UNL A   1      46.019  31.108  28.157  1.00  0.00     0.034 A 
BRANCH  43  57
ATOM     57  C   UNL A   1      40.263  28.995  29.102  1.00  0.00     0.023 A 
ATOM     58  C   UNL A   1      39.891  28.965  30.458  1.00  0.00     0.031 A 
ATOM     59  C   UNL A   1      39.269  29.294  28.155  1.00  0.00     0.131 A 
ATOM     60  C   UNL A   1      38.550  29.161  30.822  1.00  0.00     0.055 A 
ATOM     61  C   UNL A   1      37.952  29.570  28.531  1.00  0.00     0.041 A 
ATOM     62  F   UNL A   1      39.558  29.317  26.843  1.00  0.00    -0.206 F 
ATOM     63  C   UNL A   1      37.583  29.490  29.871  1.00  0.00     0.022 A 
BRANCH  60  64
ATOM     64  S   UNL A   1      38.067  28.844  32.540  1.00  0.00     0.124 S 
ATOM     65  O   UNL A   1      39.046  29.641  33.275  1.00  0.00    -0.237 OA
ATOM     66  O   UNL A   1      36.692  29.329  32.578  1.00  0.00    -0.237 OA
ATOM     67  O   UNL A   1      38.222  27.397  32.678  1.00  0.00    -0.744 OA
ENDBRANCH  60  64
ENDBRANCH  43  57
BRANCH  44  68
ATOM     68  C   UNL A   1      49.545  26.594  26.172  1.00  0.00     0.023 A 
ATOM     69  C   UNL A   1      50.027  27.065  24.940  1.00  0.00     0.031 A 
ATOM     70  C   UNL A   1      50.376  25.737  26.915  1.00  0.00     0.131 A 
ATOM     71  C   UNL A   1      51.265  26.621  24.453  1.00  0.00     0.055 A 
ATOM     72  C   UNL A   1      51.639  25.353  26.459  1.00  0.00     0.041 A 
ATOM     73  F   UNL A   1      49.970  25.253  28.100  1.00  0.00    -0.206 F 
ATOM     74  C   UNL A   1      52.082  25.780  25.211  1.00  0.00     0.022 A 
BRANCH  71  75
ATOM     75  S   UNL A   1      51.731  27.051  22.754  1.00  0.00     0.124 S 
ATOM     76  O   UNL A   1      52.791  26.084  22.485  1.00  0.00    -0.237 OA
ATOM     77  O   UNL A   1      50.478  26.848  22.035  1.00  0.00    -0.237 OA
ATOM     78  O   UNL A   1      52.168  28.441  22.863  1.00  0.00    -0.744 OA
ENDBRANCH  71  75
ENDBRANCH  44  68
BRANCH  56  79
ATOM     79  C   UNL A   1      46.580  32.481  28.436  1.00  0.00     0.023 A 
ATOM     80  C   UNL A   1      46.784  33.425  27.414  1.00  0.00     0.031 A 
ATOM     81  C   UNL A   1      46.922  32.845  29.750  1.00  0.00     0.131 A 
ATOM     82  C   UNL A   1      47.368  34.666  27.716  1.00  0.00     0.055 A 
ATOM     83  C   UNL A   1      47.442  34.104  30.054  1.00  0.00     0.041 A 
ATOM     84  F   UNL A   1      46.752  31.983  30.766  1.00  0.00    -0.206 F 
ATOM     85  C   UNL A   1      47.681  35.017  29.032  1.00  0.00     0.022 A 
BRANCH  82  86
ATOM     86  S   UNL A   1      47.798  35.780  26.352  1.00  0.00     0.124 S 
ATOM     87  O   UNL A   1      47.825  34.871  25.211  1.00  0.00    -0.237 OA
ATOM     88  O   UNL A   1      46.699  36.741  26.375  1.00  0.00    -0.237 OA
ATOM     89  O   UNL A   1      49.098  36.320  26.746  1.00  0.00    -0.744 OA
ENDBRANCH  82  86
ENDBRANCH  56  79
ENDBRANCH  30  31
ENDBRANCH  22  25
ENDBRANCH  20  21
ENDBRANCH   1  20
TORSDOF 16
ENDMDL
MODEL 2
REMARK VINA RESULT:     -11.5      6.919     12.566
REMARK SMILES CC(C)(C[S@](=O)c1cccc(Cl)c1)C(=O)NCCCNC(=O)c1ccc(-c2c3nc(c(-c4cc(S(=O)(=O)[O-])ccc4F)c4ccc([nH]4)c(-c4cc(S(=O)(=O)[O-])ccc4F)c4nc(c(-c5cc(S(=O)(=O)[O-])ccc5F)c5ccc2[nH]5)C=C4)C=C3)cc1
REMARK SMILES IDX 18 1 17 2 16 3 14 4 15 5 2 7 1 8 3 9 4 10 5 11 6 12 7 13
REMARK SMILES IDX 8 14 13 15 9 16 11 17 10 18 12 19 19 20 20 21 21 22 22 24
REMARK SMILES IDX 23 25 24 26 85 27 25 28 84 29 26 30 27 31 28 32 78 33 29 34
REMARK SMILES IDX 83 35 77 36 79 37 30 38 82 39 76 40 75 41 31 43 63 44 43 45
REMARK SMILES IDX 62 46 44 47 47 48 61 49 80 50 45 51 46 52 60 54 81 55 48 56
REMARK SMILES IDX 32 57 33 58 41 59 34 60 40 61 42 62 39 63 35 64 36 65 37 66
REMARK SMILES IDX 38 67 64 68 65 69 73 70 66 71 72 72 74 73 71 74 67 75 68 76
REMARK SMILES IDX 69 77 70 78 49 79 50 80 58 81 51 82 57 83 59 84 56 85 52 86
REMARK SMILES IDX 53 87 54 88 55 89
REMARK H PARENT 16 6 20 23 79 42 47 53
REMARK Flexibility Score: inf
ROOT
ATOM      1  C   UNL A   1      31.531  32.083  26.854  1.00  0.00     0.042 C 
ENDROOT
BRANCH   1   2
ATOM      2  C   UNL A   1      31.628  30.575  26.684  1.00  0.00     0.117 C 
BRANCH   2   3
ATOM      3  N   UNL A   1      32.930  30.012  27.011  1.00  0.00    -0.356 N 
ATOM      4  C   UNL A   1      33.583  28.887  26.612  1.00  0.00     0.226 C 
ATOM      5  O   UNL A   1      34.793  28.845  26.860  1.00  0.00    -0.274 OA
ATOM      6  H   UNL A   1      33.443  30.557  27.651  1.00  0.00     0.163 HD
BRANCH   4   7
ATOM      7  C   UNL A   1      32.904  27.733  25.859  1.00  0.00     0.055 C 
ATOM      8  C   UNL A   1      31.656  27.236  26.626  1.00  0.00     0.022 C 
ATOM      9  C   UNL A   1      33.861  26.512  25.918  1.00  0.00     0.022 C 
BRANCH   7  10
ATOM     10  C   UNL A   1      32.548  28.057  24.399  1.00  0.00     0.126 C 
BRANCH  10  11
ATOM     11  S   UNL A   1      31.411  27.067  23.370  1.00  0.00     0.054 S 
ATOM     12  O   UNL A   1      32.031  26.943  22.011  1.00  0.00    -0.254 OA
BRANCH  11  13
ATOM     13  C   UNL A   1      29.922  28.026  23.120  1.00  0.00     0.040 A 
ATOM     14  C   UNL A   1      28.686  27.477  23.489  1.00  0.00     0.018 A 
ATOM     15  C   UNL A   1      29.955  29.271  22.488  1.00  0.00     0.038 A 
ATOM     16  C   UNL A   1      27.512  28.220  23.349  1.00  0.00     0.003 A 
ATOM     17  C   UNL A   1      28.784  30.018  22.367  1.00  0.00     0.042 A 
ATOM     18  C   UNL A   1      27.566  29.505  22.810  1.00  0.00     0.020 A 
ATOM     19  Cl  UNL A   1      28.846  31.599  21.690  1.00  0.00    -0.084 Cl
ENDBRANCH  11  13
ENDBRANCH  10  11
ENDBRANCH   7  10
ENDBRANCH   4   7
ENDBRANCH   2   3
ENDBRANCH   1   2
BRANCH   1  20
ATOM     20  C   UNL A   1      32.823  32.769  27.272  1.00  0.00     0.118 C 
BRANCH  20  21
ATOM     21  N   UNL A   1      32.612  34.149  27.693  1.00  0.00    -0.352 N 
ATOM     22  C   UNL A   1      33.164  34.865  28.726  1.00  0.00     0.251 C 
ATOM     23  H   UNL A   1      31.966  34.651  27.145  1.00  0.00     0.163 HD
ATOM     24  O   UNL A   1      32.662  35.953  29.025  1.00  0.00    -0.269 OA
BRANCH  22  25
ATOM     25  C   UNL A   1      34.321  34.350  29.492  1.00  0.00     0.039 A 
ATOM     26  C   UNL A   1      34.090  33.583  30.639  1.00  0.00     0.014 A 
ATOM     27  C   UNL A   1      35.633  34.645  29.115  1.00  0.00     0.014 A 
ATOM     28  C   UNL A   1      35.167  33.053  31.356  1.00  0.00     0.010 A 
ATOM     29  C   UNL A   1      36.703  34.044  29.776  1.00  0.00     0.010 A 
ATOM     30  C   UNL A   1      36.483  33.242  30.907  1.00  0.00    -0.014 A 
BRANCH  30  31
ATOM     31  C   UNL A   1      37.645  32.627  31.606  1.00  0.00     0.031 A 
ATOM     32  C   UNL A   1      38.359  31.451  30.989  1.00  0.00     0.074 A 
ATOM     33  C   UNL A   1      38.021  33.083  32.818  1.00  0.00     0.049 A 
ATOM     34  N   UNL A   1      39.315  30.707  31.486  1.00  0.00    -0.248 NA
ATOM     35  C   UNL A   1      37.921  31.045  29.645  1.00  0.00     0.031 C 
ATOM     36  C   UNL A   1      37.398  34.202  33.530  1.00  0.00     0.029 A 
ATOM     37  N   UNL A   1      39.010  32.660  33.671  1.00  0.00    -0.354 N 
ATOM     38  C   UNL A   1      39.589  29.745  30.520  1.00  0.00     0.074 A 
ATOM     39  C   UNL A   1      38.649  29.958  29.439  1.00  0.00     0.031 C 
ATOM     40  C   UNL A   1      38.039  34.392  34.696  1.00  0.00     0.029 A 
ATOM     41  C   UNL A   1      39.076  33.376  34.845  1.00  0.00     0.049 A 
ATOM     42  H   UNL A   1      39.616  31.913  33.463  1.00  0.00     0.167 HD
ATOM     43  C   UNL A   1      40.553  28.792  30.517  1.00  0.00     0.034 A 
ATOM     44  C   UNL A   1      39.867  33.222  35.925  1.00  0.00     0.034 A 
ATOM     45  C   UNL A   1      41.487  28.590  31.598  1.00  0.00     0.049 A 
ATOM     46  C   UNL A   1      40.886  32.105  35.928  1.00  0.00     0.074 A 
ATOM     47  C   UNL A   1      42.511  27.664  31.693  1.00  0.00     0.029 A 
ATOM     48  N   UNL A   1      41.510  29.327  32.777  1.00  0.00    -0.354 N 
ATOM     49  N   UNL A   1      41.146  31.220  34.994  1.00  0.00    -0.248 NA
ATOM     50  C   UNL A   1      41.723  31.974  37.129  1.00  0.00     0.031 C 
ATOM     51  C   UNL A   1      43.111  27.797  32.949  1.00  0.00     0.029 A 
ATOM     52  C   UNL A   1      42.517  28.860  33.608  1.00  0.00     0.049 A 
ATOM     53  H   UNL A   1      40.902  30.071  32.989  1.00  0.00     0.167 HD
ATOM     54  C   UNL A   1      42.208  30.459  35.479  1.00  0.00     0.074 A 
ATOM     55  C   UNL A   1      42.546  30.998  36.779  1.00  0.00     0.031 C 
ATOM     56  C   UNL A   1      42.851  29.414  34.899  1.00  0.00     0.034 A 
BRANCH  43  57
ATOM     57  C   UNL A   1      40.636  27.889  29.309  1.00  0.00     0.023 A 
ATOM     58  C   UNL A   1      41.584  28.111  28.293  1.00  0.00     0.031 A 
ATOM     59  C   UNL A   1      39.755  26.805  29.160  1.00  0.00     0.131 A 
ATOM     60  C   UNL A   1      41.582  27.305  27.145  1.00  0.00     0.055 A 
ATOM     61  C   UNL A   1      39.813  25.956  28.052  1.00  0.00     0.041 A 
ATOM     62  F   UNL A   1      38.815  26.554  30.085  1.00  0.00    -0.206 F 
ATOM     63  C   UNL A   1      40.722  26.213  27.029  1.00  0.00     0.022 A 
BRANCH  60  64
ATOM     64  S   UNL A   1      42.630  27.792  25.747  1.00  0.00     0.124 S 
ATOM     65  O   UNL A   1      42.204  29.172  25.526  1.00  0.00    -0.237 OA
ATOM     66  O   UNL A   1      43.975  27.617  26.283  1.00  0.00    -0.237 OA
ATOM     67  O   UNL A   1      42.252  26.853  24.693  1.00  0.00    -0.744 OA
ENDBRANCH  60  64
ENDBRANCH  43  57
BRANCH  44  68
ATOM     68  C   UNL A   1      39.738  34.123  37.109  1.00  0.00     0.023 A 
ATOM     69  C   UNL A   1      39.184  33.654  38.312  1.00  0.00     0.031 A 
ATOM     70  C   UNL A   1      40.082  35.484  37.034  1.00  0.00     0.131 A 
ATOM     71  C   UNL A   1      38.922  34.548  39.360  1.00  0.00     0.055 A 
ATOM     72  C   UNL A   1      39.885  36.357  38.106  1.00  0.00     0.041 A 
ATOM     73  F   UNL A   1      40.615  35.991  35.910  1.00  0.00    -0.206 F 
ATOM     74  C   UNL A   1      39.282  35.894  39.272  1.00  0.00     0.022 A 
BRANCH  71  75
ATOM     75  S   UNL A   1      37.977  33.953  40.789  1.00  0.00     0.124 S 
ATOM     76  O   UNL A   1      37.530  35.205  41.390  1.00  0.00    -0.237 OA
ATOM     77  O   UNL A   1      36.946  33.139  40.154  1.00  0.00    -0.237 OA
ATOM     78  O   UNL A   1      38.968  33.208  41.565  1.00  0.00    -0.744 OA
ENDBRANCH  71  75
ENDBRANCH  44  68
BRANCH  56  79
ATOM     79  C   UNL A   1      44.032  28.834  35.640  1.00  0.00     0.023 A 
ATOM     80  C   UNL A   1      43.899  27.749  36.523  1.00  0.00     0.031 A 
ATOM     81  C   UNL A   1      45.313  29.385  35.458  1.00  0.00     0.131 A 
ATOM     82  C   UNL A   1      45.017  27.287  37.236  1.00  0.00     0.055 A 
ATOM     83  C   UNL A   1      46.432  28.880  36.120  1.00  0.00     0.041 A 
ATOM     84  F   UNL A   1      45.499  30.424  34.628  1.00  0.00    -0.206 F 
ATOM     85  C   UNL A   1      46.285  27.834  37.026  1.00  0.00     0.022 A 
BRANCH  82  86
ATOM     86  S   UNL A   1      44.775  26.020  38.511  1.00  0.00     0.124 S 
ATOM     87  O   UNL A   1      46.136  25.805  38.990  1.00  0.00    -0.237 OA
ATOM     88  O   UNL A   1      43.868  26.682  39.443  1.00  0.00    -0.237 OA
ATOM     89  O   UNL A   1      44.192  24.899  37.774  1.00  0.00    -0.744 OA
ENDBRANCH  82  86
ENDBRANCH  56  79
ENDBRANCH  30  31
ENDBRANCH  22  25
ENDBRANCH  20  21
ENDBRANCH   1  20
TORSDOF 16
ENDMDL
MODEL 3
REMARK VINA RESULT:     -11.4      6.457     11.880
REMARK SMILES CC(C)(C[S@](=O)c1cccc(Cl)c1)C(=O)NCCCNC(=O)c1ccc(-c2c3nc(c(-c4cc(S(=O)(=O)[O-])ccc4F)c4ccc([nH]4)c(-c4cc(S(=O)(=O)[O-])ccc4F)c4nc(c(-c5cc(S(=O)(=O)[O-])ccc5F)c5ccc2[nH]5)C=C4)C=C3)cc1
REMARK SMILES IDX 18 1 17 2 16 3 14 4 15 5 2 7 1 8 3 9 4 10 5 11 6 12 7 13
REMARK SMILES IDX 8 14 13 15 9 16 11 17 10 18 12 19 19 20 20 21 21 22 22 24
REMARK SMILES IDX 23 25 24 26 85 27 25 28 84 29 26 30 27 31 28 32 78 33 29 34
REMARK SMILES IDX 83 35 77 36 79 37 30 38 82 39 76 40 75 41 31 43 63 44 43 45
REMARK SMILES IDX 62 46 44 47 47 48 61 49 80 50 45 51 46 52 60 54 81 55 48 56
REMARK SMILES IDX 32 57 33 58 41 59 34 60 40 61 42 62 39 63 35 64 36 65 37 66
REMARK SMILES IDX 38 67 64 68 65 69 73 70 66 71 72 72 74 73 71 74 67 75 68 76
REMARK SMILES IDX 69 77 70 78 49 79 50 80 58 81 51 82 57 83 59 84 56 85 52 86
REMARK SMILES IDX 53 87 54 88 55 89
REMARK H PARENT 16 6 20 23 79 42 47 53
REMARK Flexibility Score: inf
ROOT
ATOM      1  C   UNL A   1      31.426  31.870  26.570  1.00  0.00     0.042 C 
ENDROOT
BRANCH   1   2
ATOM      2  C   UNL A   1      31.610  30.521  25.893  1.00  0.00     0.117 C 
BRANCH   2   3
ATOM      3  N   UNL A   1      30.858  30.357  24.657  1.00  0.00    -0.356 N 
ATOM      4  C   UNL A   1      30.608  29.286  23.856  1.00  0.00     0.226 C 
ATOM      5  O   UNL A   1      29.697  29.425  23.033  1.00  0.00    -0.274 OA
ATOM      6  H   UNL A   1      30.446  31.192  24.335  1.00  0.00     0.163 HD
BRANCH   4   7
ATOM      7  C   UNL A   1      31.358  27.950  23.966  1.00  0.00     0.055 C 
ATOM      8  C   UNL A   1      32.878  28.157  23.763  1.00  0.00     0.022 C 
ATOM      9  C   UNL A   1      30.955  27.089  22.739  1.00  0.00     0.022 C 
BRANCH   7  10
ATOM     10  C   UNL A   1      31.087  27.180  25.268  1.00  0.00     0.126 C 
BRANCH  10  11
ATOM     11  S   UNL A   1      30.316  25.527  25.347  1.00  0.00     0.054 S 
ATOM     12  O   UNL A   1      29.615  25.423  26.668  1.00  0.00    -0.254 OA
BRANCH  11  13
ATOM     13  C   UNL A   1      31.629  24.314  25.418  1.00  0.00     0.040 A 
ATOM     14  C   UNL A   1      31.299  22.954  25.500  1.00  0.00     0.018 A 
ATOM     15  C   UNL A   1      32.971  24.695  25.481  1.00  0.00     0.038 A 
ATOM     16  C   UNL A   1      32.302  21.982  25.509  1.00  0.00     0.003 A 
ATOM     17  C   UNL A   1      33.970  23.722  25.471  1.00  0.00     0.042 A 
ATOM     18  C   UNL A   1      33.641  22.368  25.468  1.00  0.00     0.020 A 
ATOM     19  Cl  UNL A   1      35.624  24.197  25.435  1.00  0.00    -0.084 Cl
ENDBRANCH  11  13
ENDBRANCH  10  11
ENDBRANCH   7  10
ENDBRANCH   4   7
ENDBRANCH   2   3
ENDBRANCH   1   2
BRANCH   1  20
ATOM     20  C   UNL A   1      32.675  32.437  27.229  1.00  0.00     0.118 C 
BRANCH  20  21
ATOM     21  N   UNL A   1      32.545  33.854  27.547  1.00  0.00    -0.352 N 
ATOM     22  C   UNL A   1      33.166  34.618  28.503  1.00  0.00     0.251 C 
ATOM     23  H   UNL A   1      31.904  34.345  26.982  1.00  0.00     0.163 HD
ATOM     24  O   UNL A   1      32.727  35.749  28.732  1.00  0.00    -0.269 OA
BRANCH  22  25
ATOM     25  C   UNL A   1      34.324  34.105  29.270  1.00  0.00     0.039 A 
ATOM     26  C   UNL A   1      34.094  33.306  30.395  1.00  0.00     0.014 A 
ATOM     27  C   UNL A   1      35.635  34.433  28.916  1.00  0.00     0.014 A 
ATOM     28  C   UNL A   1      35.173  32.779  31.112  1.00  0.00     0.010 A 
ATOM     29  C   UNL A   1      36.707  33.836  29.575  1.00  0.00     0.010 A 
ATOM     30  C   UNL A   1      36.490  33.003  30.683  1.00  0.00    -0.014 A 
BRANCH  30  31
ATOM     31  C   UNL A   1      37.655  32.392  31.381  1.00  0.00     0.031 A 
ATOM     32  C   UNL A   1      38.390  31.238  30.749  1.00  0.00     0.074 A 
ATOM     33  C   UNL A   1      38.014  32.832  32.604  1.00  0.00     0.049 A 
ATOM     34  N   UNL A   1      39.353  30.499  31.241  1.00  0.00    -0.248 NA
ATOM     35  C   UNL A   1      37.970  30.850  29.394  1.00  0.00     0.031 C 
ATOM     36  C   UNL A   1      37.370  33.928  33.331  1.00  0.00     0.029 A 
ATOM     37  N   UNL A   1      39.003  32.407  33.457  1.00  0.00    -0.354 N 
ATOM     38  C   UNL A   1      39.649  29.558  30.260  1.00  0.00     0.074 A 
ATOM     39  C   UNL A   1      38.715  29.777  29.175  1.00  0.00     0.031 C 
ATOM     40  C   UNL A   1      37.998  34.106  34.505  1.00  0.00     0.029 A 
ATOM     41  C   UNL A   1      39.049  33.104  34.644  1.00  0.00     0.049 A 
ATOM     42  H   UNL A   1      39.621  31.673  33.241  1.00  0.00     0.167 HD
ATOM     43  C   UNL A   1      40.627  28.619  30.248  1.00  0.00     0.034 A 
ATOM     44  C   UNL A   1      39.834  32.941  35.728  1.00  0.00     0.034 A 
ATOM     45  C   UNL A   1      41.555  28.411  31.333  1.00  0.00     0.049 A 
ATOM     46  C   UNL A   1      40.868  31.839  35.720  1.00  0.00     0.074 A 
ATOM     47  C   UNL A   1      42.592  27.499  31.420  1.00  0.00     0.029 A 
ATOM     48  N   UNL A   1      41.558  29.127  32.524  1.00  0.00    -0.354 N 
ATOM     49  N   UNL A   1      41.149  30.975  34.772  1.00  0.00    -0.248 NA
ATOM     50  C   UNL A   1      41.697  31.699  36.924  1.00  0.00     0.031 C 
ATOM     51  C   UNL A   1      43.180  27.618  32.682  1.00  0.00     0.029 A 
ATOM     52  C   UNL A   1      42.565  28.660  33.356  1.00  0.00     0.049 A 
ATOM     53  H   UNL A   1      40.938  29.858  32.744  1.00  0.00     0.167 HD
ATOM     54  C   UNL A   1      42.218  30.221  35.252  1.00  0.00     0.074 A 
ATOM     55  C   UNL A   1      42.537  30.741  36.564  1.00  0.00     0.031 C 
ATOM     56  C   UNL A   1      42.881  29.195  34.659  1.00  0.00     0.034 A 
BRANCH  43  57
ATOM     57  C   UNL A   1      40.733  27.740  29.024  1.00  0.00     0.023 A 
ATOM     58  C   UNL A   1      41.668  28.008  28.008  1.00  0.00     0.031 A 
ATOM     59  C   UNL A   1      39.886  26.631  28.861  1.00  0.00     0.131 A 
ATOM     60  C   UNL A   1      41.687  27.222  26.847  1.00  0.00     0.055 A 
ATOM     61  C   UNL A   1      39.966  25.802  27.739  1.00  0.00     0.041 A 
ATOM     62  F   UNL A   1      38.959  26.335  29.786  1.00  0.00    -0.206 F 
ATOM     63  C   UNL A   1      40.861  26.104  26.717  1.00  0.00     0.022 A 
BRANCH  60  64
ATOM     64  S   UNL A   1      42.712  27.765  25.453  1.00  0.00     0.124 S 
ATOM     65  O   UNL A   1      43.908  28.248  26.137  1.00  0.00    -0.237 OA
ATOM     66  O   UNL A   1      42.870  26.538  24.680  1.00  0.00    -0.237 OA
ATOM     67  O   UNL A   1      41.903  28.803  24.817  1.00  0.00    -0.744 OA
ENDBRANCH  60  64
ENDBRANCH  43  57
BRANCH  44  68
ATOM     68  C   UNL A   1      39.682  33.818  36.927  1.00  0.00     0.023 A 
ATOM     69  C   UNL A   1      40.564  34.888  37.150  1.00  0.00     0.031 A 
ATOM     70  C   UNL A   1      38.713  33.553  37.910  1.00  0.00     0.131 A 
ATOM     71  C   UNL A   1      40.510  35.603  38.355  1.00  0.00     0.055 A 
ATOM     72  C   UNL A   1      38.617  34.313  39.078  1.00  0.00     0.041 A 
ATOM     73  F   UNL A   1      37.842  32.543  37.753  1.00  0.00    -0.206 F 
ATOM     74  C   UNL A   1      39.532  35.334  39.315  1.00  0.00     0.022 A 
BRANCH  71  75
ATOM     75  S   UNL A   1      41.823  36.803  38.710  1.00  0.00     0.124 S 
ATOM     76  O   UNL A   1      42.607  36.094  39.716  1.00  0.00    -0.237 OA
ATOM     77  O   UNL A   1      42.449  36.962  37.402  1.00  0.00    -0.237 OA
ATOM     78  O   UNL A   1      41.094  37.972  39.197  1.00  0.00    -0.744 OA
ENDBRANCH  71  75
ENDBRANCH  44  68
BRANCH  56  79
ATOM     79  C   UNL A   1      44.064  28.619  35.399  1.00  0.00     0.023 A 
ATOM     80  C   UNL A   1      43.931  27.547  36.298  1.00  0.00     0.031 A 
ATOM     81  C   UNL A   1      45.346  29.161  35.201  1.00  0.00     0.131 A 
ATOM     82  C   UNL A   1      45.052  27.089  37.009  1.00  0.00     0.055 A 
ATOM     83  C   UNL A   1      46.468  28.658  35.861  1.00  0.00     0.041 A 
ATOM     84  F   UNL A   1      45.532  30.188  34.355  1.00  0.00    -0.206 F 
ATOM     85  C   UNL A   1      46.322  27.626  36.782  1.00  0.00     0.022 A 
BRANCH  82  86
ATOM     86  S   UNL A   1      44.813  25.841  38.303  1.00  0.00     0.124 S 
ATOM     87  O   UNL A   1      44.266  26.637  39.397  1.00  0.00    -0.237 OA
ATOM     88  O   UNL A   1      43.887  24.907  37.670  1.00  0.00    -0.237 OA
ATOM     89  O   UNL A   1      46.159  25.318  38.529  1.00  0.00    -0.744 OA
ENDBRANCH  82  86
ENDBRANCH  56  79
ENDBRANCH  30  31
ENDBRANCH  22  25
ENDBRANCH  20  21
ENDBRANCH   1  20
TORSDOF 16
ENDMDL
