MODEL 1
REMARK VINA RESULT:     -12.8      0.000      0.000
REMARK SMILES O=C(CS[C@H](C(=O)Nc1ccc(C(F)(F)F)cc1)c1ccccc1)NCCCNC(=O)c1ccc(-c2c3nc(c(-c4cc(S(=O)(=O)[O-])ccc4F)c4ccc([nH]4)c(-c4cc(S(=O)(=O)[O-])ccc4F)c4nc(c(-c5cc(S(=O)(=O)[O-])ccc5F)c5ccc2[nH]5)C=C4)C=C3)cc1
REMARK SMILES IDX 26 1 25 2 1 3 2 4 3 6 4 7 5 8 19 9 20 10 24 11 21 12 23 13
REMARK SMILES IDX 22 14 6 15 7 16 8 17 9 19 10 20 18 21 11 22 17 23 12 24
REMARK SMILES IDX 13 25 14 26 15 27 16 28 27 29 28 30 29 31 30 32 31 34 32 35
REMARK SMILES IDX 33 36 94 37 34 38 93 39 35 40 36 41 37 42 87 43 38 44 92 45
REMARK SMILES IDX 86 46 88 47 39 48 91 49 85 50 84 51 40 53 72 54 52 55 71 56
REMARK SMILES IDX 53 57 56 58 70 59 89 60 54 61 55 62 69 64 90 65 57 66 41 67
REMARK SMILES IDX 42 68 50 69 43 70 49 71 51 72 48 73 44 74 45 75 46 76 47 77
REMARK SMILES IDX 73 78 74 79 82 80 75 81 81 82 83 83 80 84 76 85 77 86 78 87
REMARK SMILES IDX 79 88 58 89 59 90 67 91 60 92 66 93 68 94 65 95 61 96 62 97
REMARK SMILES IDX 63 98 64 99
REMARK H PARENT 25 5 8 18 29 33 88 52 56 63
REMARK Flexibility Score: inf
ROOT
ATOM      1  C   UNL A   1      31.821  29.240  24.346  1.00  0.00     0.117 C 
ENDROOT
BRANCH   1   2
ATOM      2  N   UNL A   1      31.146  27.977  24.596  1.00  0.00    -0.355 N 
ATOM      3  O   UNL A   1      29.640  28.259  22.895  1.00  0.00    -0.274 OA
ATOM      4  C   UNL A   1      30.104  27.555  23.790  1.00  0.00     0.230 C 
ATOM      5  H   UNL A   1      31.433  27.413  25.351  1.00  0.00     0.163 HD
BRANCH   4   6
ATOM      6  C   UNL A   1      29.573  26.165  24.103  1.00  0.00     0.170 C 
BRANCH   6   7
ATOM      7  S   UNL A   1      30.030  25.585  25.774  1.00  0.00    -0.134 SA
BRANCH   7   8
ATOM      8  C   UNL A   1      30.785  23.906  25.457  1.00  0.00     0.166 C 
BRANCH   8   9
ATOM      9  C   UNL A   1      31.819  23.877  24.331  1.00  0.00    -0.026 A 
ATOM     10  C   UNL A   1      31.765  22.862  23.352  1.00  0.00     0.005 A 
ATOM     11  C   UNL A   1      32.848  24.828  24.195  1.00  0.00     0.005 A 
ATOM     12  C   UNL A   1      32.761  22.740  22.372  1.00  0.00     0.000 A 
ATOM     13  C   UNL A   1      33.841  24.710  23.219  1.00  0.00     0.000 A 
ATOM     14  C   UNL A   1      33.811  23.652  22.320  1.00  0.00     0.000 A 
ENDBRANCH   8   9
BRANCH   8  15
ATOM     15  C   UNL A   1      30.920  23.097  26.786  1.00  0.00     0.242 C 
ATOM     16  O   UNL A   1      29.971  23.110  27.593  1.00  0.00    -0.273 OA
ATOM     17  N   UNL A   1      31.917  22.239  27.144  1.00  0.00    -0.325 N 
ATOM     18  H   UNL A   1      31.660  21.619  27.865  1.00  0.00     0.169 HD
BRANCH  17  19
ATOM     19  C   UNL A   1      33.226  22.059  26.700  1.00  0.00     0.041 A 
ATOM     20  C   UNL A   1      33.537  20.918  25.955  1.00  0.00     0.027 A 
ATOM     21  C   UNL A   1      34.226  22.976  26.969  1.00  0.00     0.027 A 
ATOM     22  C   UNL A   1      34.774  20.825  25.304  1.00  0.00     0.015 A 
ATOM     23  C   UNL A   1      35.447  22.901  26.307  1.00  0.00     0.015 A 
ATOM     24  C   UNL A   1      35.715  21.856  25.421  1.00  0.00     0.056 A 
BRANCH  24  25
ATOM     25  C   UNL A   1      36.957  21.889  24.562  1.00  0.00     0.416 C 
ATOM     26  F   UNL A   1      36.728  22.220  23.265  1.00  0.00    -0.166 F 
ATOM     27  F   UNL A   1      37.846  22.819  25.028  1.00  0.00    -0.166 F 
ATOM     28  F   UNL A   1      37.654  20.716  24.557  1.00  0.00    -0.166 F 
ENDBRANCH  24  25
ENDBRANCH  17  19
ENDBRANCH   8  15
ENDBRANCH   7   8
ENDBRANCH   6   7
ENDBRANCH   4   6
ENDBRANCH   1   2
BRANCH   1  29
ATOM     29  C   UNL A   1      31.406  30.358  25.301  1.00  0.00     0.042 C 
BRANCH  29  30
ATOM     30  C   UNL A   1      32.117  30.337  26.653  1.00  0.00     0.118 C 
BRANCH  30  31
ATOM     31  N   UNL A   1      32.299  31.661  27.212  1.00  0.00    -0.352 N 
ATOM     32  C   UNL A   1      33.406  32.309  27.702  1.00  0.00     0.251 C 
ATOM     33  H   UNL A   1      31.474  32.197  27.249  1.00  0.00     0.163 HD
ATOM     34  O   UNL A   1      33.233  33.459  28.112  1.00  0.00    -0.269 OA
BRANCH  32  35
ATOM     35  C   UNL A   1      34.748  31.680  27.830  1.00  0.00     0.039 A 
ATOM     36  C   UNL A   1      35.833  32.557  27.985  1.00  0.00     0.014 A 
ATOM     37  C   UNL A   1      34.980  30.305  27.894  1.00  0.00     0.014 A 
ATOM     38  C   UNL A   1      37.079  32.076  28.377  1.00  0.00     0.010 A 
ATOM     39  C   UNL A   1      36.206  29.822  28.356  1.00  0.00     0.010 A 
ATOM     40  C   UNL A   1      37.235  30.716  28.669  1.00  0.00    -0.014 A 
BRANCH  40  41
ATOM     41  C   UNL A   1      38.393  30.274  29.478  1.00  0.00     0.031 A 
ATOM     42  C   UNL A   1      38.589  30.764  30.876  1.00  0.00     0.074 A 
ATOM     43  C   UNL A   1      39.269  29.434  28.889  1.00  0.00     0.049 A 
ATOM     44  N   UNL A   1      39.518  30.448  31.736  1.00  0.00    -0.248 NA
ATOM     45  C   UNL A   1      37.623  31.759  31.362  1.00  0.00     0.031 C 
ATOM     46  C   UNL A   1      39.168  28.960  27.503  1.00  0.00     0.029 A 
ATOM     47  N   UNL A   1      40.392  28.810  29.364  1.00  0.00    -0.354 N 
ATOM     48  C   UNL A   1      39.251  31.198  32.875  1.00  0.00     0.074 A 
ATOM     49  C   UNL A   1      38.102  32.025  32.569  1.00  0.00     0.031 C 
ATOM     50  C   UNL A   1      40.146  28.075  27.262  1.00  0.00     0.029 A 
ATOM     51  C   UNL A   1      40.973  27.953  28.454  1.00  0.00     0.049 A 
ATOM     52  H   UNL A   1      40.750  28.960  30.268  1.00  0.00     0.167 HD
ATOM     53  C   UNL A   1      39.905  31.179  34.064  1.00  0.00     0.034 A 
ATOM     54  C   UNL A   1      42.048  27.152  28.577  1.00  0.00     0.034 A 
ATOM     55  C   UNL A   1      41.072  30.358  34.302  1.00  0.00     0.049 A 
ATOM     56  C   UNL A   1      42.743  27.137  29.912  1.00  0.00     0.074 A 
ATOM     57  C   UNL A   1      41.855  30.265  35.439  1.00  0.00     0.029 A 
ATOM     58  N   UNL A   1      41.630  29.487  33.367  1.00  0.00    -0.354 N 
ATOM     59  N   UNL A   1      42.464  27.832  30.994  1.00  0.00    -0.248 NA
ATOM     60  C   UNL A   1      43.877  26.221  30.055  1.00  0.00     0.031 C 
ATOM     61  C   UNL A   1      42.911  29.382  35.173  1.00  0.00     0.029 A 
ATOM     62  C   UNL A   1      42.750  28.863  33.897  1.00  0.00     0.049 A 
ATOM     63  H   UNL A   1      41.278  29.335  32.461  1.00  0.00     0.167 HD
ATOM     64  C   UNL A   1      43.378  27.422  31.956  1.00  0.00     0.074 A 
ATOM     65  C   UNL A   1      44.190  26.392  31.330  1.00  0.00     0.031 C 
ATOM     66  C   UNL A   1      43.545  27.854  33.233  1.00  0.00     0.034 A 
BRANCH  53  67
ATOM     67  C   UNL A   1      39.396  32.110  35.142  1.00  0.00     0.023 A 
ATOM     68  C   UNL A   1      39.866  33.432  35.255  1.00  0.00     0.031 A 
ATOM     69  C   UNL A   1      38.498  31.652  36.123  1.00  0.00     0.131 A 
ATOM     70  C   UNL A   1      39.519  34.210  36.373  1.00  0.00     0.055 A 
ATOM     71  C   UNL A   1      38.085  32.463  37.184  1.00  0.00     0.041 A 
ATOM     72  F   UNL A   1      38.030  30.394  36.087  1.00  0.00    -0.206 F 
ATOM     73  C   UNL A   1      38.612  33.743  37.325  1.00  0.00     0.022 A 
BRANCH  70  74
ATOM     74  S   UNL A   1      40.410  35.766  36.655  1.00  0.00     0.124 S 
ATOM     75  O   UNL A   1      41.767  35.406  36.248  1.00  0.00    -0.237 OA
ATOM     76  O   UNL A   1      39.706  36.697  35.781  1.00  0.00    -0.237 OA
ATOM     77  O   UNL A   1      40.240  36.004  38.087  1.00  0.00    -0.744 OA
ENDBRANCH  70  74
ENDBRANCH  53  67
BRANCH  54  78
ATOM     78  C   UNL A   1      42.510  26.306  27.435  1.00  0.00     0.023 A 
ATOM     79  C   UNL A   1      42.131  24.958  27.319  1.00  0.00     0.031 A 
ATOM     80  C   UNL A   1      43.355  26.833  26.440  1.00  0.00     0.131 A 
ATOM     81  C   UNL A   1      42.624  24.177  26.261  1.00  0.00     0.055 A 
ATOM     82  C   UNL A   1      43.798  26.067  25.360  1.00  0.00     0.041 A 
ATOM     83  F   UNL A   1      43.746  28.117  26.491  1.00  0.00    -0.206 F 
ATOM     84  C   UNL A   1      43.444  24.726  25.272  1.00  0.00     0.022 A 
BRANCH  81  85
ATOM     85  S   UNL A   1      42.247  22.401  26.234  1.00  0.00     0.124 S 
ATOM     86  O   UNL A   1      43.110  21.928  25.158  1.00  0.00    -0.237 OA
ATOM     87  O   UNL A   1      42.621  21.993  27.584  1.00  0.00    -0.237 OA
ATOM     88  O   UNL A   1      40.815  22.362  25.948  1.00  0.00    -0.744 OA
ENDBRANCH  81  85
ENDBRANCH  54  78
BRANCH  66  89
ATOM     89  C   UNL A   1      44.633  27.174  34.024  1.00  0.00     0.023 A 
ATOM     90  C   UNL A   1      44.368  26.043  34.816  1.00  0.00     0.031 A 
ATOM     91  C   UNL A   1      45.936  27.698  34.030  1.00  0.00     0.131 A 
ATOM     92  C   UNL A   1      45.367  25.528  35.651  1.00  0.00     0.055 A 
ATOM     93  C   UNL A   1      46.948  27.134  34.807  1.00  0.00     0.041 A 
ATOM     94  F   UNL A   1      46.243  28.778  33.293  1.00  0.00    -0.206 F 
ATOM     95  C   UNL A   1      46.661  26.054  35.639  1.00  0.00     0.022 A 
BRANCH  92  96
ATOM     96  S   UNL A   1      44.914  24.251  36.856  1.00  0.00     0.124 S 
ATOM     97  O   UNL A   1      43.791  24.875  37.549  1.00  0.00    -0.237 OA
ATOM     98  O   UNL A   1      44.583  23.117  35.999  1.00  0.00    -0.237 OA
ATOM     99  O   UNL A   1      46.125  24.090  37.658  1.00  0.00    -0.744 OA
ENDBRANCH  92  96
ENDBRANCH  66  89
ENDBRANCH  40  41
ENDBRANCH  32  35
ENDBRANCH  30  31
ENDBRANCH  29  30
ENDBRANCH   1  29
TORSDOF 19
ENDMDL
MODEL 2
REMARK VINA RESULT:     -11.9      5.088      8.190
REMARK SMILES O=C(CS[C@H](C(=O)Nc1ccc(C(F)(F)F)cc1)c1ccccc1)NCCCNC(=O)c1ccc(-c2c3nc(c(-c4cc(S(=O)(=O)[O-])ccc4F)c4ccc([nH]4)c(-c4cc(S(=O)(=O)[O-])ccc4F)c4nc(c(-c5cc(S(=O)(=O)[O-])ccc5F)c5ccc2[nH]5)C=C4)C=C3)cc1
REMARK SMILES IDX 26 1 25 2 1 3 2 4 3 6 4 7 5 8 19 9 20 10 24 11 21 12 23 13
REMARK SMILES IDX 22 14 6 15 7 16 8 17 9 19 10 20 18 21 11 22 17 23 12 24
REMARK SMILES IDX 13 25 14 26 15 27 16 28 27 29 28 30 29 31 30 32 31 34 32 35
REMARK SMILES IDX 33 36 94 37 34 38 93 39 35 40 36 41 37 42 87 43 38 44 92 45
REMARK SMILES IDX 86 46 88 47 39 48 91 49 85 50 84 51 40 53 72 54 52 55 71 56
REMARK SMILES IDX 53 57 56 58 70 59 89 60 54 61 55 62 69 64 90 65 57 66 41 67
REMARK SMILES IDX 42 68 50 69 43 70 49 71 51 72 48 73 44 74 45 75 46 76 47 77
REMARK SMILES IDX 73 78 74 79 82 80 75 81 81 82 83 83 80 84 76 85 77 86 78 87
REMARK SMILES IDX 79 88 58 89 59 90 67 91 60 92 66 93 68 94 65 95 61 96 62 97
REMARK SMILES IDX 63 98 64 99
REMARK H PARENT 25 5 8 18 29 33 88 52 56 63
REMARK Flexibility Score: inf
ROOT
ATOM      1  C   UNL A   1      34.943  20.106  25.067  1.00  0.00     0.117 C 
ENDROOT
BRANCH   1   2
ATOM      2  N   UNL A   1      34.240  21.286  25.545  1.00  0.00    -0.355 N 
ATOM      3  O   UNL A   1      32.170  20.324  25.361  1.00  0.00    -0.274 OA
ATOM      4  C   UNL A   1      32.865  21.279  25.703  1.00  0.00     0.230 C 
ATOM      5  H   UNL A   1      34.748  22.102  25.759  1.00  0.00     0.163 HD
BRANCH   4   6
ATOM      6  C   UNL A   1      32.284  22.542  26.316  1.00  0.00     0.170 C 
BRANCH   6   7
ATOM      7  S   UNL A   1      33.398  23.984  26.175  1.00  0.00    -0.134 SA
BRANCH   7   8
ATOM      8  C   UNL A   1      32.302  25.306  25.438  1.00  0.00     0.166 C 
BRANCH   8   9
ATOM      9  C   UNL A   1      32.471  26.691  26.063  1.00  0.00    -0.026 A 
ATOM     10  C   UNL A   1      33.712  27.355  25.978  1.00  0.00     0.005 A 
ATOM     11  C   UNL A   1      31.436  27.373  26.733  1.00  0.00     0.005 A 
ATOM     12  C   UNL A   1      33.934  28.575  26.634  1.00  0.00     0.000 A 
ATOM     13  C   UNL A   1      31.653  28.589  27.386  1.00  0.00     0.000 A 
ATOM     14  C   UNL A   1      32.909  29.180  27.358  1.00  0.00     0.000 A 
ENDBRANCH   8   9
BRANCH   8  15
ATOM     15  C   UNL A   1      32.082  25.059  23.912  1.00  0.00     0.242 C 
ATOM     16  O   UNL A   1      32.644  24.085  23.377  1.00  0.00    -0.273 OA
ATOM     17  N   UNL A   1      31.224  25.709  23.076  1.00  0.00    -0.325 N 
ATOM     18  H   UNL A   1      31.023  25.207  22.253  1.00  0.00     0.169 HD
BRANCH  17  19
ATOM     19  C   UNL A   1      30.570  26.938  23.146  1.00  0.00     0.041 A 
ATOM     20  C   UNL A   1      31.295  28.105  22.894  1.00  0.00     0.027 A 
ATOM     21  C   UNL A   1      29.224  27.038  23.453  1.00  0.00     0.027 A 
ATOM     22  C   UNL A   1      30.623  29.323  22.730  1.00  0.00     0.015 A 
ATOM     23  C   UNL A   1      28.548  28.239  23.268  1.00  0.00     0.015 A 
ATOM     24  C   UNL A   1      29.228  29.383  22.848  1.00  0.00     0.056 A 
BRANCH  24  25
ATOM     25  C   UNL A   1      28.458  30.625  22.462  1.00  0.00     0.416 C 
ATOM     26  F   UNL A   1      27.556  30.432  21.466  1.00  0.00    -0.166 F 
ATOM     27  F   UNL A   1      27.737  31.100  23.524  1.00  0.00    -0.166 F 
ATOM     28  F   UNL A   1      29.251  31.670  22.086  1.00  0.00    -0.166 F 
ENDBRANCH  24  25
ENDBRANCH  17  19
ENDBRANCH   8  15
ENDBRANCH   7   8
ENDBRANCH   6   7
ENDBRANCH   4   6
ENDBRANCH   1   2
BRANCH   1  29
ATOM     29  C   UNL A   1      36.348  20.399  24.544  1.00  0.00     0.042 C 
BRANCH  29  30
ATOM     30  C   UNL A   1      37.241  21.171  25.513  1.00  0.00     0.118 C 
BRANCH  30  31
ATOM     31  N   UNL A   1      38.585  20.634  25.588  1.00  0.00    -0.352 N 
ATOM     32  C   UNL A   1      39.740  21.120  26.150  1.00  0.00     0.251 C 
ATOM     33  H   UNL A   1      38.691  19.757  25.152  1.00  0.00     0.163 HD
ATOM     34  O   UNL A   1      40.743  20.408  26.047  1.00  0.00    -0.269 OA
BRANCH  32  35
ATOM     35  C   UNL A   1      39.855  22.458  26.789  1.00  0.00     0.039 A 
ATOM     36  C   UNL A   1      40.823  22.584  27.796  1.00  0.00     0.014 A 
ATOM     37  C   UNL A   1      39.139  23.591  26.398  1.00  0.00     0.014 A 
ATOM     38  C   UNL A   1      41.194  23.841  28.266  1.00  0.00     0.010 A 
ATOM     39  C   UNL A   1      39.553  24.858  26.811  1.00  0.00     0.010 A 
ATOM     40  C   UNL A   1      40.632  24.987  27.692  1.00  0.00    -0.014 A 
BRANCH  40  41
ATOM     41  C   UNL A   1      41.308  26.293  27.865  1.00  0.00     0.031 A 
ATOM     42  C   UNL A   1      40.666  27.397  28.640  1.00  0.00     0.074 A 
ATOM     43  C   UNL A   1      42.512  26.444  27.275  1.00  0.00     0.049 A 
ATOM     44  N   UNL A   1      41.133  28.581  28.925  1.00  0.00    -0.248 NA
ATOM     45  C   UNL A   1      39.309  27.141  29.142  1.00  0.00     0.031 C 
ATOM     46  C   UNL A   1      43.173  25.422  26.453  1.00  0.00     0.029 A 
ATOM     47  N   UNL A   1      43.405  27.482  27.281  1.00  0.00    -0.354 N 
ATOM     48  C   UNL A   1      40.132  29.219  29.649  1.00  0.00     0.074 A 
ATOM     49  C   UNL A   1      39.012  28.302  29.707  1.00  0.00     0.031 C 
ATOM     50  C   UNL A   1      44.387  25.859  26.090  1.00  0.00     0.029 A 
ATOM     51  C   UNL A   1      44.575  27.207  26.607  1.00  0.00     0.049 A 
ATOM     52  H   UNL A   1      43.227  28.343  27.723  1.00  0.00     0.167 HD
ATOM     53  C   UNL A   1      40.164  30.452  30.216  1.00  0.00     0.034 A 
ATOM     54  C   UNL A   1      45.680  27.958  26.439  1.00  0.00     0.034 A 
ATOM     55  C   UNL A   1      41.297  31.342  30.094  1.00  0.00     0.049 A 
ATOM     56  C   UNL A   1      45.694  29.313  27.095  1.00  0.00     0.074 A 
ATOM     57  C   UNL A   1      41.455  32.627  30.583  1.00  0.00     0.029 A 
ATOM     58  N   UNL A   1      42.478  31.030  29.420  1.00  0.00    -0.354 N 
ATOM     59  N   UNL A   1      44.749  29.896  27.801  1.00  0.00    -0.248 NA
ATOM     60  C   UNL A   1      46.921  30.101  26.954  1.00  0.00     0.031 C 
ATOM     61  C   UNL A   1      42.701  33.108  30.158  1.00  0.00     0.029 A 
ATOM     62  C   UNL A   1      43.359  32.100  29.469  1.00  0.00     0.049 A 
ATOM     63  H   UNL A   1      42.659  30.173  28.972  1.00  0.00     0.167 HD
ATOM     64  C   UNL A   1      45.277  31.116  28.207  1.00  0.00     0.074 A 
ATOM     65  C   UNL A   1      46.635  31.161  27.694  1.00  0.00     0.031 C 
ATOM     66  C   UNL A   1      44.700  32.112  28.928  1.00  0.00     0.034 A 
BRANCH  53  67
ATOM     67  C   UNL A   1      38.920  30.900  30.952  1.00  0.00     0.023 A 
ATOM     68  C   UNL A   1      37.874  31.570  30.289  1.00  0.00     0.031 A 
ATOM     69  C   UNL A   1      38.810  30.737  32.344  1.00  0.00     0.131 A 
ATOM     70  C   UNL A   1      36.822  32.139  31.028  1.00  0.00     0.055 A 
ATOM     71  C   UNL A   1      37.714  31.227  33.062  1.00  0.00     0.041 A 
ATOM     72  F   UNL A   1      39.783  30.128  33.041  1.00  0.00    -0.206 F 
ATOM     73  C   UNL A   1      36.723  31.950  32.407  1.00  0.00     0.022 A 
BRANCH  70  74
ATOM     74  S   UNL A   1      35.689  33.278  30.184  1.00  0.00     0.124 S 
ATOM     75  O   UNL A   1      34.783  32.347  29.513  1.00  0.00    -0.237 OA
ATOM     76  O   UNL A   1      35.119  34.036  31.291  1.00  0.00    -0.237 OA
ATOM     77  O   UNL A   1      36.564  34.036  29.293  1.00  0.00    -0.744 OA
ENDBRANCH  70  74
ENDBRANCH  53  67
BRANCH  54  78
ATOM     78  C   UNL A   1      46.841  27.450  25.647  1.00  0.00     0.023 A 
ATOM     79  C   UNL A   1      47.056  27.855  24.319  1.00  0.00     0.031 A 
ATOM     80  C   UNL A   1      47.754  26.536  26.206  1.00  0.00     0.131 A 
ATOM     81  C   UNL A   1      48.128  27.319  23.585  1.00  0.00     0.055 A 
ATOM     82  C   UNL A   1      48.849  26.049  25.491  1.00  0.00     0.041 A 
ATOM     83  F   UNL A   1      47.606  26.118  27.474  1.00  0.00    -0.206 F 
ATOM     84  C   UNL A   1      49.035  26.430  24.167  1.00  0.00     0.022 A 
BRANCH  81  85
ATOM     85  S   UNL A   1      48.279  27.737  21.825  1.00  0.00     0.124 S 
ATOM     86  O   UNL A   1      46.980  28.339  21.548  1.00  0.00    -0.237 OA
ATOM     87  O   UNL A   1      49.420  28.646  21.828  1.00  0.00    -0.237 OA
ATOM     88  O   UNL A   1      48.516  26.444  21.187  1.00  0.00    -0.744 OA
ENDBRANCH  81  85
ENDBRANCH  54  78
BRANCH  66  89
ATOM     89  C   UNL A   1      45.570  33.310  29.215  1.00  0.00     0.023 A 
ATOM     90  C   UNL A   1      45.690  34.367  28.296  1.00  0.00     0.031 A 
ATOM     91  C   UNL A   1      46.331  33.364  30.394  1.00  0.00     0.131 A 
ATOM     92  C   UNL A   1      46.618  35.389  28.529  1.00  0.00     0.055 A 
ATOM     93  C   UNL A   1      47.200  34.424  30.656  1.00  0.00     0.041 A 
ATOM     94  F   UNL A   1      46.255  32.380  31.304  1.00  0.00    -0.206 F 
ATOM     95  C   UNL A   1      47.362  35.435  29.711  1.00  0.00     0.022 A 
BRANCH  92  96
ATOM     96  S   UNL A   1      46.943  36.581  27.200  1.00  0.00     0.124 S 
ATOM     97  O   UNL A   1      46.983  37.844  27.930  1.00  0.00    -0.237 OA
ATOM     98  O   UNL A   1      48.218  36.112  26.668  1.00  0.00    -0.237 OA
ATOM     99  O   UNL A   1      45.799  36.416  26.305  1.00  0.00    -0.744 OA
ENDBRANCH  92  96
ENDBRANCH  66  89
ENDBRANCH  40  41
ENDBRANCH  32  35
ENDBRANCH  30  31
ENDBRANCH  29  30
ENDBRANCH   1  29
TORSDOF 19
ENDMDL
MODEL 3
REMARK VINA RESULT:     -11.9      4.938     10.257
REMARK SMILES O=C(CS[C@H](C(=O)Nc1ccc(C(F)(F)F)cc1)c1ccccc1)NCCCNC(=O)c1ccc(-c2c3nc(c(-c4cc(S(=O)(=O)[O-])ccc4F)c4ccc([nH]4)c(-c4cc(S(=O)(=O)[O-])ccc4F)c4nc(c(-c5cc(S(=O)(=O)[O-])ccc5F)c5ccc2[nH]5)C=C4)C=C3)cc1
REMARK SMILES IDX 26 1 25 2 1 3 2 4 3 6 4 7 5 8 19 9 20 10 24 11 21 12 23 13
REMARK SMILES IDX 22 14 6 15 7 16 8 17 9 19 10 20 18 21 11 22 17 23 12 24
REMARK SMILES IDX 13 25 14 26 15 27 16 28 27 29 28 30 29 31 30 32 31 34 32 35
REMARK SMILES IDX 33 36 94 37 34 38 93 39 35 40 36 41 37 42 87 43 38 44 92 45
REMARK SMILES IDX 86 46 88 47 39 48 91 49 85 50 84 51 40 53 72 54 52 55 71 56
REMARK SMILES IDX 53 57 56 58 70 59 89 60 54 61 55 62 69 64 90 65 57 66 41 67
REMARK SMILES IDX 42 68 50 69 43 70 49 71 51 72 48 73 44 74 45 75 46 76 47 77
REMARK SMILES IDX 73 78 74 79 82 80 75 81 81 82 83 83 80 84 76 85 77 86 78 87
REMARK SMILES IDX 79 88 58 89 59 90 67 91 60 92 66 93 68 94 65 95 61 96 62 97
REMARK SMILES IDX 63 98 64 99
REMARK H PARENT 25 5 8 18 29 33 88 52 56 63
REMARK Flexibility Score: inf
ROOT
ATOM      1  C   UNL A   1      34.756  20.493  24.901  1.00  0.00     0.117 C 
ENDROOT
BRANCH   1   2
ATOM      2  N   UNL A   1      34.013  21.615  25.452  1.00  0.00    -0.355 N 
ATOM      3  O   UNL A   1      31.992  20.546  25.324  1.00  0.00    -0.274 OA
ATOM      4  C   UNL A   1      32.650  21.525  25.670  1.00  0.00     0.230 C 
ATOM      5  H   UNL A   1      34.485  22.450  25.673  1.00  0.00     0.163 HD
BRANCH   4   6
ATOM      6  C   UNL A   1      32.029  22.733  26.355  1.00  0.00     0.170 C 
BRANCH   6   7
ATOM      7  S   UNL A   1      33.185  24.140  26.507  1.00  0.00    -0.134 SA
BRANCH   7   8
ATOM      8  C   UNL A   1      32.355  25.490  25.517  1.00  0.00     0.166 C 
BRANCH   8   9
ATOM      9  C   UNL A   1      32.602  26.905  26.041  1.00  0.00    -0.026 A 
ATOM     10  C   UNL A   1      31.537  27.645  26.596  1.00  0.00     0.005 A 
ATOM     11  C   UNL A   1      33.861  27.536  26.013  1.00  0.00     0.005 A 
ATOM     12  C   UNL A   1      31.703  28.983  26.982  1.00  0.00     0.000 A 
ATOM     13  C   UNL A   1      34.030  28.868  26.399  1.00  0.00     0.000 A 
ATOM     14  C   UNL A   1      32.945  29.601  26.862  1.00  0.00     0.000 A 
ENDBRANCH   8   9
BRANCH   8  15
ATOM     15  C   UNL A   1      32.305  25.117  24.002  1.00  0.00     0.242 C 
ATOM     16  O   UNL A   1      32.932  24.115  23.611  1.00  0.00    -0.273 OA
ATOM     17  N   UNL A   1      31.536  25.681  23.027  1.00  0.00    -0.325 N 
ATOM     18  H   UNL A   1      31.431  25.111  22.231  1.00  0.00     0.169 HD
BRANCH  17  19
ATOM     19  C   UNL A   1      30.865  26.900  22.926  1.00  0.00     0.041 A 
ATOM     20  C   UNL A   1      29.522  26.966  23.305  1.00  0.00     0.027 A 
ATOM     21  C   UNL A   1      31.489  28.046  22.467  1.00  0.00     0.027 A 
ATOM     22  C   UNL A   1      28.894  28.211  23.435  1.00  0.00     0.015 A 
ATOM     23  C   UNL A   1      30.879  29.287  22.616  1.00  0.00     0.015 A 
ATOM     24  C   UNL A   1      29.597  29.391  23.156  1.00  0.00     0.056 A 
BRANCH  24  25
ATOM     25  C   UNL A   1      29.024  30.747  23.495  1.00  0.00     0.416 C 
ATOM     26  F   UNL A   1      29.600  31.341  24.571  1.00  0.00    -0.166 F 
ATOM     27  F   UNL A   1      29.197  31.621  22.456  1.00  0.00    -0.166 F 
ATOM     28  F   UNL A   1      27.678  30.736  23.718  1.00  0.00    -0.166 F 
ENDBRANCH  24  25
ENDBRANCH  17  19
ENDBRANCH   8  15
ENDBRANCH   7   8
ENDBRANCH   6   7
ENDBRANCH   4   6
ENDBRANCH   1   2
BRANCH   1  29
ATOM     29  C   UNL A   1      36.093  20.890  24.278  1.00  0.00     0.042 C 
BRANCH  29  30
ATOM     30  C   UNL A   1      37.054  21.600  25.229  1.00  0.00     0.118 C 
BRANCH  30  31
ATOM     31  N   UNL A   1      38.322  20.912  25.365  1.00  0.00    -0.352 N 
ATOM     32  C   UNL A   1      39.465  21.218  26.060  1.00  0.00     0.251 C 
ATOM     33  H   UNL A   1      38.374  20.066  24.863  1.00  0.00     0.163 HD
ATOM     34  O   UNL A   1      40.393  20.409  25.976  1.00  0.00    -0.269 OA
BRANCH  32  35
ATOM     35  C   UNL A   1      39.662  22.480  26.824  1.00  0.00     0.039 A 
ATOM     36  C   UNL A   1      40.670  22.465  27.799  1.00  0.00     0.014 A 
ATOM     37  C   UNL A   1      38.983  23.674  26.575  1.00  0.00     0.014 A 
ATOM     38  C   UNL A   1      41.112  23.653  28.375  1.00  0.00     0.010 A 
ATOM     39  C   UNL A   1      39.467  24.876  27.094  1.00  0.00     0.010 A 
ATOM     40  C   UNL A   1      40.581  24.873  27.940  1.00  0.00    -0.014 A 
BRANCH  40  41
ATOM     41  C   UNL A   1      41.320  26.126  28.214  1.00  0.00     0.031 A 
ATOM     42  C   UNL A   1      42.694  26.346  27.672  1.00  0.00     0.074 A 
ATOM     43  C   UNL A   1      40.705  27.042  28.991  1.00  0.00     0.049 A 
ATOM     44  N   UNL A   1      43.462  27.396  27.779  1.00  0.00    -0.248 NA
ATOM     45  C   UNL A   1      43.293  25.227  26.932  1.00  0.00     0.031 C 
ATOM     46  C   UNL A   1      39.382  26.867  29.602  1.00  0.00     0.029 A 
ATOM     47  N   UNL A   1      41.080  28.299  29.386  1.00  0.00    -0.354 N 
ATOM     48  C   UNL A   1      44.638  27.074  27.112  1.00  0.00     0.074 A 
ATOM     49  C   UNL A   1      44.496  25.706  26.654  1.00  0.00     0.031 C 
ATOM     50  C   UNL A   1      39.031  27.994  30.237  1.00  0.00     0.029 A 
ATOM     51  C   UNL A   1      40.119  28.955  30.125  1.00  0.00     0.049 A 
ATOM     52  H   UNL A   1      41.953  28.695  29.164  1.00  0.00     0.167 HD
ATOM     53  C   UNL A   1      45.723  27.860  26.899  1.00  0.00     0.034 A 
ATOM     54  C   UNL A   1      40.116  30.198  30.642  1.00  0.00     0.034 A 
ATOM     55  C   UNL A   1      45.826  29.208  27.412  1.00  0.00     0.049 A 
ATOM     56  C   UNL A   1      41.325  31.054  30.374  1.00  0.00     0.074 A 
ATOM     57  C   UNL A   1      46.875  30.105  27.306  1.00  0.00     0.029 A 
ATOM     58  N   UNL A   1      44.830  29.854  28.144  1.00  0.00    -0.354 N 
ATOM     59  N   UNL A   1      42.423  30.747  29.717  1.00  0.00    -0.248 NA
ATOM     60  C   UNL A   1      41.291  32.424  30.892  1.00  0.00     0.031 C 
ATOM     61  C   UNL A   1      46.535  31.264  28.017  1.00  0.00     0.029 A 
ATOM     62  C   UNL A   1      45.244  31.127  28.504  1.00  0.00     0.049 A 
ATOM     63  H   UNL A   1      43.957  29.461  28.372  1.00  0.00     0.167 HD
ATOM     64  C   UNL A   1      43.205  31.896  29.726  1.00  0.00     0.074 A 
ATOM     65  C   UNL A   1      42.430  32.908  30.423  1.00  0.00     0.031 C 
ATOM     66  C   UNL A   1      44.447  32.102  29.217  1.00  0.00     0.034 A 
BRANCH  53  67
ATOM     67  C   UNL A   1      46.876  27.246  26.136  1.00  0.00     0.023 A 
ATOM     68  C   UNL A   1      47.888  26.518  26.790  1.00  0.00     0.031 A 
ATOM     69  C   UNL A   1      47.019  27.460  24.753  1.00  0.00     0.131 A 
ATOM     70  C   UNL A   1      49.039  26.123  26.087  1.00  0.00     0.055 A 
ATOM     71  C   UNL A   1      48.124  26.984  24.041  1.00  0.00     0.041 A 
ATOM     72  F   UNL A   1      46.102  28.166  24.072  1.00  0.00    -0.206 F 
ATOM     73  C   UNL A   1      49.152  26.330  24.712  1.00  0.00     0.022 A 
BRANCH  70  74
ATOM     74  S   UNL A   1      50.458  25.499  27.031  1.00  0.00     0.124 S 
ATOM     75  O   UNL A   1      49.877  24.339  27.704  1.00  0.00    -0.237 OA
ATOM     76  O   UNL A   1      51.432  25.209  25.985  1.00  0.00    -0.237 OA
ATOM     77  O   UNL A   1      50.802  26.613  27.912  1.00  0.00    -0.744 OA
ENDBRANCH  70  74
ENDBRANCH  53  67
BRANCH  54  78
ATOM     78  C   UNL A   1      38.951  30.699  31.431  1.00  0.00     0.023 A 
ATOM     79  C   UNL A   1      37.838  31.284  30.805  1.00  0.00     0.031 A 
ATOM     80  C   UNL A   1      38.936  30.610  32.836  1.00  0.00     0.131 A 
ATOM     81  C   UNL A   1      36.780  31.792  31.579  1.00  0.00     0.055 A 
ATOM     82  C   UNL A   1      37.859  31.066  33.598  1.00  0.00     0.041 A 
ATOM     83  F   UNL A   1      39.968  30.054  33.492  1.00  0.00    -0.206 F 
ATOM     84  C   UNL A   1      36.777  31.674  32.971  1.00  0.00     0.022 A 
BRANCH  81  85
ATOM     85  S   UNL A   1      35.438  32.688  30.748  1.00  0.00     0.124 S 
ATOM     86  O   UNL A   1      34.314  32.438  31.641  1.00  0.00    -0.237 OA
ATOM     87  O   UNL A   1      35.953  34.053  30.729  1.00  0.00    -0.237 OA
ATOM     88  O   UNL A   1      35.353  32.038  29.442  1.00  0.00    -0.744 OA
ENDBRANCH  81  85
ENDBRANCH  54  78
BRANCH  66  89
ATOM     89  C   UNL A   1      45.007  33.492  29.383  1.00  0.00     0.023 A 
ATOM     90  C   UNL A   1      44.707  34.518  28.471  1.00  0.00     0.031 A 
ATOM     91  C   UNL A   1      45.897  33.775  30.432  1.00  0.00     0.131 A 
ATOM     92  C   UNL A   1      45.360  35.753  28.572  1.00  0.00     0.055 A 
ATOM     93  C   UNL A   1      46.488  35.031  30.573  1.00  0.00     0.041 A 
ATOM     94  F   UNL A   1      46.219  32.830  31.330  1.00  0.00    -0.206 F 
ATOM     95  C   UNL A   1      46.235  36.022  29.627  1.00  0.00     0.022 A 
BRANCH  92  96
ATOM     96  S   UNL A   1      45.158  36.950  27.226  1.00  0.00     0.124 S 
ATOM     97  O   UNL A   1      45.428  38.215  27.903  1.00  0.00    -0.237 OA
ATOM     98  O   UNL A   1      46.167  36.513  26.267  1.00  0.00    -0.237 OA
ATOM     99  O   UNL A   1      43.773  36.757  26.800  1.00  0.00    -0.744 OA
ENDBRANCH  92  96
ENDBRANCH  66  89
ENDBRANCH  40  41
ENDBRANCH  32  35
ENDBRANCH  30  31
ENDBRANCH  29  30
ENDBRANCH   1  29
TORSDOF 19
ENDMDL
