MODEL 1
REMARK VINA RESULT:     -12.6      0.000      0.000
REMARK SMILES CCCc1cc2c(cc1Cl)C=C(C(=O)NCCCNC(=O)c1ccc(-c3c4nc(c(-c5cc(S(=O)(=O)[O-])ccc5F)c5ccc([nH]5)c(-c5cc(S(=O)(=O)[O-])ccc5F)c5nc(c(-c6cc(S(=O)(=O)[O-])ccc6F)c6ccc3[nH]6)C=C5)C=C4)cc1)[C@@H](C(F)(F)F)O2
REMARK SMILES IDX 17 1 16 2 15 3 13 4 14 5 12 7 4 8 5 9 9 10 6 11 8 12 10 13
REMARK SMILES IDX 7 14 90 15 11 16 85 17 3 18 2 19 1 20 86 21 87 22 88 23
REMARK SMILES IDX 89 24 18 25 19 26 20 27 21 29 22 30 23 31 84 32 24 33 83 34
REMARK SMILES IDX 25 35 26 36 27 37 77 38 28 39 82 40 76 41 78 42 29 43 81 44
REMARK SMILES IDX 75 45 74 46 30 48 62 49 42 50 61 51 43 52 46 53 60 54 79 55
REMARK SMILES IDX 44 56 45 57 59 59 80 60 47 61 31 62 32 63 40 64 33 65 39 66
REMARK SMILES IDX 41 67 38 68 34 69 35 70 36 71 37 72 63 73 64 74 72 75 65 76
REMARK SMILES IDX 71 77 73 78 70 79 66 80 67 81 68 82 69 83 48 84 49 85 57 86
REMARK SMILES IDX 50 87 56 88 58 89 55 90 51 91 52 92 53 93 54 94
REMARK H PARENT 15 6 19 28 78 47 46 58
REMARK Flexibility Score: inf
ROOT
ATOM      1  C   UNL A   1      32.345  29.944  25.275  1.00  0.00     0.042 C 
ENDROOT
BRANCH   1   2
ATOM      2  C   UNL A   1      32.212  28.441  25.086  1.00  0.00     0.118 C 
BRANCH   2   3
ATOM      3  N   UNL A   1      30.885  28.058  24.628  1.00  0.00    -0.352 N 
ATOM      4  C   UNL A   1      30.266  26.925  24.221  1.00  0.00     0.251 C 
ATOM      5  O   UNL A   1      29.072  27.050  23.928  1.00  0.00    -0.270 OA
ATOM      6  H   UNL A   1      30.273  28.829  24.609  1.00  0.00     0.163 HD
BRANCH   4   7
ATOM      7  C   UNL A   1      30.912  25.584  24.117  1.00  0.00     0.067 C 
ATOM      8  C   UNL A   1      33.303  21.236  25.074  1.00  0.00    -0.026 A 
ATOM      9  C   UNL A   1      32.621  21.782  23.980  1.00  0.00     0.052 A 
ATOM     10  C   UNL A   1      33.379  22.005  26.249  1.00  0.00     0.045 A 
ATOM     11  C   UNL A   1      32.002  23.022  24.065  1.00  0.00     0.128 A 
ATOM     12  C   UNL A   1      32.782  23.274  26.318  1.00  0.00     0.032 A 
ATOM     13  Cl  UNL A   1      34.201  21.441  27.661  1.00  0.00    -0.084 Cl
ATOM     14  C   UNL A   1      32.084  23.787  25.222  1.00  0.00     0.019 A 
ATOM     15  O   UNL A   1      31.276  23.399  22.975  1.00  0.00    -0.475 OA
ATOM     16  C   UNL A   1      31.416  25.081  25.261  1.00  0.00     0.025 C 
ATOM     17  C   UNL A   1      31.040  24.820  22.829  1.00  0.00     0.314 C 
BRANCH   8  18
ATOM     18  C   UNL A   1      33.903  19.858  24.915  1.00  0.00     0.037 C 
BRANCH  18  19
ATOM     19  C   UNL A   1      32.894  18.766  24.531  1.00  0.00     0.001 C 
ATOM     20  C   UNL A   1      32.664  17.705  25.601  1.00  0.00     0.004 C 
ENDBRANCH  18  19
ENDBRANCH   8  18
BRANCH  17  21
ATOM     21  C   UNL A   1      32.118  25.393  21.892  1.00  0.00     0.429 C 
ATOM     22  F   UNL A   1      33.012  26.133  22.595  1.00  0.00    -0.167 F 
ATOM     23  F   UNL A   1      32.831  24.433  21.256  1.00  0.00    -0.167 F 
ATOM     24  F   UNL A   1      31.602  26.193  20.931  1.00  0.00    -0.167 F 
ENDBRANCH  17  21
ENDBRANCH   4   7
ENDBRANCH   2   3
ENDBRANCH   1   2
BRANCH   1  25
ATOM     25  C   UNL A   1      32.050  30.372  26.706  1.00  0.00     0.118 C 
BRANCH  25  26
ATOM     26  N   UNL A   1      31.999  31.826  26.848  1.00  0.00    -0.352 N 
ATOM     27  C   UNL A   1      32.865  32.689  27.478  1.00  0.00     0.251 C 
ATOM     28  H   UNL A   1      31.219  32.256  26.427  1.00  0.00     0.163 HD
ATOM     29  O   UNL A   1      32.527  33.855  27.665  1.00  0.00    -0.269 OA
BRANCH  27  30
ATOM     30  C   UNL A   1      34.178  32.203  27.947  1.00  0.00     0.039 A 
ATOM     31  C   UNL A   1      34.335  30.871  28.324  1.00  0.00     0.014 A 
ATOM     32  C   UNL A   1      35.256  33.088  28.031  1.00  0.00     0.014 A 
ATOM     33  C   UNL A   1      35.487  30.480  28.988  1.00  0.00     0.010 A 
ATOM     34  C   UNL A   1      36.463  32.655  28.587  1.00  0.00     0.010 A 
ATOM     35  C   UNL A   1      36.570  31.364  29.125  1.00  0.00    -0.014 A 
BRANCH  35  36
ATOM     36  C   UNL A   1      37.795  30.889  29.818  1.00  0.00     0.031 A 
ATOM     37  C   UNL A   1      38.046  31.207  31.265  1.00  0.00     0.074 A 
ATOM     38  C   UNL A   1      38.650  30.094  29.142  1.00  0.00     0.049 A 
ATOM     39  N   UNL A   1      39.019  30.796  32.037  1.00  0.00    -0.248 NA
ATOM     40  C   UNL A   1      37.094  32.108  31.934  1.00  0.00     0.031 C 
ATOM     41  C   UNL A   1      38.505  29.736  27.730  1.00  0.00     0.029 A 
ATOM     42  N   UNL A   1      39.770  29.416  29.546  1.00  0.00    -0.354 N 
ATOM     43  C   UNL A   1      38.818  31.412  33.267  1.00  0.00     0.074 A 
ATOM     44  C   UNL A   1      37.645  32.246  33.132  1.00  0.00     0.031 C 
ATOM     45  C   UNL A   1      39.444  28.839  27.409  1.00  0.00     0.029 A 
ATOM     46  C   UNL A   1      40.314  28.623  28.562  1.00  0.00     0.049 A 
ATOM     47  H   UNL A   1      40.149  29.489  30.452  1.00  0.00     0.167 HD
ATOM     48  C   UNL A   1      39.544  31.283  34.404  1.00  0.00     0.034 A 
ATOM     49  C   UNL A   1      41.394  27.815  28.574  1.00  0.00     0.034 A 
ATOM     50  C   UNL A   1      40.690  30.418  34.527  1.00  0.00     0.049 A 
ATOM     51  C   UNL A   1      42.172  27.672  29.852  1.00  0.00     0.074 A 
ATOM     52  C   UNL A   1      41.458  30.175  35.651  1.00  0.00     0.029 A 
ATOM     53  N   UNL A   1      41.234  29.657  33.500  1.00  0.00    -0.354 N 
ATOM     54  N   UNL A   1      41.936  28.221  31.022  1.00  0.00    -0.248 NA
ATOM     55  C   UNL A   1      43.360  26.811  29.821  1.00  0.00     0.031 C 
ATOM     56  C   UNL A   1      42.500  29.320  35.292  1.00  0.00     0.029 A 
ATOM     57  C   UNL A   1      42.345  28.969  33.959  1.00  0.00     0.049 A 
ATOM     58  H   UNL A   1      40.881  29.613  32.582  1.00  0.00     0.167 HD
ATOM     59  C   UNL A   1      42.944  27.771  31.867  1.00  0.00     0.074 A 
ATOM     60  C   UNL A   1      43.773  26.876  31.082  1.00  0.00     0.031 C 
ATOM     61  C   UNL A   1      43.167  28.080  33.170  1.00  0.00     0.034 A 
BRANCH  48  62
ATOM     62  C   UNL A   1      39.138  32.088  35.615  1.00  0.00     0.023 A 
ATOM     63  C   UNL A   1      38.438  31.464  36.665  1.00  0.00     0.031 A 
ATOM     64  C   UNL A   1      39.347  33.476  35.688  1.00  0.00     0.131 A 
ATOM     65  C   UNL A   1      37.952  32.231  37.732  1.00  0.00     0.055 A 
ATOM     66  C   UNL A   1      38.893  34.230  36.772  1.00  0.00     0.041 A 
ATOM     67  F   UNL A   1      40.008  34.119  34.712  1.00  0.00    -0.206 F 
ATOM     68  C   UNL A   1      38.182  33.609  37.794  1.00  0.00     0.022 A 
BRANCH  65  69
ATOM     69  S   UNL A   1      36.950  31.484  39.046  1.00  0.00     0.124 S 
ATOM     70  O   UNL A   1      35.776  32.353  39.055  1.00  0.00    -0.237 OA
ATOM     71  O   UNL A   1      36.725  30.136  38.530  1.00  0.00    -0.237 OA
ATOM     72  O   UNL A   1      37.800  31.571  40.229  1.00  0.00    -0.744 OA
ENDBRANCH  65  69
ENDBRANCH  48  62
BRANCH  49  73
ATOM     73  C   UNL A   1      41.733  27.060  27.333  1.00  0.00     0.023 A 
ATOM     74  C   UNL A   1      41.498  25.674  27.254  1.00  0.00     0.031 A 
ATOM     75  C   UNL A   1      42.450  27.670  26.292  1.00  0.00     0.131 A 
ATOM     76  C   UNL A   1      42.070  24.930  26.215  1.00  0.00     0.055 A 
ATOM     77  C   UNL A   1      42.945  26.935  25.212  1.00  0.00     0.041 A 
ATOM     78  F   UNL A   1      42.709  28.986  26.330  1.00  0.00    -0.206 F 
ATOM     79  C   UNL A   1      42.778  25.554  25.184  1.00  0.00     0.022 A 
BRANCH  76  80
ATOM     80  S   UNL A   1      42.066  23.115  26.267  1.00  0.00     0.124 S 
ATOM     81  O   UNL A   1      42.901  22.842  27.432  1.00  0.00    -0.237 OA
ATOM     82  O   UNL A   1      40.642  22.828  26.428  1.00  0.00    -0.237 OA
ATOM     83  O   UNL A   1      42.634  22.732  24.980  1.00  0.00    -0.744 OA
ENDBRANCH  76  80
ENDBRANCH  49  73
BRANCH  61  84
ATOM     84  C   UNL A   1      44.365  27.471  33.857  1.00  0.00     0.023 A 
ATOM     85  C   UNL A   1      44.262  26.206  34.464  1.00  0.00     0.031 A 
ATOM     86  C   UNL A   1      45.550  28.205  34.043  1.00  0.00     0.131 A 
ATOM     87  C   UNL A   1      45.306  25.732  35.268  1.00  0.00     0.055 A 
ATOM     88  C   UNL A   1      46.606  27.708  34.805  1.00  0.00     0.041 A 
ATOM     89  F   UNL A   1      45.692  29.421  33.490  1.00  0.00    -0.206 F 
ATOM     90  C   UNL A   1      46.480  26.472  35.435  1.00  0.00     0.022 A 
BRANCH  87  91
ATOM     91  S   UNL A   1      45.140  24.184  36.199  1.00  0.00     0.124 S 
ATOM     92  O   UNL A   1      45.247  24.651  37.580  1.00  0.00    -0.237 OA
ATOM     93  O   UNL A   1      43.814  23.724  35.798  1.00  0.00    -0.237 OA
ATOM     94  O   UNL A   1      46.255  23.369  35.731  1.00  0.00    -0.744 OA
ENDBRANCH  87  91
ENDBRANCH  61  84
ENDBRANCH  35  36
ENDBRANCH  27  30
ENDBRANCH  25  26
ENDBRANCH   1  25
TORSDOF 16
ENDMDL
MODEL 2
REMARK VINA RESULT:     -12.6      1.729      2.149
REMARK SMILES CCCc1cc2c(cc1Cl)C=C(C(=O)NCCCNC(=O)c1ccc(-c3c4nc(c(-c5cc(S(=O)(=O)[O-])ccc5F)c5ccc([nH]5)c(-c5cc(S(=O)(=O)[O-])ccc5F)c5nc(c(-c6cc(S(=O)(=O)[O-])ccc6F)c6ccc3[nH]6)C=C5)C=C4)cc1)[C@@H](C(F)(F)F)O2
REMARK SMILES IDX 17 1 16 2 15 3 13 4 14 5 12 7 4 8 5 9 9 10 6 11 8 12 10 13
REMARK SMILES IDX 7 14 90 15 11 16 85 17 3 18 2 19 1 20 86 21 87 22 88 23
REMARK SMILES IDX 89 24 18 25 19 26 20 27 21 29 22 30 23 31 84 32 24 33 83 34
REMARK SMILES IDX 25 35 26 36 27 37 77 38 28 39 82 40 76 41 78 42 29 43 81 44
REMARK SMILES IDX 75 45 74 46 30 48 62 49 42 50 61 51 43 52 46 53 60 54 79 55
REMARK SMILES IDX 44 56 45 57 59 59 80 60 47 61 31 62 32 63 40 64 33 65 39 66
REMARK SMILES IDX 41 67 38 68 34 69 35 70 36 71 37 72 63 73 64 74 72 75 65 76
REMARK SMILES IDX 71 77 73 78 70 79 66 80 67 81 68 82 69 83 48 84 49 85 57 86
REMARK SMILES IDX 50 87 56 88 58 89 55 90 51 91 52 92 53 93 54 94
REMARK H PARENT 15 6 19 28 78 47 46 58
REMARK Flexibility Score: inf
ROOT
ATOM      1  C   UNL A   1      33.102  29.295  24.294  1.00  0.00     0.042 C 
ENDROOT
BRANCH   1   2
ATOM      2  C   UNL A   1      32.024  28.234  24.143  1.00  0.00     0.118 C 
BRANCH   2   3
ATOM      3  N   UNL A   1      31.399  27.897  25.413  1.00  0.00    -0.352 N 
ATOM      4  C   UNL A   1      31.263  26.798  26.191  1.00  0.00     0.251 C 
ATOM      5  O   UNL A   1      30.645  26.970  27.247  1.00  0.00    -0.270 OA
ATOM      6  H   UNL A   1      30.956  28.679  25.815  1.00  0.00     0.163 HD
BRANCH   4   7
ATOM      7  C   UNL A   1      31.802  25.446  25.865  1.00  0.00     0.067 C 
ATOM      8  C   UNL A   1      34.762  21.401  25.220  1.00  0.00    -0.026 A 
ATOM      9  C   UNL A   1      33.389  21.660  25.125  1.00  0.00     0.052 A 
ATOM     10  C   UNL A   1      35.604  22.460  25.601  1.00  0.00     0.045 A 
ATOM     11  C   UNL A   1      32.870  22.910  25.438  1.00  0.00     0.128 A 
ATOM     12  C   UNL A   1      35.079  23.732  25.882  1.00  0.00     0.032 A 
ATOM     13  Cl  UNL A   1      37.316  22.264  25.745  1.00  0.00    -0.084 Cl
ATOM     14  C   UNL A   1      33.703  23.960  25.806  1.00  0.00     0.019 A 
ATOM     15  O   UNL A   1      31.512  23.011  25.415  1.00  0.00    -0.475 OA
ATOM     16  C   UNL A   1      33.109  25.251  26.127  1.00  0.00     0.025 C 
ATOM     17  C   UNL A   1      30.977  24.347  25.255  1.00  0.00     0.314 C 
BRANCH   8  18
ATOM     18  C   UNL A   1      35.238  19.999  24.912  1.00  0.00     0.037 C 
BRANCH  18  19
ATOM     19  C   UNL A   1      34.112  18.996  24.623  1.00  0.00     0.001 C 
ATOM     20  C   UNL A   1      34.587  17.596  24.249  1.00  0.00     0.004 C 
ENDBRANCH  18  19
ENDBRANCH   8  18
BRANCH  17  21
ATOM     21  C   UNL A   1      30.684  24.571  23.760  1.00  0.00     0.429 C 
ATOM     22  F   UNL A   1      30.329  23.403  23.167  1.00  0.00    -0.167 F 
ATOM     23  F   UNL A   1      29.664  25.435  23.545  1.00  0.00    -0.167 F 
ATOM     24  F   UNL A   1      31.752  25.056  23.087  1.00  0.00    -0.167 F 
ENDBRANCH  17  21
ENDBRANCH   4   7
ENDBRANCH   2   3
ENDBRANCH   1   2
BRANCH   1  25
ATOM     25  C   UNL A   1      33.661  29.350  25.708  1.00  0.00     0.118 C 
BRANCH  25  26
ATOM     26  N   UNL A   1      33.375  30.624  26.367  1.00  0.00    -0.352 N 
ATOM     27  C   UNL A   1      34.042  31.271  27.380  1.00  0.00     0.251 C 
ATOM     28  H   UNL A   1      32.576  31.093  26.031  1.00  0.00     0.163 HD
ATOM     29  O   UNL A   1      33.513  32.231  27.935  1.00  0.00    -0.269 OA
BRANCH  27  30
ATOM     30  C   UNL A   1      35.370  30.792  27.811  1.00  0.00     0.039 A 
ATOM     31  C   UNL A   1      35.554  29.451  28.144  1.00  0.00     0.014 A 
ATOM     32  C   UNL A   1      36.436  31.690  27.906  1.00  0.00     0.014 A 
ATOM     33  C   UNL A   1      36.724  29.057  28.775  1.00  0.00     0.010 A 
ATOM     34  C   UNL A   1      37.659  31.259  28.427  1.00  0.00     0.010 A 
ATOM     35  C   UNL A   1      37.795  29.954  28.922  1.00  0.00    -0.014 A 
BRANCH  35  36
ATOM     36  C   UNL A   1      39.039  29.477  29.578  1.00  0.00     0.031 A 
ATOM     37  C   UNL A   1      39.409  29.921  30.965  1.00  0.00     0.074 A 
ATOM     38  C   UNL A   1      39.800  28.569  28.933  1.00  0.00     0.049 A 
ATOM     39  N   UNL A   1      40.411  29.531  31.710  1.00  0.00    -0.248 NA
ATOM     40  C   UNL A   1      38.556  30.940  31.599  1.00  0.00     0.031 C 
ATOM     41  C   UNL A   1      39.536  28.082  27.579  1.00  0.00     0.029 A 
ATOM     42  N   UNL A   1      40.908  27.868  29.331  1.00  0.00    -0.354 N 
ATOM     43  C   UNL A   1      40.332  30.277  32.881  1.00  0.00     0.074 A 
ATOM     44  C   UNL A   1      39.198  31.163  32.737  1.00  0.00     0.031 C 
ATOM     45  C   UNL A   1      40.401  27.103  27.291  1.00  0.00     0.029 A 
ATOM     46  C   UNL A   1      41.338  26.950  28.400  1.00  0.00     0.049 A 
ATOM     47  H   UNL A   1      41.354  28.008  30.198  1.00  0.00     0.167 HD
ATOM     48  C   UNL A   1      41.129  30.218  33.974  1.00  0.00     0.034 A 
ATOM     49  C   UNL A   1      42.371  26.084  28.425  1.00  0.00     0.034 A 
ATOM     50  C   UNL A   1      42.233  29.302  34.111  1.00  0.00     0.049 A 
ATOM     51  C   UNL A   1      43.229  26.022  29.658  1.00  0.00     0.074 A 
ATOM     52  C   UNL A   1      43.065  29.126  35.202  1.00  0.00     0.029 A 
ATOM     53  N   UNL A   1      42.661  28.412  33.135  1.00  0.00    -0.354 N 
ATOM     54  N   UNL A   1      43.107  26.697  30.777  1.00  0.00    -0.248 NA
ATOM     55  C   UNL A   1      44.365  25.092  29.638  1.00  0.00     0.031 C 
ATOM     56  C   UNL A   1      44.032  28.178  34.865  1.00  0.00     0.029 A 
ATOM     57  C   UNL A   1      43.764  27.707  33.588  1.00  0.00     0.049 A 
ATOM     58  H   UNL A   1      42.242  28.298  32.252  1.00  0.00     0.167 HD
ATOM     59  C   UNL A   1      44.148  26.273  31.596  1.00  0.00     0.074 A 
ATOM     60  C   UNL A   1      44.869  25.256  30.856  1.00  0.00     0.031 C 
ATOM     61  C   UNL A   1      44.479  26.696  32.843  1.00  0.00     0.034 A 
BRANCH  48  62
ATOM     62  C   UNL A   1      40.854  31.162  35.120  1.00  0.00     0.023 A 
ATOM     63  C   UNL A   1      39.674  31.019  35.876  1.00  0.00     0.031 A 
ATOM     64  C   UNL A   1      41.693  32.255  35.400  1.00  0.00     0.131 A 
ATOM     65  C   UNL A   1      39.356  31.965  36.858  1.00  0.00     0.055 A 
ATOM     66  C   UNL A   1      41.389  33.174  36.405  1.00  0.00     0.041 A 
ATOM     67  F   UNL A   1      42.829  32.437  34.708  1.00  0.00    -0.206 F 
ATOM     68  C   UNL A   1      40.210  33.038  37.131  1.00  0.00     0.022 A 
BRANCH  65  69
ATOM     69  S   UNL A   1      37.793  31.879  37.774  1.00  0.00     0.124 S 
ATOM     70  O   UNL A   1      37.403  30.486  37.566  1.00  0.00    -0.237 OA
ATOM     71  O   UNL A   1      38.216  32.211  39.132  1.00  0.00    -0.237 OA
ATOM     72  O   UNL A   1      36.946  32.868  37.118  1.00  0.00    -0.744 OA
ENDBRANCH  65  69
ENDBRANCH  48  62
BRANCH  49  73
ATOM     73  C   UNL A   1      42.580  25.190  27.249  1.00  0.00     0.023 A 
ATOM     74  C   UNL A   1      42.005  23.905  27.218  1.00  0.00     0.031 A 
ATOM     75  C   UNL A   1      43.490  25.533  26.237  1.00  0.00     0.131 A 
ATOM     76  C   UNL A   1      42.430  22.977  26.260  1.00  0.00     0.055 A 
ATOM     77  C   UNL A   1      43.845  24.630  25.232  1.00  0.00     0.041 A 
ATOM     78  F   UNL A   1      44.073  26.742  26.232  1.00  0.00    -0.206 F 
ATOM     79  C   UNL A   1      43.333  23.336  25.256  1.00  0.00     0.022 A 
BRANCH  76  80
ATOM     80  S   UNL A   1      41.960  21.228  26.395  1.00  0.00     0.124 S 
ATOM     81  O   UNL A   1      42.315  20.924  27.778  1.00  0.00    -0.237 OA
ATOM     82  O   UNL A   1      40.530  21.284  26.106  1.00  0.00    -0.237 OA
ATOM     83  O   UNL A   1      42.773  20.573  25.377  1.00  0.00    -0.744 OA
ENDBRANCH  76  80
ENDBRANCH  49  73
BRANCH  61  84
ATOM     84  C   UNL A   1      45.689  26.087  33.509  1.00  0.00     0.023 A 
ATOM     85  C   UNL A   1      45.546  24.948  34.324  1.00  0.00     0.031 A 
ATOM     86  C   UNL A   1      46.943  26.722  33.463  1.00  0.00     0.131 A 
ATOM     87  C   UNL A   1      46.628  24.505  35.096  1.00  0.00     0.055 A 
ATOM     88  C   UNL A   1      48.029  26.248  34.198  1.00  0.00     0.041 A 
ATOM     89  F   UNL A   1      47.125  27.817  32.707  1.00  0.00    -0.206 F 
ATOM     90  C   UNL A   1      47.869  25.144  35.032  1.00  0.00     0.022 A 
BRANCH  87  91
ATOM     91  S   UNL A   1      46.434  23.145  36.280  1.00  0.00     0.124 S 
ATOM     92  O   UNL A   1      46.408  23.859  37.556  1.00  0.00    -0.237 OA
ATOM     93  O   UNL A   1      45.162  22.557  35.869  1.00  0.00    -0.237 OA
ATOM     94  O   UNL A   1      47.611  22.313  36.059  1.00  0.00    -0.744 OA
ENDBRANCH  87  91
ENDBRANCH  61  84
ENDBRANCH  35  36
ENDBRANCH  27  30
ENDBRANCH  25  26
ENDBRANCH   1  25
TORSDOF 16
ENDMDL
MODEL 3
REMARK VINA RESULT:     -12.6      1.906      2.205
REMARK SMILES CCCc1cc2c(cc1Cl)C=C(C(=O)NCCCNC(=O)c1ccc(-c3c4nc(c(-c5cc(S(=O)(=O)[O-])ccc5F)c5ccc([nH]5)c(-c5cc(S(=O)(=O)[O-])ccc5F)c5nc(c(-c6cc(S(=O)(=O)[O-])ccc6F)c6ccc3[nH]6)C=C5)C=C4)cc1)[C@@H](C(F)(F)F)O2
REMARK SMILES IDX 17 1 16 2 15 3 13 4 14 5 12 7 4 8 5 9 9 10 6 11 8 12 10 13
REMARK SMILES IDX 7 14 90 15 11 16 85 17 3 18 2 19 1 20 86 21 87 22 88 23
REMARK SMILES IDX 89 24 18 25 19 26 20 27 21 29 22 30 23 31 84 32 24 33 83 34
REMARK SMILES IDX 25 35 26 36 27 37 77 38 28 39 82 40 76 41 78 42 29 43 81 44
REMARK SMILES IDX 75 45 74 46 30 48 62 49 42 50 61 51 43 52 46 53 60 54 79 55
REMARK SMILES IDX 44 56 45 57 59 59 80 60 47 61 31 62 32 63 40 64 33 65 39 66
REMARK SMILES IDX 41 67 38 68 34 69 35 70 36 71 37 72 63 73 64 74 72 75 65 76
REMARK SMILES IDX 71 77 73 78 70 79 66 80 67 81 68 82 69 83 48 84 49 85 57 86
REMARK SMILES IDX 50 87 56 88 58 89 55 90 51 91 52 92 53 93 54 94
REMARK H PARENT 15 6 19 28 78 47 46 58
REMARK Flexibility Score: inf
ROOT
ATOM      1  C   UNL A   1      33.058  29.015  23.905  1.00  0.00     0.042 C 
ENDROOT
BRANCH   1   2
ATOM      2  C   UNL A   1      31.833  28.119  23.990  1.00  0.00     0.118 C 
BRANCH   2   3
ATOM      3  N   UNL A   1      31.419  27.880  25.364  1.00  0.00    -0.352 N 
ATOM      4  C   UNL A   1      31.297  26.816  26.192  1.00  0.00     0.251 C 
ATOM      5  O   UNL A   1      30.912  27.076  27.336  1.00  0.00    -0.270 OA
ATOM      6  H   UNL A   1      31.157  28.716  25.813  1.00  0.00     0.163 HD
BRANCH   4   7
ATOM      7  C   UNL A   1      31.597  25.402  25.820  1.00  0.00     0.067 C 
ATOM      8  C   UNL A   1      33.820  20.932  25.037  1.00  0.00    -0.026 A 
ATOM      9  C   UNL A   1      32.512  21.427  24.952  1.00  0.00     0.052 A 
ATOM     10  C   UNL A   1      34.829  21.817  25.452  1.00  0.00     0.045 A 
ATOM     11  C   UNL A   1      32.215  22.736  25.308  1.00  0.00     0.128 A 
ATOM     12  C   UNL A   1      34.530  23.151  25.776  1.00  0.00     0.032 A 
ATOM     13  Cl  UNL A   1      36.481  21.324  25.587  1.00  0.00    -0.084 Cl
ATOM     14  C   UNL A   1      33.214  23.614  25.709  1.00  0.00     0.019 A 
ATOM     15  O   UNL A   1      30.894  23.070  25.289  1.00  0.00    -0.475 OA
ATOM     16  C   UNL A   1      32.850  24.977  26.074  1.00  0.00     0.025 C 
ATOM     17  C   UNL A   1      30.598  24.483  25.175  1.00  0.00     0.314 C 
BRANCH   8  18
ATOM     18  C   UNL A   1      34.048  19.480  24.682  1.00  0.00     0.037 C 
BRANCH  18  19
ATOM     19  C   UNL A   1      32.887  18.822  23.923  1.00  0.00     0.001 C 
ATOM     20  C   UNL A   1      33.274  17.591  23.110  1.00  0.00     0.004 C 
ENDBRANCH  18  19
ENDBRANCH   8  18
BRANCH  17  21
ATOM     21  C   UNL A   1      30.354  24.803  23.688  1.00  0.00     0.429 C 
ATOM     22  F   UNL A   1      29.904  23.703  23.035  1.00  0.00    -0.167 F 
ATOM     23  F   UNL A   1      29.424  25.768  23.501  1.00  0.00    -0.167 F 
ATOM     24  F   UNL A   1      31.476  25.217  23.055  1.00  0.00    -0.167 F 
ENDBRANCH  17  21
ENDBRANCH   4   7
ENDBRANCH   2   3
ENDBRANCH   1   2
BRANCH   1  25
ATOM     25  C   UNL A   1      33.669  29.287  25.272  1.00  0.00     0.118 C 
BRANCH  25  26
ATOM     26  N   UNL A   1      33.112  30.486  25.897  1.00  0.00    -0.352 N 
ATOM     27  C   UNL A   1      33.532  31.189  27.003  1.00  0.00     0.251 C 
ATOM     28  H   UNL A   1      32.309  30.848  25.457  1.00  0.00     0.163 HD
ATOM     29  O   UNL A   1      32.799  32.047  27.487  1.00  0.00    -0.269 OA
BRANCH  27  30
ATOM     30  C   UNL A   1      34.843  30.889  27.613  1.00  0.00     0.039 A 
ATOM     31  C   UNL A   1      35.144  29.589  28.015  1.00  0.00     0.014 A 
ATOM     32  C   UNL A   1      35.770  31.915  27.806  1.00  0.00     0.014 A 
ATOM     33  C   UNL A   1      36.262  29.358  28.801  1.00  0.00     0.010 A 
ATOM     34  C   UNL A   1      36.960  31.652  28.490  1.00  0.00     0.010 A 
ATOM     35  C   UNL A   1      37.188  30.385  29.046  1.00  0.00    -0.014 A 
BRANCH  35  36
ATOM     36  C   UNL A   1      38.388  30.081  29.870  1.00  0.00     0.031 A 
ATOM     37  C   UNL A   1      38.509  30.576  31.283  1.00  0.00     0.074 A 
ATOM     38  C   UNL A   1      39.340  29.281  29.349  1.00  0.00     0.049 A 
ATOM     39  N   UNL A   1      39.446  30.326  32.161  1.00  0.00    -0.248 NA
ATOM     40  C   UNL A   1      37.453  31.474  31.778  1.00  0.00     0.031 C 
ATOM     41  C   UNL A   1      39.324  28.757  27.982  1.00  0.00     0.029 A 
ATOM     42  N   UNL A   1      40.469  28.735  29.902  1.00  0.00    -0.354 N 
ATOM     43  C   UNL A   1      39.115  31.060  33.294  1.00  0.00     0.074 A 
ATOM     44  C   UNL A   1      37.903  31.785  32.985  1.00  0.00     0.031 C 
ATOM     45  C   UNL A   1      40.341  27.901  27.831  1.00  0.00     0.029 A 
ATOM     46  C   UNL A   1      41.135  27.879  29.056  1.00  0.00     0.049 A 
ATOM     47  H   UNL A   1      40.774  28.937  30.817  1.00  0.00     0.167 HD
ATOM     48  C   UNL A   1      39.761  31.113  34.484  1.00  0.00     0.034 A 
ATOM     49  C   UNL A   1      42.261  27.160  29.234  1.00  0.00     0.034 A 
ATOM     50  C   UNL A   1      40.949  30.352  34.783  1.00  0.00     0.049 A 
ATOM     51  C   UNL A   1      42.950  27.218  30.569  1.00  0.00     0.074 A 
ATOM     52  C   UNL A   1      41.646  30.294  35.976  1.00  0.00     0.029 A 
ATOM     53  N   UNL A   1      41.616  29.524  33.890  1.00  0.00    -0.354 N 
ATOM     54  N   UNL A   1      42.593  27.875  31.649  1.00  0.00    -0.248 NA
ATOM     55  C   UNL A   1      44.190  26.448  30.718  1.00  0.00     0.031 C 
ATOM     56  C   UNL A   1      42.765  29.483  35.789  1.00  0.00     0.029 A 
ATOM     57  C   UNL A   1      42.733  28.974  34.499  1.00  0.00     0.049 A 
ATOM     58  H   UNL A   1      41.336  29.352  32.963  1.00  0.00     0.167 HD
ATOM     59  C   UNL A   1      43.563  27.598  32.605  1.00  0.00     0.074 A 
ATOM     60  C   UNL A   1      44.504  26.683  31.987  1.00  0.00     0.031 C 
ATOM     61  C   UNL A   1      43.668  28.066  33.875  1.00  0.00     0.034 A 
BRANCH  48  62
ATOM     62  C   UNL A   1      39.216  32.015  35.563  1.00  0.00     0.023 A 
ATOM     63  C   UNL A   1      39.714  33.325  35.697  1.00  0.00     0.031 A 
ATOM     64  C   UNL A   1      38.290  31.557  36.517  1.00  0.00     0.131 A 
ATOM     65  C   UNL A   1      39.301  34.123  36.771  1.00  0.00     0.055 A 
ATOM     66  C   UNL A   1      37.853  32.369  37.565  1.00  0.00     0.041 A 
ATOM     67  F   UNL A   1      37.784  30.316  36.435  1.00  0.00    -0.206 F 
ATOM     68  C   UNL A   1      38.368  33.654  37.702  1.00  0.00     0.022 A 
BRANCH  65  69
ATOM     69  S   UNL A   1      40.004  35.773  37.041  1.00  0.00     0.124 S 
ATOM     70  O   UNL A   1      39.652  36.453  35.797  1.00  0.00    -0.237 OA
ATOM     71  O   UNL A   1      39.277  36.225  38.225  1.00  0.00    -0.237 OA
ATOM     72  O   UNL A   1      41.427  35.522  37.233  1.00  0.00    -0.744 OA
ENDBRANCH  65  69
ENDBRANCH  48  62
BRANCH  49  73
ATOM     73  C   UNL A   1      42.740  26.297  28.115  1.00  0.00     0.023 A 
ATOM     74  C   UNL A   1      42.201  25.010  27.925  1.00  0.00     0.031 A 
ATOM     75  C   UNL A   1      43.850  26.671  27.342  1.00  0.00     0.131 A 
ATOM     76  C   UNL A   1      42.842  24.109  27.066  1.00  0.00     0.055 A 
ATOM     77  C   UNL A   1      44.433  25.796  26.422  1.00  0.00     0.041 A 
ATOM     78  F   UNL A   1      44.406  27.883  27.498  1.00  0.00    -0.206 F 
ATOM     79  C   UNL A   1      43.944  24.499  26.300  1.00  0.00     0.022 A 
BRANCH  76  80
ATOM     80  S   UNL A   1      42.374  22.354  27.051  1.00  0.00     0.124 S 
ATOM     81  O   UNL A   1      43.399  21.773  26.190  1.00  0.00    -0.237 OA
ATOM     82  O   UNL A   1      42.470  22.012  28.468  1.00  0.00    -0.237 OA
ATOM     83  O   UNL A   1      41.022  22.363  26.505  1.00  0.00    -0.744 OA
ENDBRANCH  76  80
ENDBRANCH  49  73
BRANCH  61  84
ATOM     84  C   UNL A   1      44.848  27.627  34.706  1.00  0.00     0.023 A 
ATOM     85  C   UNL A   1      44.740  26.504  35.547  1.00  0.00     0.031 A 
ATOM     86  C   UNL A   1      46.016  28.406  34.781  1.00  0.00     0.131 A 
ATOM     87  C   UNL A   1      45.762  26.217  36.461  1.00  0.00     0.055 A 
ATOM     88  C   UNL A   1      47.052  28.088  35.660  1.00  0.00     0.041 A 
ATOM     89  F   UNL A   1      46.162  29.492  34.005  1.00  0.00    -0.206 F 
ATOM     90  C   UNL A   1      46.919  26.998  36.517  1.00  0.00     0.022 A 
BRANCH  87  91
ATOM     91  S   UNL A   1      45.583  24.879  37.673  1.00  0.00     0.124 S 
ATOM     92  O   UNL A   1      44.176  25.003  38.052  1.00  0.00    -0.237 OA
ATOM     93  O   UNL A   1      45.913  23.699  36.880  1.00  0.00    -0.237 OA
ATOM     94  O   UNL A   1      46.540  25.220  38.720  1.00  0.00    -0.744 OA
ENDBRANCH  87  91
ENDBRANCH  61  84
ENDBRANCH  35  36
ENDBRANCH  27  30
ENDBRANCH  25  26
ENDBRANCH   1  25
TORSDOF 16
ENDMDL
