MODEL 1
REMARK VINA RESULT:     -13.3      0.000      0.000
REMARK SMILES NC(=O)c1c(-c2ccc(Cl)cc2)csc1NC(=O)[C@H]1[C@@H](C(=O)NCCCNC(=O)c2ccc(-c3c4nc(c(-c5cc(S(=O)(=O)[O-])ccc5F)c5ccc([nH]5)c(-c5cc(S(=O)(=O)[O-])ccc5F)c5nc(c(-c6cc(S(=O)(=O)[O-])ccc6F)c6ccc3[nH]6)C=C5)C=C4)cc2)[C@@H]2CC[C@H]1O2
REMARK SMILES IDX 25 1 24 2 23 3 21 4 22 5 20 7 19 8 96 9 93 10 95 11 97 12
REMARK SMILES IDX 94 13 17 14 16 15 18 17 15 18 4 19 5 20 13 21 14 22 2 23
REMARK SMILES IDX 1 24 3 27 6 28 7 29 12 30 8 31 11 32 9 33 10 34 26 35 27 36
REMARK SMILES IDX 28 37 29 39 30 40 31 41 92 42 32 43 91 44 33 45 34 46 35 47
REMARK SMILES IDX 85 48 36 49 90 50 84 51 86 52 37 53 89 54 83 55 82 56 38 58
REMARK SMILES IDX 70 59 50 60 69 61 51 62 54 63 68 64 87 65 52 66 53 67 67 69
REMARK SMILES IDX 88 70 55 71 39 72 40 73 48 74 41 75 47 76 49 77 46 78 42 79
REMARK SMILES IDX 43 80 44 81 45 82 71 83 72 84 80 85 73 86 79 87 81 88 78 89
REMARK SMILES IDX 74 90 75 91 76 92 77 93 56 94 57 95 65 96 58 97 64 98 66 99
REMARK SMILES IDX 63 100 59 101 60 102 61 103 62 104
REMARK H PARENT 23 6 16 16 1 25 1 26 27 38 86 57 54 68
REMARK Flexibility Score: inf
ROOT
ATOM      1  C   UNL A   1      31.629  31.944  26.858  1.00  0.00     0.042 C 
ENDROOT
BRANCH   1   2
ATOM      2  C   UNL A   1      31.816  30.482  26.428  1.00  0.00     0.117 C 
BRANCH   2   3
ATOM      3  N   UNL A   1      31.662  30.298  25.000  1.00  0.00    -0.356 N 
ATOM      4  C   UNL A   1      31.435  29.276  24.153  1.00  0.00     0.226 C 
ATOM      5  O   UNL A   1      31.423  29.642  22.967  1.00  0.00    -0.275 OA
ATOM      6  H   UNL A   1      31.745  31.152  24.517  1.00  0.00     0.163 HD
BRANCH   4   7
ATOM      7  C   UNL A   1      30.948  27.870  24.514  1.00  0.00     0.122 C 
ATOM      8  C   UNL A   1      31.780  26.580  24.648  1.00  0.00     0.123 C 
ATOM      9  C   UNL A   1      31.311  25.739  23.438  1.00  0.00     0.132 C 
ATOM     10  C   UNL A   1      29.956  27.425  23.407  1.00  0.00     0.132 C 
ATOM     11  C   UNL A   1      29.983  25.058  23.723  1.00  0.00     0.035 C 
ATOM     12  O   UNL A   1      30.856  26.742  22.506  1.00  0.00    -0.373 OA
ATOM     13  C   UNL A   1      29.056  26.264  23.856  1.00  0.00     0.035 C 
BRANCH   8  14
ATOM     14  C   UNL A   1      33.282  26.579  24.600  1.00  0.00     0.231 C 
ATOM     15  N   UNL A   1      34.039  25.538  25.079  1.00  0.00    -0.317 N 
ATOM     16  H   UNL A   1      34.979  25.787  25.229  1.00  0.00     0.170 HD
ATOM     17  O   UNL A   1      33.878  27.529  24.091  1.00  0.00    -0.274 OA
BRANCH  15  18
ATOM     18  C   UNL A   1      33.775  24.208  25.398  1.00  0.00     0.108 A 
ATOM     19  C   UNL A   1      34.081  23.090  24.615  1.00  0.00     0.082 A 
ATOM     20  C   UNL A   1      33.603  21.864  25.238  1.00  0.00     0.007 A 
ATOM     21  C   UNL A   1      32.968  22.120  26.435  1.00  0.00     0.076 A 
ATOM     22  S   UNL A   1      32.862  23.774  26.757  1.00  0.00    -0.125 S 
BRANCH  19  23
ATOM     23  C   UNL A   1      34.786  23.224  23.342  1.00  0.00     0.252 C 
ATOM     24  N   UNL A   1      36.077  22.791  23.309  1.00  0.00    -0.365 N 
ATOM     25  H   UNL A   1      36.598  22.860  22.476  1.00  0.00     0.159 HD
ATOM     26  H   UNL A   1      36.490  22.411  24.117  1.00  0.00     0.159 HD
ATOM     27  O   UNL A   1      34.241  23.647  22.326  1.00  0.00    -0.269 OA
ENDBRANCH  19  23
BRANCH  20  28
ATOM     28  C   UNL A   1      33.710  20.481  24.791  1.00  0.00    -0.017 A 
ATOM     29  C   UNL A   1      34.933  19.804  24.922  1.00  0.00     0.010 A 
ATOM     30  C   UNL A   1      32.616  19.820  24.221  1.00  0.00     0.010 A 
ATOM     31  C   UNL A   1      35.062  18.483  24.489  1.00  0.00     0.021 A 
ATOM     32  C   UNL A   1      32.746  18.496  23.790  1.00  0.00     0.021 A 
ATOM     33  C   UNL A   1      33.966  17.834  23.924  1.00  0.00     0.041 A 
ATOM     34  Cl  UNL A   1      34.126  16.208  23.388  1.00  0.00    -0.084 Cl
ENDBRANCH  20  28
ENDBRANCH  15  18
ENDBRANCH   8  14
ENDBRANCH   4   7
ENDBRANCH   2   3
ENDBRANCH   1   2
BRANCH   1  35
ATOM     35  C   UNL A   1      32.886  32.686  27.310  1.00  0.00     0.118 C 
BRANCH  35  36
ATOM     36  N   UNL A   1      32.628  34.059  27.707  1.00  0.00    -0.352 N 
ATOM     37  C   UNL A   1      33.218  34.804  28.703  1.00  0.00     0.251 C 
ATOM     38  H   UNL A   1      31.931  34.524  27.190  1.00  0.00     0.163 HD
ATOM     39  O   UNL A   1      32.737  35.896  28.995  1.00  0.00    -0.269 OA
BRANCH  37  40
ATOM     40  C   UNL A   1      34.394  34.287  29.449  1.00  0.00     0.039 A 
ATOM     41  C   UNL A   1      34.177  33.577  30.634  1.00  0.00     0.014 A 
ATOM     42  C   UNL A   1      35.704  34.507  29.009  1.00  0.00     0.014 A 
ATOM     43  C   UNL A   1      35.259  33.032  31.334  1.00  0.00     0.010 A 
ATOM     44  C   UNL A   1      36.776  33.898  29.668  1.00  0.00     0.010 A 
ATOM     45  C   UNL A   1      36.567  33.151  30.838  1.00  0.00    -0.014 A 
BRANCH  45  46
ATOM     46  C   UNL A   1      37.715  32.491  31.525  1.00  0.00     0.031 A 
ATOM     47  C   UNL A   1      38.452  31.353  30.867  1.00  0.00     0.074 A 
ATOM     48  C   UNL A   1      38.070  32.885  32.765  1.00  0.00     0.049 A 
ATOM     49  N   UNL A   1      39.435  30.622  31.330  1.00  0.00    -0.248 NA
ATOM     50  C   UNL A   1      38.008  30.973  29.517  1.00  0.00     0.031 C 
ATOM     51  C   UNL A   1      37.421  33.954  33.527  1.00  0.00     0.029 A 
ATOM     52  N   UNL A   1      39.057  32.434  33.608  1.00  0.00    -0.354 N 
ATOM     53  C   UNL A   1      39.722  29.692  30.337  1.00  0.00     0.074 A 
ATOM     54  C   UNL A   1      38.766  29.915  29.271  1.00  0.00     0.031 C 
ATOM     55  C   UNL A   1      38.044  34.094  34.708  1.00  0.00     0.029 A 
ATOM     56  C   UNL A   1      39.099  33.091  34.817  1.00  0.00     0.049 A 
ATOM     57  H   UNL A   1      39.678  31.707  33.369  1.00  0.00     0.167 HD
ATOM     58  C   UNL A   1      40.702  28.754  30.305  1.00  0.00     0.034 A 
ATOM     59  C   UNL A   1      39.881  32.899  35.899  1.00  0.00     0.034 A 
ATOM     60  C   UNL A   1      41.648  28.541  31.375  1.00  0.00     0.049 A 
ATOM     61  C   UNL A   1      40.928  31.814  35.863  1.00  0.00     0.074 A 
ATOM     62  C   UNL A   1      42.708  27.651  31.422  1.00  0.00     0.029 A 
ATOM     63  N   UNL A   1      41.642  29.210  32.592  1.00  0.00    -0.354 N 
ATOM     64  N   UNL A   1      41.218  30.976  34.894  1.00  0.00    -0.248 NA
ATOM     65  C   UNL A   1      41.759  31.653  37.064  1.00  0.00     0.031 C 
ATOM     66  C   UNL A   1      43.288  27.722  32.693  1.00  0.00     0.029 A 
ATOM     67  C   UNL A   1      42.653  28.723  33.411  1.00  0.00     0.049 A 
ATOM     68  H   UNL A   1      41.013  29.924  32.840  1.00  0.00     0.167 HD
ATOM     69  C   UNL A   1      42.287  30.214  35.358  1.00  0.00     0.074 A 
ATOM     70  C   UNL A   1      42.599  30.702  36.685  1.00  0.00     0.031 C 
ATOM     71  C   UNL A   1      42.953  29.205  34.740  1.00  0.00     0.034 A 
BRANCH  58  72
ATOM     72  C   UNL A   1      40.777  27.864  29.084  1.00  0.00     0.023 A 
ATOM     73  C   UNL A   1      41.691  28.111  28.043  1.00  0.00     0.031 A 
ATOM     74  C   UNL A   1      39.912  26.764  28.948  1.00  0.00     0.131 A 
ATOM     75  C   UNL A   1      41.665  27.321  26.884  1.00  0.00     0.055 A 
ATOM     76  C   UNL A   1      39.951  25.928  27.829  1.00  0.00     0.041 A 
ATOM     77  F   UNL A   1      39.005  26.486  29.896  1.00  0.00    -0.206 F 
ATOM     78  C   UNL A   1      40.821  26.214  26.781  1.00  0.00     0.022 A 
BRANCH  75  79
ATOM     79  S   UNL A   1      42.643  27.855  25.451  1.00  0.00     0.124 S 
ATOM     80  O   UNL A   1      42.647  26.646  24.630  1.00  0.00    -0.237 OA
ATOM     81  O   UNL A   1      41.864  28.975  24.937  1.00  0.00    -0.237 OA
ATOM     82  O   UNL A   1      43.937  28.208  26.032  1.00  0.00    -0.744 OA
ENDBRANCH  75  79
ENDBRANCH  58  72
BRANCH  59  83
ATOM     83  C   UNL A   1      39.697  33.735  37.124  1.00  0.00     0.023 A 
ATOM     84  C   UNL A   1      40.521  34.842  37.378  1.00  0.00     0.031 A 
ATOM     85  C   UNL A   1      38.723  33.405  38.084  1.00  0.00     0.131 A 
ATOM     86  C   UNL A   1      40.389  35.551  38.585  1.00  0.00     0.055 A 
ATOM     87  C   UNL A   1      38.556  34.150  39.253  1.00  0.00     0.041 A 
ATOM     88  F   UNL A   1      37.908  32.355  37.895  1.00  0.00    -0.206 F 
ATOM     89  C   UNL A   1      39.402  35.222  39.515  1.00  0.00     0.022 A 
BRANCH  86  90
ATOM     90  S   UNL A   1      41.596  36.851  38.965  1.00  0.00     0.124 S 
ATOM     91  O   UNL A   1      42.349  36.246  40.059  1.00  0.00    -0.237 OA
ATOM     92  O   UNL A   1      42.304  36.990  37.697  1.00  0.00    -0.237 OA
ATOM     93  O   UNL A   1      40.760  37.991  39.338  1.00  0.00    -0.744 OA
ENDBRANCH  86  90
ENDBRANCH  59  83
BRANCH  71  94
ATOM     94  C   UNL A   1      44.124  28.596  35.476  1.00  0.00     0.023 A 
ATOM     95  C   UNL A   1      43.960  27.548  36.400  1.00  0.00     0.031 A 
ATOM     96  C   UNL A   1      45.426  29.081  35.256  1.00  0.00     0.131 A 
ATOM     97  C   UNL A   1      45.069  27.061  37.111  1.00  0.00     0.055 A 
ATOM     98  C   UNL A   1      46.535  28.545  35.913  1.00  0.00     0.041 A 
ATOM     99  F   UNL A   1      45.645  30.084  34.390  1.00  0.00    -0.206 F 
ATOM    100  C   UNL A   1      46.357  27.538  36.857  1.00  0.00     0.022 A 
BRANCH  97 101
ATOM    101  S   UNL A   1      44.793  25.866  38.447  1.00  0.00     0.124 S 
ATOM    102  O   UNL A   1      44.328  24.693  37.713  1.00  0.00    -0.237 OA
ATOM    103  O   UNL A   1      46.118  25.757  39.049  1.00  0.00    -0.237 OA
ATOM    104  O   UNL A   1      43.785  26.513  39.285  1.00  0.00    -0.744 OA
ENDBRANCH  97 101
ENDBRANCH  71  94
ENDBRANCH  45  46
ENDBRANCH  37  40
ENDBRANCH  35  36
ENDBRANCH   1  35
TORSDOF 17
ENDMDL
MODEL 2
REMARK VINA RESULT:     -13.2      1.357      1.631
REMARK SMILES NC(=O)c1c(-c2ccc(Cl)cc2)csc1NC(=O)[C@H]1[C@@H](C(=O)NCCCNC(=O)c2ccc(-c3c4nc(c(-c5cc(S(=O)(=O)[O-])ccc5F)c5ccc([nH]5)c(-c5cc(S(=O)(=O)[O-])ccc5F)c5nc(c(-c6cc(S(=O)(=O)[O-])ccc6F)c6ccc3[nH]6)C=C5)C=C4)cc2)[C@@H]2CC[C@H]1O2
REMARK SMILES IDX 25 1 24 2 23 3 21 4 22 5 20 7 19 8 96 9 93 10 95 11 97 12
REMARK SMILES IDX 94 13 17 14 16 15 18 17 15 18 4 19 5 20 13 21 14 22 2 23
REMARK SMILES IDX 1 24 3 27 6 28 7 29 12 30 8 31 11 32 9 33 10 34 26 35 27 36
REMARK SMILES IDX 28 37 29 39 30 40 31 41 92 42 32 43 91 44 33 45 34 46 35 47
REMARK SMILES IDX 85 48 36 49 90 50 84 51 86 52 37 53 89 54 83 55 82 56 38 58
REMARK SMILES IDX 70 59 50 60 69 61 51 62 54 63 68 64 87 65 52 66 53 67 67 69
REMARK SMILES IDX 88 70 55 71 39 72 40 73 48 74 41 75 47 76 49 77 46 78 42 79
REMARK SMILES IDX 43 80 44 81 45 82 71 83 72 84 80 85 73 86 79 87 81 88 78 89
REMARK SMILES IDX 74 90 75 91 76 92 77 93 56 94 57 95 65 96 58 97 64 98 66 99
REMARK SMILES IDX 63 100 59 101 60 102 61 103 62 104
REMARK H PARENT 23 6 16 16 1 25 1 26 27 38 86 57 54 68
REMARK Flexibility Score: inf
ROOT
ATOM      1  C   UNL A   1      31.809  31.595  26.722  1.00  0.00     0.042 C 
ENDROOT
BRANCH   1   2
ATOM      2  C   UNL A   1      32.048  30.200  26.126  1.00  0.00     0.117 C 
BRANCH   2   3
ATOM      3  N   UNL A   1      31.592  30.096  24.754  1.00  0.00    -0.356 N 
ATOM      4  C   UNL A   1      31.180  29.122  23.921  1.00  0.00     0.226 C 
ATOM      5  O   UNL A   1      30.921  29.554  22.786  1.00  0.00    -0.275 OA
ATOM      6  H   UNL A   1      31.580  30.975  24.313  1.00  0.00     0.163 HD
BRANCH   4   7
ATOM      7  C   UNL A   1      30.767  27.698  24.299  1.00  0.00     0.122 C 
ATOM      8  C   UNL A   1      31.671  26.469  24.515  1.00  0.00     0.123 C 
ATOM      9  C   UNL A   1      31.323  25.567  23.310  1.00  0.00     0.132 C 
ATOM     10  C   UNL A   1      29.866  27.158  23.157  1.00  0.00     0.132 C 
ATOM     11  C   UNL A   1      30.028  24.808  23.547  1.00  0.00     0.035 C 
ATOM     12  O   UNL A   1      30.854  26.512  22.325  1.00  0.00    -0.373 OA
ATOM     13  C   UNL A   1      29.019  25.953  23.595  1.00  0.00     0.035 C 
BRANCH   8  14
ATOM     14  C   UNL A   1      33.171  26.566  24.545  1.00  0.00     0.231 C 
ATOM     15  N   UNL A   1      33.966  25.594  25.100  1.00  0.00    -0.317 N 
ATOM     16  H   UNL A   1      34.879  25.910  25.289  1.00  0.00     0.170 HD
ATOM     17  O   UNL A   1      33.731  27.536  24.032  1.00  0.00    -0.274 OA
BRANCH  15  18
ATOM     18  C   UNL A   1      33.771  24.261  25.455  1.00  0.00     0.108 A 
ATOM     19  C   UNL A   1      33.990  23.145  24.640  1.00  0.00     0.082 A 
ATOM     20  C   UNL A   1      33.622  21.914  25.324  1.00  0.00     0.007 A 
ATOM     21  C   UNL A   1      33.148  22.164  26.594  1.00  0.00     0.076 A 
ATOM     22  S   UNL A   1      33.056  23.818  26.924  1.00  0.00    -0.125 S 
BRANCH  19  23
ATOM     23  C   UNL A   1      34.516  23.286  23.284  1.00  0.00     0.252 C 
ATOM     24  N   UNL A   1      33.630  23.121  22.263  1.00  0.00    -0.365 N 
ATOM     25  H   UNL A   1      33.933  23.204  21.330  1.00  0.00     0.159 HD
ATOM     26  H   UNL A   1      32.687  22.916  22.458  1.00  0.00     0.159 HD
ATOM     27  O   UNL A   1      35.682  23.599  23.057  1.00  0.00    -0.269 OA
ENDBRANCH  19  23
BRANCH  20  28
ATOM     28  C   UNL A   1      33.693  20.531  24.869  1.00  0.00    -0.017 A 
ATOM     29  C   UNL A   1      32.529  19.893  24.413  1.00  0.00     0.010 A 
ATOM     30  C   UNL A   1      34.901  19.824  24.892  1.00  0.00     0.010 A 
ATOM     31  C   UNL A   1      32.571  18.564  23.985  1.00  0.00     0.021 A 
ATOM     32  C   UNL A   1      34.942  18.495  24.461  1.00  0.00     0.021 A 
ATOM     33  C   UNL A   1      33.779  17.870  24.011  1.00  0.00     0.041 A 
ATOM     34  Cl  UNL A   1      33.830  16.234  23.486  1.00  0.00    -0.084 Cl
ENDBRANCH  20  28
ENDBRANCH  15  18
ENDBRANCH   8  14
ENDBRANCH   4   7
ENDBRANCH   2   3
ENDBRANCH   1   2
BRANCH   1  35
ATOM     35  C   UNL A   1      33.035  32.317  27.277  1.00  0.00     0.118 C 
BRANCH  35  36
ATOM     36  N   UNL A   1      32.765  33.693  27.658  1.00  0.00    -0.352 N 
ATOM     37  C   UNL A   1      33.341  34.450  28.652  1.00  0.00     0.251 C 
ATOM     38  H   UNL A   1      32.071  34.148  27.129  1.00  0.00     0.163 HD
ATOM     39  O   UNL A   1      32.851  35.542  28.929  1.00  0.00    -0.269 OA
BRANCH  37  40
ATOM     40  C   UNL A   1      34.513  33.947  29.415  1.00  0.00     0.039 A 
ATOM     41  C   UNL A   1      34.295  33.045  30.460  1.00  0.00     0.014 A 
ATOM     42  C   UNL A   1      35.817  34.364  29.128  1.00  0.00     0.014 A 
ATOM     43  C   UNL A   1      35.379  32.512  31.166  1.00  0.00     0.010 A 
ATOM     44  C   UNL A   1      36.902  33.775  29.782  1.00  0.00     0.010 A 
ATOM     45  C   UNL A   1      36.698  32.838  30.808  1.00  0.00    -0.014 A 
BRANCH  45  46
ATOM     46  C   UNL A   1      37.861  32.201  31.489  1.00  0.00     0.031 A 
ATOM     47  C   UNL A   1      38.624  31.085  30.822  1.00  0.00     0.074 A 
ATOM     48  C   UNL A   1      38.208  32.595  32.732  1.00  0.00     0.049 A 
ATOM     49  N   UNL A   1      39.625  30.375  31.280  1.00  0.00    -0.248 NA
ATOM     50  C   UNL A   1      38.188  30.704  29.471  1.00  0.00     0.031 C 
ATOM     51  C   UNL A   1      37.535  33.643  33.503  1.00  0.00     0.029 A 
ATOM     52  N   UNL A   1      39.207  32.161  33.571  1.00  0.00    -0.354 N 
ATOM     53  C   UNL A   1      39.933  29.459  30.279  1.00  0.00     0.074 A 
ATOM     54  C   UNL A   1      38.971  29.667  29.216  1.00  0.00     0.031 C 
ATOM     55  C   UNL A   1      38.156  33.788  34.684  1.00  0.00     0.029 A 
ATOM     56  C   UNL A   1      39.234  32.810  34.785  1.00  0.00     0.049 A 
ATOM     57  H   UNL A   1      39.844  31.451  33.326  1.00  0.00     0.167 HD
ATOM     58  C   UNL A   1      40.935  28.544  30.240  1.00  0.00     0.034 A 
ATOM     59  C   UNL A   1      40.021  32.629  35.865  1.00  0.00     0.034 A 
ATOM     60  C   UNL A   1      41.887  28.347  31.307  1.00  0.00     0.049 A 
ATOM     61  C   UNL A   1      41.094  31.569  35.820  1.00  0.00     0.074 A 
ATOM     62  C   UNL A   1      42.967  27.481  31.348  1.00  0.00     0.029 A 
ATOM     63  N   UNL A   1      41.866  29.006  32.530  1.00  0.00    -0.354 N 
ATOM     64  N   UNL A   1      41.403  30.746  34.845  1.00  0.00    -0.248 NA
ATOM     65  C   UNL A   1      41.930  31.420  37.018  1.00  0.00     0.031 C 
ATOM     66  C   UNL A   1      43.546  27.557  32.619  1.00  0.00     0.029 A 
ATOM     67  C   UNL A   1      42.889  28.538  33.344  1.00  0.00     0.049 A 
ATOM     68  H   UNL A   1      41.220  29.704  32.783  1.00  0.00     0.167 HD
ATOM     69  C   UNL A   1      42.490  30.006  35.302  1.00  0.00     0.074 A 
ATOM     70  C   UNL A   1      42.792  30.492  36.632  1.00  0.00     0.031 C 
ATOM     71  C   UNL A   1      43.179  29.017  34.676  1.00  0.00     0.034 A 
BRANCH  58  72
ATOM     72  C   UNL A   1      41.030  27.666  29.012  1.00  0.00     0.023 A 
ATOM     73  C   UNL A   1      42.018  27.868  28.032  1.00  0.00     0.031 A 
ATOM     74  C   UNL A   1      40.109  26.622  28.809  1.00  0.00     0.131 A 
ATOM     75  C   UNL A   1      42.015  27.094  26.861  1.00  0.00     0.055 A 
ATOM     76  C   UNL A   1      40.165  25.798  27.682  1.00  0.00     0.041 A 
ATOM     77  F   UNL A   1      39.131  26.390  29.697  1.00  0.00    -0.206 F 
ATOM     78  C   UNL A   1      41.112  26.042  26.692  1.00  0.00     0.022 A 
BRANCH  75  79
ATOM     79  S   UNL A   1      43.108  27.582  25.497  1.00  0.00     0.124 S 
ATOM     80  O   UNL A   1      43.602  26.287  25.037  1.00  0.00    -0.237 OA
ATOM     81  O   UNL A   1      42.196  28.277  24.596  1.00  0.00    -0.237 OA
ATOM     82  O   UNL A   1      44.108  28.427  26.147  1.00  0.00    -0.744 OA
ENDBRANCH  75  79
ENDBRANCH  58  72
BRANCH  59  83
ATOM     83  C   UNL A   1      39.819  33.451  37.095  1.00  0.00     0.023 A 
ATOM     84  C   UNL A   1      39.114  32.946  38.199  1.00  0.00     0.031 A 
ATOM     85  C   UNL A   1      40.288  34.776  37.165  1.00  0.00     0.131 A 
ATOM     86  C   UNL A   1      38.855  33.775  39.303  1.00  0.00     0.055 A 
ATOM     87  C   UNL A   1      40.081  35.575  38.291  1.00  0.00     0.041 A 
ATOM     88  F   UNL A   1      40.967  35.312  36.139  1.00  0.00    -0.206 F 
ATOM     89  C   UNL A   1      39.348  35.079  39.363  1.00  0.00     0.022 A 
BRANCH  86  90
ATOM     90  S   UNL A   1      37.776  33.153  40.623  1.00  0.00     0.124 S 
ATOM     91  O   UNL A   1      38.447  31.912  40.995  1.00  0.00    -0.237 OA
ATOM     92  O   UNL A   1      37.836  34.234  41.600  1.00  0.00    -0.237 OA
ATOM     93  O   UNL A   1      36.484  32.990  39.957  1.00  0.00    -0.744 OA
ENDBRANCH  86  90
ENDBRANCH  59  83
BRANCH  71  94
ATOM     94  C   UNL A   1      44.365  28.431  35.407  1.00  0.00     0.023 A 
ATOM     95  C   UNL A   1      44.221  27.409  36.363  1.00  0.00     0.031 A 
ATOM     96  C   UNL A   1      45.662  28.911  35.148  1.00  0.00     0.131 A 
ATOM     97  C   UNL A   1      45.343  26.944  37.066  1.00  0.00     0.055 A 
ATOM     98  C   UNL A   1      46.784  28.395  35.799  1.00  0.00     0.041 A 
ATOM     99  F   UNL A   1      45.862  29.890  34.250  1.00  0.00    -0.206 F 
ATOM    100  C   UNL A   1      46.626  27.416  36.775  1.00  0.00     0.022 A 
BRANCH  97 101
ATOM    101  S   UNL A   1      45.095  25.787  38.440  1.00  0.00     0.124 S 
ATOM    102  O   UNL A   1      44.085  26.476  39.238  1.00  0.00    -0.237 OA
ATOM    103  O   UNL A   1      44.651  24.577  37.755  1.00  0.00    -0.237 OA
ATOM    104  O   UNL A   1      46.417  25.697  39.058  1.00  0.00    -0.744 OA
ENDBRANCH  97 101
ENDBRANCH  71  94
ENDBRANCH  45  46
ENDBRANCH  37  40
ENDBRANCH  35  36
ENDBRANCH   1  35
TORSDOF 17
ENDMDL
MODEL 3
REMARK VINA RESULT:     -13.0      3.911      9.365
REMARK SMILES NC(=O)c1c(-c2ccc(Cl)cc2)csc1NC(=O)[C@H]1[C@@H](C(=O)NCCCNC(=O)c2ccc(-c3c4nc(c(-c5cc(S(=O)(=O)[O-])ccc5F)c5ccc([nH]5)c(-c5cc(S(=O)(=O)[O-])ccc5F)c5nc(c(-c6cc(S(=O)(=O)[O-])ccc6F)c6ccc3[nH]6)C=C5)C=C4)cc2)[C@@H]2CC[C@H]1O2
REMARK SMILES IDX 25 1 24 2 23 3 21 4 22 5 20 7 19 8 96 9 93 10 95 11 97 12
REMARK SMILES IDX 94 13 17 14 16 15 18 17 15 18 4 19 5 20 13 21 14 22 2 23
REMARK SMILES IDX 1 24 3 27 6 28 7 29 12 30 8 31 11 32 9 33 10 34 26 35 27 36
REMARK SMILES IDX 28 37 29 39 30 40 31 41 92 42 32 43 91 44 33 45 34 46 35 47
REMARK SMILES IDX 85 48 36 49 90 50 84 51 86 52 37 53 89 54 83 55 82 56 38 58
REMARK SMILES IDX 70 59 50 60 69 61 51 62 54 63 68 64 87 65 52 66 53 67 67 69
REMARK SMILES IDX 88 70 55 71 39 72 40 73 48 74 41 75 47 76 49 77 46 78 42 79
REMARK SMILES IDX 43 80 44 81 45 82 71 83 72 84 80 85 73 86 79 87 81 88 78 89
REMARK SMILES IDX 74 90 75 91 76 92 77 93 56 94 57 95 65 96 58 97 64 98 66 99
REMARK SMILES IDX 63 100 59 101 60 102 61 103 62 104
REMARK H PARENT 23 6 16 16 1 25 1 26 27 38 86 57 54 68
REMARK Flexibility Score: inf
ROOT
ATOM      1  C   UNL A   1      33.426  27.973  26.707  1.00  0.00     0.042 C 
ENDROOT
BRANCH   1   2
ATOM      2  C   UNL A   1      32.061  27.409  26.286  1.00  0.00     0.117 C 
BRANCH   2   3
ATOM      3  N   UNL A   1      31.786  26.116  26.878  1.00  0.00    -0.356 N 
ATOM      4  C   UNL A   1      32.130  24.834  26.656  1.00  0.00     0.226 C 
ATOM      5  O   UNL A   1      31.582  24.055  27.453  1.00  0.00    -0.275 OA
ATOM      6  H   UNL A   1      31.187  26.197  27.655  1.00  0.00     0.163 HD
BRANCH   4   7
ATOM      7  C   UNL A   1      33.263  24.324  25.762  1.00  0.00     0.122 C 
ATOM      8  C   UNL A   1      33.163  23.413  24.524  1.00  0.00     0.123 C 
ATOM      9  C   UNL A   1      33.813  22.098  25.008  1.00  0.00     0.132 C 
ATOM     10  C   UNL A   1      34.197  23.457  26.646  1.00  0.00     0.132 C 
ATOM     11  C   UNL A   1      35.330  22.187  24.971  1.00  0.00     0.035 C 
ATOM     12  O   UNL A   1      33.619  22.149  26.438  1.00  0.00    -0.373 OA
ATOM     13  C   UNL A   1      35.588  23.264  26.022  1.00  0.00     0.035 C 
BRANCH   8  14
ATOM     14  C   UNL A   1      31.846  23.026  23.910  1.00  0.00     0.231 C 
ATOM     15  N   UNL A   1      30.963  23.949  23.407  1.00  0.00    -0.317 N 
ATOM     16  H   UNL A   1      30.055  23.586  23.293  1.00  0.00     0.170 HD
ATOM     17  O   UNL A   1      31.540  21.837  23.821  1.00  0.00    -0.274 OA
BRANCH  15  18
ATOM     18  C   UNL A   1      31.064  25.284  23.020  1.00  0.00     0.108 A 
ATOM     19  C   UNL A   1      30.203  26.323  23.389  1.00  0.00     0.082 A 
ATOM     20  C   UNL A   1      30.580  27.573  22.747  1.00  0.00     0.007 A 
ATOM     21  C   UNL A   1      31.683  27.411  21.936  1.00  0.00     0.076 A 
ATOM     22  S   UNL A   1      32.193  25.803  21.869  1.00  0.00    -0.125 S 
BRANCH  19  23
ATOM     23  C   UNL A   1      29.086  26.094  24.304  1.00  0.00     0.252 C 
ATOM     24  N   UNL A   1      27.836  26.325  23.814  1.00  0.00    -0.365 N 
ATOM     25  H   UNL A   1      27.049  26.186  24.389  1.00  0.00     0.159 HD
ATOM     26  H   UNL A   1      27.720  26.630  22.886  1.00  0.00     0.159 HD
ATOM     27  O   UNL A   1      29.242  25.658  25.441  1.00  0.00    -0.269 OA
ENDBRANCH  19  23
BRANCH  20  28
ATOM     28  C   UNL A   1      29.982  28.898  22.850  1.00  0.00    -0.017 A 
ATOM     29  C   UNL A   1      30.367  29.750  23.898  1.00  0.00     0.010 A 
ATOM     30  C   UNL A   1      29.022  29.331  21.929  1.00  0.00     0.010 A 
ATOM     31  C   UNL A   1      29.798  31.019  24.024  1.00  0.00     0.021 A 
ATOM     32  C   UNL A   1      28.454  30.603  22.054  1.00  0.00     0.021 A 
ATOM     33  C   UNL A   1      28.843  31.441  23.100  1.00  0.00     0.041 A 
ATOM     34  Cl  UNL A   1      28.141  33.003  23.257  1.00  0.00    -0.084 Cl
ENDBRANCH  20  28
ENDBRANCH  15  18
ENDBRANCH   8  14
ENDBRANCH   4   7
ENDBRANCH   2   3
ENDBRANCH   1   2
BRANCH   1  35
ATOM     35  C   UNL A   1      33.948  29.163  25.904  1.00  0.00     0.118 C 
BRANCH  35  36
ATOM     36  N   UNL A   1      33.784  30.433  26.591  1.00  0.00    -0.352 N 
ATOM     37  C   UNL A   1      34.506  30.955  27.639  1.00  0.00     0.251 C 
ATOM     38  H   UNL A   1      33.051  31.000  26.259  1.00  0.00     0.163 HD
ATOM     39  O   UNL A   1      34.100  31.973  28.195  1.00  0.00    -0.269 OA
BRANCH  37  40
ATOM     40  C   UNL A   1      35.738  30.284  28.129  1.00  0.00     0.039 A 
ATOM     41  C   UNL A   1      36.906  30.390  27.367  1.00  0.00     0.014 A 
ATOM     42  C   UNL A   1      35.755  29.540  29.313  1.00  0.00     0.014 A 
ATOM     43  C   UNL A   1      38.097  29.814  27.823  1.00  0.00     0.010 A 
ATOM     44  C   UNL A   1      36.961  29.031  29.804  1.00  0.00     0.010 A 
ATOM     45  C   UNL A   1      38.148  29.164  29.067  1.00  0.00    -0.014 A 
BRANCH  45  46
ATOM     46  C   UNL A   1      39.433  28.633  29.606  1.00  0.00     0.031 A 
ATOM     47  C   UNL A   1      40.072  29.257  30.820  1.00  0.00     0.074 A 
ATOM     48  C   UNL A   1      40.054  27.614  28.977  1.00  0.00     0.049 A 
ATOM     49  N   UNL A   1      41.211  28.969  31.400  1.00  0.00    -0.248 NA
ATOM     50  C   UNL A   1      39.343  30.367  31.452  1.00  0.00     0.031 C 
ATOM     51  C   UNL A   1      39.559  26.939  27.775  1.00  0.00     0.029 A 
ATOM     52  N   UNL A   1      41.236  26.968  29.252  1.00  0.00    -0.354 N 
ATOM     53  C   UNL A   1      41.340  29.864  32.457  1.00  0.00     0.074 A 
ATOM     54  C   UNL A   1      40.190  30.744  32.398  1.00  0.00     0.031 C 
ATOM     55  C   UNL A   1      40.413  25.960  27.436  1.00  0.00     0.029 A 
ATOM     56  C   UNL A   1      41.545  25.969  28.356  1.00  0.00     0.049 A 
ATOM     57  H   UNL A   1      41.808  27.198  30.020  1.00  0.00     0.167 HD
ATOM     58  C   UNL A   1      42.314  29.935  33.399  1.00  0.00     0.034 A 
ATOM     59  C   UNL A   1      42.624  25.164  28.270  1.00  0.00     0.034 A 
ATOM     60  C   UNL A   1      43.455  29.052  33.445  1.00  0.00     0.049 A 
ATOM     61  C   UNL A   1      43.720  25.297  29.297  1.00  0.00     0.074 A 
ATOM     62  C   UNL A   1      44.472  29.009  34.385  1.00  0.00     0.029 A 
ATOM     63  N   UNL A   1      43.746  28.070  32.507  1.00  0.00    -0.354 N 
ATOM     64  N   UNL A   1      43.801  26.117  30.320  1.00  0.00    -0.248 NA
ATOM     65  C   UNL A   1      44.868  24.390  29.164  1.00  0.00     0.031 C 
ATOM     66  C   UNL A   1      45.415  28.062  33.971  1.00  0.00     0.029 A 
ATOM     67  C   UNL A   1      44.945  27.445  32.823  1.00  0.00     0.049 A 
ATOM     68  H   UNL A   1      43.184  27.849  31.730  1.00  0.00     0.167 HD
ATOM     69  C   UNL A   1      44.992  25.799  30.968  1.00  0.00     0.074 A 
ATOM     70  C   UNL A   1      45.586  24.704  30.231  1.00  0.00     0.031 C 
ATOM     71  C   UNL A   1      45.541  26.360  32.077  1.00  0.00     0.034 A 
BRANCH  58  72
ATOM     72  C   UNL A   1      42.199  31.027  34.439  1.00  0.00     0.023 A 
ATOM     73  C   UNL A   1      42.787  32.291  34.254  1.00  0.00     0.031 A 
ATOM     74  C   UNL A   1      41.507  30.797  35.642  1.00  0.00     0.131 A 
ATOM     75  C   UNL A   1      42.741  33.245  35.282  1.00  0.00     0.055 A 
ATOM     76  C   UNL A   1      41.389  31.781  36.626  1.00  0.00     0.041 A 
ATOM     77  F   UNL A   1      40.940  29.606  35.888  1.00  0.00    -0.206 F 
ATOM     78  C   UNL A   1      42.022  33.009  36.456  1.00  0.00     0.022 A 
BRANCH  75  79
ATOM     79  S   UNL A   1      43.762  34.737  35.125  1.00  0.00     0.124 S 
ATOM     80  O   UNL A   1      43.626  35.328  36.454  1.00  0.00    -0.237 OA
ATOM     81  O   UNL A   1      45.073  34.188  34.800  1.00  0.00    -0.237 OA
ATOM     82  O   UNL A   1      43.112  35.484  34.050  1.00  0.00    -0.744 OA
ENDBRANCH  75  79
ENDBRANCH  58  72
BRANCH  59  83
ATOM     83  C   UNL A   1      42.741  24.171  27.160  1.00  0.00     0.023 A 
ATOM     84  C   UNL A   1      42.077  22.935  27.218  1.00  0.00     0.031 A 
ATOM     85  C   UNL A   1      43.561  24.426  26.046  1.00  0.00     0.131 A 
ATOM     86  C   UNL A   1      42.283  21.982  26.207  1.00  0.00     0.055 A 
ATOM     87  C   UNL A   1      43.713  23.499  25.013  1.00  0.00     0.041 A 
ATOM     88  F   UNL A   1      44.221  25.590  25.939  1.00  0.00    -0.206 F 
ATOM     89  C   UNL A   1      43.083  22.263  25.097  1.00  0.00     0.022 A 
BRANCH  86  90
ATOM     90  S   UNL A   1      41.566  20.328  26.412  1.00  0.00     0.124 S 
ATOM     91  O   UNL A   1      42.168  19.603  25.299  1.00  0.00    -0.237 OA
ATOM     92  O   UNL A   1      42.030  19.959  27.746  1.00  0.00    -0.237 OA
ATOM     93  O   UNL A   1      40.128  20.566  26.299  1.00  0.00    -0.744 OA
ENDBRANCH  86  90
ENDBRANCH  59  83
BRANCH  71  94
ATOM     94  C   UNL A   1      46.829  25.759  32.590  1.00  0.00     0.023 A 
ATOM     95  C   UNL A   1      46.844  24.761  33.581  1.00  0.00     0.031 A 
ATOM     96  C   UNL A   1      48.065  26.202  32.084  1.00  0.00     0.131 A 
ATOM     97  C   UNL A   1      48.068  24.283  34.075  1.00  0.00     0.055 A 
ATOM     98  C   UNL A   1      49.277  25.672  32.528  1.00  0.00     0.041 A 
ATOM     99  F   UNL A   1      48.115  27.157  31.140  1.00  0.00    -0.206 F 
ATOM    100  C   UNL A   1      49.283  24.717  33.540  1.00  0.00     0.022 A 
BRANCH  97 101
ATOM    101  S   UNL A   1      48.056  23.161  35.500  1.00  0.00     0.124 S 
ATOM    102  O   UNL A   1      47.115  22.132  35.067  1.00  0.00    -0.237 OA
ATOM    103  O   UNL A   1      49.454  22.750  35.587  1.00  0.00    -0.237 OA
ATOM    104  O   UNL A   1      47.590  24.005  36.599  1.00  0.00    -0.744 OA
ENDBRANCH  97 101
ENDBRANCH  71  94
ENDBRANCH  45  46
ENDBRANCH  37  40
ENDBRANCH  35  36
ENDBRANCH   1  35
TORSDOF 17
ENDMDL
