MODEL 1
REMARK VINA RESULT:     -12.7      0.000      0.000
REMARK SMILES C[C@@H]1CN(C(=O)c2c(F)cc(Br)cc2F)C[C@H]1C(=O)NCCCNC(=O)c1ccc(-c2c3nc(c(-c4cc(S(=O)(=O)[O-])ccc4F)c4ccc([nH]4)c(-c4cc(S(=O)(=O)[O-])ccc4F)c4nc(c(-c5cc(S(=O)(=O)[O-])ccc5F)c5ccc2[nH]5)C=C4)C=C3)cc1
REMARK SMILES IDX 22 1 21 2 20 3 18 4 19 5 17 7 1 8 2 9 3 10 4 11 16 12 5 13
REMARK SMILES IDX 6 14 7 15 8 16 14 17 9 18 10 19 13 20 15 21 11 22 12 23
REMARK SMILES IDX 23 24 24 25 25 26 26 28 27 29 28 30 89 31 29 32 88 33 30 34
REMARK SMILES IDX 31 35 32 36 82 37 33 38 87 39 81 40 83 41 34 42 86 43 80 44
REMARK SMILES IDX 79 45 35 47 67 48 47 49 66 50 48 51 51 52 65 53 84 54 49 55
REMARK SMILES IDX 50 56 64 58 85 59 52 60 36 61 37 62 45 63 38 64 44 65 46 66
REMARK SMILES IDX 43 67 39 68 40 69 41 70 42 71 68 72 69 73 77 74 70 75 76 76
REMARK SMILES IDX 78 77 75 78 71 79 72 80 73 81 74 82 53 83 54 84 62 85 55 86
REMARK SMILES IDX 61 87 63 88 60 89 56 90 57 91 58 92 59 93
REMARK H PARENT 20 6 24 27 83 46 51 57
REMARK Flexibility Score: inf
ROOT
ATOM      1  C   UNL A   1      31.513  32.080  26.548  1.00  0.00     0.042 C 
ENDROOT
BRANCH   1   2
ATOM      2  C   UNL A   1      31.731  30.665  26.038  1.00  0.00     0.117 C 
BRANCH   2   3
ATOM      3  N   UNL A   1      31.626  29.657  27.072  1.00  0.00    -0.356 N 
ATOM      4  C   UNL A   1      31.667  28.299  26.975  1.00  0.00     0.225 C 
ATOM      5  O   UNL A   1      31.603  27.660  28.031  1.00  0.00    -0.275 OA
ATOM      6  H   UNL A   1      31.505  30.006  27.985  1.00  0.00     0.163 HD
BRANCH   4   7
ATOM      7  C   UNL A   1      31.792  27.550  25.645  1.00  0.00     0.102 C 
ATOM      8  C   UNL A   1      33.716  28.137  24.081  1.00  0.00     0.010 C 
ATOM      9  C   UNL A   1      33.238  27.224  25.205  1.00  0.00     0.020 C 
ATOM     10  C   UNL A   1      33.192  25.748  24.773  1.00  0.00     0.124 C 
ATOM     11  N   UNL A   1      32.080  25.203  25.531  1.00  0.00    -0.337 N 
ATOM     12  C   UNL A   1      31.042  26.219  25.641  1.00  0.00     0.133 C 
BRANCH  11  13
ATOM     13  C   UNL A   1      31.925  24.007  26.216  1.00  0.00     0.259 C 
ATOM     14  O   UNL A   1      31.342  23.992  27.303  1.00  0.00    -0.269 OA
BRANCH  13  15
ATOM     15  C   UNL A   1      32.538  22.728  25.782  1.00  0.00     0.111 A 
ATOM     16  C   UNL A   1      33.393  21.965  26.580  1.00  0.00     0.140 A 
ATOM     17  C   UNL A   1      32.023  22.120  24.631  1.00  0.00     0.140 A 
ATOM     18  F   UNL A   1      33.909  22.443  27.719  1.00  0.00    -0.206 F 
ATOM     19  C   UNL A   1      33.710  20.642  26.264  1.00  0.00     0.056 A 
ATOM     20  C   UNL A   1      32.326  20.797  24.301  1.00  0.00     0.056 A 
ATOM     21  F   UNL A   1      31.203  22.789  23.807  1.00  0.00    -0.206 F 
ATOM     22  C   UNL A   1      33.160  20.058  25.131  1.00  0.00     0.023 A 
ATOM     23  Br  UNL A   1      33.521  18.247  24.739  1.00  0.00    -0.051 Br
ENDBRANCH  13  15
ENDBRANCH  11  13
ENDBRANCH   4   7
ENDBRANCH   2   3
ENDBRANCH   1   2
BRANCH   1  24
ATOM     24  C   UNL A   1      32.704  32.609  27.325  1.00  0.00     0.118 C 
BRANCH  24  25
ATOM     25  N   UNL A   1      32.539  34.014  27.696  1.00  0.00    -0.352 N 
ATOM     26  C   UNL A   1      33.134  34.784  28.668  1.00  0.00     0.251 C 
ATOM     27  H   UNL A   1      31.881  34.499  27.147  1.00  0.00     0.163 HD
ATOM     28  O   UNL A   1      32.640  35.883  28.933  1.00  0.00    -0.269 OA
BRANCH  26  29
ATOM     29  C   UNL A   1      34.318  34.312  29.425  1.00  0.00     0.039 A 
ATOM     30  C   UNL A   1      34.138  33.566  30.596  1.00  0.00     0.014 A 
ATOM     31  C   UNL A   1      35.610  34.629  29.018  1.00  0.00     0.014 A 
ATOM     32  C   UNL A   1      35.249  33.070  31.293  1.00  0.00     0.010 A 
ATOM     33  C   UNL A   1      36.703  34.023  29.626  1.00  0.00     0.010 A 
ATOM     34  C   UNL A   1      36.543  33.247  30.782  1.00  0.00    -0.014 A 
BRANCH  34  35
ATOM     35  C   UNL A   1      37.761  32.683  31.433  1.00  0.00     0.031 A 
ATOM     36  C   UNL A   1      38.499  31.547  30.763  1.00  0.00     0.074 A 
ATOM     37  C   UNL A   1      38.130  33.097  32.663  1.00  0.00     0.049 A 
ATOM     38  N   UNL A   1      39.425  30.760  31.246  1.00  0.00    -0.248 NA
ATOM     39  C   UNL A   1      38.104  31.223  29.381  1.00  0.00     0.031 C 
ATOM     40  C   UNL A   1      37.485  34.166  33.430  1.00  0.00     0.029 A 
ATOM     41  N   UNL A   1      39.125  32.650  33.500  1.00  0.00    -0.354 N 
ATOM     42  C   UNL A   1      39.684  29.822  30.249  1.00  0.00     0.074 A 
ATOM     43  C   UNL A   1      38.783  30.109  29.156  1.00  0.00     0.031 C 
ATOM     44  C   UNL A   1      38.109  34.301  34.612  1.00  0.00     0.029 A 
ATOM     45  C   UNL A   1      39.152  33.287  34.722  1.00  0.00     0.049 A 
ATOM     46  H   UNL A   1      39.760  31.940  33.250  1.00  0.00     0.167 HD
ATOM     47  C   UNL A   1      40.602  28.826  30.242  1.00  0.00     0.034 A 
ATOM     48  C   UNL A   1      39.908  33.059  35.817  1.00  0.00     0.034 A 
ATOM     49  C   UNL A   1      41.534  28.593  31.315  1.00  0.00     0.049 A 
ATOM     50  C   UNL A   1      40.925  31.941  35.779  1.00  0.00     0.074 A 
ATOM     51  C   UNL A   1      42.566  27.672  31.370  1.00  0.00     0.029 A 
ATOM     52  N   UNL A   1      41.555  29.287  32.516  1.00  0.00    -0.354 N 
ATOM     53  N   UNL A   1      41.187  31.097  34.808  1.00  0.00    -0.248 NA
ATOM     54  C   UNL A   1      41.753  31.749  36.978  1.00  0.00     0.031 C 
ATOM     55  C   UNL A   1      43.158  27.756  32.633  1.00  0.00     0.029 A 
ATOM     56  C   UNL A   1      42.560  28.791  33.331  1.00  0.00     0.049 A 
ATOM     57  H   UNL A   1      40.945  30.023  32.754  1.00  0.00     0.167 HD
ATOM     58  C   UNL A   1      42.243  30.310  35.265  1.00  0.00     0.074 A 
ATOM     59  C   UNL A   1      42.573  30.784  36.590  1.00  0.00     0.031 C 
ATOM     60  C   UNL A   1      42.888  29.292  34.642  1.00  0.00     0.034 A 
BRANCH  47  61
ATOM     61  C   UNL A   1      40.638  27.897  29.052  1.00  0.00     0.023 A 
ATOM     62  C   UNL A   1      41.568  28.056  28.012  1.00  0.00     0.031 A 
ATOM     63  C   UNL A   1      39.742  26.816  28.977  1.00  0.00     0.131 A 
ATOM     64  C   UNL A   1      41.547  27.179  26.916  1.00  0.00     0.055 A 
ATOM     65  C   UNL A   1      39.778  25.901  27.924  1.00  0.00     0.041 A 
ATOM     66  F   UNL A   1      38.816  26.627  29.931  1.00  0.00    -0.206 F 
ATOM     67  C   UNL A   1      40.679  26.085  26.879  1.00  0.00     0.022 A 
BRANCH  64  68
ATOM     68  S   UNL A   1      42.601  27.549  25.489  1.00  0.00     0.124 S 
ATOM     69  O   UNL A   1      43.884  27.821  26.133  1.00  0.00    -0.237 OA
ATOM     70  O   UNL A   1      42.526  26.317  24.712  1.00  0.00    -0.237 OA
ATOM     71  O   UNL A   1      41.958  28.710  24.878  1.00  0.00    -0.744 OA
ENDBRANCH  64  68
ENDBRANCH  47  61
BRANCH  48  72
ATOM     72  C   UNL A   1      39.730  33.873  37.059  1.00  0.00     0.023 A 
ATOM     73  C   UNL A   1      39.094  33.332  38.187  1.00  0.00     0.031 A 
ATOM     74  C   UNL A   1      40.107  35.227  37.107  1.00  0.00     0.131 A 
ATOM     75  C   UNL A   1      38.779  34.156  39.279  1.00  0.00     0.055 A 
ATOM     76  C   UNL A   1      39.859  36.025  38.226  1.00  0.00     0.041 A 
ATOM     77  F   UNL A   1      40.721  35.800  36.059  1.00  0.00    -0.206 F 
ATOM     78  C   UNL A   1      39.170  35.496  39.312  1.00  0.00     0.022 A 
BRANCH  75  79
ATOM     79  S   UNL A   1      37.716  33.488  40.588  1.00  0.00     0.124 S 
ATOM     80  O   UNL A   1      36.603  32.947  39.816  1.00  0.00    -0.237 OA
ATOM     81  O   UNL A   1      38.596  32.509  41.220  1.00  0.00    -0.237 OA
ATOM     82  O   UNL A   1      37.402  34.660  41.401  1.00  0.00    -0.744 OA
ENDBRANCH  75  79
ENDBRANCH  48  72
BRANCH  60  83
ATOM     83  C   UNL A   1      44.071  28.679  35.349  1.00  0.00     0.023 A 
ATOM     84  C   UNL A   1      43.925  27.656  36.301  1.00  0.00     0.031 A 
ATOM     85  C   UNL A   1      45.372  29.117  35.039  1.00  0.00     0.131 A 
ATOM     86  C   UNL A   1      45.060  27.134  36.940  1.00  0.00     0.055 A 
ATOM     87  C   UNL A   1      46.499  28.549  35.632  1.00  0.00     0.041 A 
ATOM     88  F   UNL A   1      45.568  30.094  34.138  1.00  0.00    -0.206 F 
ATOM     89  C   UNL A   1      46.346  27.559  36.596  1.00  0.00     0.022 A 
BRANCH  86  90
ATOM     90  S   UNL A   1      44.830  25.937  38.283  1.00  0.00     0.124 S 
ATOM     91  O   UNL A   1      46.094  26.044  39.005  1.00  0.00    -0.237 OA
ATOM     92  O   UNL A   1      43.656  26.463  38.974  1.00  0.00    -0.237 OA
ATOM     93  O   UNL A   1      44.620  24.671  37.584  1.00  0.00    -0.744 OA
ENDBRANCH  86  90
ENDBRANCH  60  83
ENDBRANCH  34  35
ENDBRANCH  26  29
ENDBRANCH  24  25
ENDBRANCH   1  24
TORSDOF 15
ENDMDL
MODEL 2
REMARK VINA RESULT:     -12.6      5.988     10.830
REMARK SMILES C[C@@H]1CN(C(=O)c2c(F)cc(Br)cc2F)C[C@H]1C(=O)NCCCNC(=O)c1ccc(-c2c3nc(c(-c4cc(S(=O)(=O)[O-])ccc4F)c4ccc([nH]4)c(-c4cc(S(=O)(=O)[O-])ccc4F)c4nc(c(-c5cc(S(=O)(=O)[O-])ccc5F)c5ccc2[nH]5)C=C4)C=C3)cc1
REMARK SMILES IDX 22 1 21 2 20 3 18 4 19 5 17 7 1 8 2 9 3 10 4 11 16 12 5 13
REMARK SMILES IDX 6 14 7 15 8 16 14 17 9 18 10 19 13 20 15 21 11 22 12 23
REMARK SMILES IDX 23 24 24 25 25 26 26 28 27 29 28 30 89 31 29 32 88 33 30 34
REMARK SMILES IDX 31 35 32 36 82 37 33 38 87 39 81 40 83 41 34 42 86 43 80 44
REMARK SMILES IDX 79 45 35 47 67 48 47 49 66 50 48 51 51 52 65 53 84 54 49 55
REMARK SMILES IDX 50 56 64 58 85 59 52 60 36 61 37 62 45 63 38 64 44 65 46 66
REMARK SMILES IDX 43 67 39 68 40 69 41 70 42 71 68 72 69 73 77 74 70 75 76 76
REMARK SMILES IDX 78 77 75 78 71 79 72 80 73 81 74 82 53 83 54 84 62 85 55 86
REMARK SMILES IDX 61 87 63 88 60 89 56 90 57 91 58 92 59 93
REMARK H PARENT 20 6 24 27 83 46 51 57
REMARK Flexibility Score: inf
ROOT
ATOM      1  C   UNL A   1      34.582  21.529  26.797  1.00  0.00     0.042 C 
ENDROOT
BRANCH   1   2
ATOM      2  C   UNL A   1      33.719  22.482  27.608  1.00  0.00     0.117 C 
BRANCH   2   3
ATOM      3  N   UNL A   1      32.303  22.353  27.332  1.00  0.00    -0.356 N 
ATOM      4  C   UNL A   1      31.595  22.701  26.222  1.00  0.00     0.225 C 
ATOM      5  O   UNL A   1      30.389  22.436  26.222  1.00  0.00    -0.275 OA
ATOM      6  H   UNL A   1      31.771  21.954  28.058  1.00  0.00     0.163 HD
BRANCH   4   7
ATOM      7  C   UNL A   1      32.219  23.386  25.001  1.00  0.00     0.102 C 
ATOM      8  C   UNL A   1      32.114  22.207  22.745  1.00  0.00     0.010 C 
ATOM      9  C   UNL A   1      31.440  23.209  23.677  1.00  0.00     0.020 C 
ATOM     10  C   UNL A   1      31.381  24.620  23.067  1.00  0.00     0.124 C 
ATOM     11  N   UNL A   1      31.487  25.498  24.219  1.00  0.00    -0.337 N 
ATOM     12  C   UNL A   1      32.390  24.892  25.190  1.00  0.00     0.133 C 
BRANCH  11  13
ATOM     13  C   UNL A   1      30.818  26.663  24.559  1.00  0.00     0.259 C 
ATOM     14  O   UNL A   1      30.683  26.971  25.747  1.00  0.00    -0.269 OA
BRANCH  13  15
ATOM     15  C   UNL A   1      30.123  27.527  23.575  1.00  0.00     0.111 A 
ATOM     16  C   UNL A   1      28.734  27.623  23.469  1.00  0.00     0.140 A 
ATOM     17  C   UNL A   1      30.885  28.494  22.908  1.00  0.00     0.140 A 
ATOM     18  F   UNL A   1      27.917  26.770  24.098  1.00  0.00    -0.206 F 
ATOM     19  C   UNL A   1      28.120  28.651  22.748  1.00  0.00     0.056 A 
ATOM     20  C   UNL A   1      30.289  29.530  22.186  1.00  0.00     0.056 A 
ATOM     21  F   UNL A   1      32.226  28.465  22.952  1.00  0.00    -0.206 F 
ATOM     22  C   UNL A   1      28.903  29.611  22.123  1.00  0.00     0.023 A 
ATOM     23  Br  UNL A   1      28.081  31.047  21.213  1.00  0.00    -0.051 Br
ENDBRANCH  13  15
ENDBRANCH  11  13
ENDBRANCH   4   7
ENDBRANCH   2   3
ENDBRANCH   1   2
BRANCH   1  24
ATOM     24  C   UNL A   1      35.809  22.205  26.215  1.00  0.00     0.118 C 
BRANCH  24  25
ATOM     25  N   UNL A   1      36.839  21.241  25.832  1.00  0.00    -0.352 N 
ATOM     26  C   UNL A   1      38.210  21.333  25.776  1.00  0.00     0.251 C 
ATOM     27  H   UNL A   1      36.485  20.362  25.564  1.00  0.00     0.163 HD
ATOM     28  O   UNL A   1      38.836  20.452  25.184  1.00  0.00    -0.269 OA
BRANCH  26  29
ATOM     29  C   UNL A   1      38.942  22.477  26.371  1.00  0.00     0.039 A 
ATOM     30  C   UNL A   1      40.001  22.237  27.255  1.00  0.00     0.014 A 
ATOM     31  C   UNL A   1      38.574  23.791  26.099  1.00  0.00     0.014 A 
ATOM     32  C   UNL A   1      40.734  23.309  27.784  1.00  0.00     0.010 A 
ATOM     33  C   UNL A   1      39.384  24.843  26.509  1.00  0.00     0.010 A 
ATOM     34  C   UNL A   1      40.467  24.623  27.370  1.00  0.00    -0.014 A 
BRANCH  34  35
ATOM     35  C   UNL A   1      41.256  25.799  27.836  1.00  0.00     0.031 A 
ATOM     36  C   UNL A   1      40.564  26.888  28.623  1.00  0.00     0.074 A 
ATOM     37  C   UNL A   1      42.542  25.952  27.456  1.00  0.00     0.049 A 
ATOM     38  N   UNL A   1      40.986  28.089  28.924  1.00  0.00    -0.248 NA
ATOM     39  C   UNL A   1      39.196  26.603  29.089  1.00  0.00     0.031 C 
ATOM     40  C   UNL A   1      43.317  24.987  26.672  1.00  0.00     0.029 A 
ATOM     41  N   UNL A   1      43.420  26.991  27.656  1.00  0.00    -0.354 N 
ATOM     42  C   UNL A   1      39.920  28.716  29.567  1.00  0.00     0.074 A 
ATOM     43  C   UNL A   1      38.819  27.780  29.567  1.00  0.00     0.031 C 
ATOM     44  C   UNL A   1      44.555  25.471  26.473  1.00  0.00     0.029 A 
ATOM     45  C   UNL A   1      44.645  26.808  27.051  1.00  0.00     0.049 A 
ATOM     46  H   UNL A   1      43.195  27.792  28.182  1.00  0.00     0.167 HD
ATOM     47  C   UNL A   1      39.873  29.951  30.120  1.00  0.00     0.034 A 
ATOM     48  C   UNL A   1      45.707  27.633  26.947  1.00  0.00     0.034 A 
ATOM     49  C   UNL A   1      41.000  30.848  30.166  1.00  0.00     0.049 A 
ATOM     50  C   UNL A   1      45.626  29.006  27.576  1.00  0.00     0.074 A 
ATOM     51  C   UNL A   1      41.088  32.083  30.784  1.00  0.00     0.029 A 
ATOM     52  N   UNL A   1      42.233  30.606  29.579  1.00  0.00    -0.354 N 
ATOM     53  N   UNL A   1      44.626  29.560  28.221  1.00  0.00    -0.248 NA
ATOM     54  C   UNL A   1      46.817  29.862  27.471  1.00  0.00     0.031 C 
ATOM     55  C   UNL A   1      42.347  32.621  30.504  1.00  0.00     0.029 A 
ATOM     56  C   UNL A   1      43.076  31.685  29.791  1.00  0.00     0.049 A 
ATOM     57  H   UNL A   1      42.473  29.790  29.083  1.00  0.00     0.167 HD
ATOM     58  C   UNL A   1      45.089  30.806  28.639  1.00  0.00     0.074 A 
ATOM     59  C   UNL A   1      46.456  30.918  28.182  1.00  0.00     0.031 C 
ATOM     60  C   UNL A   1      44.445  31.770  29.346  1.00  0.00     0.034 A 
BRANCH  47  61
ATOM     61  C   UNL A   1      38.564  30.421  30.706  1.00  0.00     0.023 A 
ATOM     62  C   UNL A   1      37.586  31.062  29.929  1.00  0.00     0.031 A 
ATOM     63  C   UNL A   1      38.282  30.195  32.066  1.00  0.00     0.131 A 
ATOM     64  C   UNL A   1      36.394  31.500  30.526  1.00  0.00     0.055 A 
ATOM     65  C   UNL A   1      37.062  30.563  32.636  1.00  0.00     0.041 A 
ATOM     66  F   UNL A   1      39.187  29.607  32.864  1.00  0.00    -0.206 F 
ATOM     67  C   UNL A   1      36.112  31.228  31.867  1.00  0.00     0.022 A 
BRANCH  64  68
ATOM     68  S   UNL A   1      35.260  32.524  29.550  1.00  0.00     0.124 S 
ATOM     69  O   UNL A   1      34.710  31.545  28.615  1.00  0.00    -0.237 OA
ATOM     70  O   UNL A   1      34.339  33.028  30.562  1.00  0.00    -0.237 OA
ATOM     71  O   UNL A   1      36.135  33.528  28.948  1.00  0.00    -0.744 OA
ENDBRANCH  64  68
ENDBRANCH  47  61
BRANCH  48  72
ATOM     72  C   UNL A   1      46.935  27.220  26.200  1.00  0.00     0.023 A 
ATOM     73  C   UNL A   1      47.183  27.699  24.904  1.00  0.00     0.031 A 
ATOM     74  C   UNL A   1      47.828  26.271  26.728  1.00  0.00     0.131 A 
ATOM     75  C   UNL A   1      48.242  27.170  24.150  1.00  0.00     0.055 A 
ATOM     76  C   UNL A   1      48.926  25.803  26.002  1.00  0.00     0.041 A 
ATOM     77  F   UNL A   1      47.645  25.777  27.964  1.00  0.00    -0.206 F 
ATOM     78  C   UNL A   1      49.125  26.235  24.696  1.00  0.00     0.022 A 
BRANCH  75  79
ATOM     79  S   UNL A   1      48.357  27.609  22.393  1.00  0.00     0.124 S 
ATOM     80  O   UNL A   1      49.580  28.405  22.368  1.00  0.00    -0.237 OA
ATOM     81  O   UNL A   1      48.431  26.296  21.760  1.00  0.00    -0.237 OA
ATOM     82  O   UNL A   1      47.123  28.350  22.148  1.00  0.00    -0.744 OA
ENDBRANCH  75  79
ENDBRANCH  48  72
BRANCH  60  83
ATOM     83  C   UNL A   1      45.236  32.990  29.742  1.00  0.00     0.023 A 
ATOM     84  C   UNL A   1      45.265  34.152  28.952  1.00  0.00     0.031 A 
ATOM     85  C   UNL A   1      45.954  32.993  30.953  1.00  0.00     0.131 A 
ATOM     86  C   UNL A   1      46.031  35.253  29.363  1.00  0.00     0.055 A 
ATOM     87  C   UNL A   1      46.662  34.113  31.385  1.00  0.00     0.041 A 
ATOM     88  F   UNL A   1      45.962  31.908  31.745  1.00  0.00    -0.206 F 
ATOM     89  C   UNL A   1      46.713  35.248  30.583  1.00  0.00     0.022 A 
BRANCH  86  90
ATOM     90  S   UNL A   1      46.187  36.672  28.244  1.00  0.00     0.124 S 
ATOM     91  O   UNL A   1      45.050  36.480  27.349  1.00  0.00    -0.237 OA
ATOM     92  O   UNL A   1      46.093  37.804  29.159  1.00  0.00    -0.237 OA
ATOM     93  O   UNL A   1      47.499  36.481  27.628  1.00  0.00    -0.744 OA
ENDBRANCH  86  90
ENDBRANCH  60  83
ENDBRANCH  34  35
ENDBRANCH  26  29
ENDBRANCH  24  25
ENDBRANCH   1  24
TORSDOF 15
ENDMDL
MODEL 3
REMARK VINA RESULT:     -12.4      2.326      3.008
REMARK SMILES C[C@@H]1CN(C(=O)c2c(F)cc(Br)cc2F)C[C@H]1C(=O)NCCCNC(=O)c1ccc(-c2c3nc(c(-c4cc(S(=O)(=O)[O-])ccc4F)c4ccc([nH]4)c(-c4cc(S(=O)(=O)[O-])ccc4F)c4nc(c(-c5cc(S(=O)(=O)[O-])ccc5F)c5ccc2[nH]5)C=C4)C=C3)cc1
REMARK SMILES IDX 22 1 21 2 20 3 18 4 19 5 17 7 1 8 2 9 3 10 4 11 16 12 5 13
REMARK SMILES IDX 6 14 7 15 8 16 14 17 9 18 10 19 13 20 15 21 11 22 12 23
REMARK SMILES IDX 23 24 24 25 25 26 26 28 27 29 28 30 89 31 29 32 88 33 30 34
REMARK SMILES IDX 31 35 32 36 82 37 33 38 87 39 81 40 83 41 34 42 86 43 80 44
REMARK SMILES IDX 79 45 35 47 67 48 47 49 66 50 48 51 51 52 65 53 84 54 49 55
REMARK SMILES IDX 50 56 64 58 85 59 52 60 36 61 37 62 45 63 38 64 44 65 46 66
REMARK SMILES IDX 43 67 39 68 40 69 41 70 42 71 68 72 69 73 77 74 70 75 76 76
REMARK SMILES IDX 78 77 75 78 71 79 72 80 73 81 74 82 53 83 54 84 62 85 55 86
REMARK SMILES IDX 61 87 63 88 60 89 56 90 57 91 58 92 59 93
REMARK H PARENT 20 6 24 27 83 46 51 57
REMARK Flexibility Score: inf
ROOT
ATOM      1  C   UNL A   1      31.709  28.875  26.702  1.00  0.00     0.042 C 
ENDROOT
BRANCH   1   2
ATOM      2  C   UNL A   1      31.024  27.798  25.878  1.00  0.00     0.117 C 
BRANCH   2   3
ATOM      3  N   UNL A   1      30.817  26.561  26.602  1.00  0.00    -0.356 N 
ATOM      4  C   UNL A   1      31.400  25.342  26.433  1.00  0.00     0.225 C 
ATOM      5  O   UNL A   1      31.080  24.453  27.227  1.00  0.00    -0.275 OA
ATOM      6  H   UNL A   1      30.154  26.608  27.328  1.00  0.00     0.163 HD
BRANCH   4   7
ATOM      7  C   UNL A   1      32.417  25.037  25.327  1.00  0.00     0.102 C 
ATOM      8  C   UNL A   1      34.183  26.786  24.767  1.00  0.00     0.010 C 
ATOM      9  C   UNL A   1      33.852  25.547  25.593  1.00  0.00     0.020 C 
ATOM     10  C   UNL A   1      34.760  24.356  25.241  1.00  0.00     0.124 C 
ATOM     11  N   UNL A   1      33.905  23.200  25.441  1.00  0.00    -0.337 N 
ATOM     12  C   UNL A   1      32.547  23.543  25.037  1.00  0.00     0.133 C 
BRANCH  11  13
ATOM     13  C   UNL A   1      34.140  21.966  26.028  1.00  0.00     0.259 C 
ATOM     14  O   UNL A   1      34.462  21.902  27.218  1.00  0.00    -0.269 OA
BRANCH  13  15
ATOM     15  C   UNL A   1      34.155  20.689  25.275  1.00  0.00     0.111 A 
ATOM     16  C   UNL A   1      35.318  19.974  24.980  1.00  0.00     0.140 A 
ATOM     17  C   UNL A   1      32.933  20.031  25.089  1.00  0.00     0.140 A 
ATOM     18  F   UNL A   1      36.535  20.501  25.159  1.00  0.00    -0.206 F 
ATOM     19  C   UNL A   1      35.275  18.649  24.540  1.00  0.00     0.056 A 
ATOM     20  C   UNL A   1      32.871  18.706  24.653  1.00  0.00     0.056 A 
ATOM     21  F   UNL A   1      31.771  20.653  25.340  1.00  0.00    -0.206 F 
ATOM     22  C   UNL A   1      34.049  18.015  24.394  1.00  0.00     0.023 A 
ATOM     23  Br  UNL A   1      33.985  16.201  23.873  1.00  0.00    -0.051 Br
ENDBRANCH  13  15
ENDBRANCH  11  13
ENDBRANCH   4   7
ENDBRANCH   2   3
ENDBRANCH   1   2
BRANCH   1  24
ATOM     24  C   UNL A   1      32.465  29.872  25.845  1.00  0.00     0.118 C 
BRANCH  24  25
ATOM     25  N   UNL A   1      32.160  31.255  26.211  1.00  0.00    -0.352 N 
ATOM     26  C   UNL A   1      32.754  32.124  27.096  1.00  0.00     0.251 C 
ATOM     27  H   UNL A   1      31.387  31.634  25.735  1.00  0.00     0.163 HD
ATOM     28  O   UNL A   1      32.153  33.157  27.400  1.00  0.00    -0.269 OA
BRANCH  26  29
ATOM     29  C   UNL A   1      34.067  31.831  27.719  1.00  0.00     0.039 A 
ATOM     30  C   UNL A   1      34.951  32.881  27.997  1.00  0.00     0.014 A 
ATOM     31  C   UNL A   1      34.459  30.526  28.000  1.00  0.00     0.014 A 
ATOM     32  C   UNL A   1      36.173  32.623  28.633  1.00  0.00     0.010 A 
ATOM     33  C   UNL A   1      35.602  30.286  28.753  1.00  0.00     0.010 A 
ATOM     34  C   UNL A   1      36.486  31.327  29.068  1.00  0.00    -0.014 A 
BRANCH  34  35
ATOM     35  C   UNL A   1      37.734  30.998  29.815  1.00  0.00     0.031 A 
ATOM     36  C   UNL A   1      38.709  30.005  29.225  1.00  0.00     0.074 A 
ATOM     37  C   UNL A   1      37.934  31.485  31.058  1.00  0.00     0.049 A 
ATOM     38  N   UNL A   1      39.724  29.403  29.790  1.00  0.00    -0.248 NA
ATOM     39  C   UNL A   1      38.479  29.600  27.827  1.00  0.00     0.031 C 
ATOM     40  C   UNL A   1      37.056  32.429  31.753  1.00  0.00     0.029 A 
ATOM     41  N   UNL A   1      38.930  31.233  31.972  1.00  0.00    -0.354 N 
ATOM     42  C   UNL A   1      40.217  28.515  28.836  1.00  0.00     0.074 A 
ATOM     43  C   UNL A   1      39.360  28.623  27.677  1.00  0.00     0.031 C 
ATOM     44  C   UNL A   1      37.559  32.687  32.971  1.00  0.00     0.029 A 
ATOM     45  C   UNL A   1      38.755  31.877  33.177  1.00  0.00     0.049 A 
ATOM     46  H   UNL A   1      39.698  30.645  31.783  1.00  0.00     0.167 HD
ATOM     47  C   UNL A   1      41.295  27.700  28.916  1.00  0.00     0.034 A 
ATOM     48  C   UNL A   1      39.458  31.801  34.326  1.00  0.00     0.034 A 
ATOM     49  C   UNL A   1      42.175  27.650  30.056  1.00  0.00     0.049 A 
ATOM     50  C   UNL A   1      40.659  30.883  34.386  1.00  0.00     0.074 A 
ATOM     51  C   UNL A   1      43.347  26.929  30.203  1.00  0.00     0.029 A 
ATOM     52  N   UNL A   1      41.985  28.349  31.238  1.00  0.00    -0.354 N 
ATOM     53  N   UNL A   1      41.136  30.089  33.455  1.00  0.00    -0.248 NA
ATOM     54  C   UNL A   1      41.419  30.856  35.643  1.00  0.00     0.031 C 
ATOM     55  C   UNL A   1      43.823  27.132  31.501  1.00  0.00     0.029 A 
ATOM     56  C   UNL A   1      43.000  28.051  32.132  1.00  0.00     0.049 A 
ATOM     57  H   UNL A   1      41.238  28.966  31.416  1.00  0.00     0.167 HD
ATOM     58  C   UNL A   1      42.279  29.510  34.002  1.00  0.00     0.074 A 
ATOM     59  C   UNL A   1      42.423  30.050  35.336  1.00  0.00     0.031 C 
ATOM     60  C   UNL A   1      43.139  28.617  33.450  1.00  0.00     0.034 A 
BRANCH  47  61
ATOM     61  C   UNL A   1      41.583  26.780  27.753  1.00  0.00     0.023 A 
ATOM     62  C   UNL A   1      41.154  25.443  27.737  1.00  0.00     0.031 A 
ATOM     63  C   UNL A   1      42.275  27.264  26.629  1.00  0.00     0.131 A 
ATOM     64  C   UNL A   1      41.465  24.622  26.642  1.00  0.00     0.055 A 
ATOM     65  C   UNL A   1      42.513  26.465  25.509  1.00  0.00     0.041 A 
ATOM     66  F   UNL A   1      42.729  28.527  26.596  1.00  0.00    -0.206 F 
ATOM     67  C   UNL A   1      42.115  25.131  25.515  1.00  0.00     0.022 A 
BRANCH  64  68
ATOM     68  S   UNL A   1      41.101  22.850  26.755  1.00  0.00     0.124 S 
ATOM     69  O   UNL A   1      41.595  22.533  28.093  1.00  0.00    -0.237 OA
ATOM     70  O   UNL A   1      39.653  22.812  26.584  1.00  0.00    -0.237 OA
ATOM     71  O   UNL A   1      41.874  22.269  25.660  1.00  0.00    -0.744 OA
ENDBRANCH  64  68
ENDBRANCH  47  61
BRANCH  48  72
ATOM     72  C   UNL A   1      39.050  32.583  35.534  1.00  0.00     0.023 A 
ATOM     73  C   UNL A   1      39.480  33.908  35.712  1.00  0.00     0.031 A 
ATOM     74  C   UNL A   1      38.304  31.994  36.570  1.00  0.00     0.131 A 
ATOM     75  C   UNL A   1      39.236  34.569  36.926  1.00  0.00     0.055 A 
ATOM     76  C   UNL A   1      37.997  32.681  37.746  1.00  0.00     0.041 A 
ATOM     77  F   UNL A   1      37.861  30.730  36.456  1.00  0.00    -0.206 F 
ATOM     78  C   UNL A   1      38.484  33.970  37.939  1.00  0.00     0.022 A 
BRANCH  75  79
ATOM     79  S   UNL A   1      40.046  36.165  37.219  1.00  0.00     0.124 S 
ATOM     80  O   UNL A   1      39.206  36.732  38.269  1.00  0.00    -0.237 OA
ATOM     81  O   UNL A   1      41.387  35.753  37.621  1.00  0.00    -0.237 OA
ATOM     82  O   UNL A   1      39.961  36.832  35.923  1.00  0.00    -0.744 OA
ENDBRANCH  75  79
ENDBRANCH  48  72
BRANCH  60  83
ATOM     83  C   UNL A   1      44.357  28.234  34.252  1.00  0.00     0.023 A 
ATOM     84  C   UNL A   1      44.389  27.086  35.062  1.00  0.00     0.031 A 
ATOM     85  C   UNL A   1      45.518  29.027  34.177  1.00  0.00     0.131 A 
ATOM     86  C   UNL A   1      45.545  26.787  35.799  1.00  0.00     0.055 A 
ATOM     87  C   UNL A   1      46.684  28.688  34.863  1.00  0.00     0.041 A 
ATOM     88  F   UNL A   1      45.541  30.136  33.420  1.00  0.00    -0.206 F 
ATOM     89  C   UNL A   1      46.699  27.569  35.688  1.00  0.00     0.022 A 
BRANCH  86  90
ATOM     90  S   UNL A   1      45.501  25.399  36.964  1.00  0.00     0.124 S 
ATOM     91  O   UNL A   1      46.745  25.583  37.704  1.00  0.00    -0.237 OA
ATOM     92  O   UNL A   1      44.273  25.655  37.710  1.00  0.00    -0.237 OA
ATOM     93  O   UNL A   1      45.463  24.223  36.096  1.00  0.00    -0.744 OA
ENDBRANCH  86  90
ENDBRANCH  60  83
ENDBRANCH  34  35
ENDBRANCH  26  29
ENDBRANCH  24  25
ENDBRANCH   1  24
TORSDOF 15
ENDMDL
