MODEL 1
REMARK VINA RESULT:     -12.6      0.000      0.000
REMARK SMILES Cc1ccc([C@@H](C(=O)N(CC(=O)NCCCNC(=O)c2ccc(-c3c4nc(c(-c5cc(S(=O)(=O)[O-])ccc5F)c5ccc([nH]5)c(-c5cc(S(=O)(=O)[O-])ccc5F)c5nc(c(-c6cc(S(=O)(=O)[O-])ccc6F)c6ccc3[nH]6)C=C5)C=C4)cc2)C2CC[NH+](C)CC2)[NH+](C)C)cc1
REMARK SMILES IDX 14 1 13 2 11 3 12 4 10 6 9 7 7 8 8 9 6 10 5 11 1 12 2 13
REMARK SMILES IDX 3 14 94 15 4 16 93 17 90 18 91 19 92 20 83 22 84 23 89 24
REMARK SMILES IDX 85 25 88 26 86 27 87 28 15 30 16 31 17 32 18 33 19 35 20 36
REMARK SMILES IDX 21 37 82 38 22 39 81 40 23 41 24 42 25 43 75 44 26 45 80 46
REMARK SMILES IDX 74 47 76 48 27 49 79 50 73 51 72 52 28 54 60 55 40 56 59 57
REMARK SMILES IDX 41 58 44 59 58 60 77 61 42 62 43 63 57 65 78 66 45 67 29 68
REMARK SMILES IDX 30 69 38 70 31 71 37 72 39 73 36 74 32 75 33 76 34 77 35 78
REMARK SMILES IDX 61 79 62 80 70 81 63 82 69 83 71 84 68 85 64 86 65 87 66 88
REMARK SMILES IDX 67 89 46 90 47 91 55 92 48 93 54 94 56 95 53 96 49 97 50 98
REMARK SMILES IDX 51 99 52 100
REMARK H PARENT 13 5 90 21 86 29 17 34 76 53 44 64
REMARK Flexibility Score: inf
ROOT
ATOM      1  C   UNL A   1      35.733  24.010  25.703  1.00  0.00     0.117 C 
ENDROOT
BRANCH   1   2
ATOM      2  N   UNL A   1      35.304  23.347  24.480  1.00  0.00    -0.354 N 
ATOM      3  C   UNL A   1      34.484  23.874  23.518  1.00  0.00     0.239 C 
ATOM      4  O   UNL A   1      34.609  23.498  22.349  1.00  0.00    -0.273 OA
ATOM      5  H   UNL A   1      35.634  22.432  24.331  1.00  0.00     0.163 HD
BRANCH   3   6
ATOM      6  C   UNL A   1      33.452  24.967  23.863  1.00  0.00     0.219 C 
BRANCH   6   7
ATOM      7  N   UNL A   1      32.032  24.603  23.791  1.00  0.00    -0.324 N 
BRANCH   7   8
ATOM      8  C   UNL A   1      31.581  23.264  23.882  1.00  0.00     0.286 C 
ATOM      9  O   UNL A   1      30.569  22.959  23.228  1.00  0.00    -0.267 OA
BRANCH   8  10
ATOM     10  C   UNL A   1      32.207  22.215  24.925  1.00  0.00     0.305 C 
BRANCH  10  11
ATOM     11  C   UNL A   1      32.389  20.749  24.496  1.00  0.00     0.019 A 
ATOM     12  C   UNL A   1      33.688  16.787  23.314  1.00  0.00     0.044 C 
ATOM     13  C   UNL A   1      33.116  18.103  23.756  1.00  0.00    -0.051 A 
ATOM     14  C   UNL A   1      32.583  18.984  22.814  1.00  0.00     0.004 A 
ATOM     15  C   UNL A   1      33.197  18.511  25.086  1.00  0.00     0.004 A 
ATOM     16  C   UNL A   1      32.216  20.287  23.183  1.00  0.00     0.011 A 
ATOM     17  C   UNL A   1      32.802  19.802  25.456  1.00  0.00     0.011 A 
ENDBRANCH  10  11
BRANCH  10  18
ATOM     18  N   UNL A   1      31.605  22.314  26.303  1.00  0.00    -0.326 N 
ATOM     19  C   UNL A   1      32.518  22.929  27.261  1.00  0.00     0.333 C 
ATOM     20  C   UNL A   1      30.287  22.953  26.372  1.00  0.00     0.333 C 
ATOM     21  H   UNL A   1      31.449  21.340  26.564  1.00  0.00     0.348 HD
ENDBRANCH  10  18
ENDBRANCH   8  10
ENDBRANCH   7   8
BRANCH   7  22
ATOM     22  C   UNL A   1      31.035  25.649  23.345  1.00  0.00     0.097 C 
ATOM     23  C   UNL A   1      31.538  26.970  22.718  1.00  0.00     0.086 C 
ATOM     24  C   UNL A   1      30.096  26.082  24.485  1.00  0.00     0.086 C 
ATOM     25  C   UNL A   1      32.195  27.924  23.718  1.00  0.00     0.264 C 
ATOM     26  C   UNL A   1      30.846  26.926  25.507  1.00  0.00     0.264 C 
ATOM     27  N   UNL A   1      31.383  28.159  24.920  1.00  0.00    -0.337 N 
ATOM     28  C   UNL A   1      32.174  28.879  25.921  1.00  0.00     0.332 C 
ATOM     29  H   UNL A   1      30.582  28.720  24.629  1.00  0.00     0.347 HD
ENDBRANCH   7  22
ENDBRANCH   6   7
ENDBRANCH   3   6
ENDBRANCH   1   2
BRANCH   1  30
ATOM     30  C   UNL A   1      36.931  23.377  26.423  1.00  0.00     0.042 C 
BRANCH  30  31
ATOM     31  C   UNL A   1      38.089  22.769  25.638  1.00  0.00     0.118 C 
BRANCH  31  32
ATOM     32  N   UNL A   1      39.177  22.224  26.457  1.00  0.00    -0.352 N 
ATOM     33  C   UNL A   1      40.346  22.843  26.893  1.00  0.00     0.251 C 
ATOM     34  H   UNL A   1      39.065  21.287  26.739  1.00  0.00     0.163 HD
ATOM     35  O   UNL A   1      41.380  22.206  27.003  1.00  0.00    -0.269 OA
BRANCH  33  36
ATOM     36  C   UNL A   1      40.325  24.298  27.163  1.00  0.00     0.039 A 
ATOM     37  C   UNL A   1      40.761  25.284  26.270  1.00  0.00     0.014 A 
ATOM     38  C   UNL A   1      39.863  24.683  28.401  1.00  0.00     0.014 A 
ATOM     39  C   UNL A   1      40.729  26.625  26.680  1.00  0.00     0.010 A 
ATOM     40  C   UNL A   1      39.462  25.950  28.636  1.00  0.00     0.010 A 
ATOM     41  C   UNL A   1      40.095  26.926  27.885  1.00  0.00    -0.014 A 
BRANCH  41  42
ATOM     42  C   UNL A   1      40.219  28.126  28.689  1.00  0.00     0.031 A 
ATOM     43  C   UNL A   1      39.189  29.153  28.690  1.00  0.00     0.074 A 
ATOM     44  C   UNL A   1      41.100  27.998  29.712  1.00  0.00     0.049 A 
ATOM     45  N   UNL A   1      39.381  30.347  29.119  1.00  0.00    -0.248 NA
ATOM     46  C   UNL A   1      37.835  28.901  28.208  1.00  0.00     0.031 C 
ATOM     47  C   UNL A   1      41.124  28.636  31.020  1.00  0.00     0.029 A 
ATOM     48  N   UNL A   1      42.207  27.165  29.752  1.00  0.00    -0.354 N 
ATOM     49  C   UNL A   1      38.136  30.902  29.288  1.00  0.00     0.074 A 
ATOM     50  C   UNL A   1      37.221  30.028  28.587  1.00  0.00     0.031 C 
ATOM     51  C   UNL A   1      42.306  28.359  31.612  1.00  0.00     0.029 A 
ATOM     52  C   UNL A   1      43.146  27.699  30.619  1.00  0.00     0.049 A 
ATOM     53  H   UNL A   1      42.310  26.326  29.246  1.00  0.00     0.167 HD
ATOM     54  C   UNL A   1      37.971  31.919  30.177  1.00  0.00     0.034 A 
ATOM     55  C   UNL A   1      44.285  28.221  30.064  1.00  0.00     0.034 A 
ATOM     56  C   UNL A   1      39.203  32.164  30.930  1.00  0.00     0.049 A 
ATOM     57  C   UNL A   1      44.350  29.718  30.221  1.00  0.00     0.074 A 
ATOM     58  C   UNL A   1      39.609  31.766  32.194  1.00  0.00     0.029 A 
ATOM     59  N   UNL A   1      40.348  32.599  30.272  1.00  0.00    -0.354 N 
ATOM     60  N   UNL A   1      43.319  30.477  30.467  1.00  0.00    -0.248 NA
ATOM     61  C   UNL A   1      45.591  30.468  30.109  1.00  0.00     0.031 C 
ATOM     62  C   UNL A   1      41.021  31.908  32.266  1.00  0.00     0.029 A 
ATOM     63  C   UNL A   1      41.470  32.423  31.062  1.00  0.00     0.049 A 
ATOM     64  H   UNL A   1      40.358  32.981  29.365  1.00  0.00     0.167 HD
ATOM     65  C   UNL A   1      43.706  31.785  30.481  1.00  0.00     0.074 A 
ATOM     66  C   UNL A   1      45.150  31.720  30.313  1.00  0.00     0.031 C 
ATOM     67  C   UNL A   1      42.791  32.798  30.570  1.00  0.00     0.034 A 
BRANCH  54  68
ATOM     68  C   UNL A   1      36.620  32.431  30.600  1.00  0.00     0.023 A 
ATOM     69  C   UNL A   1      35.861  33.207  29.703  1.00  0.00     0.031 A 
ATOM     70  C   UNL A   1      36.024  32.184  31.852  1.00  0.00     0.131 A 
ATOM     71  C   UNL A   1      34.632  33.769  30.080  1.00  0.00     0.055 A 
ATOM     72  C   UNL A   1      34.824  32.788  32.250  1.00  0.00     0.041 A 
ATOM     73  F   UNL A   1      36.565  31.320  32.725  1.00  0.00    -0.206 F 
ATOM     74  C   UNL A   1      34.124  33.595  31.364  1.00  0.00     0.022 A 
BRANCH  71  75
ATOM     75  S   UNL A   1      33.694  34.709  28.846  1.00  0.00     0.124 S 
ATOM     76  O   UNL A   1      32.657  35.336  29.658  1.00  0.00    -0.237 OA
ATOM     77  O   UNL A   1      34.711  35.600  28.297  1.00  0.00    -0.237 OA
ATOM     78  O   UNL A   1      33.219  33.677  27.925  1.00  0.00    -0.744 OA
ENDBRANCH  71  75
ENDBRANCH  54  68
BRANCH  55  79
ATOM     79  C   UNL A   1      44.698  27.493  28.811  1.00  0.00     0.023 A 
ATOM     80  C   UNL A   1      44.989  28.284  27.681  1.00  0.00     0.031 A 
ATOM     81  C   UNL A   1      45.245  26.198  28.855  1.00  0.00     0.131 A 
ATOM     82  C   UNL A   1      45.948  27.854  26.751  1.00  0.00     0.055 A 
ATOM     83  C   UNL A   1      46.142  25.747  27.876  1.00  0.00     0.041 A 
ATOM     84  F   UNL A   1      45.027  25.400  29.911  1.00  0.00    -0.206 F 
ATOM     85  C   UNL A   1      46.533  26.593  26.837  1.00  0.00     0.022 A 
BRANCH  82  86
ATOM     86  S   UNL A   1      46.591  29.094  25.600  1.00  0.00     0.124 S 
ATOM     87  O   UNL A   1      45.752  30.249  25.899  1.00  0.00    -0.237 OA
ATOM     88  O   UNL A   1      47.987  29.194  26.025  1.00  0.00    -0.237 OA
ATOM     89  O   UNL A   1      46.392  28.508  24.282  1.00  0.00    -0.744 OA
ENDBRANCH  82  86
ENDBRANCH  55  79
BRANCH  67  90
ATOM     90  C   UNL A   1      43.088  34.243  30.242  1.00  0.00     0.023 A 
ATOM     91  C   UNL A   1      42.902  34.779  28.963  1.00  0.00     0.031 A 
ATOM     92  C   UNL A   1      43.501  35.166  31.232  1.00  0.00     0.131 A 
ATOM     93  C   UNL A   1      43.240  36.106  28.667  1.00  0.00     0.055 A 
ATOM     94  C   UNL A   1      43.724  36.519  30.963  1.00  0.00     0.041 A 
ATOM     95  F   UNL A   1      43.695  34.802  32.508  1.00  0.00    -0.206 F 
ATOM     96  C   UNL A   1      43.622  36.993  29.664  1.00  0.00     0.022 A 
BRANCH  93  97
ATOM     97  S   UNL A   1      43.270  36.589  26.924  1.00  0.00     0.124 S 
ATOM     98  O   UNL A   1      42.254  37.639  26.888  1.00  0.00    -0.237 OA
ATOM     99  O   UNL A   1      44.647  37.039  26.746  1.00  0.00    -0.237 OA
ATOM    100  O   UNL A   1      42.918  35.358  26.221  1.00  0.00    -0.744 OA
ENDBRANCH  93  97
ENDBRANCH  67  90
ENDBRANCH  41  42
ENDBRANCH  33  36
ENDBRANCH  31  32
ENDBRANCH  30  31
ENDBRANCH   1  30
TORSDOF 19
ENDMDL
MODEL 2
REMARK VINA RESULT:     -10.7      5.308      9.261
REMARK SMILES Cc1ccc([C@@H](C(=O)N(CC(=O)NCCCNC(=O)c2ccc(-c3c4nc(c(-c5cc(S(=O)(=O)[O-])ccc5F)c5ccc([nH]5)c(-c5cc(S(=O)(=O)[O-])ccc5F)c5nc(c(-c6cc(S(=O)(=O)[O-])ccc6F)c6ccc3[nH]6)C=C5)C=C4)cc2)C2CC[NH+](C)CC2)[NH+](C)C)cc1
REMARK SMILES IDX 14 1 13 2 11 3 12 4 10 6 9 7 7 8 8 9 6 10 5 11 1 12 2 13
REMARK SMILES IDX 3 14 94 15 4 16 93 17 90 18 91 19 92 20 83 22 84 23 89 24
REMARK SMILES IDX 85 25 88 26 86 27 87 28 15 30 16 31 17 32 18 33 19 35 20 36
REMARK SMILES IDX 21 37 82 38 22 39 81 40 23 41 24 42 25 43 75 44 26 45 80 46
REMARK SMILES IDX 74 47 76 48 27 49 79 50 73 51 72 52 28 54 60 55 40 56 59 57
REMARK SMILES IDX 41 58 44 59 58 60 77 61 42 62 43 63 57 65 78 66 45 67 29 68
REMARK SMILES IDX 30 69 38 70 31 71 37 72 39 73 36 74 32 75 33 76 34 77 35 78
REMARK SMILES IDX 61 79 62 80 70 81 63 82 69 83 71 84 68 85 64 86 65 87 66 88
REMARK SMILES IDX 67 89 46 90 47 91 55 92 48 93 54 94 56 95 53 96 49 97 50 98
REMARK SMILES IDX 51 99 52 100
REMARK H PARENT 13 5 90 21 86 29 17 34 76 53 44 64
REMARK Flexibility Score: inf
ROOT
ATOM      1  C   UNL A   1      44.093  23.916  31.411  1.00  0.00     0.117 C 
ENDROOT
BRANCH   1   2
ATOM      2  N   UNL A   1      43.897  23.257  32.693  1.00  0.00    -0.354 N 
ATOM      3  C   UNL A   1      43.695  23.874  33.899  1.00  0.00     0.239 C 
ATOM      4  O   UNL A   1      43.035  23.296  34.768  1.00  0.00    -0.273 OA
ATOM      5  H   UNL A   1      43.911  22.272  32.695  1.00  0.00     0.163 HD
BRANCH   3   6
ATOM      6  C   UNL A   1      44.227  25.297  34.164  1.00  0.00     0.219 C 
BRANCH   6   7
ATOM      7  N   UNL A   1      44.358  25.720  35.563  1.00  0.00    -0.324 N 
BRANCH   7   8
ATOM      8  C   UNL A   1      43.356  26.462  36.234  1.00  0.00     0.286 C 
ATOM      9  O   UNL A   1      42.576  25.830  36.967  1.00  0.00    -0.267 OA
BRANCH   8  10
ATOM     10  C   UNL A   1      43.089  28.016  35.930  1.00  0.00     0.305 C 
BRANCH  10  11
ATOM     11  C   UNL A   1      41.822  28.423  35.159  1.00  0.00     0.019 A 
ATOM     12  C   UNL A   1      38.767  29.823  32.423  1.00  0.00     0.044 C 
ATOM     13  C   UNL A   1      39.726  29.263  33.432  1.00  0.00    -0.051 A 
ATOM     14  C   UNL A   1      40.042  29.995  34.577  1.00  0.00     0.004 A 
ATOM     15  C   UNL A   1      40.391  28.060  33.201  1.00  0.00     0.004 A 
ATOM     16  C   UNL A   1      41.070  29.575  35.433  1.00  0.00     0.011 A 
ATOM     17  C   UNL A   1      41.397  27.628  34.073  1.00  0.00     0.011 A 
ENDBRANCH  10  11
BRANCH  10  18
ATOM     18  N   UNL A   1      44.306  28.738  35.408  1.00  0.00    -0.326 N 
ATOM     19  C   UNL A   1      44.241  28.953  33.966  1.00  0.00     0.333 C 
ATOM     20  C   UNL A   1      44.641  29.988  36.095  1.00  0.00     0.333 C 
ATOM     21  H   UNL A   1      45.071  28.097  35.619  1.00  0.00     0.348 HD
ENDBRANCH  10  18
ENDBRANCH   8  10
ENDBRANCH   7   8
BRANCH   7  22
ATOM     22  C   UNL A   1      45.706  25.595  36.238  1.00  0.00     0.097 C 
ATOM     23  C   UNL A   1      46.939  25.159  35.412  1.00  0.00     0.086 C 
ATOM     24  C   UNL A   1      45.670  24.632  37.438  1.00  0.00     0.086 C 
ATOM     25  C   UNL A   1      46.927  23.682  35.008  1.00  0.00     0.264 C 
ATOM     26  C   UNL A   1      45.534  23.190  36.965  1.00  0.00     0.264 C 
ATOM     27  N   UNL A   1      46.666  22.771  36.132  1.00  0.00    -0.337 N 
ATOM     28  C   UNL A   1      46.433  21.416  35.628  1.00  0.00     0.332 C 
ATOM     29  H   UNL A   1      47.494  22.793  36.727  1.00  0.00     0.347 HD
ENDBRANCH   7  22
ENDBRANCH   6   7
ENDBRANCH   3   6
ENDBRANCH   1   2
BRANCH   1  30
ATOM     30  C   UNL A   1      43.432  23.241  30.202  1.00  0.00     0.042 C 
BRANCH  30  31
ATOM     31  C   UNL A   1      43.291  23.975  28.872  1.00  0.00     0.118 C 
BRANCH  31  32
ATOM     32  N   UNL A   1      42.244  23.456  27.984  1.00  0.00    -0.352 N 
ATOM     33  C   UNL A   1      40.976  23.970  27.724  1.00  0.00     0.251 C 
ATOM     34  H   UNL A   1      42.471  22.627  27.505  1.00  0.00     0.163 HD
ATOM     35  O   UNL A   1      40.037  23.222  27.507  1.00  0.00    -0.269 OA
BRANCH  33  36
ATOM     36  C   UNL A   1      40.777  25.436  27.772  1.00  0.00     0.039 A 
ATOM     37  C   UNL A   1      40.887  26.295  26.672  1.00  0.00     0.014 A 
ATOM     38  C   UNL A   1      40.489  25.973  29.006  1.00  0.00     0.014 A 
ATOM     39  C   UNL A   1      40.721  27.673  26.875  1.00  0.00     0.010 A 
ATOM     40  C   UNL A   1      39.944  27.202  29.125  1.00  0.00     0.010 A 
ATOM     41  C   UNL A   1      40.272  28.101  28.125  1.00  0.00    -0.014 A 
BRANCH  41  42
ATOM     42  C   UNL A   1      40.349  29.430  28.699  1.00  0.00     0.031 A 
ATOM     43  C   UNL A   1      39.190  30.307  28.746  1.00  0.00     0.074 A 
ATOM     44  C   UNL A   1      41.403  29.593  29.537  1.00  0.00     0.049 A 
ATOM     45  N   UNL A   1      39.270  31.573  28.944  1.00  0.00    -0.248 NA
ATOM     46  C   UNL A   1      37.828  29.812  28.582  1.00  0.00     0.031 C 
ATOM     47  C   UNL A   1      41.555  30.450  30.703  1.00  0.00     0.029 A 
ATOM     48  N   UNL A   1      42.614  28.920  29.485  1.00  0.00    -0.354 N 
ATOM     49  C   UNL A   1      38.003  31.994  29.267  1.00  0.00     0.074 A 
ATOM     50  C   UNL A   1      37.125  30.905  28.899  1.00  0.00     0.031 C 
ATOM     51  C   UNL A   1      42.849  30.427  31.088  1.00  0.00     0.029 A 
ATOM     52  C   UNL A   1      43.596  29.709  30.061  1.00  0.00     0.049 A 
ATOM     53  H   UNL A   1      42.754  28.024  29.101  1.00  0.00     0.167 HD
ATOM     54  C   UNL A   1      37.841  33.124  30.007  1.00  0.00     0.034 A 
ATOM     55  C   UNL A   1      44.529  30.259  29.222  1.00  0.00     0.034 A 
ATOM     56  C   UNL A   1      39.132  33.646  30.460  1.00  0.00     0.049 A 
ATOM     57  C   UNL A   1      44.391  31.757  29.136  1.00  0.00     0.074 A 
ATOM     58  C   UNL A   1      39.806  33.529  31.665  1.00  0.00     0.029 A 
ATOM     59  N   UNL A   1      40.066  34.094  29.533  1.00  0.00    -0.354 N 
ATOM     60  N   UNL A   1      43.315  32.417  29.461  1.00  0.00    -0.248 NA
ATOM     61  C   UNL A   1      45.465  32.621  28.671  1.00  0.00     0.031 C 
ATOM     62  C   UNL A   1      41.171  33.852  31.438  1.00  0.00     0.029 A 
ATOM     63  C   UNL A   1      41.321  34.198  30.105  1.00  0.00     0.049 A 
ATOM     64  H   UNL A   1      39.862  34.309  28.594  1.00  0.00     0.167 HD
ATOM     65  C   UNL A   1      43.494  33.744  29.201  1.00  0.00     0.074 A 
ATOM     66  C   UNL A   1      44.880  33.826  28.767  1.00  0.00     0.031 C 
ATOM     67  C   UNL A   1      42.465  34.638  29.314  1.00  0.00     0.034 A 
BRANCH  54  68
ATOM     68  C   UNL A   1      36.520  33.534  30.604  1.00  0.00     0.023 A 
ATOM     69  C   UNL A   1      35.605  34.266  29.824  1.00  0.00     0.031 A 
ATOM     70  C   UNL A   1      36.104  33.231  31.915  1.00  0.00     0.131 A 
ATOM     71  C   UNL A   1      34.397  34.736  30.362  1.00  0.00     0.055 A 
ATOM     72  C   UNL A   1      34.923  33.743  32.471  1.00  0.00     0.041 A 
ATOM     73  F   UNL A   1      36.806  32.396  32.697  1.00  0.00    -0.206 F 
ATOM     74  C   UNL A   1      34.065  34.510  31.694  1.00  0.00     0.022 A 
BRANCH  71  75
ATOM     75  S   UNL A   1      33.251  35.623  29.273  1.00  0.00     0.124 S 
ATOM     76  O   UNL A   1      32.486  36.427  30.219  1.00  0.00    -0.237 OA
ATOM     77  O   UNL A   1      34.160  36.351  28.394  1.00  0.00    -0.237 OA
ATOM     78  O   UNL A   1      32.500  34.547  28.625  1.00  0.00    -0.744 OA
ENDBRANCH  71  75
ENDBRANCH  54  68
BRANCH  55  79
ATOM     79  C   UNL A   1      44.825  29.378  28.036  1.00  0.00     0.023 A 
ATOM     80  C   UNL A   1      45.767  28.347  28.228  1.00  0.00     0.031 A 
ATOM     81  C   UNL A   1      43.913  29.234  26.976  1.00  0.00     0.131 A 
ATOM     82  C   UNL A   1      45.650  27.146  27.511  1.00  0.00     0.055 A 
ATOM     83  C   UNL A   1      43.857  28.060  26.210  1.00  0.00     0.041 A 
ATOM     84  F   UNL A   1      42.976  30.167  26.750  1.00  0.00    -0.206 F 
ATOM     85  C   UNL A   1      44.701  26.989  26.503  1.00  0.00     0.022 A 
BRANCH  82  86
ATOM     86  S   UNL A   1      46.592  25.728  28.122  1.00  0.00     0.124 S 
ATOM     87  O   UNL A   1      46.003  24.625  27.370  1.00  0.00    -0.237 OA
ATOM     88  O   UNL A   1      47.957  26.097  27.748  1.00  0.00    -0.237 OA
ATOM     89  O   UNL A   1      46.335  25.708  29.556  1.00  0.00    -0.744 OA
ENDBRANCH  82  86
ENDBRANCH  55  79
BRANCH  67  90
ATOM     90  C   UNL A   1      42.477  36.028  28.720  1.00  0.00     0.023 A 
ATOM     91  C   UNL A   1      43.063  37.120  29.370  1.00  0.00     0.031 A 
ATOM     92  C   UNL A   1      41.962  36.295  27.430  1.00  0.00     0.131 A 
ATOM     93  C   UNL A   1      43.010  38.411  28.829  1.00  0.00     0.055 A 
ATOM     94  C   UNL A   1      42.016  37.560  26.838  1.00  0.00     0.041 A 
ATOM     95  F   UNL A   1      41.394  35.341  26.679  1.00  0.00    -0.206 F 
ATOM     96  C   UNL A   1      42.517  38.638  27.551  1.00  0.00     0.022 A 
BRANCH  93  97
ATOM     97  S   UNL A   1      43.502  39.783  29.899  1.00  0.00     0.124 S 
ATOM     98  O   UNL A   1      44.608  40.369  29.145  1.00  0.00    -0.237 OA
ATOM     99  O   UNL A   1      42.285  40.588  29.959  1.00  0.00    -0.237 OA
ATOM    100  O   UNL A   1      43.879  39.127  31.148  1.00  0.00    -0.744 OA
ENDBRANCH  93  97
ENDBRANCH  67  90
ENDBRANCH  41  42
ENDBRANCH  33  36
ENDBRANCH  31  32
ENDBRANCH  30  31
ENDBRANCH   1  30
TORSDOF 19
ENDMDL
MODEL 3
REMARK VINA RESULT:     -10.6      1.764      2.159
REMARK SMILES Cc1ccc([C@@H](C(=O)N(CC(=O)NCCCNC(=O)c2ccc(-c3c4nc(c(-c5cc(S(=O)(=O)[O-])ccc5F)c5ccc([nH]5)c(-c5cc(S(=O)(=O)[O-])ccc5F)c5nc(c(-c6cc(S(=O)(=O)[O-])ccc6F)c6ccc3[nH]6)C=C5)C=C4)cc2)C2CC[NH+](C)CC2)[NH+](C)C)cc1
REMARK SMILES IDX 14 1 13 2 11 3 12 4 10 6 9 7 7 8 8 9 6 10 5 11 1 12 2 13
REMARK SMILES IDX 3 14 94 15 4 16 93 17 90 18 91 19 92 20 83 22 84 23 89 24
REMARK SMILES IDX 85 25 88 26 86 27 87 28 15 30 16 31 17 32 18 33 19 35 20 36
REMARK SMILES IDX 21 37 82 38 22 39 81 40 23 41 24 42 25 43 75 44 26 45 80 46
REMARK SMILES IDX 74 47 76 48 27 49 79 50 73 51 72 52 28 54 60 55 40 56 59 57
REMARK SMILES IDX 41 58 44 59 58 60 77 61 42 62 43 63 57 65 78 66 45 67 29 68
REMARK SMILES IDX 30 69 38 70 31 71 37 72 39 73 36 74 32 75 33 76 34 77 35 78
REMARK SMILES IDX 61 79 62 80 70 81 63 82 69 83 71 84 68 85 64 86 65 87 66 88
REMARK SMILES IDX 67 89 46 90 47 91 55 92 48 93 54 94 56 95 53 96 49 97 50 98
REMARK SMILES IDX 51 99 52 100
REMARK H PARENT 13 5 90 21 86 29 17 34 76 53 44 64
REMARK Flexibility Score: inf
ROOT
ATOM      1  C   UNL A   1      35.504  23.825  24.563  1.00  0.00     0.117 C 
ENDROOT
BRANCH   1   2
ATOM      2  N   UNL A   1      34.922  23.851  23.229  1.00  0.00    -0.354 N 
ATOM      3  C   UNL A   1      34.020  24.768  22.757  1.00  0.00     0.239 C 
ATOM      4  O   UNL A   1      34.005  25.030  21.551  1.00  0.00    -0.273 OA
ATOM      5  H   UNL A   1      35.202  23.142  22.607  1.00  0.00     0.163 HD
BRANCH   3   6
ATOM      6  C   UNL A   1      33.070  25.516  23.714  1.00  0.00     0.219 C 
BRANCH   6   7
ATOM      7  N   UNL A   1      31.672  25.071  23.762  1.00  0.00    -0.324 N 
BRANCH   7   8
ATOM      8  C   UNL A   1      31.306  23.706  23.834  1.00  0.00     0.286 C 
ATOM      9  O   UNL A   1      30.294  23.354  23.204  1.00  0.00    -0.267 OA
BRANCH   8  10
ATOM     10  C   UNL A   1      32.028  22.675  24.831  1.00  0.00     0.305 C 
BRANCH  10  11
ATOM     11  C   UNL A   1      32.193  21.207  24.402  1.00  0.00     0.019 A 
ATOM     12  C   UNL A   1      33.445  17.223  23.242  1.00  0.00     0.044 C 
ATOM     13  C   UNL A   1      32.887  18.549  23.673  1.00  0.00    -0.051 A 
ATOM     14  C   UNL A   1      32.399  19.444  22.720  1.00  0.00     0.004 A 
ATOM     15  C   UNL A   1      32.937  18.950  25.006  1.00  0.00     0.004 A 
ATOM     16  C   UNL A   1      32.048  20.752  23.083  1.00  0.00     0.011 A 
ATOM     17  C   UNL A   1      32.559  20.248  25.370  1.00  0.00     0.011 A 
ENDBRANCH  10  11
BRANCH  10  18
ATOM     18  N   UNL A   1      31.538  22.780  26.254  1.00  0.00    -0.326 N 
ATOM     19  C   UNL A   1      31.991  24.006  26.903  1.00  0.00     0.333 C 
ATOM     20  C   UNL A   1      30.094  22.608  26.438  1.00  0.00     0.333 C 
ATOM     21  H   UNL A   1      31.969  21.977  26.713  1.00  0.00     0.348 HD
ENDBRANCH  10  18
ENDBRANCH   8  10
ENDBRANCH   7   8
BRANCH   7  22
ATOM     22  C   UNL A   1      30.579  26.074  23.462  1.00  0.00     0.097 C 
ATOM     23  C   UNL A   1      30.904  27.335  22.627  1.00  0.00     0.086 C 
ATOM     24  C   UNL A   1      29.909  26.606  24.741  1.00  0.00     0.086 C 
ATOM     25  C   UNL A   1      31.748  28.374  23.370  1.00  0.00     0.264 C 
ATOM     26  C   UNL A   1      30.851  27.536  25.493  1.00  0.00     0.264 C 
ATOM     27  N   UNL A   1      31.219  28.713  24.699  1.00  0.00    -0.337 N 
ATOM     28  C   UNL A   1      32.199  29.518  25.432  1.00  0.00     0.332 C 
ATOM     29  H   UNL A   1      30.362  29.246  24.546  1.00  0.00     0.347 HD
ENDBRANCH   7  22
ENDBRANCH   6   7
ENDBRANCH   3   6
ENDBRANCH   1   2
BRANCH   1  30
ATOM     30  C   UNL A   1      36.339  22.584  24.904  1.00  0.00     0.042 C 
BRANCH  30  31
ATOM     31  C   UNL A   1      37.860  22.663  24.998  1.00  0.00     0.118 C 
BRANCH  31  32
ATOM     32  N   UNL A   1      38.475  21.714  25.933  1.00  0.00    -0.352 N 
ATOM     33  C   UNL A   1      39.723  21.767  26.548  1.00  0.00     0.251 C 
ATOM     34  H   UNL A   1      37.926  20.928  26.158  1.00  0.00     0.163 HD
ATOM     35  O   UNL A   1      40.348  20.743  26.770  1.00  0.00    -0.269 OA
BRANCH  33  36
ATOM     36  C   UNL A   1      40.303  23.090  26.873  1.00  0.00     0.039 A 
ATOM     37  C   UNL A   1      41.620  23.476  26.597  1.00  0.00     0.014 A 
ATOM     38  C   UNL A   1      39.473  23.979  27.518  1.00  0.00     0.014 A 
ATOM     39  C   UNL A   1      42.049  24.746  27.008  1.00  0.00     0.010 A 
ATOM     40  C   UNL A   1      39.748  25.299  27.546  1.00  0.00     0.010 A 
ATOM     41  C   UNL A   1      41.091  25.631  27.506  1.00  0.00    -0.014 A 
BRANCH  41  42
ATOM     42  C   UNL A   1      41.301  26.827  28.299  1.00  0.00     0.031 A 
ATOM     43  C   UNL A   1      40.254  27.822  28.467  1.00  0.00     0.074 A 
ATOM     44  C   UNL A   1      42.329  26.717  29.175  1.00  0.00     0.049 A 
ATOM     45  N   UNL A   1      40.474  29.018  28.879  1.00  0.00    -0.248 NA
ATOM     46  C   UNL A   1      38.851  27.534  28.191  1.00  0.00     0.031 C 
ATOM     47  C   UNL A   1      42.532  27.343  30.474  1.00  0.00     0.029 A 
ATOM     48  N   UNL A   1      43.453  25.917  29.038  1.00  0.00    -0.354 N 
ATOM     49  C   UNL A   1      39.254  29.533  29.240  1.00  0.00     0.074 A 
ATOM     50  C   UNL A   1      38.269  28.638  28.673  1.00  0.00     0.031 C 
ATOM     51  C   UNL A   1      43.796  27.096  30.878  1.00  0.00     0.029 A 
ATOM     52  C   UNL A   1      44.496  26.470  29.761  1.00  0.00     0.049 A 
ATOM     53  H   UNL A   1      43.503  25.086  28.511  1.00  0.00     0.167 HD
ATOM     54  C   UNL A   1      39.195  30.536  30.157  1.00  0.00     0.034 A 
ATOM     55  C   UNL A   1      45.523  27.032  29.049  1.00  0.00     0.034 A 
ATOM     56  C   UNL A   1      40.519  30.812  30.720  1.00  0.00     0.049 A 
ATOM     57  C   UNL A   1      45.568  28.529  29.215  1.00  0.00     0.074 A 
ATOM     58  C   UNL A   1      41.121  30.414  31.903  1.00  0.00     0.029 A 
ATOM     59  N   UNL A   1      41.539  31.287  29.904  1.00  0.00    -0.354 N 
ATOM     60  N   UNL A   1      44.565  29.254  29.623  1.00  0.00    -0.248 NA
ATOM     61  C   UNL A   1      46.757  29.317  28.927  1.00  0.00     0.031 C 
ATOM     62  C   UNL A   1      42.523  30.598  31.765  1.00  0.00     0.029 A 
ATOM     63  C   UNL A   1      42.771  31.138  30.514  1.00  0.00     0.049 A 
ATOM     64  H   UNL A   1      41.402  31.678  29.011  1.00  0.00     0.167 HD
ATOM     65  C   UNL A   1      44.912  30.573  29.596  1.00  0.00     0.074 A 
ATOM     66  C   UNL A   1      46.315  30.553  29.213  1.00  0.00     0.031 C 
ATOM     67  C   UNL A   1      43.993  31.557  29.835  1.00  0.00     0.034 A 
BRANCH  54  68
ATOM     68  C   UNL A   1      37.908  31.003  30.785  1.00  0.00     0.023 A 
ATOM     69  C   UNL A   1      37.173  32.034  30.171  1.00  0.00     0.031 A 
ATOM     70  C   UNL A   1      37.354  30.474  31.966  1.00  0.00     0.131 A 
ATOM     71  C   UNL A   1      36.010  32.555  30.760  1.00  0.00     0.055 A 
ATOM     72  C   UNL A   1      36.223  31.026  32.584  1.00  0.00     0.041 A 
ATOM     73  F   UNL A   1      37.864  29.377  32.548  1.00  0.00    -0.206 F 
ATOM     74  C   UNL A   1      35.549  32.081  31.984  1.00  0.00     0.022 A 
BRANCH  71  75
ATOM     75  S   UNL A   1      35.093  33.844  29.875  1.00  0.00     0.124 S 
ATOM     76  O   UNL A   1      33.912  33.122  29.415  1.00  0.00    -0.237 OA
ATOM     77  O   UNL A   1      34.875  34.840  30.918  1.00  0.00    -0.237 OA
ATOM     78  O   UNL A   1      36.019  34.252  28.819  1.00  0.00    -0.744 OA
ENDBRANCH  71  75
ENDBRANCH  54  68
BRANCH  55  79
ATOM     79  C   UNL A   1      45.764  26.328  27.738  1.00  0.00     0.023 A 
ATOM     80  C   UNL A   1      45.971  27.142  26.607  1.00  0.00     0.031 A 
ATOM     81  C   UNL A   1      46.247  25.009  27.687  1.00  0.00     0.131 A 
ATOM     82  C   UNL A   1      46.804  26.701  25.566  1.00  0.00     0.055 A 
ATOM     83  C   UNL A   1      47.012  24.550  26.603  1.00  0.00     0.041 A 
ATOM     84  F   UNL A   1      46.104  24.186  28.736  1.00  0.00    -0.206 F 
ATOM     85  C   UNL A   1      47.331  25.411  25.553  1.00  0.00     0.022 A 
BRANCH  82  86
ATOM     86  S   UNL A   1      47.380  27.947  24.389  1.00  0.00     0.124 S 
ATOM     87  O   UNL A   1      47.356  27.210  23.130  1.00  0.00    -0.237 OA
ATOM     88  O   UNL A   1      46.363  28.987  24.538  1.00  0.00    -0.237 OA
ATOM     89  O   UNL A   1      48.706  28.315  24.866  1.00  0.00    -0.744 OA
ENDBRANCH  82  86
ENDBRANCH  55  79
BRANCH  67  90
ATOM     90  C   UNL A   1      44.195  33.013  29.486  1.00  0.00     0.023 A 
ATOM     91  C   UNL A   1      44.436  33.994  30.455  1.00  0.00     0.031 A 
ATOM     92  C   UNL A   1      44.230  33.464  28.146  1.00  0.00     0.131 A 
ATOM     93  C   UNL A   1      44.562  35.347  30.114  1.00  0.00     0.055 A 
ATOM     94  C   UNL A   1      44.475  34.796  27.798  1.00  0.00     0.041 A 
ATOM     95  F   UNL A   1      44.042  32.633  27.110  1.00  0.00    -0.206 F 
ATOM     96  C   UNL A   1      44.614  35.756  28.788  1.00  0.00     0.022 A 
BRANCH  93  97
ATOM     97  S   UNL A   1      44.539  36.551  31.463  1.00  0.00     0.124 S 
ATOM     98  O   UNL A   1      43.359  36.133  32.217  1.00  0.00    -0.237 OA
ATOM     99  O   UNL A   1      45.822  36.314  32.119  1.00  0.00    -0.237 OA
ATOM    100  O   UNL A   1      44.416  37.834  30.776  1.00  0.00    -0.744 OA
ENDBRANCH  93  97
ENDBRANCH  67  90
ENDBRANCH  41  42
ENDBRANCH  33  36
ENDBRANCH  31  32
ENDBRANCH  30  31
ENDBRANCH   1  30
TORSDOF 19
ENDMDL
