MODEL 1
REMARK VINA RESULT:     -11.2      0.000      0.000
REMARK SMILES C#CC[N@H+](CC(=O)NCCCNC(=O)c1ccc(-c2c3nc(c(-c4cc(S(=O)(=O)[O-])ccc4F)c4ccc([nH]4)c(-c4cc(S(=O)(=O)[O-])ccc4F)c4nc(c(-c5cc(S(=O)(=O)[O-])ccc5F)c5ccc2[nH]5)C=C4)C=C3)cc1)[C@H](C)c1cc(C)ccc1C
REMARK SMILES IDX 10 1 9 2 8 3 6 4 7 5 5 7 4 8 3 10 2 11 1 12 78 13 79 14
REMARK SMILES IDX 80 15 81 16 86 17 82 18 85 19 87 20 83 21 84 22 11 23 12 24
REMARK SMILES IDX 13 25 14 27 15 28 16 29 77 30 17 31 76 32 18 33 19 34 20 35
REMARK SMILES IDX 70 36 21 37 75 38 69 39 71 40 22 41 74 42 68 43 67 44 23 46
REMARK SMILES IDX 55 47 35 48 54 49 36 50 39 51 53 52 72 53 37 54 38 55 52 57
REMARK SMILES IDX 73 58 40 59 24 60 25 61 33 62 26 63 32 64 34 65 31 66 27 67
REMARK SMILES IDX 28 68 29 69 30 70 56 71 57 72 65 73 58 74 64 75 66 76 63 77
REMARK SMILES IDX 59 78 60 79 61 80 62 81 41 82 42 83 50 84 43 85 49 86 51 87
REMARK SMILES IDX 48 88 44 89 45 90 46 91 47 92
REMARK H PARENT 8 6 4 9 12 26 71 45 39 56
REMARK Flexibility Score: inf
ROOT
ATOM      1  C   UNL A   1      31.413  32.242  26.508  1.00  0.00     0.042 C 
ENDROOT
BRANCH   1   2
ATOM      2  C   UNL A   1      31.315  30.736  26.243  1.00  0.00     0.118 C 
BRANCH   2   3
ATOM      3  N   UNL A   1      31.101  30.386  24.840  1.00  0.00    -0.351 N 
ATOM      4  C   UNL A   1      31.108  29.168  24.200  1.00  0.00     0.275 C 
ATOM      5  O   UNL A   1      30.867  29.149  22.992  1.00  0.00    -0.269 OA
ATOM      6  H   UNL A   1      30.922  31.154  24.252  1.00  0.00     0.163 HD
BRANCH   4   7
ATOM      7  C   UNL A   1      31.399  27.880  24.991  1.00  0.00     0.364 C 
BRANCH   7   8
ATOM      8  N   UNL A   1      32.845  27.528  25.135  1.00  0.00    -0.311 N 
ATOM      9  H   UNL A   1      33.423  28.215  24.649  1.00  0.00     0.349 HD
BRANCH   8  10
ATOM     10  C   UNL A   1      33.276  27.626  26.531  1.00  0.00     0.354 C 
BRANCH  10  11
ATOM     11  C   UNL A   1      34.248  28.675  26.876  1.00  0.00    -0.047 C 
ATOM     12  C   UNL A   1      34.956  29.544  27.299  1.00  0.00     0.010 C 
ENDBRANCH  10  11
ENDBRANCH   8  10
BRANCH   8  13
ATOM     13  C   UNL A   1      33.146  26.222  24.447  1.00  0.00     0.213 C 
ATOM     14  C   UNL A   1      32.007  25.615  23.593  1.00  0.00     0.081 C 
BRANCH  13  15
ATOM     15  C   UNL A   1      33.746  25.125  25.341  1.00  0.00     0.012 A 
ATOM     16  C   UNL A   1      35.141  24.875  25.252  1.00  0.00     0.013 A 
ATOM     17  C   UNL A   1      32.983  24.300  26.192  1.00  0.00    -0.042 A 
ATOM     18  C   UNL A   1      35.741  23.758  25.842  1.00  0.00    -0.051 A 
ATOM     19  C   UNL A   1      33.608  23.202  26.819  1.00  0.00     0.004 A 
ATOM     20  C   UNL A   1      31.516  24.476  26.474  1.00  0.00     0.045 C 
ATOM     21  C   UNL A   1      37.163  23.416  25.505  1.00  0.00     0.044 C 
ATOM     22  C   UNL A   1      34.960  22.916  26.625  1.00  0.00     0.004 A 
ENDBRANCH  13  15
ENDBRANCH   8  13
ENDBRANCH   7   8
ENDBRANCH   4   7
ENDBRANCH   2   3
ENDBRANCH   1   2
BRANCH   1  23
ATOM     23  C   UNL A   1      32.686  32.690  27.211  1.00  0.00     0.118 C 
BRANCH  23  24
ATOM     24  N   UNL A   1      32.602  34.077  27.624  1.00  0.00    -0.352 N 
ATOM     25  C   UNL A   1      33.181  34.720  28.694  1.00  0.00     0.251 C 
ATOM     26  H   UNL A   1      32.044  34.649  27.049  1.00  0.00     0.163 HD
ATOM     27  O   UNL A   1      32.728  35.812  29.030  1.00  0.00    -0.269 OA
BRANCH  25  28
ATOM     28  C   UNL A   1      34.314  34.123  29.451  1.00  0.00     0.039 A 
ATOM     29  C   UNL A   1      35.619  34.402  29.030  1.00  0.00     0.014 A 
ATOM     30  C   UNL A   1      34.118  33.230  30.508  1.00  0.00     0.014 A 
ATOM     31  C   UNL A   1      36.713  33.820  29.683  1.00  0.00     0.010 A 
ATOM     32  C   UNL A   1      35.210  32.719  31.215  1.00  0.00     0.010 A 
ATOM     33  C   UNL A   1      36.521  32.988  30.798  1.00  0.00    -0.014 A 
BRANCH  33  34
ATOM     34  C   UNL A   1      37.678  32.367  31.505  1.00  0.00     0.031 A 
ATOM     35  C   UNL A   1      38.443  31.235  30.869  1.00  0.00     0.074 A 
ATOM     36  C   UNL A   1      38.017  32.790  32.740  1.00  0.00     0.049 A 
ATOM     37  N   UNL A   1      39.443  30.535  31.344  1.00  0.00    -0.248 NA
ATOM     38  C   UNL A   1      38.001  30.813  29.531  1.00  0.00     0.031 C 
ATOM     39  C   UNL A   1      37.333  33.847  33.486  1.00  0.00     0.029 A 
ATOM     40  N   UNL A   1      39.015  32.378  33.589  1.00  0.00    -0.354 N 
ATOM     41  C   UNL A   1      39.737  29.580  30.374  1.00  0.00     0.074 A 
ATOM     42  C   UNL A   1      38.764  29.753  29.316  1.00  0.00     0.031 C 
ATOM     43  C   UNL A   1      37.945  34.016  34.669  1.00  0.00     0.029 A 
ATOM     44  C   UNL A   1      39.035  33.053  34.788  1.00  0.00     0.049 A 
ATOM     45  H   UNL A   1      39.658  31.667  33.361  1.00  0.00     0.167 HD
ATOM     46  C   UNL A   1      40.737  28.662  30.356  1.00  0.00     0.034 A 
ATOM     47  C   UNL A   1      39.829  32.907  35.868  1.00  0.00     0.034 A 
ATOM     48  C   UNL A   1      41.708  28.512  31.414  1.00  0.00     0.049 A 
ATOM     49  C   UNL A   1      40.925  31.873  35.836  1.00  0.00     0.074 A 
ATOM     50  C   UNL A   1      42.801  27.665  31.468  1.00  0.00     0.029 A 
ATOM     51  N   UNL A   1      41.694  29.213  32.614  1.00  0.00    -0.354 N 
ATOM     52  N   UNL A   1      41.230  31.020  34.885  1.00  0.00    -0.248 NA
ATOM     53  C   UNL A   1      41.791  31.790  37.019  1.00  0.00     0.031 C 
ATOM     54  C   UNL A   1      43.401  27.798  32.725  1.00  0.00     0.029 A 
ATOM     55  C   UNL A   1      42.735  28.790  33.428  1.00  0.00     0.049 A 
ATOM     56  H   UNL A   1      41.040  29.910  32.852  1.00  0.00     0.167 HD
ATOM     57  C   UNL A   1      42.339  30.316  35.346  1.00  0.00     0.074 A 
ATOM     58  C   UNL A   1      42.658  30.858  36.651  1.00  0.00     0.031 C 
ATOM     59  C   UNL A   1      43.033  29.318  34.740  1.00  0.00     0.034 A 
BRANCH  46  60
ATOM     60  C   UNL A   1      40.802  27.730  29.164  1.00  0.00     0.023 A 
ATOM     61  C   UNL A   1      41.745  27.906  28.135  1.00  0.00     0.031 A 
ATOM     62  C   UNL A   1      39.879  26.677  29.031  1.00  0.00     0.131 A 
ATOM     63  C   UNL A   1      41.682  27.112  26.980  1.00  0.00     0.055 A 
ATOM     64  C   UNL A   1      39.881  25.829  27.921  1.00  0.00     0.041 A 
ATOM     65  F   UNL A   1      38.942  26.465  29.969  1.00  0.00    -0.206 F 
ATOM     66  C   UNL A   1      40.772  26.057  26.877  1.00  0.00     0.022 A 
BRANCH  63  67
ATOM     67  S   UNL A   1      42.682  27.592  25.544  1.00  0.00     0.124 S 
ATOM     68  O   UNL A   1      41.946  28.754  25.048  1.00  0.00    -0.237 OA
ATOM     69  O   UNL A   1      43.982  27.868  26.144  1.00  0.00    -0.237 OA
ATOM     70  O   UNL A   1      42.629  26.416  24.679  1.00  0.00    -0.744 OA
ENDBRANCH  63  67
ENDBRANCH  46  60
BRANCH  47  71
ATOM     71  C   UNL A   1      39.609  33.753  37.075  1.00  0.00     0.023 A 
ATOM     72  C   UNL A   1      38.939  33.256  38.203  1.00  0.00     0.031 A 
ATOM     73  C   UNL A   1      40.062  35.085  37.111  1.00  0.00     0.131 A 
ATOM     74  C   UNL A   1      38.711  34.093  39.306  1.00  0.00     0.055 A 
ATOM     75  C   UNL A   1      39.876  35.898  38.230  1.00  0.00     0.041 A 
ATOM     76  F   UNL A   1      40.716  35.608  36.061  1.00  0.00    -0.206 F 
ATOM     77  C   UNL A   1      39.188  35.405  39.334  1.00  0.00     0.022 A 
BRANCH  74  78
ATOM     78  S   UNL A   1      37.730  33.457  40.694  1.00  0.00     0.124 S 
ATOM     79  O   UNL A   1      37.509  34.665  41.480  1.00  0.00    -0.237 OA
ATOM     80  O   UNL A   1      36.560  32.911  40.014  1.00  0.00    -0.237 OA
ATOM     81  O   UNL A   1      38.610  32.465  41.307  1.00  0.00    -0.744 OA
ENDBRANCH  74  78
ENDBRANCH  47  71
BRANCH  59  82
ATOM     82  C   UNL A   1      44.234  28.771  35.478  1.00  0.00     0.023 A 
ATOM     83  C   UNL A   1      44.125  27.695  36.377  1.00  0.00     0.031 A 
ATOM     84  C   UNL A   1      45.504  29.346  35.287  1.00  0.00     0.131 A 
ATOM     85  C   UNL A   1      45.253  27.266  37.094  1.00  0.00     0.055 A 
ATOM     86  C   UNL A   1      46.634  28.873  35.955  1.00  0.00     0.041 A 
ATOM     87  F   UNL A   1      45.667  30.379  34.446  1.00  0.00    -0.206 F 
ATOM     88  C   UNL A   1      46.510  27.836  36.875  1.00  0.00     0.022 A 
BRANCH  85  89
ATOM     89  S   UNL A   1      45.038  26.018  38.393  1.00  0.00     0.124 S 
ATOM     90  O   UNL A   1      43.905  26.553  39.143  1.00  0.00    -0.237 OA
ATOM     91  O   UNL A   1      44.777  24.807  37.623  1.00  0.00    -0.237 OA
ATOM     92  O   UNL A   1      46.315  26.038  39.103  1.00  0.00    -0.744 OA
ENDBRANCH  85  89
ENDBRANCH  59  82
ENDBRANCH  33  34
ENDBRANCH  25  28
ENDBRANCH  23  24
ENDBRANCH   1  23
TORSDOF 18
ENDMDL
MODEL 2
REMARK VINA RESULT:     -11.1      3.213      8.679
REMARK SMILES C#CC[N@H+](CC(=O)NCCCNC(=O)c1ccc(-c2c3nc(c(-c4cc(S(=O)(=O)[O-])ccc4F)c4ccc([nH]4)c(-c4cc(S(=O)(=O)[O-])ccc4F)c4nc(c(-c5cc(S(=O)(=O)[O-])ccc5F)c5ccc2[nH]5)C=C4)C=C3)cc1)[C@H](C)c1cc(C)ccc1C
REMARK SMILES IDX 10 1 9 2 8 3 6 4 7 5 5 7 4 8 3 10 2 11 1 12 78 13 79 14
REMARK SMILES IDX 80 15 81 16 86 17 82 18 85 19 87 20 83 21 84 22 11 23 12 24
REMARK SMILES IDX 13 25 14 27 15 28 16 29 77 30 17 31 76 32 18 33 19 34 20 35
REMARK SMILES IDX 70 36 21 37 75 38 69 39 71 40 22 41 74 42 68 43 67 44 23 46
REMARK SMILES IDX 55 47 35 48 54 49 36 50 39 51 53 52 72 53 37 54 38 55 52 57
REMARK SMILES IDX 73 58 40 59 24 60 25 61 33 62 26 63 32 64 34 65 31 66 27 67
REMARK SMILES IDX 28 68 29 69 30 70 56 71 57 72 65 73 58 74 64 75 66 76 63 77
REMARK SMILES IDX 59 78 60 79 61 80 62 81 41 82 42 83 50 84 43 85 49 86 51 87
REMARK SMILES IDX 48 88 44 89 45 90 46 91 47 92
REMARK H PARENT 8 6 4 9 12 26 71 45 39 56
REMARK Flexibility Score: inf
ROOT
ATOM      1  C   UNL A   1      32.610  28.327  27.063  1.00  0.00     0.042 C 
ENDROOT
BRANCH   1   2
ATOM      2  C   UNL A   1      31.412  27.923  26.198  1.00  0.00     0.118 C 
BRANCH   2   3
ATOM      3  N   UNL A   1      30.652  26.787  26.718  1.00  0.00    -0.351 N 
ATOM      4  C   UNL A   1      30.299  25.591  26.135  1.00  0.00     0.275 C 
ATOM      5  O   UNL A   1      29.668  24.781  26.816  1.00  0.00    -0.269 OA
ATOM      6  H   UNL A   1      30.339  26.897  27.644  1.00  0.00     0.163 HD
BRANCH   4   7
ATOM      7  C   UNL A   1      30.700  25.292  24.679  1.00  0.00     0.364 C 
BRANCH   7   8
ATOM      8  N   UNL A   1      31.768  24.260  24.507  1.00  0.00    -0.311 N 
ATOM      9  H   UNL A   1      31.523  23.414  25.021  1.00  0.00     0.349 HD
BRANCH   8  10
ATOM     10  C   UNL A   1      31.855  23.818  23.114  1.00  0.00     0.354 C 
BRANCH  10  11
ATOM     11  C   UNL A   1      32.097  22.389  22.864  1.00  0.00    -0.047 C 
ATOM     12  C   UNL A   1      32.278  21.205  22.824  1.00  0.00     0.010 C 
ENDBRANCH  10  11
ENDBRANCH   8  10
BRANCH   8  13
ATOM     13  C   UNL A   1      33.060  24.724  25.130  1.00  0.00     0.213 C 
ATOM     14  C   UNL A   1      33.817  25.851  24.389  1.00  0.00     0.081 C 
BRANCH  13  15
ATOM     15  C   UNL A   1      34.052  23.610  25.504  1.00  0.00     0.012 A 
ATOM     16  C   UNL A   1      35.216  23.454  24.708  1.00  0.00     0.013 A 
ATOM     17  C   UNL A   1      33.839  22.686  26.548  1.00  0.00    -0.042 A 
ATOM     18  C   UNL A   1      36.055  22.339  24.819  1.00  0.00    -0.051 A 
ATOM     19  C   UNL A   1      34.717  21.591  26.680  1.00  0.00     0.004 A 
ATOM     20  C   UNL A   1      32.710  22.753  27.540  1.00  0.00     0.045 C 
ATOM     21  C   UNL A   1      37.121  22.109  23.787  1.00  0.00     0.044 C 
ATOM     22  C   UNL A   1      35.792  21.402  25.811  1.00  0.00     0.004 A 
ENDBRANCH  13  15
ENDBRANCH   8  13
ENDBRANCH   7   8
ENDBRANCH   4   7
ENDBRANCH   2   3
ENDBRANCH   1   2
BRANCH   1  23
ATOM     23  C   UNL A   1      33.679  29.137  26.342  1.00  0.00     0.118 C 
BRANCH  23  24
ATOM     24  N   UNL A   1      33.629  30.535  26.725  1.00  0.00    -0.352 N 
ATOM     25  C   UNL A   1      34.356  31.222  27.669  1.00  0.00     0.251 C 
ATOM     26  H   UNL A   1      32.972  31.078  26.231  1.00  0.00     0.163 HD
ATOM     27  O   UNL A   1      33.937  32.315  28.043  1.00  0.00    -0.269 OA
BRANCH  25  28
ATOM     28  C   UNL A   1      35.610  30.671  28.251  1.00  0.00     0.039 A 
ATOM     29  C   UNL A   1      36.827  30.996  27.643  1.00  0.00     0.014 A 
ATOM     30  C   UNL A   1      35.604  29.776  29.324  1.00  0.00     0.014 A 
ATOM     31  C   UNL A   1      38.026  30.458  28.128  1.00  0.00     0.010 A 
ATOM     32  C   UNL A   1      36.806  29.309  29.863  1.00  0.00     0.010 A 
ATOM     33  C   UNL A   1      38.031  29.625  29.258  1.00  0.00    -0.014 A 
BRANCH  33  34
ATOM     34  C   UNL A   1      39.301  29.049  29.787  1.00  0.00     0.031 A 
ATOM     35  C   UNL A   1      39.980  29.669  30.983  1.00  0.00     0.074 A 
ATOM     36  C   UNL A   1      39.870  27.995  29.170  1.00  0.00     0.049 A 
ATOM     37  N   UNL A   1      41.110  29.344  31.559  1.00  0.00    -0.248 NA
ATOM     38  C   UNL A   1      39.312  30.830  31.589  1.00  0.00     0.031 C 
ATOM     39  C   UNL A   1      39.340  27.328  27.980  1.00  0.00     0.029 A 
ATOM     40  N   UNL A   1      41.023  27.303  29.451  1.00  0.00    -0.354 N 
ATOM     41  C   UNL A   1      41.299  30.270  32.581  1.00  0.00     0.074 A 
ATOM     42  C   UNL A   1      40.196  31.206  32.500  1.00  0.00     0.031 C 
ATOM     43  C   UNL A   1      40.151  26.311  27.647  1.00  0.00     0.029 A 
ATOM     44  C   UNL A   1      41.282  26.278  28.569  1.00  0.00     0.049 A 
ATOM     45  H   UNL A   1      41.610  27.519  30.212  1.00  0.00     0.167 HD
ATOM     46  C   UNL A   1      42.283  30.323  33.515  1.00  0.00     0.034 A 
ATOM     47  C   UNL A   1      42.318  25.418  28.499  1.00  0.00     0.034 A 
ATOM     48  C   UNL A   1      43.368  29.374  33.591  1.00  0.00     0.049 A 
ATOM     49  C   UNL A   1      43.409  25.500  29.535  1.00  0.00     0.074 A 
ATOM     50  C   UNL A   1      44.377  29.292  34.534  1.00  0.00     0.029 A 
ATOM     51  N   UNL A   1      43.597  28.350  32.679  1.00  0.00    -0.354 N 
ATOM     52  N   UNL A   1      43.540  26.343  30.534  1.00  0.00    -0.248 NA
ATOM     53  C   UNL A   1      44.487  24.507  29.441  1.00  0.00     0.031 C 
ATOM     54  C   UNL A   1      45.256  28.271  34.152  1.00  0.00     0.029 A 
ATOM     55  C   UNL A   1      44.752  27.658  33.016  1.00  0.00     0.049 A 
ATOM     56  H   UNL A   1      43.023  28.146  31.905  1.00  0.00     0.167 HD
ATOM     57  C   UNL A   1      44.701  25.965  31.201  1.00  0.00     0.074 A 
ATOM     58  C   UNL A   1      45.222  24.808  30.500  1.00  0.00     0.031 C 
ATOM     59  C   UNL A   1      45.279  26.520  32.298  1.00  0.00     0.034 A 
BRANCH  46  60
ATOM     60  C   UNL A   1      42.240  31.469  34.505  1.00  0.00     0.023 A 
ATOM     61  C   UNL A   1      41.348  31.478  35.591  1.00  0.00     0.031 A 
ATOM     62  C   UNL A   1      43.073  32.590  34.335  1.00  0.00     0.131 A 
ATOM     63  C   UNL A   1      41.238  32.618  36.401  1.00  0.00     0.055 A 
ATOM     64  C   UNL A   1      43.026  33.684  35.201  1.00  0.00     0.041 A 
ATOM     65  F   UNL A   1      43.936  32.652  33.307  1.00  0.00    -0.206 F 
ATOM     66  C   UNL A   1      42.089  33.712  36.230  1.00  0.00     0.022 A 
BRANCH  63  67
ATOM     67  S   UNL A   1      39.848  32.724  37.564  1.00  0.00     0.124 S 
ATOM     68  O   UNL A   1      40.518  32.504  38.844  1.00  0.00    -0.237 OA
ATOM     69  O   UNL A   1      39.343  34.072  37.330  1.00  0.00    -0.237 OA
ATOM     70  O   UNL A   1      38.963  31.642  37.140  1.00  0.00    -0.744 OA
ENDBRANCH  63  67
ENDBRANCH  46  60
BRANCH  47  71
ATOM     71  C   UNL A   1      42.378  24.411  27.401  1.00  0.00     0.023 A 
ATOM     72  C   UNL A   1      41.610  23.238  27.444  1.00  0.00     0.031 A 
ATOM     73  C   UNL A   1      43.220  24.608  26.291  1.00  0.00     0.131 A 
ATOM     74  C   UNL A   1      41.722  22.291  26.414  1.00  0.00     0.055 A 
ATOM     75  C   UNL A   1      43.292  23.686  25.246  1.00  0.00     0.041 A 
ATOM     76  F   UNL A   1      43.972  25.717  26.197  1.00  0.00    -0.206 F 
ATOM     77  C   UNL A   1      42.546  22.513  25.308  1.00  0.00     0.022 A 
BRANCH  74  78
ATOM     78  S   UNL A   1      40.811  20.728  26.565  1.00  0.00     0.124 S 
ATOM     79  O   UNL A   1      41.629  19.829  25.759  1.00  0.00    -0.237 OA
ATOM     80  O   UNL A   1      40.835  20.500  28.006  1.00  0.00    -0.237 OA
ATOM     81  O   UNL A   1      39.498  21.046  26.009  1.00  0.00    -0.744 OA
ENDBRANCH  74  78
ENDBRANCH  47  71
BRANCH  59  82
ATOM     82  C   UNL A   1      46.530  25.855  32.826  1.00  0.00     0.023 A 
ATOM     83  C   UNL A   1      46.472  24.781  33.733  1.00  0.00     0.031 A 
ATOM     84  C   UNL A   1      47.798  26.314  32.427  1.00  0.00     0.131 A 
ATOM     85  C   UNL A   1      47.658  24.241  34.253  1.00  0.00     0.055 A 
ATOM     86  C   UNL A   1      48.974  25.730  32.898  1.00  0.00     0.041 A 
ATOM     87  F   UNL A   1      47.914  27.338  31.568  1.00  0.00    -0.206 F 
ATOM     88  C   UNL A   1      48.909  24.696  33.828  1.00  0.00     0.022 A 
BRANCH  85  89
ATOM     89  S   UNL A   1      47.547  23.000  35.572  1.00  0.00     0.124 S 
ATOM     90  O   UNL A   1      46.138  22.621  35.514  1.00  0.00    -0.237 OA
ATOM     91  O   UNL A   1      48.497  21.986  35.129  1.00  0.00    -0.237 OA
ATOM     92  O   UNL A   1      47.941  23.737  36.771  1.00  0.00    -0.744 OA
ENDBRANCH  85  89
ENDBRANCH  59  82
ENDBRANCH  33  34
ENDBRANCH  25  28
ENDBRANCH  23  24
ENDBRANCH   1  23
TORSDOF 18
ENDMDL
MODEL 3
REMARK VINA RESULT:     -11.1      2.410      3.630
REMARK SMILES C#CC[N@H+](CC(=O)NCCCNC(=O)c1ccc(-c2c3nc(c(-c4cc(S(=O)(=O)[O-])ccc4F)c4ccc([nH]4)c(-c4cc(S(=O)(=O)[O-])ccc4F)c4nc(c(-c5cc(S(=O)(=O)[O-])ccc5F)c5ccc2[nH]5)C=C4)C=C3)cc1)[C@H](C)c1cc(C)ccc1C
REMARK SMILES IDX 10 1 9 2 8 3 6 4 7 5 5 7 4 8 3 10 2 11 1 12 78 13 79 14
REMARK SMILES IDX 80 15 81 16 86 17 82 18 85 19 87 20 83 21 84 22 11 23 12 24
REMARK SMILES IDX 13 25 14 27 15 28 16 29 77 30 17 31 76 32 18 33 19 34 20 35
REMARK SMILES IDX 70 36 21 37 75 38 69 39 71 40 22 41 74 42 68 43 67 44 23 46
REMARK SMILES IDX 55 47 35 48 54 49 36 50 39 51 53 52 72 53 37 54 38 55 52 57
REMARK SMILES IDX 73 58 40 59 24 60 25 61 33 62 26 63 32 64 34 65 31 66 27 67
REMARK SMILES IDX 28 68 29 69 30 70 56 71 57 72 65 73 58 74 64 75 66 76 63 77
REMARK SMILES IDX 59 78 60 79 61 80 62 81 41 82 42 83 50 84 43 85 49 86 51 87
REMARK SMILES IDX 48 88 44 89 45 90 46 91 47 92
REMARK H PARENT 8 6 4 9 12 26 71 45 39 56
REMARK Flexibility Score: inf
ROOT
ATOM      1  C   UNL A   1      31.391  28.090  26.336  1.00  0.00     0.042 C 
ENDROOT
BRANCH   1   2
ATOM      2  C   UNL A   1      31.082  26.768  25.628  1.00  0.00     0.118 C 
BRANCH   2   3
ATOM      3  N   UNL A   1      30.884  25.635  26.530  1.00  0.00    -0.351 N 
ATOM      4  C   UNL A   1      30.860  24.280  26.292  1.00  0.00     0.275 C 
ATOM      5  O   UNL A   1      30.698  23.527  27.254  1.00  0.00    -0.269 OA
ATOM      6  H   UNL A   1      30.742  25.885  27.472  1.00  0.00     0.163 HD
BRANCH   4   7
ATOM      7  C   UNL A   1      31.043  23.744  24.861  1.00  0.00     0.364 C 
BRANCH   7   8
ATOM      8  N   UNL A   1      32.212  22.833  24.662  1.00  0.00    -0.311 N 
ATOM      9  H   UNL A   1      32.644  22.616  25.560  1.00  0.00     0.349 HD
BRANCH   8  10
ATOM     10  C   UNL A   1      31.785  21.529  24.149  1.00  0.00     0.354 C 
BRANCH  10  11
ATOM     11  C   UNL A   1      32.333  20.327  24.795  1.00  0.00    -0.047 C 
ATOM     12  C   UNL A   1      32.914  19.372  25.226  1.00  0.00     0.010 C 
ENDBRANCH  10  11
ENDBRANCH   8  10
BRANCH   8  13
ATOM     13  C   UNL A   1      33.296  23.523  23.875  1.00  0.00     0.213 C 
ATOM     14  C   UNL A   1      33.359  23.204  22.363  1.00  0.00     0.081 C 
BRANCH  13  15
ATOM     15  C   UNL A   1      34.711  23.428  24.471  1.00  0.00     0.012 A 
ATOM     16  C   UNL A   1      35.495  22.287  24.158  1.00  0.00     0.013 A 
ATOM     17  C   UNL A   1      35.250  24.372  25.370  1.00  0.00    -0.042 A 
ATOM     18  C   UNL A   1      36.690  21.994  24.825  1.00  0.00    -0.051 A 
ATOM     19  C   UNL A   1      36.478  24.087  26.003  1.00  0.00     0.004 A 
ATOM     20  C   UNL A   1      34.598  25.674  25.745  1.00  0.00     0.045 C 
ATOM     21  C   UNL A   1      37.339  20.655  24.627  1.00  0.00     0.044 C 
ATOM     22  C   UNL A   1      37.174  22.903  25.758  1.00  0.00     0.004 A 
ENDBRANCH  13  15
ENDBRANCH   8  13
ENDBRANCH   7   8
ENDBRANCH   4   7
ENDBRANCH   2   3
ENDBRANCH   1   2
BRANCH   1  23
ATOM     23  C   UNL A   1      32.429  28.963  25.645  1.00  0.00     0.118 C 
BRANCH  23  24
ATOM     24  N   UNL A   1      32.157  30.372  25.851  1.00  0.00    -0.352 N 
ATOM     25  C   UNL A   1      32.691  31.253  26.764  1.00  0.00     0.251 C 
ATOM     26  H   UNL A   1      31.486  30.760  25.244  1.00  0.00     0.163 HD
ATOM     27  O   UNL A   1      32.096  32.309  26.968  1.00  0.00    -0.269 OA
BRANCH  25  28
ATOM     28  C   UNL A   1      33.942  30.952  27.510  1.00  0.00     0.039 A 
ATOM     29  C   UNL A   1      34.121  29.663  28.022  1.00  0.00     0.014 A 
ATOM     30  C   UNL A   1      34.899  31.933  27.789  1.00  0.00     0.014 A 
ATOM     31  C   UNL A   1      35.261  29.352  28.774  1.00  0.00     0.010 A 
ATOM     32  C   UNL A   1      36.077  31.600  28.463  1.00  0.00     0.010 A 
ATOM     33  C   UNL A   1      36.264  30.312  28.984  1.00  0.00    -0.014 A 
BRANCH  33  34
ATOM     34  C   UNL A   1      37.485  29.992  29.778  1.00  0.00     0.031 A 
ATOM     35  C   UNL A   1      38.539  29.070  29.219  1.00  0.00     0.074 A 
ATOM     36  C   UNL A   1      37.630  30.495  31.021  1.00  0.00     0.049 A 
ATOM     37  N   UNL A   1      39.643  28.635  29.773  1.00  0.00    -0.248 NA
ATOM     38  C   UNL A   1      38.301  28.543  27.868  1.00  0.00     0.031 C 
ATOM     39  C   UNL A   1      36.665  31.364  31.696  1.00  0.00     0.029 A 
ATOM     40  N   UNL A   1      38.638  30.342  31.941  1.00  0.00    -0.354 N 
ATOM     41  C   UNL A   1      40.221  27.770  28.849  1.00  0.00     0.074 A 
ATOM     42  C   UNL A   1      39.308  27.695  27.727  1.00  0.00     0.031 C 
ATOM     43  C   UNL A   1      37.138  31.686  32.910  1.00  0.00     0.029 A 
ATOM     44  C   UNL A   1      38.416  31.014  33.122  1.00  0.00     0.049 A 
ATOM     45  H   UNL A   1      39.445  29.804  31.771  1.00  0.00     0.167 HD
ATOM     46  C   UNL A   1      41.409  27.117  28.916  1.00  0.00     0.034 A 
ATOM     47  C   UNL A   1      39.148  31.071  34.253  1.00  0.00     0.034 A 
ATOM     48  C   UNL A   1      42.314  27.214  30.037  1.00  0.00     0.049 A 
ATOM     49  C   UNL A   1      40.458  30.329  34.316  1.00  0.00     0.074 A 
ATOM     50  C   UNL A   1      43.572  26.654  30.180  1.00  0.00     0.029 A 
ATOM     51  N   UNL A   1      42.053  27.902  31.215  1.00  0.00    -0.354 N 
ATOM     52  N   UNL A   1      41.021  29.565  33.407  1.00  0.00    -0.248 NA
ATOM     53  C   UNL A   1      41.238  30.467  35.552  1.00  0.00     0.031 C 
ATOM     54  C   UNL A   1      44.038  26.939  31.469  1.00  0.00     0.029 A 
ATOM     55  C   UNL A   1      43.108  27.748  32.104  1.00  0.00     0.049 A 
ATOM     56  H   UNL A   1      41.238  28.424  31.394  1.00  0.00     0.167 HD
ATOM     57  C   UNL A   1      42.232  29.152  33.954  1.00  0.00     0.074 A 
ATOM     58  C   UNL A   1      42.324  29.766  35.263  1.00  0.00     0.031 C 
ATOM     59  C   UNL A   1      43.183  28.345  33.418  1.00  0.00     0.034 A 
BRANCH  46  60
ATOM     60  C   UNL A   1      41.774  26.217  27.754  1.00  0.00     0.023 A 
ATOM     61  C   UNL A   1      41.433  24.853  27.736  1.00  0.00     0.031 A 
ATOM     62  C   UNL A   1      42.513  26.720  26.667  1.00  0.00     0.131 A 
ATOM     63  C   UNL A   1      41.912  24.022  26.712  1.00  0.00     0.055 A 
ATOM     64  C   UNL A   1      42.907  25.906  25.603  1.00  0.00     0.041 A 
ATOM     65  F   UNL A   1      42.886  28.009  26.631  1.00  0.00    -0.206 F 
ATOM     66  C   UNL A   1      42.625  24.544  25.631  1.00  0.00     0.022 A 
BRANCH  63  67
ATOM     67  S   UNL A   1      41.744  22.225  26.906  1.00  0.00     0.124 S 
ATOM     68  O   UNL A   1      40.335  22.099  27.272  1.00  0.00    -0.237 OA
ATOM     69  O   UNL A   1      42.107  21.731  25.583  1.00  0.00    -0.237 OA
ATOM     70  O   UNL A   1      42.687  21.905  27.975  1.00  0.00    -0.744 OA
ENDBRANCH  63  67
ENDBRANCH  46  60
BRANCH  47  71
ATOM     71  C   UNL A   1      38.652  31.851  35.422  1.00  0.00     0.023 A 
ATOM     72  C   UNL A   1      38.110  31.213  36.548  1.00  0.00     0.031 A 
ATOM     73  C   UNL A   1      38.706  33.257  35.423  1.00  0.00     0.131 A 
ATOM     74  C   UNL A   1      37.613  31.979  37.614  1.00  0.00     0.055 A 
ATOM     75  C   UNL A   1      38.255  34.013  36.506  1.00  0.00     0.041 A 
ATOM     76  F   UNL A   1      39.222  33.918  34.373  1.00  0.00    -0.206 F 
ATOM     77  C   UNL A   1      37.696  33.373  37.608  1.00  0.00     0.022 A 
BRANCH  74  78
ATOM     78  S   UNL A   1      36.803  31.126  38.996  1.00  0.00     0.124 S 
ATOM     79  O   UNL A   1      35.547  31.859  39.102  1.00  0.00    -0.237 OA
ATOM     80  O   UNL A   1      36.710  29.759  38.497  1.00  0.00    -0.237 OA
ATOM     81  O   UNL A   1      37.734  31.319  40.107  1.00  0.00    -0.744 OA
ENDBRANCH  74  78
ENDBRANCH  47  71
BRANCH  59  82
ATOM     82  C   UNL A   1      44.428  28.108  34.243  1.00  0.00     0.023 A 
ATOM     83  C   UNL A   1      44.476  27.122  35.246  1.00  0.00     0.031 A 
ATOM     84  C   UNL A   1      45.577  28.890  34.031  1.00  0.00     0.131 A 
ATOM     85  C   UNL A   1      45.628  26.985  36.036  1.00  0.00     0.055 A 
ATOM     86  C   UNL A   1      46.742  28.706  34.777  1.00  0.00     0.041 A 
ATOM     87  F   UNL A   1      45.587  29.849  33.092  1.00  0.00    -0.206 F 
ATOM     88  C   UNL A   1      46.768  27.758  35.796  1.00  0.00     0.022 A 
BRANCH  85  89
ATOM     89  S   UNL A   1      45.585  25.851  37.452  1.00  0.00     0.124 S 
ATOM     90  O   UNL A   1      45.540  26.776  38.580  1.00  0.00    -0.237 OA
ATOM     91  O   UNL A   1      44.366  25.089  37.204  1.00  0.00    -0.237 OA
ATOM     92  O   UNL A   1      46.827  25.092  37.322  1.00  0.00    -0.744 OA
ENDBRANCH  85  89
ENDBRANCH  59  82
ENDBRANCH  33  34
ENDBRANCH  25  28
ENDBRANCH  23  24
ENDBRANCH   1  23
TORSDOF 18
ENDMDL
