MODEL 1
REMARK VINA RESULT:     -13.0      0.000      0.000
REMARK SMILES O=C(C[C@@H]1C(=O)NCCN1C(=O)OCC1c2ccccc2-c2ccccc21)NCCCNC(=O)c1ccc(-c2c3nc(c(-c4cc(S(=O)(=O)[O-])ccc4F)c4ccc([nH]4)c(-c4cc(S(=O)(=O)[O-])ccc4F)c4nc(c(-c5cc(S(=O)(=O)[O-])ccc5F)c5ccc2[nH]5)C=C4)C=C3)cc1
REMARK SMILES IDX 29 1 28 2 1 3 2 4 3 6 4 7 5 8 10 9 6 10 7 11 9 12 8 13 11 15
REMARK SMILES IDX 12 16 13 17 14 18 15 19 16 20 27 21 17 22 21 23 22 24 26 25
REMARK SMILES IDX 18 26 20 27 23 28 25 29 19 30 24 31 30 32 31 33 32 34 33 35
REMARK SMILES IDX 34 37 35 38 36 39 97 40 37 41 96 42 38 43 39 44 40 45 90 46
REMARK SMILES IDX 41 47 95 48 89 49 91 50 42 51 94 52 88 53 87 54 43 56 75 57
REMARK SMILES IDX 55 58 74 59 56 60 59 61 73 62 92 63 57 64 58 65 72 67 93 68
REMARK SMILES IDX 60 69 44 70 45 71 53 72 46 73 52 74 54 75 51 76 47 77 48 78
REMARK SMILES IDX 49 79 50 80 76 81 77 82 85 83 78 84 84 85 86 86 83 87 79 88
REMARK SMILES IDX 80 89 81 90 82 91 61 92 62 93 70 94 63 95 69 96 71 97 68 98
REMARK SMILES IDX 64 99 65 100 66 101 67 102
REMARK H PARENT 28 5 7 14 32 36 91 55 59 66
REMARK Flexibility Score: inf
ROOT
ATOM      1  C   UNL A   1      32.033  28.318  27.439  1.00  0.00     0.117 C 
ENDROOT
BRANCH   1   2
ATOM      2  N   UNL A   1      32.175  27.096  26.670  1.00  0.00    -0.356 N 
ATOM      3  O   UNL A   1      34.304  27.589  26.005  1.00  0.00    -0.275 OA
ATOM      4  C   UNL A   1      33.391  26.771  26.124  1.00  0.00     0.222 C 
ATOM      5  H   UNL A   1      31.402  26.501  26.542  1.00  0.00     0.163 HD
BRANCH   4   6
ATOM      6  C   UNL A   1      33.577  25.361  25.621  1.00  0.00     0.135 C 
BRANCH   6   7
ATOM      7  C   UNL A   1      32.768  24.206  26.233  1.00  0.00     0.187 C 
ATOM      8  C   UNL A   1      33.747  23.007  26.438  1.00  0.00     0.243 C 
ATOM      9  N   UNL A   1      31.428  23.852  25.698  1.00  0.00    -0.294 N 
ATOM     10  O   UNL A   1      34.834  23.128  27.001  1.00  0.00    -0.273 OA
ATOM     11  N   UNL A   1      33.382  21.777  25.968  1.00  0.00    -0.353 N 
ATOM     12  C   UNL A   1      31.040  22.442  25.816  1.00  0.00     0.145 C 
ATOM     13  C   UNL A   1      32.135  21.526  25.290  1.00  0.00     0.137 C 
ATOM     14  H   UNL A   1      34.002  21.023  26.099  1.00  0.00     0.163 HD
BRANCH   9  15
ATOM     15  C   UNL A   1      30.379  24.754  25.549  1.00  0.00     0.410 C 
ATOM     16  O   UNL A   1      29.724  25.171  26.502  1.00  0.00    -0.224 OA
BRANCH  15  17
ATOM     17  O   UNL A   1      30.044  24.989  24.260  1.00  0.00    -0.448 OA
BRANCH  17  18
ATOM     18  C   UNL A   1      29.023  26.004  24.015  1.00  0.00     0.248 C 
BRANCH  18  19
ATOM     19  C   UNL A   1      29.528  27.050  23.000  1.00  0.00     0.088 C 
ATOM     20  C   UNL A   1      29.026  28.483  23.181  1.00  0.00    -0.029 A 
ATOM     21  C   UNL A   1      31.037  27.270  22.908  1.00  0.00    -0.029 A 
ATOM     22  C   UNL A   1      27.731  28.973  23.126  1.00  0.00     0.005 A 
ATOM     23  C   UNL A   1      30.112  29.376  23.274  1.00  0.00    -0.014 A 
ATOM     24  C   UNL A   1      31.340  28.642  23.062  1.00  0.00    -0.014 A 
ATOM     25  C   UNL A   1      32.011  26.370  22.499  1.00  0.00     0.005 A 
ATOM     26  C   UNL A   1      27.512  30.343  23.273  1.00  0.00     0.000 A 
ATOM     27  C   UNL A   1      29.902  30.741  23.420  1.00  0.00     0.009 A 
ATOM     28  C   UNL A   1      32.624  29.116  22.844  1.00  0.00     0.009 A 
ATOM     29  C   UNL A   1      33.303  26.853  22.262  1.00  0.00     0.000 A 
ATOM     30  C   UNL A   1      28.591  31.219  23.438  1.00  0.00     0.001 A 
ATOM     31  C   UNL A   1      33.608  28.212  22.439  1.00  0.00     0.001 A 
ENDBRANCH  18  19
ENDBRANCH  17  18
ENDBRANCH  15  17
ENDBRANCH   9  15
ENDBRANCH   6   7
ENDBRANCH   4   6
ENDBRANCH   1   2
BRANCH   1  32
ATOM     32  C   UNL A   1      31.402  29.482  26.728  1.00  0.00     0.042 C 
BRANCH  32  33
ATOM     33  C   UNL A   1      32.402  30.472  26.183  1.00  0.00     0.118 C 
BRANCH  33  34
ATOM     34  N   UNL A   1      32.230  31.837  26.674  1.00  0.00    -0.352 N 
ATOM     35  C   UNL A   1      33.065  32.606  27.455  1.00  0.00     0.251 C 
ATOM     36  H   UNL A   1      31.390  32.274  26.405  1.00  0.00     0.163 HD
ATOM     37  O   UNL A   1      32.702  33.723  27.813  1.00  0.00    -0.269 OA
BRANCH  35  38
ATOM     38  C   UNL A   1      34.364  32.056  27.904  1.00  0.00     0.039 A 
ATOM     39  C   UNL A   1      35.454  32.914  28.057  1.00  0.00     0.014 A 
ATOM     40  C   UNL A   1      34.486  30.712  28.251  1.00  0.00     0.014 A 
ATOM     41  C   UNL A   1      36.627  32.436  28.646  1.00  0.00     0.010 A 
ATOM     42  C   UNL A   1      35.582  30.286  28.986  1.00  0.00     0.010 A 
ATOM     43  C   UNL A   1      36.682  31.132  29.169  1.00  0.00    -0.014 A 
BRANCH  43  44
ATOM     44  C   UNL A   1      37.893  30.626  29.871  1.00  0.00     0.031 A 
ATOM     45  C   UNL A   1      38.160  31.035  31.298  1.00  0.00     0.074 A 
ATOM     46  C   UNL A   1      38.766  29.836  29.214  1.00  0.00     0.049 A 
ATOM     47  N   UNL A   1      39.159  30.710  32.078  1.00  0.00    -0.248 NA
ATOM     48  C   UNL A   1      37.203  31.966  31.918  1.00  0.00     0.031 C 
ATOM     49  C   UNL A   1      38.656  29.435  27.809  1.00  0.00     0.029 A 
ATOM     50  N   UNL A   1      39.914  29.217  29.641  1.00  0.00    -0.354 N 
ATOM     51  C   UNL A   1      38.952  31.404  33.267  1.00  0.00     0.074 A 
ATOM     52  C   UNL A   1      37.792  32.242  33.069  1.00  0.00     0.031 C 
ATOM     53  C   UNL A   1      39.655  28.589  27.511  1.00  0.00     0.029 A 
ATOM     54  C   UNL A   1      40.508  28.426  28.683  1.00  0.00     0.049 A 
ATOM     55  H   UNL A   1      40.279  29.328  30.549  1.00  0.00     0.167 HD
ATOM     56  C   UNL A   1      39.638  31.320  34.433  1.00  0.00     0.034 A 
ATOM     57  C   UNL A   1      41.611  27.654  28.745  1.00  0.00     0.034 A 
ATOM     58  C   UNL A   1      40.782  30.463  34.618  1.00  0.00     0.049 A 
ATOM     59  C   UNL A   1      42.363  27.580  30.051  1.00  0.00     0.074 A 
ATOM     60  C   UNL A   1      41.525  30.254  35.766  1.00  0.00     0.029 A 
ATOM     61  N   UNL A   1      41.354  29.677  33.625  1.00  0.00    -0.354 N 
ATOM     62  N   UNL A   1      42.111  28.188  31.188  1.00  0.00    -0.248 NA
ATOM     63  C   UNL A   1      43.535  26.698  30.086  1.00  0.00     0.031 C 
ATOM     64  C   UNL A   1      42.589  29.404  35.448  1.00  0.00     0.029 A 
ATOM     65  C   UNL A   1      42.459  29.006  34.127  1.00  0.00     0.049 A 
ATOM     66  H   UNL A   1      41.023  29.607  32.701  1.00  0.00     0.167 HD
ATOM     67  C   UNL A   1      43.077  27.735  32.083  1.00  0.00     0.074 A 
ATOM     68  C   UNL A   1      43.893  26.783  31.358  1.00  0.00     0.031 C 
ATOM     69  C   UNL A   1      43.272  28.072  33.384  1.00  0.00     0.034 A 
BRANCH  56  70
ATOM     70  C   UNL A   1      39.172  32.187  35.580  1.00  0.00     0.023 A 
ATOM     71  C   UNL A   1      39.572  33.532  35.703  1.00  0.00     0.031 A 
ATOM     72  C   UNL A   1      38.347  31.657  36.587  1.00  0.00     0.131 A 
ATOM     73  C   UNL A   1      39.218  34.270  36.842  1.00  0.00     0.055 A 
ATOM     74  C   UNL A   1      37.920  32.426  37.672  1.00  0.00     0.041 A 
ATOM     75  F   UNL A   1      37.953  30.375  36.543  1.00  0.00    -0.206 F 
ATOM     76  C   UNL A   1      38.369  33.736  37.814  1.00  0.00     0.022 A 
BRANCH  73  77
ATOM     77  S   UNL A   1      40.013  35.878  37.114  1.00  0.00     0.124 S 
ATOM     78  O   UNL A   1      41.404  35.486  37.330  1.00  0.00    -0.237 OA
ATOM     79  O   UNL A   1      39.733  36.584  35.870  1.00  0.00    -0.237 OA
ATOM     80  O   UNL A   1      39.331  36.401  38.298  1.00  0.00    -0.744 OA
ENDBRANCH  73  77
ENDBRANCH  56  70
BRANCH  57  81
ATOM     81  C   UNL A   1      42.072  26.885  27.551  1.00  0.00     0.023 A 
ATOM     82  C   UNL A   1      41.804  25.511  27.424  1.00  0.00     0.031 A 
ATOM     83  C   UNL A   1      42.831  27.500  26.540  1.00  0.00     0.131 A 
ATOM     84  C   UNL A   1      42.337  24.789  26.345  1.00  0.00     0.055 A 
ATOM     85  C   UNL A   1      43.305  26.790  25.435  1.00  0.00     0.041 A 
ATOM     86  F   UNL A   1      43.115  28.810  26.607  1.00  0.00    -0.206 F 
ATOM     87  C   UNL A   1      43.072  25.422  25.341  1.00  0.00     0.022 A 
BRANCH  84  88
ATOM     88  S   UNL A   1      42.141  22.985  26.324  1.00  0.00     0.124 S 
ATOM     89  O   UNL A   1      42.664  22.645  25.005  1.00  0.00    -0.237 OA
ATOM     90  O   UNL A   1      42.957  22.577  27.462  1.00  0.00    -0.237 OA
ATOM     91  O   UNL A   1      40.701  22.797  26.493  1.00  0.00    -0.744 OA
ENDBRANCH  84  88
ENDBRANCH  57  81
BRANCH  69  92
ATOM     92  C   UNL A   1      44.392  27.364  34.111  1.00  0.00     0.023 A 
ATOM     93  C   UNL A   1      44.206  26.106  34.710  1.00  0.00     0.031 A 
ATOM     94  C   UNL A   1      45.653  27.973  34.234  1.00  0.00     0.131 A 
ATOM     95  C   UNL A   1      45.233  25.539  35.477  1.00  0.00     0.055 A 
ATOM     96  C   UNL A   1      46.699  27.365  34.930  1.00  0.00     0.041 A 
ATOM     97  F   UNL A   1      45.890  29.175  33.684  1.00  0.00    -0.206 F 
ATOM     98  C   UNL A   1      46.486  26.151  35.574  1.00  0.00     0.022 A 
BRANCH  95  99
ATOM     99  S   UNL A   1      44.864  24.063  36.463  1.00  0.00     0.124 S 
ATOM    100  O   UNL A   1      46.084  23.279  36.302  1.00  0.00    -0.237 OA
ATOM    101  O   UNL A   1      44.639  24.624  37.791  1.00  0.00    -0.237 OA
ATOM    102  O   UNL A   1      43.678  23.506  35.816  1.00  0.00    -0.744 OA
ENDBRANCH  95  99
ENDBRANCH  69  92
ENDBRANCH  43  44
ENDBRANCH  35  38
ENDBRANCH  33  34
ENDBRANCH  32  33
ENDBRANCH   1  32
TORSDOF 18
ENDMDL
MODEL 2
REMARK VINA RESULT:     -12.6      2.559      8.370
REMARK SMILES O=C(C[C@@H]1C(=O)NCCN1C(=O)OCC1c2ccccc2-c2ccccc21)NCCCNC(=O)c1ccc(-c2c3nc(c(-c4cc(S(=O)(=O)[O-])ccc4F)c4ccc([nH]4)c(-c4cc(S(=O)(=O)[O-])ccc4F)c4nc(c(-c5cc(S(=O)(=O)[O-])ccc5F)c5ccc2[nH]5)C=C4)C=C3)cc1
REMARK SMILES IDX 29 1 28 2 1 3 2 4 3 6 4 7 5 8 10 9 6 10 7 11 9 12 8 13 11 15
REMARK SMILES IDX 12 16 13 17 14 18 15 19 16 20 27 21 17 22 21 23 22 24 26 25
REMARK SMILES IDX 18 26 20 27 23 28 25 29 19 30 24 31 30 32 31 33 32 34 33 35
REMARK SMILES IDX 34 37 35 38 36 39 97 40 37 41 96 42 38 43 39 44 40 45 90 46
REMARK SMILES IDX 41 47 95 48 89 49 91 50 42 51 94 52 88 53 87 54 43 56 75 57
REMARK SMILES IDX 55 58 74 59 56 60 59 61 73 62 92 63 57 64 58 65 72 67 93 68
REMARK SMILES IDX 60 69 44 70 45 71 53 72 46 73 52 74 54 75 51 76 47 77 48 78
REMARK SMILES IDX 49 79 50 80 76 81 77 82 85 83 78 84 84 85 86 86 83 87 79 88
REMARK SMILES IDX 80 89 81 90 82 91 61 92 62 93 70 94 63 95 69 96 71 97 68 98
REMARK SMILES IDX 64 99 65 100 66 101 67 102
REMARK H PARENT 28 5 7 14 32 36 91 55 59 66
REMARK Flexibility Score: inf
ROOT
ATOM      1  C   UNL A   1      32.233  30.232  26.483  1.00  0.00     0.117 C 
ENDROOT
BRANCH   1   2
ATOM      2  N   UNL A   1      32.409  29.974  25.066  1.00  0.00    -0.356 N 
ATOM      3  O   UNL A   1      34.171  28.557  25.393  1.00  0.00    -0.275 OA
ATOM      4  C   UNL A   1      33.301  29.017  24.652  1.00  0.00     0.222 C 
ATOM      5  H   UNL A   1      31.889  30.483  24.404  1.00  0.00     0.163 HD
BRANCH   4   6
ATOM      6  C   UNL A   1      33.218  28.557  23.217  1.00  0.00     0.135 C 
BRANCH   6   7
ATOM      7  C   UNL A   1      32.245  27.435  22.817  1.00  0.00     0.187 C 
ATOM      8  C   UNL A   1      30.797  27.972  23.041  1.00  0.00     0.243 C 
ATOM      9  N   UNL A   1      32.483  26.035  23.252  1.00  0.00    -0.294 N 
ATOM     10  O   UNL A   1      30.417  29.058  22.606  1.00  0.00    -0.273 OA
ATOM     11  N   UNL A   1      29.919  27.204  23.754  1.00  0.00    -0.353 N 
ATOM     12  C   UNL A   1      31.286  25.209  23.442  1.00  0.00     0.145 C 
ATOM     13  C   UNL A   1      30.260  25.921  24.312  1.00  0.00     0.137 C 
ATOM     14  H   UNL A   1      29.005  27.546  23.893  1.00  0.00     0.163 HD
BRANCH   9  15
ATOM     15  C   UNL A   1      33.668  25.337  23.039  1.00  0.00     0.410 C 
ATOM     16  O   UNL A   1      33.834  24.594  22.074  1.00  0.00    -0.224 OA
BRANCH  15  17
ATOM     17  O   UNL A   1      34.539  25.419  24.070  1.00  0.00    -0.448 OA
BRANCH  17  18
ATOM     18  C   UNL A   1      33.992  25.257  25.415  1.00  0.00     0.248 C 
BRANCH  18  19
ATOM     19  C   UNL A   1      34.373  23.879  25.994  1.00  0.00     0.088 C 
ATOM     20  C   UNL A   1      33.539  22.684  25.530  1.00  0.00    -0.029 A 
ATOM     21  C   UNL A   1      35.791  23.374  25.734  1.00  0.00    -0.029 A 
ATOM     22  C   UNL A   1      32.185  22.442  25.695  1.00  0.00     0.005 A 
ATOM     23  C   UNL A   1      34.373  21.681  24.994  1.00  0.00    -0.014 A 
ATOM     24  C   UNL A   1      35.751  22.083  25.159  1.00  0.00    -0.014 A 
ATOM     25  C   UNL A   1      36.989  23.916  26.179  1.00  0.00     0.005 A 
ATOM     26  C   UNL A   1      31.643  21.244  25.227  1.00  0.00     0.000 A 
ATOM     27  C   UNL A   1      33.840  20.488  24.526  1.00  0.00     0.009 A 
ATOM     28  C   UNL A   1      36.912  21.342  24.993  1.00  0.00     0.009 A 
ATOM     29  C   UNL A   1      38.156  23.160  26.026  1.00  0.00     0.000 A 
ATOM     30  C   UNL A   1      32.464  20.281  24.628  1.00  0.00     0.001 A 
ATOM     31  C   UNL A   1      38.119  21.887  25.434  1.00  0.00     0.001 A 
ENDBRANCH  18  19
ENDBRANCH  17  18
ENDBRANCH  15  17
ENDBRANCH   9  15
ENDBRANCH   6   7
ENDBRANCH   4   6
ENDBRANCH   1   2
BRANCH   1  32
ATOM     32  C   UNL A   1      31.842  31.632  26.861  1.00  0.00     0.042 C 
BRANCH  32  33
ATOM     33  C   UNL A   1      32.976  32.442  27.441  1.00  0.00     0.118 C 
BRANCH  33  34
ATOM     34  N   UNL A   1      32.651  33.842  27.696  1.00  0.00    -0.352 N 
ATOM     35  C   UNL A   1      33.207  34.729  28.592  1.00  0.00     0.251 C 
ATOM     36  H   UNL A   1      31.924  34.208  27.143  1.00  0.00     0.163 HD
ATOM     37  O   UNL A   1      32.742  35.860  28.694  1.00  0.00    -0.269 OA
BRANCH  35  38
ATOM     38  C   UNL A   1      34.320  34.291  29.465  1.00  0.00     0.039 A 
ATOM     39  C   UNL A   1      34.035  33.623  30.656  1.00  0.00     0.014 A 
ATOM     40  C   UNL A   1      35.645  34.468  29.069  1.00  0.00     0.014 A 
ATOM     41  C   UNL A   1      35.077  33.055  31.391  1.00  0.00     0.010 A 
ATOM     42  C   UNL A   1      36.654  33.761  29.705  1.00  0.00     0.010 A 
ATOM     43  C   UNL A   1      36.391  33.069  30.893  1.00  0.00    -0.014 A 
BRANCH  43  44
ATOM     44  C   UNL A   1      37.506  32.402  31.620  1.00  0.00     0.031 A 
ATOM     45  C   UNL A   1      38.254  31.266  30.969  1.00  0.00     0.074 A 
ATOM     46  C   UNL A   1      37.815  32.791  32.874  1.00  0.00     0.049 A 
ATOM     47  N   UNL A   1      39.246  30.553  31.437  1.00  0.00    -0.248 NA
ATOM     48  C   UNL A   1      37.802  30.846  29.632  1.00  0.00     0.031 C 
ATOM     49  C   UNL A   1      37.113  33.826  33.638  1.00  0.00     0.029 A 
ATOM     50  N   UNL A   1      38.806  32.373  33.726  1.00  0.00    -0.354 N 
ATOM     51  C   UNL A   1      39.522  29.600  30.460  1.00  0.00     0.074 A 
ATOM     52  C   UNL A   1      38.531  29.763  29.422  1.00  0.00     0.031 C 
ATOM     53  C   UNL A   1      37.735  34.005  34.815  1.00  0.00     0.029 A 
ATOM     54  C   UNL A   1      38.845  33.065  34.915  1.00  0.00     0.049 A 
ATOM     55  H   UNL A   1      39.432  31.645  33.505  1.00  0.00     0.167 HD
ATOM     56  C   UNL A   1      40.534  28.701  30.410  1.00  0.00     0.034 A 
ATOM     57  C   UNL A   1      39.684  32.956  35.965  1.00  0.00     0.034 A 
ATOM     58  C   UNL A   1      41.526  28.566  31.447  1.00  0.00     0.049 A 
ATOM     59  C   UNL A   1      40.801  31.944  35.889  1.00  0.00     0.074 A 
ATOM     60  C   UNL A   1      42.627  27.730  31.483  1.00  0.00     0.029 A 
ATOM     61  N   UNL A   1      41.533  29.285  32.637  1.00  0.00    -0.354 N 
ATOM     62  N   UNL A   1      41.091  31.100  34.925  1.00  0.00    -0.248 NA
ATOM     63  C   UNL A   1      41.715  31.886  37.036  1.00  0.00     0.031 C 
ATOM     64  C   UNL A   1      43.252  27.885  32.724  1.00  0.00     0.029 A 
ATOM     65  C   UNL A   1      42.601  28.886  33.426  1.00  0.00     0.049 A 
ATOM     66  H   UNL A   1      40.876  29.975  32.882  1.00  0.00     0.167 HD
ATOM     67  C   UNL A   1      42.242  30.434  35.337  1.00  0.00     0.074 A 
ATOM     68  C   UNL A   1      42.604  30.997  36.622  1.00  0.00     0.031 C 
ATOM     69  C   UNL A   1      42.938  29.448  34.713  1.00  0.00     0.034 A 
BRANCH  56  70
ATOM     70  C   UNL A   1      40.601  27.793  29.203  1.00  0.00     0.023 A 
ATOM     71  C   UNL A   1      41.539  27.997  28.173  1.00  0.00     0.031 A 
ATOM     72  C   UNL A   1      39.693  26.731  29.057  1.00  0.00     0.131 A 
ATOM     73  C   UNL A   1      41.494  27.209  27.013  1.00  0.00     0.055 A 
ATOM     74  C   UNL A   1      39.713  25.890  27.942  1.00  0.00     0.041 A 
ATOM     75  F   UNL A   1      38.755  26.500  29.990  1.00  0.00    -0.206 F 
ATOM     76  C   UNL A   1      40.606  26.137  26.903  1.00  0.00     0.022 A 
BRANCH  73  77
ATOM     77  S   UNL A   1      42.499  27.707  25.587  1.00  0.00     0.124 S 
ATOM     78  O   UNL A   1      41.779  28.889  25.118  1.00  0.00    -0.237 OA
ATOM     79  O   UNL A   1      43.804  27.950  26.189  1.00  0.00    -0.237 OA
ATOM     80  O   UNL A   1      42.427  26.549  24.697  1.00  0.00    -0.744 OA
ENDBRANCH  73  77
ENDBRANCH  56  70
BRANCH  57  81
ATOM     81  C   UNL A   1      39.517  33.824  37.168  1.00  0.00     0.023 A 
ATOM     82  C   UNL A   1      38.889  33.343  38.330  1.00  0.00     0.031 A 
ATOM     83  C   UNL A   1      39.939  35.166  37.159  1.00  0.00     0.131 A 
ATOM     84  C   UNL A   1      38.650  34.209  39.408  1.00  0.00     0.055 A 
ATOM     85  C   UNL A   1      39.756  36.006  38.259  1.00  0.00     0.041 A 
ATOM     86  F   UNL A   1      40.547  35.678  36.078  1.00  0.00    -0.206 F 
ATOM     87  C   UNL A   1      39.094  35.533  39.387  1.00  0.00     0.022 A 
BRANCH  84  88
ATOM     88  S   UNL A   1      37.659  33.608  40.804  1.00  0.00     0.124 S 
ATOM     89  O   UNL A   1      36.592  32.884  40.120  1.00  0.00    -0.237 OA
ATOM     90  O   UNL A   1      38.623  32.791  41.532  1.00  0.00    -0.237 OA
ATOM     91  O   UNL A   1      37.246  34.835  41.482  1.00  0.00    -0.744 OA
ENDBRANCH  84  88
ENDBRANCH  57  81
BRANCH  69  92
ATOM     92  C   UNL A   1      44.188  28.955  35.404  1.00  0.00     0.023 A 
ATOM     93  C   UNL A   1      44.146  27.940  36.375  1.00  0.00     0.031 A 
ATOM     94  C   UNL A   1      45.435  29.534  35.109  1.00  0.00     0.131 A 
ATOM     95  C   UNL A   1      45.309  27.596  37.077  1.00  0.00     0.055 A 
ATOM     96  C   UNL A   1      46.605  29.130  35.754  1.00  0.00     0.041 A 
ATOM     97  F   UNL A   1      45.538  30.509  34.192  1.00  0.00    -0.206 F 
ATOM     98  C   UNL A   1      46.543  28.170  36.759  1.00  0.00     0.022 A 
BRANCH  95  99
ATOM     99  S   UNL A   1      45.163  26.494  38.510  1.00  0.00     0.124 S 
ATOM    100  O   UNL A   1      44.683  27.405  39.544  1.00  0.00    -0.237 OA
ATOM    101  O   UNL A   1      44.203  25.500  38.041  1.00  0.00    -0.237 OA
ATOM    102  O   UNL A   1      46.524  25.999  38.702  1.00  0.00    -0.744 OA
ENDBRANCH  95  99
ENDBRANCH  69  92
ENDBRANCH  43  44
ENDBRANCH  35  38
ENDBRANCH  33  34
ENDBRANCH  32  33
ENDBRANCH   1  32
TORSDOF 18
ENDMDL
MODEL 3
REMARK VINA RESULT:     -12.5      4.739     10.121
REMARK SMILES O=C(C[C@@H]1C(=O)NCCN1C(=O)OCC1c2ccccc2-c2ccccc21)NCCCNC(=O)c1ccc(-c2c3nc(c(-c4cc(S(=O)(=O)[O-])ccc4F)c4ccc([nH]4)c(-c4cc(S(=O)(=O)[O-])ccc4F)c4nc(c(-c5cc(S(=O)(=O)[O-])ccc5F)c5ccc2[nH]5)C=C4)C=C3)cc1
REMARK SMILES IDX 29 1 28 2 1 3 2 4 3 6 4 7 5 8 10 9 6 10 7 11 9 12 8 13 11 15
REMARK SMILES IDX 12 16 13 17 14 18 15 19 16 20 27 21 17 22 21 23 22 24 26 25
REMARK SMILES IDX 18 26 20 27 23 28 25 29 19 30 24 31 30 32 31 33 32 34 33 35
REMARK SMILES IDX 34 37 35 38 36 39 97 40 37 41 96 42 38 43 39 44 40 45 90 46
REMARK SMILES IDX 41 47 95 48 89 49 91 50 42 51 94 52 88 53 87 54 43 56 75 57
REMARK SMILES IDX 55 58 74 59 56 60 59 61 73 62 92 63 57 64 58 65 72 67 93 68
REMARK SMILES IDX 60 69 44 70 45 71 53 72 46 73 52 74 54 75 51 76 47 77 48 78
REMARK SMILES IDX 49 79 50 80 76 81 77 82 85 83 78 84 84 85 86 86 83 87 79 88
REMARK SMILES IDX 80 89 81 90 82 91 61 92 62 93 70 94 63 95 69 96 71 97 68 98
REMARK SMILES IDX 64 99 65 100 66 101 67 102
REMARK H PARENT 28 5 7 14 32 36 91 55 59 66
REMARK Flexibility Score: inf
ROOT
ATOM      1  C   UNL A   1      35.607  22.963  23.262  1.00  0.00     0.117 C 
ENDROOT
BRANCH   1   2
ATOM      2  N   UNL A   1      35.239  24.266  23.783  1.00  0.00    -0.356 N 
ATOM      3  O   UNL A   1      33.927  24.777  21.983  1.00  0.00    -0.275 OA
ATOM      4  C   UNL A   1      34.288  25.016  23.136  1.00  0.00     0.222 C 
ATOM      5  H   UNL A   1      35.669  24.612  24.597  1.00  0.00     0.163 HD
BRANCH   4   6
ATOM      6  C   UNL A   1      33.707  26.196  23.875  1.00  0.00     0.135 C 
BRANCH   6   7
ATOM      7  C   UNL A   1      32.485  26.940  23.311  1.00  0.00     0.187 C 
ATOM      8  C   UNL A   1      32.947  28.384  22.939  1.00  0.00     0.243 C 
ATOM      9  N   UNL A   1      31.163  26.845  23.982  1.00  0.00    -0.294 N 
ATOM     10  O   UNL A   1      33.949  28.604  22.258  1.00  0.00    -0.273 OA
ATOM     11  N   UNL A   1      32.212  29.443  23.393  1.00  0.00    -0.353 N 
ATOM     12  C   UNL A   1      30.288  28.014  23.848  1.00  0.00     0.145 C 
ATOM     13  C   UNL A   1      31.028  29.297  24.201  1.00  0.00     0.137 C 
ATOM     14  H   UNL A   1      32.507  30.352  23.157  1.00  0.00     0.163 HD
BRANCH   9  15
ATOM     15  C   UNL A   1      30.524  25.648  24.293  1.00  0.00     0.410 C 
ATOM     16  O   UNL A   1      29.908  25.480  25.343  1.00  0.00    -0.224 OA
BRANCH  15  17
ATOM     17  O   UNL A   1      30.789  24.649  23.421  1.00  0.00    -0.448 OA
BRANCH  17  18
ATOM     18  C   UNL A   1      30.649  23.282  23.917  1.00  0.00     0.248 C 
BRANCH  18  19
ATOM     19  C   UNL A   1      32.015  22.568  23.934  1.00  0.00     0.088 C 
ATOM     20  C   UNL A   1      32.699  22.424  25.294  1.00  0.00    -0.029 A 
ATOM     21  C   UNL A   1      32.065  21.130  23.420  1.00  0.00    -0.029 A 
ATOM     22  C   UNL A   1      33.140  23.409  26.164  1.00  0.00     0.005 A 
ATOM     23  C   UNL A   1      33.006  21.072  25.550  1.00  0.00    -0.014 A 
ATOM     24  C   UNL A   1      32.659  20.287  24.386  1.00  0.00    -0.014 A 
ATOM     25  C   UNL A   1      31.817  20.671  22.134  1.00  0.00     0.005 A 
ATOM     26  C   UNL A   1      33.790  23.039  27.342  1.00  0.00     0.000 A 
ATOM     27  C   UNL A   1      33.652  20.697  26.720  1.00  0.00     0.009 A 
ATOM     28  C   UNL A   1      32.975  18.971  24.085  1.00  0.00     0.009 A 
ATOM     29  C   UNL A   1      32.152  19.347  21.826  1.00  0.00     0.000 A 
ATOM     30  C   UNL A   1      34.027  21.690  27.627  1.00  0.00     0.001 A 
ATOM     31  C   UNL A   1      32.721  18.504  22.795  1.00  0.00     0.001 A 
ENDBRANCH  18  19
ENDBRANCH  17  18
ENDBRANCH  15  17
ENDBRANCH   9  15
ENDBRANCH   6   7
ENDBRANCH   4   6
ENDBRANCH   1   2
BRANCH   1  32
ATOM     32  C   UNL A   1      36.966  22.452  23.648  1.00  0.00     0.042 C 
BRANCH  32  33
ATOM     33  C   UNL A   1      37.080  22.076  25.106  1.00  0.00     0.118 C 
BRANCH  33  34
ATOM     34  N   UNL A   1      38.105  21.077  25.394  1.00  0.00    -0.352 N 
ATOM     35  C   UNL A   1      39.292  21.204  26.082  1.00  0.00     0.251 C 
ATOM     36  H   UNL A   1      37.920  20.177  25.043  1.00  0.00     0.163 HD
ATOM     37  O   UNL A   1      40.052  20.243  26.161  1.00  0.00    -0.269 OA
BRANCH  35  38
ATOM     38  C   UNL A   1      39.666  22.511  26.669  1.00  0.00     0.039 A 
ATOM     39  C   UNL A   1      40.671  22.565  27.634  1.00  0.00     0.014 A 
ATOM     40  C   UNL A   1      39.081  23.690  26.208  1.00  0.00     0.014 A 
ATOM     41  C   UNL A   1      41.148  23.807  28.060  1.00  0.00     0.010 A 
ATOM     42  C   UNL A   1      39.669  24.910  26.503  1.00  0.00     0.010 A 
ATOM     43  C   UNL A   1      40.691  24.991  27.456  1.00  0.00    -0.014 A 
BRANCH  43  44
ATOM     44  C   UNL A   1      41.241  26.321  27.837  1.00  0.00     0.031 A 
ATOM     45  C   UNL A   1      42.653  26.688  27.455  1.00  0.00     0.074 A 
ATOM     46  C   UNL A   1      40.486  27.176  28.557  1.00  0.00     0.049 A 
ATOM     47  N   UNL A   1      43.316  27.789  27.698  1.00  0.00    -0.248 NA
ATOM     48  C   UNL A   1      43.440  25.668  26.741  1.00  0.00     0.031 C 
ATOM     49  C   UNL A   1      39.134  26.903  29.051  1.00  0.00     0.029 A 
ATOM     50  N   UNL A   1      40.741  28.453  28.990  1.00  0.00    -0.354 N 
ATOM     51  C   UNL A   1      44.592  27.586  27.181  1.00  0.00     0.074 A 
ATOM     52  C   UNL A   1      44.639  26.224  26.701  1.00  0.00     0.031 C 
ATOM     53  C   UNL A   1      38.657  28.000  29.662  1.00  0.00     0.029 A 
ATOM     54  C   UNL A   1      39.683  29.036  29.651  1.00  0.00     0.049 A 
ATOM     55  H   UNL A   1      41.601  28.909  28.842  1.00  0.00     0.167 HD
ATOM     56  C   UNL A   1      45.618  28.464  27.074  1.00  0.00     0.034 A 
ATOM     57  C   UNL A   1      39.555  30.269  30.182  1.00  0.00     0.034 A 
ATOM     58  C   UNL A   1      45.546  29.826  27.540  1.00  0.00     0.049 A 
ATOM     59  C   UNL A   1      40.711  31.229  30.056  1.00  0.00     0.074 A 
ATOM     60  C   UNL A   1      46.499  30.823  27.440  1.00  0.00     0.029 A 
ATOM     61  N   UNL A   1      44.458  30.381  28.204  1.00  0.00    -0.354 N 
ATOM     62  N   UNL A   1      41.886  31.043  29.499  1.00  0.00    -0.248 NA
ATOM     63  C   UNL A   1      40.515  32.572  30.614  1.00  0.00     0.031 C 
ATOM     64  C   UNL A   1      46.021  31.953  28.109  1.00  0.00     0.029 A 
ATOM     65  C   UNL A   1      44.731  31.697  28.547  1.00  0.00     0.049 A 
ATOM     66  H   UNL A   1      43.618  29.909  28.402  1.00  0.00     0.167 HD
ATOM     67  C   UNL A   1      42.557  32.258  29.610  1.00  0.00     0.074 A 
ATOM     68  C   UNL A   1      41.642  33.173  30.262  1.00  0.00     0.031 C 
ATOM     69  C   UNL A   1      43.812  32.590  29.211  1.00  0.00     0.034 A 
BRANCH  56  70
ATOM     70  C   UNL A   1      46.898  27.968  26.442  1.00  0.00     0.023 A 
ATOM     71  C   UNL A   1      47.147  28.107  25.063  1.00  0.00     0.031 A 
ATOM     72  C   UNL A   1      47.871  27.313  27.217  1.00  0.00     0.131 A 
ATOM     73  C   UNL A   1      48.291  27.528  24.492  1.00  0.00     0.055 A 
ATOM     74  C   UNL A   1      49.052  26.821  26.658  1.00  0.00     0.041 A 
ATOM     75  F   UNL A   1      47.682  27.123  28.532  1.00  0.00    -0.206 F 
ATOM     76  C   UNL A   1      49.261  26.912  25.285  1.00  0.00     0.022 A 
BRANCH  73  77
ATOM     77  S   UNL A   1      48.411  27.451  22.684  1.00  0.00     0.124 S 
ATOM     78  O   UNL A   1      47.229  28.206  22.277  1.00  0.00    -0.237 OA
ATOM     79  O   UNL A   1      49.697  28.087  22.424  1.00  0.00    -0.237 OA
ATOM     80  O   UNL A   1      48.354  26.018  22.398  1.00  0.00    -0.744 OA
ENDBRANCH  73  77
ENDBRANCH  56  70
BRANCH  57  81
ATOM     81  C   UNL A   1      38.293  30.675  30.871  1.00  0.00     0.023 A 
ATOM     82  C   UNL A   1      37.269  31.341  30.177  1.00  0.00     0.031 A 
ATOM     83  C   UNL A   1      38.111  30.446  32.246  1.00  0.00     0.131 A 
ATOM     84  C   UNL A   1      36.139  31.805  30.869  1.00  0.00     0.055 A 
ATOM     85  C   UNL A   1      36.957  30.854  32.917  1.00  0.00     0.041 A 
ATOM     86  F   UNL A   1      39.055  29.812  32.959  1.00  0.00    -0.206 F 
ATOM     87  C   UNL A   1      35.968  31.551  32.231  1.00  0.00     0.022 A 
BRANCH  84  88
ATOM     88  S   UNL A   1      34.938  32.837  29.982  1.00  0.00     0.124 S 
ATOM     89  O   UNL A   1      34.406  31.896  29.002  1.00  0.00    -0.237 OA
ATOM     90  O   UNL A   1      34.029  33.233  31.052  1.00  0.00    -0.237 OA
ATOM     91  O   UNL A   1      35.757  33.916  29.432  1.00  0.00    -0.744 OA
ENDBRANCH  84  88
ENDBRANCH  57  81
BRANCH  69  92
ATOM     92  C   UNL A   1      44.241  34.022  29.434  1.00  0.00     0.023 A 
ATOM     93  C   UNL A   1      43.813  35.062  28.592  1.00  0.00     0.031 A 
ATOM     94  C   UNL A   1      45.119  34.342  30.485  1.00  0.00     0.131 A 
ATOM     95  C   UNL A   1      44.330  36.354  28.760  1.00  0.00     0.055 A 
ATOM     96  C   UNL A   1      45.566  35.647  30.698  1.00  0.00     0.041 A 
ATOM     97  F   UNL A   1      45.564  33.390  31.320  1.00  0.00    -0.206 F 
ATOM     98  C   UNL A   1      45.188  36.658  29.821  1.00  0.00     0.022 A 
BRANCH  95  99
ATOM     99  S   UNL A   1      43.978  37.600  27.490  1.00  0.00     0.124 S 
ATOM    100  O   UNL A   1      43.219  36.828  26.512  1.00  0.00    -0.237 OA
ATOM    101  O   UNL A   1      43.223  38.601  28.236  1.00  0.00    -0.237 OA
ATOM    102  O   UNL A   1      45.306  38.025  27.050  1.00  0.00    -0.744 OA
ENDBRANCH  95  99
ENDBRANCH  69  92
ENDBRANCH  43  44
ENDBRANCH  35  38
ENDBRANCH  33  34
ENDBRANCH  32  33
ENDBRANCH   1  32
TORSDOF 18
ENDMDL
