MODEL 1
REMARK VINA RESULT:     -12.3      0.000      0.000
REMARK SMILES O=C(NCCCNC(=O)c1cncnc1N1CC[C@H]2[NH2+]CCC[C@]2(CO)C1)c1ccc(-c2c3nc(c(-c4cc(S(=O)(=O)[O-])ccc4F)c4ccc([nH]4)c(-c4cc(S(=O)(=O)[O-])ccc4F)c4nc(c(-c5cc(S(=O)(=O)[O-])ccc5F)c5ccc2[nH]5)C=C4)C=C3)cc1
REMARK SMILES IDX 5 1 4 2 3 3 1 4 2 5 28 7 29 8 90 9 30 10 89 11 31 12 32 13
REMARK SMILES IDX 33 14 83 15 34 16 88 17 82 18 84 19 35 20 87 21 81 22 80 23
REMARK SMILES IDX 36 25 68 26 48 27 67 28 49 29 52 30 66 31 85 32 50 33 51 34
REMARK SMILES IDX 65 36 86 37 53 38 37 39 38 40 46 41 39 42 45 43 47 44 44 45
REMARK SMILES IDX 40 46 41 47 42 48 43 49 69 50 70 51 78 52 71 53 77 54 79 55
REMARK SMILES IDX 76 56 72 57 73 58 74 59 75 60 54 61 55 62 63 63 56 64 62 65
REMARK SMILES IDX 64 66 61 67 57 68 58 69 59 70 60 71 6 72 7 73 8 74 9 76
REMARK SMILES IDX 10 77 11 78 15 79 12 80 14 81 13 82 16 83 17 84 27 85 18 86
REMARK SMILES IDX 24 87 19 88 23 89 20 90 22 91 21 92 25 95 26 96
REMARK H PARENT 3 6 84 24 52 35 7 75 20 93 20 94 26 97
REMARK Flexibility Score: inf
ROOT
ATOM      1  C   UNL A   1      31.685  29.142  26.745  1.00  0.00     0.042 C 
ENDROOT
BRANCH   1   2
ATOM      2  C   UNL A   1      32.566  30.158  26.034  1.00  0.00     0.118 C 
BRANCH   2   3
ATOM      3  N   UNL A   1      32.262  31.539  26.395  1.00  0.00    -0.352 N 
ATOM      4  O   UNL A   1      32.377  33.475  27.533  1.00  0.00    -0.269 OA
ATOM      5  C   UNL A   1      32.895  32.398  27.267  1.00  0.00     0.251 C 
ATOM      6  H   UNL A   1      31.476  31.920  25.940  1.00  0.00     0.163 HD
BRANCH   5   7
ATOM      7  C   UNL A   1      34.182  32.014  27.892  1.00  0.00     0.039 A 
ATOM      8  C   UNL A   1      34.385  30.718  28.360  1.00  0.00     0.014 A 
ATOM      9  C   UNL A   1      35.210  32.959  27.996  1.00  0.00     0.014 A 
ATOM     10  C   UNL A   1      35.520  30.421  29.100  1.00  0.00     0.010 A 
ATOM     11  C   UNL A   1      36.410  32.618  28.634  1.00  0.00     0.010 A 
ATOM     12  C   UNL A   1      36.562  31.353  29.222  1.00  0.00    -0.014 A 
BRANCH  12  13
ATOM     13  C   UNL A   1      37.813  30.927  29.905  1.00  0.00     0.031 A 
ATOM     14  C   UNL A   1      38.119  31.340  31.319  1.00  0.00     0.074 A 
ATOM     15  C   UNL A   1      38.638  30.085  29.249  1.00  0.00     0.049 A 
ATOM     16  N   UNL A   1      39.130  30.992  32.076  1.00  0.00    -0.248 NA
ATOM     17  C   UNL A   1      37.181  32.267  31.967  1.00  0.00     0.031 C 
ATOM     18  C   UNL A   1      38.443  29.630  27.867  1.00  0.00     0.029 A 
ATOM     19  N   UNL A   1      39.771  29.429  29.653  1.00  0.00    -0.354 N 
ATOM     20  C   UNL A   1      38.957  31.659  33.283  1.00  0.00     0.074 A 
ATOM     21  C   UNL A   1      37.760  32.464  33.145  1.00  0.00     0.031 C 
ATOM     22  C   UNL A   1      39.377  28.717  27.568  1.00  0.00     0.029 A 
ATOM     23  C   UNL A   1      40.287  28.583  28.696  1.00  0.00     0.049 A 
ATOM     24  H   UNL A   1      40.177  29.550  30.541  1.00  0.00     0.167 HD
ATOM     25  C   UNL A   1      39.719  31.597  34.403  1.00  0.00     0.034 A 
ATOM     26  C   UNL A   1      41.382  27.801  28.713  1.00  0.00     0.034 A 
ATOM     27  C   UNL A   1      40.912  30.788  34.522  1.00  0.00     0.049 A 
ATOM     28  C   UNL A   1      42.221  27.773  29.961  1.00  0.00     0.074 A 
ATOM     29  C   UNL A   1      41.757  30.649  35.611  1.00  0.00     0.029 A 
ATOM     30  N   UNL A   1      41.433  29.982  33.517  1.00  0.00    -0.354 N 
ATOM     31  N   UNL A   1      42.034  28.410  31.095  1.00  0.00    -0.248 NA
ATOM     32  C   UNL A   1      43.413  26.920  29.934  1.00  0.00     0.031 C 
ATOM     33  C   UNL A   1      42.815  29.811  35.245  1.00  0.00     0.029 A 
ATOM     34  C   UNL A   1      42.597  29.364  33.953  1.00  0.00     0.049 A 
ATOM     35  H   UNL A   1      41.033  29.865  32.625  1.00  0.00     0.167 HD
ATOM     36  C   UNL A   1      43.086  28.026  31.920  1.00  0.00     0.074 A 
ATOM     37  C   UNL A   1      43.874  27.070  31.167  1.00  0.00     0.031 C 
ATOM     38  C   UNL A   1      43.385  28.434  33.179  1.00  0.00     0.034 A 
BRANCH  25  39
ATOM     39  C   UNL A   1      39.311  32.453  35.580  1.00  0.00     0.023 A 
ATOM     40  C   UNL A   1      39.746  33.783  35.712  1.00  0.00     0.031 A 
ATOM     41  C   UNL A   1      38.466  31.934  36.577  1.00  0.00     0.131 A 
ATOM     42  C   UNL A   1      39.373  34.532  36.840  1.00  0.00     0.055 A 
ATOM     43  C   UNL A   1      38.044  32.706  37.662  1.00  0.00     0.041 A 
ATOM     44  F   UNL A   1      38.036  30.664  36.515  1.00  0.00    -0.206 F 
ATOM     45  C   UNL A   1      38.506  34.012  37.803  1.00  0.00     0.022 A 
BRANCH  42  46
ATOM     46  S   UNL A   1      40.125  36.165  37.086  1.00  0.00     0.124 S 
ATOM     47  O   UNL A   1      41.502  35.809  37.423  1.00  0.00    -0.237 OA
ATOM     48  O   UNL A   1      39.931  36.801  35.788  1.00  0.00    -0.237 OA
ATOM     49  O   UNL A   1      39.351  36.738  38.184  1.00  0.00    -0.744 OA
ENDBRANCH  42  46
ENDBRANCH  25  39
BRANCH  26  50
ATOM     50  C   UNL A   1      41.775  27.023  27.503  1.00  0.00     0.023 A 
ATOM     51  C   UNL A   1      41.561  25.640  27.423  1.00  0.00     0.031 A 
ATOM     52  C   UNL A   1      42.418  27.654  26.420  1.00  0.00     0.131 A 
ATOM     53  C   UNL A   1      42.032  24.923  26.312  1.00  0.00     0.055 A 
ATOM     54  C   UNL A   1      42.825  26.947  25.289  1.00  0.00     0.041 A 
ATOM     55  F   UNL A   1      42.647  28.978  26.443  1.00  0.00    -0.206 F 
ATOM     56  C   UNL A   1      42.648  25.570  25.238  1.00  0.00     0.022 A 
BRANCH  53  57
ATOM     57  S   UNL A   1      41.928  23.112  26.339  1.00  0.00     0.124 S 
ATOM     58  O   UNL A   1      40.488  22.898  26.417  1.00  0.00    -0.237 OA
ATOM     59  O   UNL A   1      42.561  22.757  25.073  1.00  0.00    -0.237 OA
ATOM     60  O   UNL A   1      42.681  22.747  27.536  1.00  0.00    -0.744 OA
ENDBRANCH  53  57
ENDBRANCH  26  50
BRANCH  38  61
ATOM     61  C   UNL A   1      44.610  27.820  33.809  1.00  0.00     0.023 A 
ATOM     62  C   UNL A   1      44.530  26.636  34.563  1.00  0.00     0.031 A 
ATOM     63  C   UNL A   1      45.860  28.455  33.704  1.00  0.00     0.131 A 
ATOM     64  C   UNL A   1      45.659  26.167  35.249  1.00  0.00     0.055 A 
ATOM     65  C   UNL A   1      46.996  27.945  34.333  1.00  0.00     0.041 A 
ATOM     66  F   UNL A   1      45.993  29.590  32.999  1.00  0.00    -0.206 F 
ATOM     67  C   UNL A   1      46.895  26.805  35.126  1.00  0.00     0.022 A 
BRANCH  64  68
ATOM     68  S   UNL A   1      45.460  24.781  36.403  1.00  0.00     0.124 S 
ATOM     69  O   UNL A   1      44.832  25.430  37.549  1.00  0.00    -0.237 OA
ATOM     70  O   UNL A   1      44.612  23.865  35.646  1.00  0.00    -0.237 OA
ATOM     71  O   UNL A   1      46.829  24.319  36.624  1.00  0.00    -0.744 OA
ENDBRANCH  64  68
ENDBRANCH  38  61
ENDBRANCH  12  13
ENDBRANCH   5   7
ENDBRANCH   2   3
ENDBRANCH   1   2
BRANCH   1  72
ATOM     72  C   UNL A   1      32.274  27.743  26.796  1.00  0.00     0.118 C 
BRANCH  72  73
ATOM     73  N   UNL A   1      31.261  26.706  26.955  1.00  0.00    -0.352 N 
ATOM     74  C   UNL A   1      30.544  26.004  26.014  1.00  0.00     0.256 C 
ATOM     75  H   UNL A   1      31.057  26.469  27.890  1.00  0.00     0.163 HD
ATOM     76  O   UNL A   1      29.717  25.176  26.384  1.00  0.00    -0.269 OA
BRANCH  74  77
ATOM     77  C   UNL A   1      30.814  26.203  24.585  1.00  0.00     0.100 A 
ATOM     78  C   UNL A   1      30.177  27.261  23.958  1.00  0.00     0.130 A 
ATOM     79  C   UNL A   1      31.769  25.524  23.836  1.00  0.00     0.144 A 
ATOM     80  N   UNL A   1      30.339  27.592  22.664  1.00  0.00    -0.244 NA
ATOM     81  N   UNL A   1      31.953  25.843  22.530  1.00  0.00    -0.219 NA
ATOM     82  C   UNL A   1      31.221  26.835  22.006  1.00  0.00     0.224 A 
BRANCH  79  83
ATOM     83  N   UNL A   1      32.671  24.583  24.318  1.00  0.00    -0.355 N 
ATOM     84  C   UNL A   1      34.079  24.911  24.510  1.00  0.00     0.124 C 
ATOM     85  C   UNL A   1      32.321  23.225  23.877  1.00  0.00     0.133 C 
ATOM     86  C   UNL A   1      34.761  23.863  25.397  1.00  0.00     0.087 C 
ATOM     87  C   UNL A   1      32.992  22.146  24.751  1.00  0.00     0.063 C 
ATOM     88  C   UNL A   1      34.507  22.458  24.838  1.00  0.00     0.194 C 
ATOM     89  C   UNL A   1      32.834  20.769  24.055  1.00  0.00     0.023 C 
ATOM     90  N   UNL A   1      35.213  21.426  25.621  1.00  0.00    -0.343 N 
ATOM     91  C   UNL A   1      33.648  19.684  24.761  1.00  0.00     0.062 C 
ATOM     92  C   UNL A   1      35.100  20.113  24.978  1.00  0.00     0.260 C 
ATOM     93  H   UNL A   1      34.806  21.377  26.555  1.00  0.00     0.346 HD
ATOM     94  H   UNL A   1      36.200  21.678  25.676  1.00  0.00     0.346 HD
BRANCH  87  95
ATOM     95  C   UNL A   1      32.319  22.131  26.149  1.00  0.00     0.171 C 
BRANCH  95  96
ATOM     96  O   UNL A   1      30.901  22.287  26.044  1.00  0.00    -0.395 OA
ATOM     97  H   UNL A   1      30.522  21.508  25.608  1.00  0.00     0.210 HD
ENDBRANCH  95  96
ENDBRANCH  87  95
ENDBRANCH  79  83
ENDBRANCH  74  77
ENDBRANCH  72  73
ENDBRANCH   1  72
TORSDOF 16
ENDMDL
MODEL 2
REMARK VINA RESULT:     -12.2      1.379      1.669
REMARK SMILES O=C(NCCCNC(=O)c1cncnc1N1CC[C@H]2[NH2+]CCC[C@]2(CO)C1)c1ccc(-c2c3nc(c(-c4cc(S(=O)(=O)[O-])ccc4F)c4ccc([nH]4)c(-c4cc(S(=O)(=O)[O-])ccc4F)c4nc(c(-c5cc(S(=O)(=O)[O-])ccc5F)c5ccc2[nH]5)C=C4)C=C3)cc1
REMARK SMILES IDX 5 1 4 2 3 3 1 4 2 5 28 7 29 8 90 9 30 10 89 11 31 12 32 13
REMARK SMILES IDX 33 14 83 15 34 16 88 17 82 18 84 19 35 20 87 21 81 22 80 23
REMARK SMILES IDX 36 25 68 26 48 27 67 28 49 29 52 30 66 31 85 32 50 33 51 34
REMARK SMILES IDX 65 36 86 37 53 38 37 39 38 40 46 41 39 42 45 43 47 44 44 45
REMARK SMILES IDX 40 46 41 47 42 48 43 49 69 50 70 51 78 52 71 53 77 54 79 55
REMARK SMILES IDX 76 56 72 57 73 58 74 59 75 60 54 61 55 62 63 63 56 64 62 65
REMARK SMILES IDX 64 66 61 67 57 68 58 69 59 70 60 71 6 72 7 73 8 74 9 76
REMARK SMILES IDX 10 77 11 78 15 79 12 80 14 81 13 82 16 83 17 84 27 85 18 86
REMARK SMILES IDX 24 87 19 88 23 89 20 90 22 91 21 92 25 95 26 96
REMARK H PARENT 3 6 84 24 52 35 7 75 20 93 20 94 26 97
REMARK Flexibility Score: inf
ROOT
ATOM      1  C   UNL A   1      31.824  28.972  26.990  1.00  0.00     0.042 C 
ENDROOT
BRANCH   1   2
ATOM      2  C   UNL A   1      32.569  29.946  26.090  1.00  0.00     0.118 C 
BRANCH   2   3
ATOM      3  N   UNL A   1      32.301  31.345  26.405  1.00  0.00    -0.352 N 
ATOM      4  O   UNL A   1      32.472  33.317  27.473  1.00  0.00    -0.269 OA
ATOM      5  C   UNL A   1      32.963  32.219  27.240  1.00  0.00     0.251 C 
ATOM      6  H   UNL A   1      31.518  31.728  25.946  1.00  0.00     0.163 HD
BRANCH   5   7
ATOM      7  C   UNL A   1      34.248  31.829  27.864  1.00  0.00     0.039 A 
ATOM      8  C   UNL A   1      34.433  30.540  28.358  1.00  0.00     0.014 A 
ATOM      9  C   UNL A   1      35.291  32.759  27.943  1.00  0.00     0.014 A 
ATOM     10  C   UNL A   1      35.568  30.240  29.097  1.00  0.00     0.010 A 
ATOM     11  C   UNL A   1      36.490  32.412  28.579  1.00  0.00     0.010 A 
ATOM     12  C   UNL A   1      36.626  31.158  29.193  1.00  0.00    -0.014 A 
BRANCH  12  13
ATOM     13  C   UNL A   1      37.874  30.726  29.877  1.00  0.00     0.031 A 
ATOM     14  C   UNL A   1      38.167  31.112  31.301  1.00  0.00     0.074 A 
ATOM     15  C   UNL A   1      38.710  29.903  29.210  1.00  0.00     0.049 A 
ATOM     16  N   UNL A   1      39.174  30.756  32.059  1.00  0.00    -0.248 NA
ATOM     17  C   UNL A   1      37.217  32.020  31.961  1.00  0.00     0.031 C 
ATOM     18  C   UNL A   1      38.529  29.475  27.818  1.00  0.00     0.029 A 
ATOM     19  N   UNL A   1      39.845  29.247  29.610  1.00  0.00    -0.354 N 
ATOM     20  C   UNL A   1      38.988  31.397  33.278  1.00  0.00     0.074 A 
ATOM     21  C   UNL A   1      37.787  32.197  33.147  1.00  0.00     0.031 C 
ATOM     22  C   UNL A   1      39.471  28.575  27.508  1.00  0.00     0.029 A 
ATOM     23  C   UNL A   1      40.373  28.424  28.640  1.00  0.00     0.049 A 
ATOM     24  H   UNL A   1      40.243  29.353  30.503  1.00  0.00     0.167 HD
ATOM     25  C   UNL A   1      39.742  31.317  34.402  1.00  0.00     0.034 A 
ATOM     26  C   UNL A   1      41.474  27.649  28.650  1.00  0.00     0.034 A 
ATOM     27  C   UNL A   1      40.940  30.514  34.514  1.00  0.00     0.049 A 
ATOM     28  C   UNL A   1      42.303  27.601  29.903  1.00  0.00     0.074 A 
ATOM     29  C   UNL A   1      41.777  30.359  35.606  1.00  0.00     0.029 A 
ATOM     30  N   UNL A   1      41.473  29.732  33.497  1.00  0.00    -0.354 N 
ATOM     31  N   UNL A   1      42.103  28.214  31.048  1.00  0.00    -0.248 NA
ATOM     32  C   UNL A   1      43.502  26.757  29.868  1.00  0.00     0.031 C 
ATOM     33  C   UNL A   1      42.843  29.535  35.232  1.00  0.00     0.029 A 
ATOM     34  C   UNL A   1      42.638  29.113  33.929  1.00  0.00     0.049 A 
ATOM     35  H   UNL A   1      41.081  29.631  32.599  1.00  0.00     0.167 HD
ATOM     36  C   UNL A   1      43.152  27.820  31.873  1.00  0.00     0.074 A 
ATOM     37  C   UNL A   1      43.952  26.884  31.107  1.00  0.00     0.031 C 
ATOM     38  C   UNL A   1      43.438  28.205  33.143  1.00  0.00     0.034 A 
BRANCH  25  39
ATOM     39  C   UNL A   1      39.319  32.147  35.593  1.00  0.00     0.023 A 
ATOM     40  C   UNL A   1      38.573  31.597  36.649  1.00  0.00     0.031 A 
ATOM     41  C   UNL A   1      39.679  33.504  35.677  1.00  0.00     0.131 A 
ATOM     42  C   UNL A   1      38.168  32.412  37.719  1.00  0.00     0.055 A 
ATOM     43  C   UNL A   1      39.332  34.292  36.777  1.00  0.00     0.041 A 
ATOM     44  F   UNL A   1      40.374  34.089  34.689  1.00  0.00    -0.206 F 
ATOM     45  C   UNL A   1      38.563  33.749  37.802  1.00  0.00     0.022 A 
BRANCH  42  46
ATOM     46  S   UNL A   1      37.026  31.726  38.951  1.00  0.00     0.124 S 
ATOM     47  O   UNL A   1      37.803  31.859  40.181  1.00  0.00    -0.237 OA
ATOM     48  O   UNL A   1      35.868  32.604  38.831  1.00  0.00    -0.237 OA
ATOM     49  O   UNL A   1      36.817  30.353  38.499  1.00  0.00    -0.744 OA
ENDBRANCH  42  46
ENDBRANCH  25  39
BRANCH  26  50
ATOM     50  C   UNL A   1      41.881  26.899  27.427  1.00  0.00     0.023 A 
ATOM     51  C   UNL A   1      41.688  25.513  27.322  1.00  0.00     0.031 A 
ATOM     52  C   UNL A   1      42.518  27.558  26.357  1.00  0.00     0.131 A 
ATOM     53  C   UNL A   1      42.172  24.824  26.200  1.00  0.00     0.055 A 
ATOM     54  C   UNL A   1      42.937  26.877  25.215  1.00  0.00     0.041 A 
ATOM     55  F   UNL A   1      42.726  28.884  26.404  1.00  0.00    -0.206 F 
ATOM     56  C   UNL A   1      42.781  25.498  25.139  1.00  0.00     0.022 A 
BRANCH  53  57
ATOM     57  S   UNL A   1      42.095  23.011  26.195  1.00  0.00     0.124 S 
ATOM     58  O   UNL A   1      42.695  22.692  24.905  1.00  0.00    -0.237 OA
ATOM     59  O   UNL A   1      42.888  22.673  27.372  1.00  0.00    -0.237 OA
ATOM     60  O   UNL A   1      40.665  22.732  26.305  1.00  0.00    -0.744 OA
ENDBRANCH  53  57
ENDBRANCH  26  50
BRANCH  38  61
ATOM     61  C   UNL A   1      44.663  27.586  33.769  1.00  0.00     0.023 A 
ATOM     62  C   UNL A   1      44.600  26.347  34.430  1.00  0.00     0.031 A 
ATOM     63  C   UNL A   1      45.892  28.269  33.757  1.00  0.00     0.131 A 
ATOM     64  C   UNL A   1      45.722  25.865  35.120  1.00  0.00     0.055 A 
ATOM     65  C   UNL A   1      47.023  27.751  34.388  1.00  0.00     0.041 A 
ATOM     66  F   UNL A   1      46.008  29.457  33.143  1.00  0.00    -0.206 F 
ATOM     67  C   UNL A   1      46.937  26.552  35.090  1.00  0.00     0.022 A 
BRANCH  64  68
ATOM     68  S   UNL A   1      45.534  24.391  36.161  1.00  0.00     0.124 S 
ATOM     69  O   UNL A   1      46.585  23.521  35.645  1.00  0.00    -0.237 OA
ATOM     70  O   UNL A   1      45.751  24.927  37.501  1.00  0.00    -0.237 OA
ATOM     71  O   UNL A   1      44.169  23.948  35.884  1.00  0.00    -0.744 OA
ENDBRANCH  64  68
ENDBRANCH  38  61
ENDBRANCH  12  13
ENDBRANCH   5   7
ENDBRANCH   2   3
ENDBRANCH   1   2
BRANCH   1  72
ATOM     72  C   UNL A   1      32.297  27.534  26.870  1.00  0.00     0.118 C 
BRANCH  72  73
ATOM     73  N   UNL A   1      31.208  26.568  26.966  1.00  0.00    -0.352 N 
ATOM     74  C   UNL A   1      30.439  25.986  25.985  1.00  0.00     0.256 C 
ATOM     75  H   UNL A   1      30.988  26.286  27.884  1.00  0.00     0.163 HD
ATOM     76  O   UNL A   1      29.552  25.200  26.305  1.00  0.00    -0.269 OA
BRANCH  74  77
ATOM     77  C   UNL A   1      30.722  26.257  24.571  1.00  0.00     0.100 A 
ATOM     78  C   UNL A   1      30.092  27.348  23.993  1.00  0.00     0.130 A 
ATOM     79  C   UNL A   1      31.682  25.616  23.796  1.00  0.00     0.144 A 
ATOM     80  N   UNL A   1      30.267  27.745  22.720  1.00  0.00    -0.244 NA
ATOM     81  N   UNL A   1      31.878  26.001  22.510  1.00  0.00    -0.219 NA
ATOM     82  C   UNL A   1      31.152  27.020  22.031  1.00  0.00     0.224 A 
BRANCH  79  83
ATOM     83  N   UNL A   1      32.578  24.649  24.237  1.00  0.00    -0.355 N 
ATOM     84  C   UNL A   1      34.017  24.885  24.220  1.00  0.00     0.124 C 
ATOM     85  C   UNL A   1      32.087  23.291  23.958  1.00  0.00     0.133 C 
ATOM     86  C   UNL A   1      34.742  23.858  25.098  1.00  0.00     0.087 C 
ATOM     87  C   UNL A   1      32.797  22.234  24.827  1.00  0.00     0.063 C 
ATOM     88  C   UNL A   1      34.327  22.438  24.695  1.00  0.00     0.194 C 
ATOM     89  C   UNL A   1      32.461  20.824  24.273  1.00  0.00     0.023 C 
ATOM     90  N   UNL A   1      35.064  21.418  25.466  1.00  0.00    -0.343 N 
ATOM     91  C   UNL A   1      33.290  19.737  24.959  1.00  0.00     0.062 C 
ATOM     92  C   UNL A   1      34.783  20.073  24.953  1.00  0.00     0.260 C 
ATOM     93  H   UNL A   1      34.781  21.469  26.444  1.00  0.00     0.346 HD
ATOM     94  H   UNL A   1      36.063  21.599  25.374  1.00  0.00     0.346 HD
BRANCH  87  95
ATOM     95  C   UNL A   1      32.315  22.372  26.295  1.00  0.00     0.171 C 
BRANCH  95  96
ATOM     96  O   UNL A   1      30.891  22.280  26.385  1.00  0.00    -0.395 OA
ATOM     97  H   UNL A   1      30.593  21.462  25.958  1.00  0.00     0.210 HD
ENDBRANCH  95  96
ENDBRANCH  87  95
ENDBRANCH  79  83
ENDBRANCH  74  77
ENDBRANCH  72  73
ENDBRANCH   1  72
TORSDOF 16
ENDMDL
MODEL 3
REMARK VINA RESULT:     -12.2      2.116      2.432
REMARK SMILES O=C(NCCCNC(=O)c1cncnc1N1CC[C@H]2[NH2+]CCC[C@]2(CO)C1)c1ccc(-c2c3nc(c(-c4cc(S(=O)(=O)[O-])ccc4F)c4ccc([nH]4)c(-c4cc(S(=O)(=O)[O-])ccc4F)c4nc(c(-c5cc(S(=O)(=O)[O-])ccc5F)c5ccc2[nH]5)C=C4)C=C3)cc1
REMARK SMILES IDX 5 1 4 2 3 3 1 4 2 5 28 7 29 8 90 9 30 10 89 11 31 12 32 13
REMARK SMILES IDX 33 14 83 15 34 16 88 17 82 18 84 19 35 20 87 21 81 22 80 23
REMARK SMILES IDX 36 25 68 26 48 27 67 28 49 29 52 30 66 31 85 32 50 33 51 34
REMARK SMILES IDX 65 36 86 37 53 38 37 39 38 40 46 41 39 42 45 43 47 44 44 45
REMARK SMILES IDX 40 46 41 47 42 48 43 49 69 50 70 51 78 52 71 53 77 54 79 55
REMARK SMILES IDX 76 56 72 57 73 58 74 59 75 60 54 61 55 62 63 63 56 64 62 65
REMARK SMILES IDX 64 66 61 67 57 68 58 69 59 70 60 71 6 72 7 73 8 74 9 76
REMARK SMILES IDX 10 77 11 78 15 79 12 80 14 81 13 82 16 83 17 84 27 85 18 86
REMARK SMILES IDX 24 87 19 88 23 89 20 90 22 91 21 92 25 95 26 96
REMARK H PARENT 3 6 84 24 52 35 7 75 20 93 20 94 26 97
REMARK Flexibility Score: inf
ROOT
ATOM      1  C   UNL A   1      33.126  27.974  26.481  1.00  0.00     0.042 C 
ENDROOT
BRANCH   1   2
ATOM      2  C   UNL A   1      33.634  29.171  25.692  1.00  0.00     0.118 C 
BRANCH   2   3
ATOM      3  N   UNL A   1      33.205  30.451  26.245  1.00  0.00    -0.352 N 
ATOM      4  O   UNL A   1      33.138  32.201  27.657  1.00  0.00    -0.269 OA
ATOM      5  C   UNL A   1      33.752  31.224  27.246  1.00  0.00     0.251 C 
ATOM      6  H   UNL A   1      32.391  30.825  25.835  1.00  0.00     0.163 HD
BRANCH   5   7
ATOM      7  C   UNL A   1      35.064  30.867  27.834  1.00  0.00     0.039 A 
ATOM      8  C   UNL A   1      35.260  29.620  28.424  1.00  0.00     0.014 A 
ATOM      9  C   UNL A   1      36.120  31.783  27.780  1.00  0.00     0.014 A 
ATOM     10  C   UNL A   1      36.429  29.365  29.126  1.00  0.00     0.010 A 
ATOM     11  C   UNL A   1      37.347  31.472  28.381  1.00  0.00     0.010 A 
ATOM     12  C   UNL A   1      37.501  30.271  29.090  1.00  0.00    -0.014 A 
BRANCH  12  13
ATOM     13  C   UNL A   1      38.778  29.878  29.743  1.00  0.00     0.031 A 
ATOM     14  C   UNL A   1      39.150  30.377  31.113  1.00  0.00     0.074 A 
ATOM     15  C   UNL A   1      39.569  28.990  29.104  1.00  0.00     0.049 A 
ATOM     16  N   UNL A   1      40.192  30.069  31.844  1.00  0.00    -0.248 NA
ATOM     17  C   UNL A   1      38.246  31.351  31.742  1.00  0.00     0.031 C 
ATOM     18  C   UNL A   1      39.310  28.452  27.764  1.00  0.00     0.029 A 
ATOM     19  N   UNL A   1      40.716  28.352  29.498  1.00  0.00    -0.354 N 
ATOM     20  C   UNL A   1      40.076  30.812  33.014  1.00  0.00     0.074 A 
ATOM     21  C   UNL A   1      38.879  31.616  32.878  1.00  0.00     0.031 C 
ATOM     22  C   UNL A   1      40.224  27.514  27.482  1.00  0.00     0.029 A 
ATOM     23  C   UNL A   1      41.184  27.444  28.575  1.00  0.00     0.049 A 
ATOM     24  H   UNL A   1      41.162  28.525  30.358  1.00  0.00     0.167 HD
ATOM     25  C   UNL A   1      40.888  30.813  34.101  1.00  0.00     0.034 A 
ATOM     26  C   UNL A   1      42.274  26.656  28.593  1.00  0.00     0.034 A 
ATOM     27  C   UNL A   1      42.081  30.004  34.217  1.00  0.00     0.049 A 
ATOM     28  C   UNL A   1      43.168  26.699  29.802  1.00  0.00     0.074 A 
ATOM     29  C   UNL A   1      42.972  29.927  35.274  1.00  0.00     0.029 A 
ATOM     30  N   UNL A   1      42.551  29.133  33.243  1.00  0.00    -0.354 N 
ATOM     31  N   UNL A   1      43.035  27.408  30.900  1.00  0.00    -0.248 NA
ATOM     32  C   UNL A   1      44.354  25.836  29.776  1.00  0.00     0.031 C 
ATOM     33  C   UNL A   1      44.009  29.059  34.915  1.00  0.00     0.029 A 
ATOM     34  C   UNL A   1      43.730  28.534  33.664  1.00  0.00     0.049 A 
ATOM     35  H   UNL A   1      42.112  28.963  32.378  1.00  0.00     0.167 HD
ATOM     36  C   UNL A   1      44.122  27.067  31.700  1.00  0.00     0.074 A 
ATOM     37  C   UNL A   1      44.869  26.059  30.975  1.00  0.00     0.031 C 
ATOM     38  C   UNL A   1      44.478  27.551  32.916  1.00  0.00     0.034 A 
BRANCH  25  39
ATOM     39  C   UNL A   1      40.538  31.745  35.238  1.00  0.00     0.023 A 
ATOM     40  C   UNL A   1      39.507  31.447  36.146  1.00  0.00     0.031 A 
ATOM     41  C   UNL A   1      41.253  32.942  35.422  1.00  0.00     0.131 A 
ATOM     42  C   UNL A   1      39.189  32.358  37.167  1.00  0.00     0.055 A 
ATOM     43  C   UNL A   1      40.976  33.810  36.481  1.00  0.00     0.041 A 
ATOM     44  F   UNL A   1      42.234  33.288  34.575  1.00  0.00    -0.206 F 
ATOM     45  C   UNL A   1      39.932  33.525  37.355  1.00  0.00     0.022 A 
BRANCH  42  46
ATOM     46  S   UNL A   1      37.718  32.047  38.182  1.00  0.00     0.124 S 
ATOM     47  O   UNL A   1      37.378  30.678  37.800  1.00  0.00    -0.237 OA
ATOM     48  O   UNL A   1      38.227  32.222  39.538  1.00  0.00    -0.237 OA
ATOM     49  O   UNL A   1      36.770  33.065  37.736  1.00  0.00    -0.744 OA
ENDBRANCH  42  46
ENDBRANCH  25  39
BRANCH  26  50
ATOM     50  C   UNL A   1      42.609  25.800  27.417  1.00  0.00     0.023 A 
ATOM     51  C   UNL A   1      42.145  24.480  27.320  1.00  0.00     0.031 A 
ATOM     52  C   UNL A   1      43.443  26.283  26.391  1.00  0.00     0.131 A 
ATOM     53  C   UNL A   1      42.559  23.672  26.250  1.00  0.00     0.055 A 
ATOM     54  C   UNL A   1      43.797  25.496  25.295  1.00  0.00     0.041 A 
ATOM     55  F   UNL A   1      43.914  27.541  26.432  1.00  0.00    -0.206 F 
ATOM     56  C   UNL A   1      43.369  24.176  25.229  1.00  0.00     0.022 A 
BRANCH  53  57
ATOM     57  S   UNL A   1      42.114  21.914  26.267  1.00  0.00     0.124 S 
ATOM     58  O   UNL A   1      40.688  21.965  25.967  1.00  0.00    -0.237 OA
ATOM     59  O   UNL A   1      42.972  21.377  25.215  1.00  0.00    -0.237 OA
ATOM     60  O   UNL A   1      42.453  21.491  27.623  1.00  0.00    -0.744 OA
ENDBRANCH  53  57
ENDBRANCH  26  50
BRANCH  38  61
ATOM     61  C   UNL A   1      45.727  26.967  33.529  1.00  0.00     0.023 A 
ATOM     62  C   UNL A   1      46.992  27.529  33.286  1.00  0.00     0.031 A 
ATOM     63  C   UNL A   1      45.659  25.804  34.315  1.00  0.00     0.131 A 
ATOM     64  C   UNL A   1      48.146  26.884  33.755  1.00  0.00     0.055 A 
ATOM     65  C   UNL A   1      46.805  25.205  34.837  1.00  0.00     0.041 A 
ATOM     66  F   UNL A   1      44.477  25.224  34.577  1.00  0.00    -0.206 F 
ATOM     67  C   UNL A   1      48.059  25.734  34.543  1.00  0.00     0.022 A 
BRANCH  64  68
ATOM     68  S   UNL A   1      49.765  27.500  33.218  1.00  0.00     0.124 S 
ATOM     69  O   UNL A   1      50.525  26.264  33.070  1.00  0.00    -0.237 OA
ATOM     70  O   UNL A   1      49.437  28.197  31.978  1.00  0.00    -0.237 OA
ATOM     71  O   UNL A   1      50.188  28.361  34.320  1.00  0.00    -0.744 OA
ENDBRANCH  64  68
ENDBRANCH  38  61
ENDBRANCH  12  13
ENDBRANCH   5   7
ENDBRANCH   2   3
ENDBRANCH   1   2
BRANCH   1  72
ATOM     72  C   UNL A   1      31.685  28.104  26.942  1.00  0.00     0.118 C 
BRANCH  72  73
ATOM     73  N   UNL A   1      31.003  26.818  27.047  1.00  0.00    -0.352 N 
ATOM     74  C   UNL A   1      30.556  25.961  26.068  1.00  0.00     0.256 C 
ATOM     75  H   UNL A   1      30.836  26.515  27.969  1.00  0.00     0.163 HD
ATOM     76  O   UNL A   1      29.984  24.925  26.394  1.00  0.00    -0.269 OA
BRANCH  74  77
ATOM     77  C   UNL A   1      30.818  26.257  24.655  1.00  0.00     0.100 A 
ATOM     78  C   UNL A   1      30.083  27.276  24.071  1.00  0.00     0.130 A 
ATOM     79  C   UNL A   1      31.843  25.716  23.887  1.00  0.00     0.144 A 
ATOM     80  N   UNL A   1      30.224  27.687  22.797  1.00  0.00    -0.244 NA
ATOM     81  N   UNL A   1      32.006  26.116  22.602  1.00  0.00    -0.219 NA
ATOM     82  C   UNL A   1      31.183  27.055  22.115  1.00  0.00     0.224 A 
BRANCH  79  83
ATOM     83  N   UNL A   1      32.830  24.847  24.336  1.00  0.00    -0.355 N 
ATOM     84  C   UNL A   1      34.230  25.253  24.392  1.00  0.00     0.124 C 
ATOM     85  C   UNL A   1      32.519  23.452  23.991  1.00  0.00     0.133 C 
ATOM     86  C   UNL A   1      35.038  24.288  25.267  1.00  0.00     0.087 C 
ATOM     87  C   UNL A   1      33.316  22.454  24.856  1.00  0.00     0.063 C 
ATOM     88  C   UNL A   1      34.814  22.844  24.799  1.00  0.00     0.194 C 
ATOM     89  C   UNL A   1      33.175  21.037  24.242  1.00  0.00     0.023 C 
ATOM     90  N   UNL A   1      35.637  21.891  25.568  1.00  0.00    -0.343 N 
ATOM     91  C   UNL A   1      34.102  20.032  24.927  1.00  0.00     0.062 C 
ATOM     92  C   UNL A   1      35.542  20.542  25.000  1.00  0.00     0.260 C 
ATOM     93  H   UNL A   1      35.310  21.871  26.534  1.00  0.00     0.346 HD
ATOM     94  H   UNL A   1      36.610  22.194  25.527  1.00  0.00     0.346 HD
BRANCH  87  95
ATOM     95  C   UNL A   1      32.762  22.479  26.304  1.00  0.00     0.171 C 
BRANCH  95  96
ATOM     96  O   UNL A   1      31.367  22.166  26.332  1.00  0.00    -0.395 OA
ATOM     97  H   UNL A   1      31.082  22.039  27.250  1.00  0.00     0.210 HD
ENDBRANCH  95  96
ENDBRANCH  87  95
ENDBRANCH  79  83
ENDBRANCH  74  77
ENDBRANCH  72  73
ENDBRANCH   1  72
TORSDOF 16
ENDMDL
