MODEL 1
REMARK VINA RESULT:     -12.0      0.000      0.000
REMARK SMILES CC(C)C[C@H](NC(=O)CNC(=O)[C@@H](NC(=O)OCc1ccccc1)C(C)C)C(=O)NCCCNC(=O)c1ccc(-c2c3nc(c(-c4cc(S(=O)(=O)[O-])ccc4F)c4ccc([nH]4)c(-c4cc(S(=O)(=O)[O-])ccc4F)c4nc(c(-c5cc(S(=O)(=O)[O-])ccc5F)c5ccc2[nH]5)C=C4)C=C3)cc1
REMARK SMILES IDX 28 1 29 2 30 3 5 5 4 6 2 7 1 8 3 9 6 10 7 11 8 13 9 14 10 15
REMARK SMILES IDX 11 16 12 18 13 19 14 20 15 21 16 23 17 24 18 25 19 26 20 27
REMARK SMILES IDX 24 28 21 29 23 30 22 31 25 32 26 33 27 34 31 35 32 36 33 37
REMARK SMILES IDX 34 38 35 39 36 41 37 42 38 43 99 44 39 45 98 46 40 47 41 48
REMARK SMILES IDX 42 49 92 50 43 51 97 52 91 53 93 54 44 55 96 56 90 57 89 58
REMARK SMILES IDX 45 60 77 61 57 62 76 63 58 64 61 65 75 66 94 67 59 68 60 69
REMARK SMILES IDX 74 71 95 72 62 73 46 74 47 75 55 76 48 77 54 78 56 79 53 80
REMARK SMILES IDX 49 81 50 82 51 83 52 84 78 85 79 86 87 87 80 88 86 89 88 90
REMARK SMILES IDX 85 91 81 92 82 93 83 94 84 95 63 96 64 97 72 98 65 99 71 100
REMARK SMILES IDX 73 101 70 102 66 103 67 104 68 105 69 106
REMARK H PARENT 30 4 6 12 10 17 14 22 34 40 93 59 61 70
REMARK Flexibility Score: inf
ROOT
ATOM      1  C   UNL A   1      34.191  21.889  26.719  1.00  0.00     0.242 C 
ATOM      2  O   UNL A   1      34.076  22.252  27.887  1.00  0.00    -0.273 OA
ATOM      3  N   UNL A   1      35.386  21.385  26.281  1.00  0.00    -0.354 N 
ATOM      4  H   UNL A   1      36.130  21.413  26.923  1.00  0.00     0.163 HD
ENDROOT
BRANCH   1   5
ATOM      5  C   UNL A   1      33.023  21.945  25.722  1.00  0.00     0.171 C 
BRANCH   5   6
ATOM      6  C   UNL A   1      33.369  22.898  24.573  1.00  0.00     0.038 C 
BRANCH   6   7
ATOM      7  C   UNL A   1      32.647  22.826  23.213  1.00  0.00    -0.015 C 
ATOM      8  C   UNL A   1      33.493  23.336  22.051  1.00  0.00     0.007 C 
ATOM      9  C   UNL A   1      32.257  21.360  22.974  1.00  0.00     0.007 C 
ENDBRANCH   6   7
ENDBRANCH   5   6
BRANCH   5  10
ATOM     10  N   UNL A   1      31.843  22.253  26.579  1.00  0.00    -0.343 N 
ATOM     11  C   UNL A   1      30.890  23.179  26.796  1.00  0.00     0.240 C 
ATOM     12  H   UNL A   1      31.714  21.512  27.214  1.00  0.00     0.164 HD
ATOM     13  O   UNL A   1      30.072  22.869  27.676  1.00  0.00    -0.273 OA
BRANCH  11  14
ATOM     14  C   UNL A   1      30.634  24.476  26.024  1.00  0.00     0.216 C 
BRANCH  14  15
ATOM     15  N   UNL A   1      30.600  25.752  26.690  1.00  0.00    -0.345 N 
ATOM     16  C   UNL A   1      31.329  26.882  26.554  1.00  0.00     0.243 C 
ATOM     17  H   UNL A   1      29.906  25.814  27.385  1.00  0.00     0.164 HD
ATOM     18  O   UNL A   1      30.937  27.847  27.224  1.00  0.00    -0.273 OA
BRANCH  16  19
ATOM     19  C   UNL A   1      32.548  27.057  25.599  1.00  0.00     0.177 C 
BRANCH  19  20
ATOM     20  N   UNL A   1      32.401  26.490  24.249  1.00  0.00    -0.309 N 
ATOM     21  C   UNL A   1      31.541  26.738  23.234  1.00  0.00     0.408 C 
ATOM     22  H   UNL A   1      33.062  25.791  24.043  1.00  0.00     0.167 HD
ATOM     23  O   UNL A   1      31.469  25.957  22.294  1.00  0.00    -0.225 OA
BRANCH  21  24
ATOM     24  O   UNL A   1      30.831  27.874  23.387  1.00  0.00    -0.445 OA
BRANCH  24  25
ATOM     25  C   UNL A   1      30.362  28.484  22.176  1.00  0.00     0.270 C 
BRANCH  25  26
ATOM     26  C   UNL A   1      29.661  29.793  22.442  1.00  0.00    -0.011 A 
ATOM     27  C   UNL A   1      28.943  30.443  21.429  1.00  0.00     0.007 A 
ATOM     28  C   UNL A   1      29.657  30.333  23.735  1.00  0.00     0.007 A 
ATOM     29  C   UNL A   1      28.205  31.592  21.713  1.00  0.00     0.000 A 
ATOM     30  C   UNL A   1      28.928  31.488  24.014  1.00  0.00     0.000 A 
ATOM     31  C   UNL A   1      28.198  32.113  23.006  1.00  0.00     0.000 A 
ENDBRANCH  25  26
ENDBRANCH  24  25
ENDBRANCH  21  24
ENDBRANCH  19  20
BRANCH  19  32
ATOM     32  C   UNL A   1      33.170  28.467  25.677  1.00  0.00     0.015 C 
ATOM     33  C   UNL A   1      34.357  28.533  26.649  1.00  0.00     0.010 C 
ATOM     34  C   UNL A   1      33.673  28.909  24.296  1.00  0.00     0.010 C 
ENDBRANCH  19  32
ENDBRANCH  16  19
ENDBRANCH  14  15
ENDBRANCH  11  14
ENDBRANCH   5  10
ENDBRANCH   1   5
BRANCH   3  35
ATOM     35  C   UNL A   1      35.681  20.812  24.975  1.00  0.00     0.117 C 
BRANCH  35  36
ATOM     36  C   UNL A   1      36.918  19.956  24.990  1.00  0.00     0.042 C 
BRANCH  36  37
ATOM     37  C   UNL A   1      38.109  20.720  25.519  1.00  0.00     0.118 C 
BRANCH  37  38
ATOM     38  N   UNL A   1      39.236  19.847  25.841  1.00  0.00    -0.352 N 
ATOM     39  C   UNL A   1      40.450  20.196  26.382  1.00  0.00     0.251 C 
ATOM     40  H   UNL A   1      39.110  18.891  25.646  1.00  0.00     0.163 HD
ATOM     41  O   UNL A   1      41.378  19.399  26.416  1.00  0.00    -0.269 OA
BRANCH  39  42
ATOM     42  C   UNL A   1      40.597  21.575  26.879  1.00  0.00     0.039 A 
ATOM     43  C   UNL A   1      41.407  21.823  27.985  1.00  0.00     0.014 A 
ATOM     44  C   UNL A   1      40.054  22.622  26.131  1.00  0.00     0.014 A 
ATOM     45  C   UNL A   1      41.748  23.140  28.287  1.00  0.00     0.010 A 
ATOM     46  C   UNL A   1      40.507  23.911  26.351  1.00  0.00     0.010 A 
ATOM     47  C   UNL A   1      41.349  24.186  27.438  1.00  0.00    -0.014 A 
BRANCH  47  48
ATOM     48  C   UNL A   1      41.773  25.588  27.672  1.00  0.00     0.031 A 
ATOM     49  C   UNL A   1      43.146  26.018  27.232  1.00  0.00     0.074 A 
ATOM     50  C   UNL A   1      40.966  26.434  28.341  1.00  0.00     0.049 A 
ATOM     51  N   UNL A   1      43.762  27.152  27.437  1.00  0.00    -0.248 NA
ATOM     52  C   UNL A   1      43.948  25.023  26.502  1.00  0.00     0.031 C 
ATOM     53  C   UNL A   1      39.634  26.109  28.857  1.00  0.00     0.029 A 
ATOM     54  N   UNL A   1      41.152  27.742  28.713  1.00  0.00    -0.354 N 
ATOM     55  C   UNL A   1      45.026  26.998  26.879  1.00  0.00     0.074 A 
ATOM     56  C   UNL A   1      45.116  25.636  26.403  1.00  0.00     0.031 C 
ATOM     57  C   UNL A   1      39.110  27.198  29.442  1.00  0.00     0.029 A 
ATOM     58  C   UNL A   1      40.088  28.280  29.400  1.00  0.00     0.049 A 
ATOM     59  H   UNL A   1      41.970  28.249  28.505  1.00  0.00     0.167 HD
ATOM     60  C   UNL A   1      46.009  27.919  26.745  1.00  0.00     0.034 A 
ATOM     61  C   UNL A   1      39.928  29.501  29.948  1.00  0.00     0.034 A 
ATOM     62  C   UNL A   1      45.889  29.278  27.210  1.00  0.00     0.049 A 
ATOM     63  C   UNL A   1      41.052  30.500  29.821  1.00  0.00     0.074 A 
ATOM     64  C   UNL A   1      46.794  30.314  27.078  1.00  0.00     0.029 A 
ATOM     65  N   UNL A   1      44.798  29.785  27.905  1.00  0.00    -0.354 N 
ATOM     66  N   UNL A   1      42.222  30.357  29.239  1.00  0.00    -0.248 NA
ATOM     67  C   UNL A   1      40.834  31.823  30.416  1.00  0.00     0.031 C 
ATOM     68  C   UNL A   1      46.287  31.424  27.762  1.00  0.00     0.029 A 
ATOM     69  C   UNL A   1      45.026  31.110  28.243  1.00  0.00     0.049 A 
ATOM     70  H   UNL A   1      43.984  29.279  28.126  1.00  0.00     0.167 HD
ATOM     71  C   UNL A   1      42.864  31.585  29.373  1.00  0.00     0.074 A 
ATOM     72  C   UNL A   1      41.946  32.458  30.076  1.00  0.00     0.031 C 
ATOM     73  C   UNL A   1      44.099  31.962  28.951  1.00  0.00     0.034 A 
BRANCH  60  74
ATOM     74  C   UNL A   1      47.296  27.475  26.092  1.00  0.00     0.023 A 
ATOM     75  C   UNL A   1      47.576  27.759  24.743  1.00  0.00     0.031 A 
ATOM     76  C   UNL A   1      48.240  26.727  26.816  1.00  0.00     0.131 A 
ATOM     77  C   UNL A   1      48.728  27.231  24.141  1.00  0.00     0.055 A 
ATOM     78  C   UNL A   1      49.429  26.282  26.235  1.00  0.00     0.041 A 
ATOM     79  F   UNL A   1      48.016  26.401  28.099  1.00  0.00    -0.206 F 
ATOM     80  C   UNL A   1      49.671  26.520  24.885  1.00  0.00     0.022 A 
BRANCH  77  81
ATOM     81  S   UNL A   1      48.895  27.356  22.339  1.00  0.00     0.124 S 
ATOM     82  O   UNL A   1      48.475  26.024  21.912  1.00  0.00    -0.237 OA
ATOM     83  O   UNL A   1      47.986  28.448  22.012  1.00  0.00    -0.237 OA
ATOM     84  O   UNL A   1      50.315  27.646  22.147  1.00  0.00    -0.744 OA
ENDBRANCH  77  81
ENDBRANCH  60  74
BRANCH  61  85
ATOM     85  C   UNL A   1      38.674  29.851  30.677  1.00  0.00     0.023 A 
ATOM     86  C   UNL A   1      37.683  30.641  30.073  1.00  0.00     0.031 A 
ATOM     87  C   UNL A   1      38.467  29.439  32.006  1.00  0.00     0.131 A 
ATOM     88  C   UNL A   1      36.557  31.038  30.812  1.00  0.00     0.055 A 
ATOM     89  C   UNL A   1      37.317  29.785  32.717  1.00  0.00     0.041 A 
ATOM     90  F   UNL A   1      39.380  28.679  32.632  1.00  0.00    -0.206 F 
ATOM     91  C   UNL A   1      36.360  30.603  32.125  1.00  0.00     0.022 A 
BRANCH  88  92
ATOM     92  S   UNL A   1      35.400  32.219  30.064  1.00  0.00     0.124 S 
ATOM     93  O   UNL A   1      36.275  33.351  29.781  1.00  0.00    -0.237 OA
ATOM     94  O   UNL A   1      34.917  31.476  28.905  1.00  0.00    -0.237 OA
ATOM     95  O   UNL A   1      34.412  32.441  31.118  1.00  0.00    -0.744 OA
ENDBRANCH  88  92
ENDBRANCH  61  85
BRANCH  73  96
ATOM     96  C   UNL A   1      44.505  33.393  29.197  1.00  0.00     0.023 A 
ATOM     97  C   UNL A   1      43.985  34.452  28.433  1.00  0.00     0.031 A 
ATOM     98  C   UNL A   1      45.417  33.701  30.222  1.00  0.00     0.131 A 
ATOM     99  C   UNL A   1      44.421  35.764  28.674  1.00  0.00     0.055 A 
ATOM    100  C   UNL A   1      45.795  35.014  30.500  1.00  0.00     0.041 A 
ATOM    101  F   UNL A   1      45.947  32.726  30.980  1.00  0.00    -0.206 F 
ATOM    102  C   UNL A   1      45.306  36.053  29.716  1.00  0.00     0.022 A 
BRANCH  99 103
ATOM    103  S   UNL A   1      43.883  37.080  27.549  1.00  0.00     0.124 S 
ATOM    104  O   UNL A   1      43.114  37.944  28.439  1.00  0.00    -0.237 OA
ATOM    105  O   UNL A   1      45.151  37.622  27.073  1.00  0.00    -0.237 OA
ATOM    106  O   UNL A   1      43.096  36.371  26.542  1.00  0.00    -0.744 OA
ENDBRANCH  99 103
ENDBRANCH  73  96
ENDBRANCH  47  48
ENDBRANCH  39  42
ENDBRANCH  37  38
ENDBRANCH  36  37
ENDBRANCH  35  36
ENDBRANCH   3  35
TORSDOF 24
ENDMDL
MODEL 2
REMARK VINA RESULT:     -12.0      1.668      7.427
REMARK SMILES CC(C)C[C@H](NC(=O)CNC(=O)[C@@H](NC(=O)OCc1ccccc1)C(C)C)C(=O)NCCCNC(=O)c1ccc(-c2c3nc(c(-c4cc(S(=O)(=O)[O-])ccc4F)c4ccc([nH]4)c(-c4cc(S(=O)(=O)[O-])ccc4F)c4nc(c(-c5cc(S(=O)(=O)[O-])ccc5F)c5ccc2[nH]5)C=C4)C=C3)cc1
REMARK SMILES IDX 28 1 29 2 30 3 5 5 4 6 2 7 1 8 3 9 6 10 7 11 8 13 9 14 10 15
REMARK SMILES IDX 11 16 12 18 13 19 14 20 15 21 16 23 17 24 18 25 19 26 20 27
REMARK SMILES IDX 24 28 21 29 23 30 22 31 25 32 26 33 27 34 31 35 32 36 33 37
REMARK SMILES IDX 34 38 35 39 36 41 37 42 38 43 99 44 39 45 98 46 40 47 41 48
REMARK SMILES IDX 42 49 92 50 43 51 97 52 91 53 93 54 44 55 96 56 90 57 89 58
REMARK SMILES IDX 45 60 77 61 57 62 76 63 58 64 61 65 75 66 94 67 59 68 60 69
REMARK SMILES IDX 74 71 95 72 62 73 46 74 47 75 55 76 48 77 54 78 56 79 53 80
REMARK SMILES IDX 49 81 50 82 51 83 52 84 78 85 79 86 87 87 80 88 86 89 88 90
REMARK SMILES IDX 85 91 81 92 82 93 83 94 84 95 63 96 64 97 72 98 65 99 71 100
REMARK SMILES IDX 73 101 70 102 66 103 67 104 68 105 69 106
REMARK H PARENT 30 4 6 12 10 17 14 22 34 40 93 59 61 70
REMARK Flexibility Score: inf
ROOT
ATOM      1  C   UNL A   1      34.210  21.742  26.763  1.00  0.00     0.242 C 
ATOM      2  O   UNL A   1      33.911  21.743  27.956  1.00  0.00    -0.273 OA
ATOM      3  N   UNL A   1      35.218  20.930  26.320  1.00  0.00    -0.354 N 
ATOM      4  H   UNL A   1      35.713  20.436  27.011  1.00  0.00     0.163 HD
ENDROOT
BRANCH   1   5
ATOM      5  C   UNL A   1      33.465  22.599  25.728  1.00  0.00     0.171 C 
BRANCH   5   6
ATOM      6  C   UNL A   1      33.971  24.043  25.793  1.00  0.00     0.038 C 
BRANCH   6   7
ATOM      7  C   UNL A   1      35.165  24.525  24.945  1.00  0.00    -0.015 C 
ATOM      8  C   UNL A   1      36.519  24.156  25.541  1.00  0.00     0.007 C 
ATOM      9  C   UNL A   1      35.020  23.905  23.548  1.00  0.00     0.007 C 
ENDBRANCH   6   7
ENDBRANCH   5   6
BRANCH   5  10
ATOM     10  N   UNL A   1      32.028  22.328  26.015  1.00  0.00    -0.343 N 
ATOM     11  C   UNL A   1      30.880  22.925  26.385  1.00  0.00     0.240 C 
ATOM     12  H   UNL A   1      31.857  21.367  25.887  1.00  0.00     0.164 HD
ATOM     13  O   UNL A   1      29.901  22.163  26.425  1.00  0.00    -0.273 OA
BRANCH  11  14
ATOM     14  C   UNL A   1      30.622  24.414  26.637  1.00  0.00     0.216 C 
BRANCH  14  15
ATOM     15  N   UNL A   1      29.657  25.149  25.862  1.00  0.00    -0.345 N 
ATOM     16  C   UNL A   1      29.768  25.976  24.797  1.00  0.00     0.243 C 
ATOM     17  H   UNL A   1      28.730  25.026  26.169  1.00  0.00     0.164 HD
ATOM     18  O   UNL A   1      28.694  26.344  24.302  1.00  0.00    -0.273 OA
BRANCH  16  19
ATOM     19  C   UNL A   1      31.108  26.428  24.145  1.00  0.00     0.177 C 
BRANCH  19  20
ATOM     20  N   UNL A   1      32.070  27.097  25.036  1.00  0.00    -0.309 N 
ATOM     21  C   UNL A   1      32.631  28.328  25.027  1.00  0.00     0.408 C 
ATOM     22  H   UNL A   1      32.362  26.537  25.790  1.00  0.00     0.167 HD
ATOM     23  O   UNL A   1      33.595  28.561  25.746  1.00  0.00    -0.225 OA
BRANCH  21  24
ATOM     24  O   UNL A   1      32.032  29.196  24.187  1.00  0.00    -0.445 OA
BRANCH  24  25
ATOM     25  C   UNL A   1      31.062  30.070  24.780  1.00  0.00     0.270 C 
BRANCH  25  26
ATOM     26  C   UNL A   1      29.904  30.338  23.850  1.00  0.00    -0.011 A 
ATOM     27  C   UNL A   1      29.579  29.434  22.828  1.00  0.00     0.007 A 
ATOM     28  C   UNL A   1      29.092  31.460  24.052  1.00  0.00     0.007 A 
ATOM     29  C   UNL A   1      28.440  29.633  22.048  1.00  0.00     0.000 A 
ATOM     30  C   UNL A   1      27.961  31.663  23.264  1.00  0.00     0.000 A 
ATOM     31  C   UNL A   1      27.631  30.747  22.267  1.00  0.00     0.000 A 
ENDBRANCH  25  26
ENDBRANCH  24  25
ENDBRANCH  21  24
ENDBRANCH  19  20
BRANCH  19  32
ATOM     32  C   UNL A   1      31.695  25.368  23.190  1.00  0.00     0.015 C 
ATOM     33  C   UNL A   1      30.755  24.170  22.992  1.00  0.00     0.010 C 
ATOM     34  C   UNL A   1      31.967  25.981  21.809  1.00  0.00     0.010 C 
ENDBRANCH  19  32
ENDBRANCH  16  19
ENDBRANCH  14  15
ENDBRANCH  11  14
ENDBRANCH   5  10
ENDBRANCH   1   5
BRANCH   3  35
ATOM     35  C   UNL A   1      35.641  20.713  24.943  1.00  0.00     0.117 C 
BRANCH  35  36
ATOM     36  C   UNL A   1      36.864  19.842  24.849  1.00  0.00     0.042 C 
BRANCH  36  37
ATOM     37  C   UNL A   1      38.073  20.526  25.441  1.00  0.00     0.118 C 
BRANCH  37  38
ATOM     38  N   UNL A   1      39.177  19.599  25.683  1.00  0.00    -0.352 N 
ATOM     39  C   UNL A   1      40.441  19.888  26.140  1.00  0.00     0.251 C 
ATOM     40  H   UNL A   1      38.993  18.651  25.496  1.00  0.00     0.163 HD
ATOM     41  O   UNL A   1      41.330  19.047  26.109  1.00  0.00    -0.269 OA
BRANCH  39  42
ATOM     42  C   UNL A   1      40.687  21.256  26.628  1.00  0.00     0.039 A 
ATOM     43  C   UNL A   1      41.348  21.443  27.840  1.00  0.00     0.014 A 
ATOM     44  C   UNL A   1      40.399  22.333  25.787  1.00  0.00     0.014 A 
ATOM     45  C   UNL A   1      41.806  22.718  28.165  1.00  0.00     0.010 A 
ATOM     46  C   UNL A   1      40.976  23.563  26.049  1.00  0.00     0.010 A 
ATOM     47  C   UNL A   1      41.674  23.773  27.246  1.00  0.00    -0.014 A 
BRANCH  47  48
ATOM     48  C   UNL A   1      42.234  25.120  27.516  1.00  0.00     0.031 A 
ATOM     49  C   UNL A   1      41.380  26.138  28.222  1.00  0.00     0.074 A 
ATOM     50  C   UNL A   1      43.459  25.446  27.060  1.00  0.00     0.049 A 
ATOM     51  N   UNL A   1      41.621  27.400  28.457  1.00  0.00    -0.248 NA
ATOM     52  C   UNL A   1      40.059  25.683  28.688  1.00  0.00     0.031 C 
ATOM     53  C   UNL A   1      44.355  24.553  26.320  1.00  0.00     0.029 A 
ATOM     54  N   UNL A   1      44.163  26.621  27.144  1.00  0.00    -0.354 N 
ATOM     55  C   UNL A   1      40.479  27.891  29.078  1.00  0.00     0.074 A 
ATOM     56  C   UNL A   1      39.516  26.813  29.107  1.00  0.00     0.031 C 
ATOM     57  C   UNL A   1      45.501  25.201  26.052  1.00  0.00     0.029 A 
ATOM     58  C   UNL A   1      45.400  26.571  26.545  1.00  0.00     0.049 A 
ATOM     59  H   UNL A   1      43.814  27.425  27.592  1.00  0.00     0.167 HD
ATOM     60  C   UNL A   1      40.265  29.119  29.606  1.00  0.00     0.034 A 
ATOM     61  C   UNL A   1      46.339  27.527  26.395  1.00  0.00     0.034 A 
ATOM     62  C   UNL A   1      41.248  30.173  29.583  1.00  0.00     0.049 A 
ATOM     63  C   UNL A   1      46.064  28.900  26.958  1.00  0.00     0.074 A 
ATOM     64  C   UNL A   1      41.167  31.436  30.138  1.00  0.00     0.029 A 
ATOM     65  N   UNL A   1      42.489  30.086  28.964  1.00  0.00    -0.354 N 
ATOM     66  N   UNL A   1      44.999  29.334  27.593  1.00  0.00    -0.248 NA
ATOM     67  C   UNL A   1      47.116  29.909  26.789  1.00  0.00     0.031 C 
ATOM     68  C   UNL A   1      42.322  32.141  29.785  1.00  0.00     0.029 A 
ATOM     69  C   UNL A   1      43.166  31.290  29.089  1.00  0.00     0.049 A 
ATOM     70  H   UNL A   1      42.837  29.289  28.504  1.00  0.00     0.167 HD
ATOM     71  C   UNL A   1      45.270  30.658  27.928  1.00  0.00     0.074 A 
ATOM     72  C   UNL A   1      46.603  30.944  27.436  1.00  0.00     0.031 C 
ATOM     73  C   UNL A   1      44.492  31.557  28.585  1.00  0.00     0.034 A 
BRANCH  60  74
ATOM     74  C   UNL A   1      38.915  29.384  30.229  1.00  0.00     0.023 A 
ATOM     75  C   UNL A   1      37.936  30.150  29.570  1.00  0.00     0.031 A 
ATOM     76  C   UNL A   1      38.614  28.895  31.511  1.00  0.00     0.131 A 
ATOM     77  C   UNL A   1      36.739  30.470  30.227  1.00  0.00     0.055 A 
ATOM     78  C   UNL A   1      37.384  29.142  32.123  1.00  0.00     0.041 A 
ATOM     79  F   UNL A   1      39.518  28.181  32.200  1.00  0.00    -0.206 F 
ATOM     80  C   UNL A   1      36.443  29.947  31.487  1.00  0.00     0.022 A 
BRANCH  77  81
ATOM     81  S   UNL A   1      35.645  31.706  29.475  1.00  0.00     0.124 S 
ATOM     82  O   UNL A   1      34.834  32.117  30.619  1.00  0.00    -0.237 OA
ATOM     83  O   UNL A   1      36.587  32.698  28.972  1.00  0.00    -0.237 OA
ATOM     84  O   UNL A   1      34.927  30.950  28.451  1.00  0.00    -0.744 OA
ENDBRANCH  77  81
ENDBRANCH  60  74
BRANCH  61  85
ATOM     85  C   UNL A   1      47.613  27.237  25.675  1.00  0.00     0.023 A 
ATOM     86  C   UNL A   1      47.795  27.628  24.340  1.00  0.00     0.031 A 
ATOM     87  C   UNL A   1      48.653  26.522  26.298  1.00  0.00     0.131 A 
ATOM     88  C   UNL A   1      48.964  27.258  23.654  1.00  0.00     0.055 A 
ATOM     89  C   UNL A   1      49.839  26.210  25.631  1.00  0.00     0.041 A 
ATOM     90  F   UNL A   1      48.534  26.124  27.575  1.00  0.00    -0.206 F 
ATOM     91  C   UNL A   1      49.993  26.565  24.295  1.00  0.00     0.022 A 
BRANCH  88  92
ATOM     92  S   UNL A   1      49.075  27.610  21.877  1.00  0.00     0.124 S 
ATOM     93  O   UNL A   1      47.671  27.780  21.521  1.00  0.00    -0.237 OA
ATOM     94  O   UNL A   1      49.893  28.818  21.859  1.00  0.00    -0.237 OA
ATOM     95  O   UNL A   1      49.717  26.415  21.335  1.00  0.00    -0.744 OA
ENDBRANCH  88  92
ENDBRANCH  61  85
BRANCH  73  96
ATOM     96  C   UNL A   1      45.086  32.917  28.850  1.00  0.00     0.023 A 
ATOM     97  C   UNL A   1      45.711  33.228  30.070  1.00  0.00     0.031 A 
ATOM     98  C   UNL A   1      45.035  33.914  27.859  1.00  0.00     0.131 A 
ATOM     99  C   UNL A   1      46.215  34.520  30.286  1.00  0.00     0.055 A 
ATOM    100  C   UNL A   1      45.597  35.175  28.055  1.00  0.00     0.041 A 
ATOM    101  F   UNL A   1      44.446  33.672  26.676  1.00  0.00    -0.206 F 
ATOM    102  C   UNL A   1      46.181  35.488  29.279  1.00  0.00     0.022 A 
BRANCH  99 103
ATOM    103  S   UNL A   1      46.838  34.947  31.934  1.00  0.00     0.124 S 
ATOM    104  O   UNL A   1      45.999  34.122  32.798  1.00  0.00    -0.237 OA
ATOM    105  O   UNL A   1      48.241  34.557  31.848  1.00  0.00    -0.237 OA
ATOM    106  O   UNL A   1      46.600  36.386  32.029  1.00  0.00    -0.744 OA
ENDBRANCH  99 103
ENDBRANCH  73  96
ENDBRANCH  47  48
ENDBRANCH  39  42
ENDBRANCH  37  38
ENDBRANCH  36  37
ENDBRANCH  35  36
ENDBRANCH   3  35
TORSDOF 24
ENDMDL
MODEL 3
REMARK VINA RESULT:     -11.7      5.374      9.326
REMARK SMILES CC(C)C[C@H](NC(=O)CNC(=O)[C@@H](NC(=O)OCc1ccccc1)C(C)C)C(=O)NCCCNC(=O)c1ccc(-c2c3nc(c(-c4cc(S(=O)(=O)[O-])ccc4F)c4ccc([nH]4)c(-c4cc(S(=O)(=O)[O-])ccc4F)c4nc(c(-c5cc(S(=O)(=O)[O-])ccc5F)c5ccc2[nH]5)C=C4)C=C3)cc1
REMARK SMILES IDX 28 1 29 2 30 3 5 5 4 6 2 7 1 8 3 9 6 10 7 11 8 13 9 14 10 15
REMARK SMILES IDX 11 16 12 18 13 19 14 20 15 21 16 23 17 24 18 25 19 26 20 27
REMARK SMILES IDX 24 28 21 29 23 30 22 31 25 32 26 33 27 34 31 35 32 36 33 37
REMARK SMILES IDX 34 38 35 39 36 41 37 42 38 43 99 44 39 45 98 46 40 47 41 48
REMARK SMILES IDX 42 49 92 50 43 51 97 52 91 53 93 54 44 55 96 56 90 57 89 58
REMARK SMILES IDX 45 60 77 61 57 62 76 63 58 64 61 65 75 66 94 67 59 68 60 69
REMARK SMILES IDX 74 71 95 72 62 73 46 74 47 75 55 76 48 77 54 78 56 79 53 80
REMARK SMILES IDX 49 81 50 82 51 83 52 84 78 85 79 86 87 87 80 88 86 89 88 90
REMARK SMILES IDX 85 91 81 92 82 93 83 94 84 95 63 96 64 97 72 98 65 99 71 100
REMARK SMILES IDX 73 101 70 102 66 103 67 104 68 105 69 106
REMARK H PARENT 30 4 6 12 10 17 14 22 34 40 93 59 61 70
REMARK Flexibility Score: inf
ROOT
ATOM      1  C   UNL A   1      31.097  28.145  24.747  1.00  0.00     0.242 C 
ATOM      2  O   UNL A   1      30.448  27.105  24.841  1.00  0.00    -0.273 OA
ATOM      3  N   UNL A   1      31.728  28.651  25.852  1.00  0.00    -0.354 N 
ATOM      4  H   UNL A   1      31.558  28.183  26.700  1.00  0.00     0.163 HD
ENDROOT
BRANCH   1   5
ATOM      5  C   UNL A   1      31.263  28.893  23.416  1.00  0.00     0.171 C 
BRANCH   5   6
ATOM      6  C   UNL A   1      30.123  29.901  23.243  1.00  0.00     0.038 C 
BRANCH   6   7
ATOM      7  C   UNL A   1      28.902  29.601  22.351  1.00  0.00    -0.015 C 
ATOM      8  C   UNL A   1      27.612  29.399  23.137  1.00  0.00     0.007 C 
ATOM      9  C   UNL A   1      28.743  30.777  21.376  1.00  0.00     0.007 C 
ENDBRANCH   6   7
ENDBRANCH   5   6
BRANCH   5  10
ATOM     10  N   UNL A   1      31.413  27.800  22.414  1.00  0.00    -0.343 N 
ATOM     11  C   UNL A   1      32.237  26.808  22.027  1.00  0.00     0.240 C 
ATOM     12  H   UNL A   1      30.626  27.805  21.823  1.00  0.00     0.164 HD
ATOM     13  O   UNL A   1      31.804  26.125  21.086  1.00  0.00    -0.273 OA
BRANCH  11  14
ATOM     14  C   UNL A   1      33.553  26.361  22.672  1.00  0.00     0.216 C 
BRANCH  14  15
ATOM     15  N   UNL A   1      33.745  26.413  24.098  1.00  0.00    -0.345 N 
ATOM     16  C   UNL A   1      33.589  25.498  25.082  1.00  0.00     0.243 C 
ATOM     17  H   UNL A   1      34.051  27.291  24.422  1.00  0.00     0.164 HD
ATOM     18  O   UNL A   1      33.970  25.861  26.203  1.00  0.00    -0.273 OA
BRANCH  16  19
ATOM     19  C   UNL A   1      33.038  24.054  24.889  1.00  0.00     0.177 C 
BRANCH  19  20
ATOM     20  N   UNL A   1      33.426  23.070  25.912  1.00  0.00    -0.309 N 
ATOM     21  C   UNL A   1      33.899  21.805  25.841  1.00  0.00     0.408 C 
ATOM     22  H   UNL A   1      33.321  23.399  26.834  1.00  0.00     0.167 HD
ATOM     23  O   UNL A   1      33.915  21.104  26.845  1.00  0.00    -0.225 OA
BRANCH  21  24
ATOM     24  O   UNL A   1      34.320  21.448  24.610  1.00  0.00    -0.445 OA
BRANCH  24  25
ATOM     25  C   UNL A   1      35.259  22.337  23.989  1.00  0.00     0.270 C 
BRANCH  25  26
ATOM     26  C   UNL A   1      36.592  22.327  24.696  1.00  0.00    -0.011 A 
ATOM     27  C   UNL A   1      37.051  23.460  25.382  1.00  0.00     0.007 A 
ATOM     28  C   UNL A   1      37.350  21.150  24.739  1.00  0.00     0.007 A 
ATOM     29  C   UNL A   1      38.229  23.405  26.126  1.00  0.00     0.000 A 
ATOM     30  C   UNL A   1      38.534  21.100  25.474  1.00  0.00     0.000 A 
ATOM     31  C   UNL A   1      38.969  22.225  26.172  1.00  0.00     0.000 A 
ENDBRANCH  25  26
ENDBRANCH  24  25
ENDBRANCH  21  24
ENDBRANCH  19  20
BRANCH  19  32
ATOM     32  C   UNL A   1      31.556  24.033  24.458  1.00  0.00     0.015 C 
ATOM     33  C   UNL A   1      31.315  23.145  23.229  1.00  0.00     0.010 C 
ATOM     34  C   UNL A   1      30.673  23.504  25.596  1.00  0.00     0.010 C 
ENDBRANCH  19  32
ENDBRANCH  16  19
ENDBRANCH  14  15
ENDBRANCH  11  14
ENDBRANCH   5  10
ENDBRANCH   1   5
BRANCH   3  35
ATOM     35  C   UNL A   1      32.620  29.800  25.915  1.00  0.00     0.117 C 
BRANCH  35  36
ATOM     36  C   UNL A   1      32.336  30.683  27.100  1.00  0.00     0.042 C 
BRANCH  36  37
ATOM     37  C   UNL A   1      33.454  31.672  27.329  1.00  0.00     0.118 C 
BRANCH  37  38
ATOM     38  N   UNL A   1      32.980  33.053  27.367  1.00  0.00    -0.352 N 
ATOM     39  C   UNL A   1      33.285  34.028  28.287  1.00  0.00     0.251 C 
ATOM     40  H   UNL A   1      32.366  33.319  26.646  1.00  0.00     0.163 HD
ATOM     41  O   UNL A   1      32.664  35.083  28.317  1.00  0.00    -0.269 OA
BRANCH  39  42
ATOM     42  C   UNL A   1      34.357  33.734  29.253  1.00  0.00     0.039 A 
ATOM     43  C   UNL A   1      34.108  32.862  30.310  1.00  0.00     0.014 A 
ATOM     44  C   UNL A   1      35.646  34.206  28.992  1.00  0.00     0.014 A 
ATOM     45  C   UNL A   1      35.184  32.388  31.058  1.00  0.00     0.010 A 
ATOM     46  C   UNL A   1      36.719  33.625  29.645  1.00  0.00     0.010 A 
ATOM     47  C   UNL A   1      36.500  32.720  30.693  1.00  0.00    -0.014 A 
BRANCH  47  48
ATOM     48  C   UNL A   1      37.674  32.158  31.404  1.00  0.00     0.031 A 
ATOM     49  C   UNL A   1      38.458  31.050  30.756  1.00  0.00     0.074 A 
ATOM     50  C   UNL A   1      37.979  32.583  32.646  1.00  0.00     0.049 A 
ATOM     51  N   UNL A   1      39.441  30.338  31.242  1.00  0.00    -0.248 NA
ATOM     52  C   UNL A   1      38.052  30.661  29.395  1.00  0.00     0.031 C 
ATOM     53  C   UNL A   1      37.257  33.618  33.390  1.00  0.00     0.029 A 
ATOM     54  N   UNL A   1      38.972  32.191  33.508  1.00  0.00    -0.354 N 
ATOM     55  C   UNL A   1      39.756  29.410  30.255  1.00  0.00     0.074 A 
ATOM     56  C   UNL A   1      38.805  29.595  29.182  1.00  0.00     0.031 C 
ATOM     57  C   UNL A   1      37.854  33.804  34.579  1.00  0.00     0.029 A 
ATOM     58  C   UNL A   1      38.961  32.862  34.709  1.00  0.00     0.049 A 
ATOM     59  H   UNL A   1      39.631  31.494  33.287  1.00  0.00     0.167 HD
ATOM     60  C   UNL A   1      40.766  28.509  30.233  1.00  0.00     0.034 A 
ATOM     61  C   UNL A   1      39.744  32.721  35.797  1.00  0.00     0.034 A 
ATOM     62  C   UNL A   1      41.713  28.357  31.307  1.00  0.00     0.049 A 
ATOM     63  C   UNL A   1      40.840  31.684  35.765  1.00  0.00     0.074 A 
ATOM     64  C   UNL A   1      42.812  27.520  31.372  1.00  0.00     0.029 A 
ATOM     65  N   UNL A   1      41.669  29.052  32.510  1.00  0.00    -0.354 N 
ATOM     66  N   UNL A   1      41.161  30.851  34.801  1.00  0.00    -0.248 NA
ATOM     67  C   UNL A   1      41.681  31.572  36.962  1.00  0.00     0.031 C 
ATOM     68  C   UNL A   1      43.384  27.650  32.642  1.00  0.00     0.029 A 
ATOM     69  C   UNL A   1      42.698  28.633  33.338  1.00  0.00     0.049 A 
ATOM     70  H   UNL A   1      41.004  29.740  32.741  1.00  0.00     0.167 HD
ATOM     71  C   UNL A   1      42.263  30.138  35.267  1.00  0.00     0.074 A 
ATOM     72  C   UNL A   1      42.558  30.651  36.590  1.00  0.00     0.031 C 
ATOM     73  C   UNL A   1      42.971  29.153  34.658  1.00  0.00     0.034 A 
BRANCH  60  74
ATOM     74  C   UNL A   1      40.875  27.615  29.021  1.00  0.00     0.023 A 
ATOM     75  C   UNL A   1      41.827  27.849  28.013  1.00  0.00     0.031 A 
ATOM     76  C   UNL A   1      39.993  26.534  28.854  1.00  0.00     0.131 A 
ATOM     77  C   UNL A   1      41.823  27.067  26.849  1.00  0.00     0.055 A 
ATOM     78  C   UNL A   1      40.053  25.702  27.734  1.00  0.00     0.041 A 
ATOM     79  F   UNL A   1      39.044  26.276  29.768  1.00  0.00    -0.206 F 
ATOM     80  C   UNL A   1      40.962  25.976  26.716  1.00  0.00     0.022 A 
BRANCH  77  81
ATOM     81  S   UNL A   1      42.851  27.592  25.451  1.00  0.00     0.124 S 
ATOM     82  O   UNL A   1      42.851  26.392  24.618  1.00  0.00    -0.237 OA
ATOM     83  O   UNL A   1      42.112  28.734  24.926  1.00  0.00    -0.237 OA
ATOM     84  O   UNL A   1      44.135  27.912  26.071  1.00  0.00    -0.744 OA
ENDBRANCH  77  81
ENDBRANCH  60  74
BRANCH  61  85
ATOM     85  C   UNL A   1      39.521  33.562  37.010  1.00  0.00     0.023 A 
ATOM     86  C   UNL A   1      40.307  34.698  37.256  1.00  0.00     0.031 A 
ATOM     87  C   UNL A   1      38.550  33.214  37.966  1.00  0.00     0.131 A 
ATOM     88  C   UNL A   1      40.145  35.417  38.452  1.00  0.00     0.055 A 
ATOM     89  C   UNL A   1      38.350  33.967  39.125  1.00  0.00     0.041 A 
ATOM     90  F   UNL A   1      37.768  32.138  37.781  1.00  0.00    -0.206 F 
ATOM     91  C   UNL A   1      39.162  35.068  39.380  1.00  0.00     0.022 A 
BRANCH  88  92
ATOM     92  S   UNL A   1      41.310  36.757  38.824  1.00  0.00     0.124 S 
ATOM     93  O   UNL A   1      41.954  36.957  37.530  1.00  0.00    -0.237 OA
ATOM     94  O   UNL A   1      40.416  37.821  39.267  1.00  0.00    -0.237 OA
ATOM     95  O   UNL A   1      42.163  36.186  39.864  1.00  0.00    -0.744 OA
ENDBRANCH  88  92
ENDBRANCH  61  85
BRANCH  73  96
ATOM     96  C   UNL A   1      44.162  28.601  35.399  1.00  0.00     0.023 A 
ATOM     97  C   UNL A   1      44.035  27.563  36.339  1.00  0.00     0.031 A 
ATOM     98  C   UNL A   1      45.448  29.115  35.150  1.00  0.00     0.131 A 
ATOM     99  C   UNL A   1      45.167  27.108  37.032  1.00  0.00     0.055 A 
ATOM    100  C   UNL A   1      46.578  28.612  35.794  1.00  0.00     0.041 A 
ATOM    101  F   UNL A   1      45.626  30.109  34.264  1.00  0.00    -0.206 F 
ATOM    102  C   UNL A   1      46.440  27.611  36.750  1.00  0.00     0.022 A 
BRANCH  99 103
ATOM    103  S   UNL A   1      44.942  25.909  38.373  1.00  0.00     0.124 S 
ATOM    104  O   UNL A   1      46.260  25.907  39.001  1.00  0.00    -0.237 OA
ATOM    105  O   UNL A   1      43.866  26.510  39.153  1.00  0.00    -0.237 OA
ATOM    106  O   UNL A   1      44.587  24.675  37.675  1.00  0.00    -0.744 OA
ENDBRANCH  99 103
ENDBRANCH  73  96
ENDBRANCH  47  48
ENDBRANCH  39  42
ENDBRANCH  37  38
ENDBRANCH  36  37
ENDBRANCH  35  36
ENDBRANCH   3  35
TORSDOF 24
ENDMDL
