MODEL 1
REMARK VINA RESULT:     -12.5      0.000      0.000
REMARK SMILES O=C(CCC(=O)N1Cc2[nH]cnc2C[C@H]1C(=O)NCc1ccccc1)NCCCNC(=O)c1ccc(-c2c3nc(c(-c4cc(S(=O)(=O)[O-])ccc4F)c4ccc([nH]4)c(-c4cc(S(=O)(=O)[O-])ccc4F)c4nc(c(-c5cc(S(=O)(=O)[O-])ccc5F)c5ccc2[nH]5)C=C4)C=C3)cc1
REMARK SMILES IDX 1 1 2 2 26 3 3 5 4 6 5 7 6 8 7 9 8 10 15 11 9 12 14 13 10 14
REMARK SMILES IDX 13 15 11 16 12 18 16 19 17 20 18 21 19 23 20 24 21 25 25 26
REMARK SMILES IDX 22 27 24 28 23 29 27 30 28 31 29 32 30 33 31 34 32 36 33 37
REMARK SMILES IDX 34 38 95 39 35 40 94 41 36 42 37 43 38 44 88 45 39 46 93 47
REMARK SMILES IDX 87 48 89 49 40 50 92 51 86 52 85 53 41 55 73 56 53 57 72 58
REMARK SMILES IDX 54 59 57 60 71 61 90 62 55 63 56 64 70 66 91 67 58 68 42 69
REMARK SMILES IDX 43 70 51 71 44 72 50 73 52 74 49 75 45 76 46 77 47 78 48 79
REMARK SMILES IDX 74 80 75 81 83 82 76 83 82 84 84 85 81 86 77 87 78 88 79 89
REMARK SMILES IDX 80 90 59 91 60 92 68 93 61 94 67 95 69 96 66 97 62 98 63 99
REMARK SMILES IDX 64 100 65 101
REMARK H PARENT 26 4 10 17 18 22 30 35 89 54 57 65
REMARK Flexibility Score: inf
ROOT
ATOM      1  O   UNL A   1      33.725  21.956  24.231  1.00  0.00    -0.275 OA
ATOM      2  C   UNL A   1      33.626  22.419  25.364  1.00  0.00     0.220 C 
ATOM      3  N   UNL A   1      34.751  22.719  26.139  1.00  0.00    -0.356 N 
ATOM      4  H   UNL A   1      34.649  23.262  26.955  1.00  0.00     0.163 HD
ENDROOT
BRANCH   2   5
ATOM      5  C   UNL A   1      32.259  22.570  26.075  1.00  0.00     0.110 C 
BRANCH   5   6
ATOM      6  C   UNL A   1      31.952  23.960  26.703  1.00  0.00     0.110 C 
BRANCH   6   7
ATOM      7  C   UNL A   1      30.871  24.887  26.064  1.00  0.00     0.224 C 
ATOM      8  O   UNL A   1      29.776  25.008  26.618  1.00  0.00    -0.275 OA
BRANCH   7   9
ATOM      9  N   UNL A   1      31.178  25.616  24.918  1.00  0.00    -0.324 N 
ATOM     10  C   UNL A   1      30.649  25.215  23.574  1.00  0.00     0.176 C 
ATOM     11  C   UNL A   1      32.209  26.662  24.954  1.00  0.00     0.180 C 
ATOM     12  C   UNL A   1      31.691  25.486  22.537  1.00  0.00     0.058 A 
ATOM     13  C   UNL A   1      33.413  26.252  24.127  1.00  0.00     0.093 C 
ATOM     14  N   UNL A   1      31.602  25.513  21.168  1.00  0.00    -0.347 N 
ATOM     15  C   UNL A   1      32.963  25.925  22.785  1.00  0.00     0.066 A 
ATOM     16  C   UNL A   1      32.814  25.955  20.689  1.00  0.00     0.197 A 
ATOM     17  H   UNL A   1      30.817  25.263  20.629  1.00  0.00     0.167 HD
ATOM     18  N   UNL A   1      33.650  26.226  21.660  1.00  0.00    -0.242 NA
BRANCH  11  19
ATOM     19  C   UNL A   1      31.800  28.126  25.187  1.00  0.00     0.243 C 
ATOM     20  O   UNL A   1      31.379  28.812  24.247  1.00  0.00    -0.273 OA
ATOM     21  N   UNL A   1      31.859  28.763  26.378  1.00  0.00    -0.350 N 
ATOM     22  H   UNL A   1      31.176  29.458  26.523  1.00  0.00     0.163 HD
BRANCH  21  23
ATOM     23  C   UNL A   1      32.784  28.565  27.462  1.00  0.00     0.151 C 
BRANCH  23  24
ATOM     24  C   UNL A   1      33.896  29.588  27.486  1.00  0.00    -0.029 A 
ATOM     25  C   UNL A   1      33.553  30.942  27.589  1.00  0.00     0.005 A 
ATOM     26  C   UNL A   1      35.261  29.253  27.435  1.00  0.00     0.005 A 
ATOM     27  C   UNL A   1      34.541  31.926  27.664  1.00  0.00     0.000 A 
ATOM     28  C   UNL A   1      36.249  30.234  27.524  1.00  0.00     0.000 A 
ATOM     29  C   UNL A   1      35.888  31.570  27.640  1.00  0.00     0.000 A 
ENDBRANCH  23  24
ENDBRANCH  21  23
ENDBRANCH  11  19
ENDBRANCH   7   9
ENDBRANCH   6   7
ENDBRANCH   5   6
ENDBRANCH   2   5
BRANCH   3  30
ATOM     30  C   UNL A   1      36.083  22.237  25.755  1.00  0.00     0.117 C 
BRANCH  30  31
ATOM     31  C   UNL A   1      37.170  23.257  25.324  1.00  0.00     0.042 C 
BRANCH  31  32
ATOM     32  C   UNL A   1      37.944  24.078  26.372  1.00  0.00     0.118 C 
BRANCH  32  33
ATOM     33  N   UNL A   1      39.395  24.190  26.172  1.00  0.00    -0.352 N 
ATOM     34  C   UNL A   1      40.229  25.280  26.412  1.00  0.00     0.251 C 
ATOM     35  H   UNL A   1      39.840  23.384  25.823  1.00  0.00     0.163 HD
ATOM     36  O   UNL A   1      41.302  25.380  25.805  1.00  0.00    -0.269 OA
BRANCH  34  37
ATOM     37  C   UNL A   1      39.825  26.338  27.369  1.00  0.00     0.039 A 
ATOM     38  C   UNL A   1      39.398  26.037  28.665  1.00  0.00     0.014 A 
ATOM     39  C   UNL A   1      39.882  27.670  26.965  1.00  0.00     0.014 A 
ATOM     40  C   UNL A   1      39.210  27.080  29.573  1.00  0.00     0.010 A 
ATOM     41  C   UNL A   1      39.797  28.699  27.873  1.00  0.00     0.010 A 
ATOM     42  C   UNL A   1      39.490  28.406  29.189  1.00  0.00    -0.014 A 
BRANCH  42  43
ATOM     43  C   UNL A   1      39.799  29.407  30.208  1.00  0.00     0.031 A 
ATOM     44  C   UNL A   1      38.602  30.221  30.570  1.00  0.00     0.074 A 
ATOM     45  C   UNL A   1      40.908  29.462  30.975  1.00  0.00     0.049 A 
ATOM     46  N   UNL A   1      38.339  31.421  30.181  1.00  0.00    -0.248 NA
ATOM     47  C   UNL A   1      37.467  29.557  31.234  1.00  0.00     0.031 C 
ATOM     48  C   UNL A   1      42.045  28.545  31.025  1.00  0.00     0.029 A 
ATOM     49  N   UNL A   1      41.195  30.347  31.968  1.00  0.00    -0.354 N 
ATOM     50  C   UNL A   1      37.126  31.760  30.769  1.00  0.00     0.074 A 
ATOM     51  C   UNL A   1      36.538  30.514  31.175  1.00  0.00     0.031 C 
ATOM     52  C   UNL A   1      42.781  28.798  32.135  1.00  0.00     0.029 A 
ATOM     53  C   UNL A   1      42.256  29.985  32.792  1.00  0.00     0.049 A 
ATOM     54  H   UNL A   1      40.690  31.183  32.093  1.00  0.00     0.167 HD
ATOM     55  C   UNL A   1      36.847  33.054  31.095  1.00  0.00     0.034 A 
ATOM     56  C   UNL A   1      42.643  30.605  33.943  1.00  0.00     0.034 A 
ATOM     57  C   UNL A   1      37.801  33.951  30.469  1.00  0.00     0.049 A 
ATOM     58  C   UNL A   1      42.127  32.000  33.858  1.00  0.00     0.074 A 
ATOM     59  C   UNL A   1      38.202  34.169  29.162  1.00  0.00     0.029 A 
ATOM     60  N   UNL A   1      38.822  34.458  31.249  1.00  0.00    -0.354 N 
ATOM     61  N   UNL A   1      42.533  32.853  32.954  1.00  0.00    -0.248 NA
ATOM     62  C   UNL A   1      40.808  32.276  34.413  1.00  0.00     0.031 C 
ATOM     63  C   UNL A   1      39.625  34.264  29.233  1.00  0.00     0.029 A 
ATOM     64  C   UNL A   1      39.999  34.223  30.578  1.00  0.00     0.049 A 
ATOM     65  H   UNL A   1      38.725  34.904  32.121  1.00  0.00     0.167 HD
ATOM     66  C   UNL A   1      41.380  33.483  32.509  1.00  0.00     0.074 A 
ATOM     67  C   UNL A   1      40.362  33.152  33.507  1.00  0.00     0.031 C 
ATOM     68  C   UNL A   1      41.271  33.963  31.232  1.00  0.00     0.034 A 
BRANCH  55  69
ATOM     69  C   UNL A   1      35.990  33.496  32.264  1.00  0.00     0.023 A 
ATOM     70  C   UNL A   1      34.986  34.445  31.988  1.00  0.00     0.031 A 
ATOM     71  C   UNL A   1      36.268  33.286  33.634  1.00  0.00     0.131 A 
ATOM     72  C   UNL A   1      34.424  35.224  33.011  1.00  0.00     0.055 A 
ATOM     73  C   UNL A   1      35.654  34.017  34.655  1.00  0.00     0.041 A 
ATOM     74  F   UNL A   1      37.200  32.434  34.069  1.00  0.00    -0.206 F 
ATOM     75  C   UNL A   1      34.754  35.021  34.346  1.00  0.00     0.022 A 
BRANCH  72  76
ATOM     76  S   UNL A   1      33.402  36.641  32.536  1.00  0.00     0.124 S 
ATOM     77  O   UNL A   1      32.089  36.224  33.014  1.00  0.00    -0.237 OA
ATOM     78  O   UNL A   1      34.040  37.729  33.270  1.00  0.00    -0.237 OA
ATOM     79  O   UNL A   1      33.553  36.694  31.084  1.00  0.00    -0.744 OA
ENDBRANCH  72  76
ENDBRANCH  55  69
BRANCH  56  80
ATOM     80  C   UNL A   1      43.132  29.970  35.207  1.00  0.00     0.023 A 
ATOM     81  C   UNL A   1      42.650  28.732  35.694  1.00  0.00     0.031 A 
ATOM     82  C   UNL A   1      44.287  30.483  35.842  1.00  0.00     0.131 A 
ATOM     83  C   UNL A   1      43.315  28.072  36.761  1.00  0.00     0.055 A 
ATOM     84  C   UNL A   1      44.938  29.827  36.890  1.00  0.00     0.041 A 
ATOM     85  F   UNL A   1      44.883  31.604  35.404  1.00  0.00    -0.206 F 
ATOM     86  C   UNL A   1      44.460  28.612  37.349  1.00  0.00     0.022 A 
BRANCH  83  87
ATOM     87  S   UNL A   1      42.755  26.436  37.351  1.00  0.00     0.124 S 
ATOM     88  O   UNL A   1      43.410  26.334  38.649  1.00  0.00    -0.237 OA
ATOM     89  O   UNL A   1      41.305  26.582  37.364  1.00  0.00    -0.237 OA
ATOM     90  O   UNL A   1      43.265  25.513  36.334  1.00  0.00    -0.744 OA
ENDBRANCH  83  87
ENDBRANCH  56  80
BRANCH  68  91
ATOM     91  C   UNL A   1      42.514  34.045  30.361  1.00  0.00     0.023 A 
ATOM     92  C   UNL A   1      42.921  33.072  29.417  1.00  0.00     0.031 A 
ATOM     93  C   UNL A   1      43.242  35.249  30.402  1.00  0.00     0.131 A 
ATOM     94  C   UNL A   1      44.019  33.326  28.568  1.00  0.00     0.055 A 
ATOM     95  C   UNL A   1      44.311  35.506  29.545  1.00  0.00     0.041 A 
ATOM     96  F   UNL A   1      42.898  36.224  31.260  1.00  0.00    -0.206 F 
ATOM     97  C   UNL A   1      44.706  34.542  28.626  1.00  0.00     0.022 A 
BRANCH  94  98
ATOM     98  S   UNL A   1      44.595  32.072  27.375  1.00  0.00     0.124 S 
ATOM     99  O   UNL A   1      46.047  32.137  27.484  1.00  0.00    -0.237 OA
ATOM    100  O   UNL A   1      43.971  30.849  27.872  1.00  0.00    -0.237 OA
ATOM    101  O   UNL A   1      44.060  32.547  26.097  1.00  0.00    -0.744 OA
ENDBRANCH  94  98
ENDBRANCH  68  91
ENDBRANCH  42  43
ENDBRANCH  34  37
ENDBRANCH  32  33
ENDBRANCH  31  32
ENDBRANCH  30  31
ENDBRANCH   3  30
TORSDOF 19
ENDMDL
MODEL 2
REMARK VINA RESULT:     -12.2      4.308     10.269
REMARK SMILES O=C(CCC(=O)N1Cc2[nH]cnc2C[C@H]1C(=O)NCc1ccccc1)NCCCNC(=O)c1ccc(-c2c3nc(c(-c4cc(S(=O)(=O)[O-])ccc4F)c4ccc([nH]4)c(-c4cc(S(=O)(=O)[O-])ccc4F)c4nc(c(-c5cc(S(=O)(=O)[O-])ccc5F)c5ccc2[nH]5)C=C4)C=C3)cc1
REMARK SMILES IDX 1 1 2 2 26 3 3 5 4 6 5 7 6 8 7 9 8 10 15 11 9 12 14 13 10 14
REMARK SMILES IDX 13 15 11 16 12 18 16 19 17 20 18 21 19 23 20 24 21 25 25 26
REMARK SMILES IDX 22 27 24 28 23 29 27 30 28 31 29 32 30 33 31 34 32 36 33 37
REMARK SMILES IDX 34 38 95 39 35 40 94 41 36 42 37 43 38 44 88 45 39 46 93 47
REMARK SMILES IDX 87 48 89 49 40 50 92 51 86 52 85 53 41 55 73 56 53 57 72 58
REMARK SMILES IDX 54 59 57 60 71 61 90 62 55 63 56 64 70 66 91 67 58 68 42 69
REMARK SMILES IDX 43 70 51 71 44 72 50 73 52 74 49 75 45 76 46 77 47 78 48 79
REMARK SMILES IDX 74 80 75 81 83 82 76 83 82 84 84 85 81 86 77 87 78 88 79 89
REMARK SMILES IDX 80 90 59 91 60 92 68 93 61 94 67 95 69 96 66 97 62 98 63 99
REMARK SMILES IDX 64 100 65 101
REMARK H PARENT 26 4 10 17 18 22 30 35 89 54 57 65
REMARK Flexibility Score: inf
ROOT
ATOM      1  O   UNL A   1      34.145  27.730  24.952  1.00  0.00    -0.275 OA
ATOM      2  C   UNL A   1      33.746  28.679  24.281  1.00  0.00     0.220 C 
ATOM      3  N   UNL A   1      33.285  29.858  24.874  1.00  0.00    -0.356 N 
ATOM      4  H   UNL A   1      33.156  30.663  24.319  1.00  0.00     0.163 HD
ENDROOT
BRANCH   2   5
ATOM      5  C   UNL A   1      33.589  28.591  22.743  1.00  0.00     0.110 C 
BRANCH   5   6
ATOM      6  C   UNL A   1      33.429  27.165  22.141  1.00  0.00     0.110 C 
BRANCH   6   7
ATOM      7  C   UNL A   1      32.083  26.392  22.307  1.00  0.00     0.224 C 
ATOM      8  O   UNL A   1      31.082  26.784  21.702  1.00  0.00    -0.275 OA
BRANCH   7   9
ATOM      9  N   UNL A   1      32.044  25.233  23.079  1.00  0.00    -0.324 N 
ATOM     10  C   UNL A   1      30.746  24.669  23.574  1.00  0.00     0.176 C 
ATOM     11  C   UNL A   1      33.282  24.656  23.621  1.00  0.00     0.180 C 
ATOM     12  C   UNL A   1      30.949  24.101  24.942  1.00  0.00     0.058 A 
ATOM     13  C   UNL A   1      33.311  24.783  25.133  1.00  0.00     0.093 C 
ATOM     14  N   UNL A   1      30.147  23.283  25.696  1.00  0.00    -0.347 N 
ATOM     15  C   UNL A   1      32.104  24.180  25.671  1.00  0.00     0.066 A 
ATOM     16  C   UNL A   1      30.861  22.934  26.820  1.00  0.00     0.197 A 
ATOM     17  H   UNL A   1      29.230  22.999  25.474  1.00  0.00     0.167 HD
ATOM     18  N   UNL A   1      32.061  23.458  26.814  1.00  0.00    -0.242 NA
BRANCH  11  19
ATOM     19  C   UNL A   1      34.001  23.537  22.851  1.00  0.00     0.243 C 
ATOM     20  O   UNL A   1      33.716  23.313  21.667  1.00  0.00    -0.273 OA
ATOM     21  N   UNL A   1      34.961  22.738  23.367  1.00  0.00    -0.350 N 
ATOM     22  H   UNL A   1      35.645  22.429  22.730  1.00  0.00     0.163 HD
BRANCH  21  23
ATOM     23  C   UNL A   1      35.120  22.278  24.722  1.00  0.00     0.151 C 
BRANCH  23  24
ATOM     24  C   UNL A   1      36.506  22.526  25.272  1.00  0.00    -0.029 A 
ATOM     25  C   UNL A   1      36.805  23.798  25.776  1.00  0.00     0.005 A 
ATOM     26  C   UNL A   1      37.507  21.539  25.328  1.00  0.00     0.005 A 
ATOM     27  C   UNL A   1      38.053  24.068  26.340  1.00  0.00     0.000 A 
ATOM     28  C   UNL A   1      38.749  21.804  25.904  1.00  0.00     0.000 A 
ATOM     29  C   UNL A   1      39.021  23.068  26.412  1.00  0.00     0.000 A 
ENDBRANCH  23  24
ENDBRANCH  21  23
ENDBRANCH  11  19
ENDBRANCH   7   9
ENDBRANCH   6   7
ENDBRANCH   5   6
ENDBRANCH   2   5
BRANCH   3  30
ATOM     30  C   UNL A   1      32.989  29.915  26.310  1.00  0.00     0.117 C 
BRANCH  30  31
ATOM     31  C   UNL A   1      33.998  30.597  27.272  1.00  0.00     0.042 C 
BRANCH  31  32
ATOM     32  C   UNL A   1      35.196  29.819  27.845  1.00  0.00     0.118 C 
BRANCH  32  33
ATOM     33  N   UNL A   1      35.552  30.105  29.242  1.00  0.00    -0.352 N 
ATOM     34  C   UNL A   1      36.563  29.542  30.017  1.00  0.00     0.251 C 
ATOM     35  H   UNL A   1      35.003  30.788  29.690  1.00  0.00     0.163 HD
ATOM     36  O   UNL A   1      36.468  29.548  31.250  1.00  0.00    -0.269 OA
BRANCH  34  37
ATOM     37  C   UNL A   1      37.741  28.911  29.374  1.00  0.00     0.039 A 
ATOM     38  C   UNL A   1      38.312  29.429  28.210  1.00  0.00     0.014 A 
ATOM     39  C   UNL A   1      38.295  27.772  29.954  1.00  0.00     0.014 A 
ATOM     40  C   UNL A   1      39.523  28.902  27.759  1.00  0.00     0.010 A 
ATOM     41  C   UNL A   1      39.535  27.309  29.581  1.00  0.00     0.010 A 
ATOM     42  C   UNL A   1      40.168  27.891  28.499  1.00  0.00    -0.014 A 
BRANCH  42  43
ATOM     43  C   UNL A   1      41.611  27.698  28.358  1.00  0.00     0.031 A 
ATOM     44  C   UNL A   1      41.935  26.463  27.588  1.00  0.00     0.074 A 
ATOM     45  C   UNL A   1      42.575  28.609  28.607  1.00  0.00     0.049 A 
ATOM     46  N   UNL A   1      42.332  25.335  28.069  1.00  0.00    -0.248 NA
ATOM     47  C   UNL A   1      41.552  26.393  26.167  1.00  0.00     0.031 C 
ATOM     48  C   UNL A   1      42.445  30.003  29.029  1.00  0.00     0.029 A 
ATOM     49  N   UNL A   1      43.918  28.475  28.432  1.00  0.00    -0.354 N 
ATOM     50  C   UNL A   1      42.504  24.490  26.979  1.00  0.00     0.074 A 
ATOM     51  C   UNL A   1      41.777  25.103  25.902  1.00  0.00     0.031 C 
ATOM     52  C   UNL A   1      43.632  30.636  28.866  1.00  0.00     0.029 A 
ATOM     53  C   UNL A   1      44.639  29.664  28.471  1.00  0.00     0.049 A 
ATOM     54  H   UNL A   1      44.347  27.600  28.288  1.00  0.00     0.167 HD
ATOM     55  C   UNL A   1      43.442  23.501  27.005  1.00  0.00     0.034 A 
ATOM     56  C   UNL A   1      45.959  29.828  28.169  1.00  0.00     0.034 A 
ATOM     57  C   UNL A   1      43.932  23.303  28.357  1.00  0.00     0.049 A 
ATOM     58  C   UNL A   1      46.594  28.491  28.343  1.00  0.00     0.074 A 
ATOM     59  C   UNL A   1      43.324  23.016  29.567  1.00  0.00     0.029 A 
ATOM     60  N   UNL A   1      45.159  23.844  28.687  1.00  0.00    -0.354 N 
ATOM     61  N   UNL A   1      46.665  27.885  29.499  1.00  0.00    -0.248 NA
ATOM     62  C   UNL A   1      46.665  27.611  27.184  1.00  0.00     0.031 C 
ATOM     63  C   UNL A   1      43.955  23.893  30.502  1.00  0.00     0.029 A 
ATOM     64  C   UNL A   1      44.983  24.569  29.843  1.00  0.00     0.049 A 
ATOM     65  H   UNL A   1      46.001  23.732  28.189  1.00  0.00     0.167 HD
ATOM     66  C   UNL A   1      46.339  26.563  29.235  1.00  0.00     0.074 A 
ATOM     67  C   UNL A   1      46.437  26.436  27.780  1.00  0.00     0.031 C 
ATOM     68  C   UNL A   1      45.731  25.772  30.171  1.00  0.00     0.034 A 
BRANCH  55  69
ATOM     69  C   UNL A   1      44.206  22.989  25.801  1.00  0.00     0.023 A 
ATOM     70  C   UNL A   1      44.179  21.599  25.581  1.00  0.00     0.031 A 
ATOM     71  C   UNL A   1      45.167  23.705  25.051  1.00  0.00     0.131 A 
ATOM     72  C   UNL A   1      45.150  20.971  24.783  1.00  0.00     0.055 A 
ATOM     73  C   UNL A   1      46.088  23.083  24.203  1.00  0.00     0.041 A 
ATOM     74  F   UNL A   1      45.336  25.027  25.150  1.00  0.00    -0.206 F 
ATOM     75  C   UNL A   1      46.110  21.704  24.094  1.00  0.00     0.022 A 
BRANCH  72  76
ATOM     76  S   UNL A   1      45.249  19.165  24.828  1.00  0.00     0.124 S 
ATOM     77  O   UNL A   1      44.216  18.843  25.806  1.00  0.00    -0.237 OA
ATOM     78  O   UNL A   1      44.956  18.815  23.441  1.00  0.00    -0.237 OA
ATOM     79  O   UNL A   1      46.622  18.913  25.259  1.00  0.00    -0.744 OA
ENDBRANCH  72  76
ENDBRANCH  55  69
BRANCH  56  80
ATOM     80  C   UNL A   1      46.599  30.969  27.443  1.00  0.00     0.023 A 
ATOM     81  C   UNL A   1      45.868  32.042  26.880  1.00  0.00     0.031 A 
ATOM     82  C   UNL A   1      48.001  31.137  27.509  1.00  0.00     0.131 A 
ATOM     83  C   UNL A   1      46.540  33.204  26.417  1.00  0.00     0.055 A 
ATOM     84  C   UNL A   1      48.657  32.284  27.052  1.00  0.00     0.041 A 
ATOM     85  F   UNL A   1      48.785  30.223  28.103  1.00  0.00    -0.206 F 
ATOM     86  C   UNL A   1      47.927  33.328  26.512  1.00  0.00     0.022 A 
BRANCH  83  87
ATOM     87  S   UNL A   1      45.608  34.632  25.759  1.00  0.00     0.124 S 
ATOM     88  O   UNL A   1      45.522  34.318  24.339  1.00  0.00    -0.237 OA
ATOM     89  O   UNL A   1      44.363  34.573  26.515  1.00  0.00    -0.237 OA
ATOM     90  O   UNL A   1      46.463  35.776  26.084  1.00  0.00    -0.744 OA
ENDBRANCH  83  87
ENDBRANCH  56  80
BRANCH  68  91
ATOM     91  C   UNL A   1      45.643  26.257  31.609  1.00  0.00     0.023 A 
ATOM     92  C   UNL A   1      44.505  26.845  32.209  1.00  0.00     0.031 A 
ATOM     93  C   UNL A   1      46.739  25.973  32.445  1.00  0.00     0.131 A 
ATOM     94  C   UNL A   1      44.500  27.128  33.592  1.00  0.00     0.055 A 
ATOM     95  C   UNL A   1      46.722  26.230  33.815  1.00  0.00     0.041 A 
ATOM     96  F   UNL A   1      47.845  25.396  31.946  1.00  0.00    -0.206 F 
ATOM     97  C   UNL A   1      45.602  26.814  34.393  1.00  0.00     0.022 A 
BRANCH  94  98
ATOM     98  S   UNL A   1      43.065  27.929  34.384  1.00  0.00     0.124 S 
ATOM     99  O   UNL A   1      43.629  29.139  34.969  1.00  0.00    -0.237 OA
ATOM    100  O   UNL A   1      42.152  28.127  33.262  1.00  0.00    -0.237 OA
ATOM    101  O   UNL A   1      42.616  26.934  35.361  1.00  0.00    -0.744 OA
ENDBRANCH  94  98
ENDBRANCH  68  91
ENDBRANCH  42  43
ENDBRANCH  34  37
ENDBRANCH  32  33
ENDBRANCH  31  32
ENDBRANCH  30  31
ENDBRANCH   3  30
TORSDOF 19
ENDMDL
MODEL 3
REMARK VINA RESULT:     -12.1      2.667      7.280
REMARK SMILES O=C(CCC(=O)N1Cc2[nH]cnc2C[C@H]1C(=O)NCc1ccccc1)NCCCNC(=O)c1ccc(-c2c3nc(c(-c4cc(S(=O)(=O)[O-])ccc4F)c4ccc([nH]4)c(-c4cc(S(=O)(=O)[O-])ccc4F)c4nc(c(-c5cc(S(=O)(=O)[O-])ccc5F)c5ccc2[nH]5)C=C4)C=C3)cc1
REMARK SMILES IDX 1 1 2 2 26 3 3 5 4 6 5 7 6 8 7 9 8 10 15 11 9 12 14 13 10 14
REMARK SMILES IDX 13 15 11 16 12 18 16 19 17 20 18 21 19 23 20 24 21 25 25 26
REMARK SMILES IDX 22 27 24 28 23 29 27 30 28 31 29 32 30 33 31 34 32 36 33 37
REMARK SMILES IDX 34 38 95 39 35 40 94 41 36 42 37 43 38 44 88 45 39 46 93 47
REMARK SMILES IDX 87 48 89 49 40 50 92 51 86 52 85 53 41 55 73 56 53 57 72 58
REMARK SMILES IDX 54 59 57 60 71 61 90 62 55 63 56 64 70 66 91 67 58 68 42 69
REMARK SMILES IDX 43 70 51 71 44 72 50 73 52 74 49 75 45 76 46 77 47 78 48 79
REMARK SMILES IDX 74 80 75 81 83 82 76 83 82 84 84 85 81 86 77 87 78 88 79 89
REMARK SMILES IDX 80 90 59 91 60 92 68 93 61 94 67 95 69 96 66 97 62 98 63 99
REMARK SMILES IDX 64 100 65 101
REMARK H PARENT 26 4 10 17 18 22 30 35 89 54 57 65
REMARK Flexibility Score: inf
ROOT
ATOM      1  O   UNL A   1      37.273  21.149  25.294  1.00  0.00    -0.275 OA
ATOM      2  C   UNL A   1      37.821  22.241  25.422  1.00  0.00     0.220 C 
ATOM      3  N   UNL A   1      39.177  22.353  25.744  1.00  0.00    -0.356 N 
ATOM      4  H   UNL A   1      39.629  23.224  25.650  1.00  0.00     0.163 HD
ENDROOT
BRANCH   2   5
ATOM      5  C   UNL A   1      37.026  23.570  25.379  1.00  0.00     0.110 C 
BRANCH   5   6
ATOM      6  C   UNL A   1      35.618  23.517  24.720  1.00  0.00     0.110 C 
BRANCH   6   7
ATOM      7  C   UNL A   1      34.336  23.638  25.602  1.00  0.00     0.224 C 
ATOM      8  O   UNL A   1      34.069  24.717  26.135  1.00  0.00    -0.275 OA
BRANCH   7   9
ATOM      9  N   UNL A   1      33.474  22.550  25.720  1.00  0.00    -0.324 N 
ATOM     10  C   UNL A   1      33.886  21.304  26.443  1.00  0.00     0.176 C 
ATOM     11  C   UNL A   1      32.225  22.501  24.947  1.00  0.00     0.180 C 
ATOM     12  C   UNL A   1      33.310  20.116  25.741  1.00  0.00     0.058 A 
ATOM     13  C   UNL A   1      32.287  21.403  23.902  1.00  0.00     0.093 C 
ATOM     14  N   UNL A   1      33.205  18.808  26.140  1.00  0.00    -0.347 N 
ATOM     15  C   UNL A   1      32.611  20.151  24.565  1.00  0.00     0.066 A 
ATOM     16  C   UNL A   1      32.463  18.149  25.186  1.00  0.00     0.197 A 
ATOM     17  H   UNL A   1      33.588  18.415  26.958  1.00  0.00     0.167 HD
ATOM     18  N   UNL A   1      32.079  18.954  24.228  1.00  0.00    -0.242 NA
BRANCH  11  19
ATOM     19  C   UNL A   1      30.915  22.988  25.587  1.00  0.00     0.243 C 
ATOM     20  O   UNL A   1      30.162  22.185  26.154  1.00  0.00    -0.273 OA
ATOM     21  N   UNL A   1      30.487  24.271  25.590  1.00  0.00    -0.350 N 
ATOM     22  H   UNL A   1      29.956  24.539  26.375  1.00  0.00     0.163 HD
BRANCH  21  23
ATOM     23  C   UNL A   1      30.704  25.296  24.604  1.00  0.00     0.151 C 
BRANCH  23  24
ATOM     24  C   UNL A   1      31.021  26.643  25.213  1.00  0.00    -0.029 A 
ATOM     25  C   UNL A   1      31.300  26.706  26.584  1.00  0.00     0.005 A 
ATOM     26  C   UNL A   1      31.076  27.837  24.471  1.00  0.00     0.005 A 
ATOM     27  C   UNL A   1      31.646  27.916  27.188  1.00  0.00     0.000 A 
ATOM     28  C   UNL A   1      31.436  29.043  25.070  1.00  0.00     0.000 A 
ATOM     29  C   UNL A   1      31.723  29.082  26.429  1.00  0.00     0.000 A 
ENDBRANCH  23  24
ENDBRANCH  21  23
ENDBRANCH  11  19
ENDBRANCH   7   9
ENDBRANCH   6   7
ENDBRANCH   5   6
ENDBRANCH   2   5
BRANCH   3  30
ATOM     30  C   UNL A   1      39.938  21.192  26.220  1.00  0.00     0.117 C 
BRANCH  30  31
ATOM     31  C   UNL A   1      40.733  21.292  27.549  1.00  0.00     0.042 C 
BRANCH  31  32
ATOM     32  C   UNL A   1      42.267  21.417  27.547  1.00  0.00     0.118 C 
BRANCH  32  33
ATOM     33  N   UNL A   1      42.857  22.191  26.446  1.00  0.00    -0.352 N 
ATOM     34  C   UNL A   1      42.699  23.542  26.146  1.00  0.00     0.251 C 
ATOM     35  H   UNL A   1      43.446  21.687  25.839  1.00  0.00     0.163 HD
ATOM     36  O   UNL A   1      42.883  23.941  24.990  1.00  0.00    -0.269 OA
BRANCH  34  37
ATOM     37  C   UNL A   1      42.284  24.502  27.197  1.00  0.00     0.039 A 
ATOM     38  C   UNL A   1      43.147  24.888  28.226  1.00  0.00     0.014 A 
ATOM     39  C   UNL A   1      41.000  25.039  27.150  1.00  0.00     0.014 A 
ATOM     40  C   UNL A   1      42.764  25.929  29.074  1.00  0.00     0.010 A 
ATOM     41  C   UNL A   1      40.650  26.130  27.911  1.00  0.00     0.010 A 
ATOM     42  C   UNL A   1      41.543  26.598  28.857  1.00  0.00    -0.014 A 
BRANCH  42  43
ATOM     43  C   UNL A   1      41.363  27.959  29.361  1.00  0.00     0.031 A 
ATOM     44  C   UNL A   1      42.250  28.933  28.662  1.00  0.00     0.074 A 
ATOM     45  C   UNL A   1      40.356  28.404  30.141  1.00  0.00     0.049 A 
ATOM     46  N   UNL A   1      43.345  29.442  29.113  1.00  0.00    -0.248 NA
ATOM     47  C   UNL A   1      42.032  29.187  27.227  1.00  0.00     0.031 C 
ATOM     48  C   UNL A   1      39.186  27.684  30.642  1.00  0.00     0.029 A 
ATOM     49  N   UNL A   1      40.134  29.674  30.577  1.00  0.00    -0.354 N 
ATOM     50  C   UNL A   1      43.816  30.289  28.116  1.00  0.00     0.074 A 
ATOM     51  C   UNL A   1      43.124  29.893  26.921  1.00  0.00     0.031 C 
ATOM     52  C   UNL A   1      38.282  28.572  31.122  1.00  0.00     0.029 A 
ATOM     53  C   UNL A   1      38.865  29.905  31.099  1.00  0.00     0.049 A 
ATOM     54  H   UNL A   1      40.821  30.377  30.526  1.00  0.00     0.167 HD
ATOM     55  C   UNL A   1      44.540  31.401  28.431  1.00  0.00     0.034 A 
ATOM     56  C   UNL A   1      38.336  31.110  31.454  1.00  0.00     0.034 A 
ATOM     57  C   UNL A   1      44.967  31.351  29.817  1.00  0.00     0.049 A 
ATOM     58  C   UNL A   1      39.493  32.012  31.714  1.00  0.00     0.074 A 
ATOM     59  C   UNL A   1      45.688  30.440  30.569  1.00  0.00     0.029 A 
ATOM     60  N   UNL A   1      44.269  32.108  30.738  1.00  0.00    -0.354 N 
ATOM     61  N   UNL A   1      40.346  31.808  32.683  1.00  0.00    -0.248 NA
ATOM     62  C   UNL A   1      40.001  32.809  30.605  1.00  0.00     0.031 C 
ATOM     63  C   UNL A   1      44.966  30.337  31.798  1.00  0.00     0.029 A 
ATOM     64  C   UNL A   1      43.928  31.271  31.774  1.00  0.00     0.049 A 
ATOM     65  H   UNL A   1      44.055  33.066  30.665  1.00  0.00     0.167 HD
ATOM     66  C   UNL A   1      41.592  32.049  32.123  1.00  0.00     0.074 A 
ATOM     67  C   UNL A   1      41.311  32.749  30.868  1.00  0.00     0.031 C 
ATOM     68  C   UNL A   1      42.716  31.405  32.565  1.00  0.00     0.034 A 
BRANCH  55  69
ATOM     69  C   UNL A   1      44.535  32.697  27.647  1.00  0.00     0.023 A 
ATOM     70  C   UNL A   1      43.884  33.794  28.245  1.00  0.00     0.031 A 
ATOM     71  C   UNL A   1      44.853  32.851  26.278  1.00  0.00     0.131 A 
ATOM     72  C   UNL A   1      43.454  34.889  27.478  1.00  0.00     0.055 A 
ATOM     73  C   UNL A   1      44.483  33.976  25.534  1.00  0.00     0.041 A 
ATOM     74  F   UNL A   1      45.456  31.903  25.556  1.00  0.00    -0.206 F 
ATOM     75  C   UNL A   1      43.745  34.986  26.122  1.00  0.00     0.022 A 
BRANCH  72  76
ATOM     76  S   UNL A   1      42.336  36.082  28.253  1.00  0.00     0.124 S 
ATOM     77  O   UNL A   1      42.969  36.269  29.554  1.00  0.00    -0.237 OA
ATOM     78  O   UNL A   1      42.415  37.210  27.329  1.00  0.00    -0.237 OA
ATOM     79  O   UNL A   1      41.055  35.380  28.274  1.00  0.00    -0.744 OA
ENDBRANCH  72  76
ENDBRANCH  55  69
BRANCH  56  80
ATOM     80  C   UNL A   1      36.931  31.588  31.259  1.00  0.00     0.023 A 
ATOM     81  C   UNL A   1      36.198  32.280  32.252  1.00  0.00     0.031 A 
ATOM     82  C   UNL A   1      36.365  31.574  29.963  1.00  0.00     0.131 A 
ATOM     83  C   UNL A   1      34.967  32.910  31.928  1.00  0.00     0.055 A 
ATOM     84  C   UNL A   1      35.154  32.198  29.650  1.00  0.00     0.041 A 
ATOM     85  F   UNL A   1      37.016  31.025  28.925  1.00  0.00    -0.206 F 
ATOM     86  C   UNL A   1      34.454  32.878  30.631  1.00  0.00     0.022 A 
BRANCH  83  87
ATOM     87  S   UNL A   1      34.046  33.874  33.177  1.00  0.00     0.124 S 
ATOM     88  O   UNL A   1      32.872  33.041  33.408  1.00  0.00    -0.237 OA
ATOM     89  O   UNL A   1      35.002  33.968  34.274  1.00  0.00    -0.237 OA
ATOM     90  O   UNL A   1      33.773  35.142  32.497  1.00  0.00    -0.744 OA
ENDBRANCH  83  87
ENDBRANCH  56  80
BRANCH  68  91
ATOM     91  C   UNL A   1      42.654  30.608  33.858  1.00  0.00     0.023 A 
ATOM     92  C   UNL A   1      42.409  29.218  33.954  1.00  0.00     0.031 A 
ATOM     93  C   UNL A   1      43.004  31.285  35.041  1.00  0.00     0.131 A 
ATOM     94  C   UNL A   1      42.514  28.565  35.202  1.00  0.00     0.055 A 
ATOM     95  C   UNL A   1      43.131  30.633  36.267  1.00  0.00     0.041 A 
ATOM     96  F   UNL A   1      43.270  32.602  35.019  1.00  0.00    -0.206 F 
ATOM     97  C   UNL A   1      42.882  29.270  36.352  1.00  0.00     0.022 A 
BRANCH  94  98
ATOM     98  S   UNL A   1      42.157  26.783  35.364  1.00  0.00     0.124 S 
ATOM     99  O   UNL A   1      43.202  26.151  34.570  1.00  0.00    -0.237 OA
ATOM    100  O   UNL A   1      42.235  26.573  36.808  1.00  0.00    -0.237 OA
ATOM    101  O   UNL A   1      40.808  26.655  34.807  1.00  0.00    -0.744 OA
ENDBRANCH  94  98
ENDBRANCH  68  91
ENDBRANCH  42  43
ENDBRANCH  34  37
ENDBRANCH  32  33
ENDBRANCH  31  32
ENDBRANCH  30  31
ENDBRANCH   3  30
TORSDOF 19
ENDMDL
