MODEL 1
REMARK VINA RESULT:     -11.9      0.000      0.000
REMARK SMILES C[C@@H](NC(=O)c1cc(C(=O)NCCCNC(=O)c2ccc(-c3c4nc(c(-c5cc(S(=O)(=O)[O-])ccc5F)c5ccc([nH]5)c(-c5cc(S(=O)(=O)[O-])ccc5F)c5nc(c(-c6cc(S(=O)(=O)[O-])ccc6F)c6ccc3[nH]6)C=C5)C=C4)cc2)n(C)n1)c1ccccc1
REMARK SMILES IDX 13 1 12 2 11 3 9 4 10 5 8 7 6 8 7 9 83 10 81 11 82 12 4 13
REMARK SMILES IDX 3 14 5 16 2 17 1 18 84 19 85 20 89 21 86 22 88 23 87 24
REMARK SMILES IDX 14 25 15 26 16 27 17 29 18 30 19 31 80 32 20 33 79 34 21 35
REMARK SMILES IDX 22 36 23 37 73 38 24 39 78 40 72 41 74 42 25 43 77 44 71 45
REMARK SMILES IDX 70 46 26 48 58 49 38 50 57 51 39 52 42 53 56 54 75 55 40 56
REMARK SMILES IDX 41 57 55 59 76 60 43 61 27 62 28 63 36 64 29 65 35 66 37 67
REMARK SMILES IDX 34 68 30 69 31 70 32 71 33 72 59 73 60 74 68 75 61 76 67 77
REMARK SMILES IDX 69 78 66 79 62 80 63 81 64 82 65 83 44 84 45 85 53 86 46 87
REMARK SMILES IDX 52 88 54 89 51 90 47 91 48 92 49 93 50 94
REMARK H PARENT 11 6 3 15 15 28 74 47 42 58
REMARK Flexibility Score: inf
ROOT
ATOM      1  C   UNL A   1      31.086  31.729  25.880  1.00  0.00     0.042 C 
ENDROOT
BRANCH   1   2
ATOM      2  C   UNL A   1      31.005  30.326  25.273  1.00  0.00     0.118 C 
BRANCH   2   3
ATOM      3  N   UNL A   1      32.308  29.813  24.924  1.00  0.00    -0.351 N 
ATOM      4  C   UNL A   1      32.803  28.604  24.529  1.00  0.00     0.269 C 
ATOM      5  O   UNL A   1      33.973  28.677  24.130  1.00  0.00    -0.268 OA
ATOM      6  H   UNL A   1      33.009  30.502  24.987  1.00  0.00     0.163 HD
BRANCH   4   7
ATOM      7  C   UNL A   1      32.112  27.328  24.529  1.00  0.00     0.126 A 
ATOM      8  C   UNL A   1      31.514  25.305  25.328  1.00  0.00     0.151 A 
ATOM      9  C   UNL A   1      32.522  26.281  25.364  1.00  0.00     0.069 A 
ATOM     10  N   UNL A   1      30.657  25.577  24.339  1.00  0.00    -0.167 NA
ATOM     11  N   UNL A   1      30.946  26.845  23.977  1.00  0.00    -0.262 N 
ATOM     12  C   UNL A   1      29.888  27.495  23.247  1.00  0.00     0.174 C 
BRANCH   8  13
ATOM     13  C   UNL A   1      31.284  24.158  26.204  1.00  0.00     0.272 C 
ATOM     14  N   UNL A   1      32.085  23.040  26.059  1.00  0.00    -0.344 N 
ATOM     15  H   UNL A   1      32.176  22.513  26.885  1.00  0.00     0.164 HD
ATOM     16  O   UNL A   1      30.486  24.175  27.127  1.00  0.00    -0.267 OA
BRANCH  14  17
ATOM     17  C   UNL A   1      32.822  22.483  24.925  1.00  0.00     0.109 C 
ATOM     18  C   UNL A   1      32.685  20.954  24.950  1.00  0.00     0.036 C 
BRANCH  17  19
ATOM     19  C   UNL A   1      34.293  22.823  24.781  1.00  0.00    -0.026 A 
ATOM     20  C   UNL A   1      34.980  23.349  25.892  1.00  0.00     0.006 A 
ATOM     21  C   UNL A   1      34.986  22.690  23.571  1.00  0.00     0.006 A 
ATOM     22  C   UNL A   1      36.329  23.693  25.806  1.00  0.00     0.000 A 
ATOM     23  C   UNL A   1      36.340  23.037  23.488  1.00  0.00     0.000 A 
ATOM     24  C   UNL A   1      37.012  23.530  24.605  1.00  0.00     0.000 A 
ENDBRANCH  17  19
ENDBRANCH  14  17
ENDBRANCH   8  13
ENDBRANCH   4   7
ENDBRANCH   2   3
ENDBRANCH   1   2
BRANCH   1  25
ATOM     25  C   UNL A   1      32.251  31.932  26.848  1.00  0.00     0.118 C 
BRANCH  25  26
ATOM     26  N   UNL A   1      32.395  33.324  27.233  1.00  0.00    -0.352 N 
ATOM     27  C   UNL A   1      33.253  33.929  28.115  1.00  0.00     0.251 C 
ATOM     28  H   UNL A   1      31.771  33.938  26.784  1.00  0.00     0.163 HD
ATOM     29  O   UNL A   1      32.987  35.072  28.483  1.00  0.00    -0.269 OA
BRANCH  27  30
ATOM     30  C   UNL A   1      34.473  33.255  28.622  1.00  0.00     0.039 A 
ATOM     31  C   UNL A   1      34.323  32.286  29.620  1.00  0.00     0.014 A 
ATOM     32  C   UNL A   1      35.759  33.629  28.218  1.00  0.00     0.014 A 
ATOM     33  C   UNL A   1      35.447  31.684  30.192  1.00  0.00     0.010 A 
ATOM     34  C   UNL A   1      36.880  32.979  28.742  1.00  0.00     0.010 A 
ATOM     35  C   UNL A   1      36.738  32.013  29.749  1.00  0.00    -0.014 A 
BRANCH  35  36
ATOM     36  C   UNL A   1      37.932  31.371  30.361  1.00  0.00     0.031 A 
ATOM     37  C   UNL A   1      38.352  31.722  31.766  1.00  0.00     0.074 A 
ATOM     38  C   UNL A   1      38.640  30.472  29.650  1.00  0.00     0.049 A 
ATOM     39  N   UNL A   1      39.360  31.270  32.467  1.00  0.00    -0.248 NA
ATOM     40  C   UNL A   1      37.540  32.730  32.465  1.00  0.00     0.031 C 
ATOM     41  C   UNL A   1      38.347  30.068  28.273  1.00  0.00     0.029 A 
ATOM     42  N   UNL A   1      39.743  29.727  29.985  1.00  0.00    -0.354 N 
ATOM     43  C   UNL A   1      39.304  31.932  33.689  1.00  0.00     0.074 A 
ATOM     44  C   UNL A   1      38.202  32.868  33.605  1.00  0.00     0.031 C 
ATOM     45  C   UNL A   1      39.224  29.123  27.896  1.00  0.00     0.029 A 
ATOM     46  C   UNL A   1      40.166  28.882  28.984  1.00  0.00     0.049 A 
ATOM     47  H   UNL A   1      40.190  29.791  30.859  1.00  0.00     0.167 HD
ATOM     48  C   UNL A   1      40.078  31.757  34.790  1.00  0.00     0.034 A 
ATOM     49  C   UNL A   1      41.194  28.011  28.948  1.00  0.00     0.034 A 
ATOM     50  C   UNL A   1      41.173  30.820  34.862  1.00  0.00     0.049 A 
ATOM     51  C   UNL A   1      42.059  27.860  30.174  1.00  0.00     0.074 A 
ATOM     52  C   UNL A   1      42.017  30.554  35.928  1.00  0.00     0.029 A 
ATOM     53  N   UNL A   1      41.578  29.990  33.824  1.00  0.00    -0.354 N 
ATOM     54  N   UNL A   1      41.971  28.474  31.332  1.00  0.00    -0.248 NA
ATOM     55  C   UNL A   1      43.153  26.884  30.093  1.00  0.00     0.031 C 
ATOM     56  C   UNL A   1      42.962  29.606  35.519  1.00  0.00     0.029 A 
ATOM     57  C   UNL A   1      42.668  29.226  34.219  1.00  0.00     0.049 A 
ATOM     58  H   UNL A   1      41.154  29.948  32.937  1.00  0.00     0.167 HD
ATOM     59  C   UNL A   1      42.976  27.930  32.127  1.00  0.00     0.074 A 
ATOM     60  C   UNL A   1      43.641  26.924  31.323  1.00  0.00     0.031 C 
ATOM     61  C   UNL A   1      43.322  28.232  33.404  1.00  0.00     0.034 A 
BRANCH  48  62
ATOM     62  C   UNL A   1      39.770  32.613  35.998  1.00  0.00     0.023 A 
ATOM     63  C   UNL A   1      38.874  32.180  36.992  1.00  0.00     0.031 A 
ATOM     64  C   UNL A   1      40.360  33.878  36.151  1.00  0.00     0.131 A 
ATOM     65  C   UNL A   1      38.539  33.034  38.054  1.00  0.00     0.055 A 
ATOM     66  C   UNL A   1      40.085  34.691  37.254  1.00  0.00     0.041 A 
ATOM     67  F   UNL A   1      41.210  34.354  35.227  1.00  0.00    -0.206 F 
ATOM     68  C   UNL A   1      39.158  34.278  38.206  1.00  0.00     0.022 A 
BRANCH  65  69
ATOM     69  S   UNL A   1      37.183  32.553  39.158  1.00  0.00     0.124 S 
ATOM     70  O   UNL A   1      37.428  33.411  40.315  1.00  0.00    -0.237 OA
ATOM     71  O   UNL A   1      36.001  32.872  38.365  1.00  0.00    -0.237 OA
ATOM     72  O   UNL A   1      37.416  31.129  39.387  1.00  0.00    -0.744 OA
ENDBRANCH  65  69
ENDBRANCH  48  62
BRANCH  49  73
ATOM     73  C   UNL A   1      41.470  27.207  27.723  1.00  0.00     0.023 A 
ATOM     74  C   UNL A   1      41.187  25.832  27.686  1.00  0.00     0.031 A 
ATOM     75  C   UNL A   1      42.084  27.784  26.597  1.00  0.00     0.131 A 
ATOM     76  C   UNL A   1      41.575  25.068  26.575  1.00  0.00     0.055 A 
ATOM     77  C   UNL A   1      42.413  27.030  25.469  1.00  0.00     0.041 A 
ATOM     78  F   UNL A   1      42.371  29.096  26.577  1.00  0.00    -0.206 F 
ATOM     79  C   UNL A   1      42.175  25.658  25.461  1.00  0.00     0.022 A 
BRANCH  76  80
ATOM     80  S   UNL A   1      41.385  23.265  26.655  1.00  0.00     0.124 S 
ATOM     81  O   UNL A   1      42.185  22.831  25.515  1.00  0.00    -0.237 OA
ATOM     82  O   UNL A   1      41.932  22.964  27.974  1.00  0.00    -0.237 OA
ATOM     83  O   UNL A   1      39.944  23.069  26.518  1.00  0.00    -0.744 OA
ENDBRANCH  76  80
ENDBRANCH  49  73
BRANCH  61  84
ATOM     84  C   UNL A   1      44.440  27.421  34.014  1.00  0.00     0.023 A 
ATOM     85  C   UNL A   1      44.201  26.176  34.624  1.00  0.00     0.031 A 
ATOM     86  C   UNL A   1      45.754  27.921  34.023  1.00  0.00     0.131 A 
ATOM     87  C   UNL A   1      45.246  25.508  35.281  1.00  0.00     0.055 A 
ATOM     88  C   UNL A   1      46.802  27.222  34.622  1.00  0.00     0.041 A 
ATOM     89  F   UNL A   1      46.037  29.104  33.454  1.00  0.00    -0.206 F 
ATOM     90  C   UNL A   1      46.548  26.017  35.271  1.00  0.00     0.022 A 
BRANCH  87  91
ATOM     91  S   UNL A   1      44.856  24.023  36.246  1.00  0.00     0.124 S 
ATOM     92  O   UNL A   1      43.576  23.616  35.675  1.00  0.00    -0.237 OA
ATOM     93  O   UNL A   1      45.990  23.154  35.950  1.00  0.00    -0.237 OA
ATOM     94  O   UNL A   1      44.794  24.515  37.621  1.00  0.00    -0.744 OA
ENDBRANCH  87  91
ENDBRANCH  61  84
ENDBRANCH  35  36
ENDBRANCH  27  30
ENDBRANCH  25  26
ENDBRANCH   1  25
TORSDOF 16
ENDMDL
MODEL 2
REMARK VINA RESULT:     -11.9      2.313      3.167
REMARK SMILES C[C@@H](NC(=O)c1cc(C(=O)NCCCNC(=O)c2ccc(-c3c4nc(c(-c5cc(S(=O)(=O)[O-])ccc5F)c5ccc([nH]5)c(-c5cc(S(=O)(=O)[O-])ccc5F)c5nc(c(-c6cc(S(=O)(=O)[O-])ccc6F)c6ccc3[nH]6)C=C5)C=C4)cc2)n(C)n1)c1ccccc1
REMARK SMILES IDX 13 1 12 2 11 3 9 4 10 5 8 7 6 8 7 9 83 10 81 11 82 12 4 13
REMARK SMILES IDX 3 14 5 16 2 17 1 18 84 19 85 20 89 21 86 22 88 23 87 24
REMARK SMILES IDX 14 25 15 26 16 27 17 29 18 30 19 31 80 32 20 33 79 34 21 35
REMARK SMILES IDX 22 36 23 37 73 38 24 39 78 40 72 41 74 42 25 43 77 44 71 45
REMARK SMILES IDX 70 46 26 48 58 49 38 50 57 51 39 52 42 53 56 54 75 55 40 56
REMARK SMILES IDX 41 57 55 59 76 60 43 61 27 62 28 63 36 64 29 65 35 66 37 67
REMARK SMILES IDX 34 68 30 69 31 70 32 71 33 72 59 73 60 74 68 75 61 76 67 77
REMARK SMILES IDX 69 78 66 79 62 80 63 81 64 82 65 83 44 84 45 85 53 86 46 87
REMARK SMILES IDX 52 88 54 89 51 90 47 91 48 92 49 93 50 94
REMARK H PARENT 11 6 3 15 15 28 74 47 42 58
REMARK Flexibility Score: inf
ROOT
ATOM      1  C   UNL A   1      33.175  28.122  25.429  1.00  0.00     0.042 C 
ENDROOT
BRANCH   1   2
ATOM      2  C   UNL A   1      33.610  26.658  25.320  1.00  0.00     0.118 C 
BRANCH   2   3
ATOM      3  N   UNL A   1      33.453  26.147  23.980  1.00  0.00    -0.351 N 
ATOM      4  C   UNL A   1      32.817  25.081  23.414  1.00  0.00     0.269 C 
ATOM      5  O   UNL A   1      32.775  25.152  22.178  1.00  0.00    -0.268 OA
ATOM      6  H   UNL A   1      33.917  26.703  23.312  1.00  0.00     0.163 HD
BRANCH   4   7
ATOM      7  C   UNL A   1      32.216  23.950  24.098  1.00  0.00     0.126 A 
ATOM      8  C   UNL A   1      32.111  21.849  24.913  1.00  0.00     0.151 A 
ATOM      9  C   UNL A   1      32.719  22.653  23.936  1.00  0.00     0.069 A 
ATOM     10  N   UNL A   1      31.097  22.512  25.476  1.00  0.00    -0.167 NA
ATOM     11  N   UNL A   1      31.268  23.792  25.085  1.00  0.00    -0.262 N 
ATOM     12  C   UNL A   1      30.569  24.749  25.905  1.00  0.00     0.174 C 
BRANCH   8  13
ATOM     13  C   UNL A   1      32.462  20.509  25.380  1.00  0.00     0.272 C 
ATOM     14  N   UNL A   1      33.285  20.385  26.484  1.00  0.00    -0.344 N 
ATOM     15  H   UNL A   1      33.149  19.547  26.981  1.00  0.00     0.164 HD
ATOM     16  O   UNL A   1      31.984  19.493  24.904  1.00  0.00    -0.267 OA
BRANCH  14  17
ATOM     17  C   UNL A   1      34.316  21.247  27.060  1.00  0.00     0.109 C 
ATOM     18  C   UNL A   1      33.638  22.318  27.926  1.00  0.00     0.036 C 
BRANCH  17  19
ATOM     19  C   UNL A   1      35.286  21.941  26.124  1.00  0.00    -0.026 A 
ATOM     20  C   UNL A   1      35.416  23.341  26.197  1.00  0.00     0.006 A 
ATOM     21  C   UNL A   1      36.019  21.255  25.147  1.00  0.00     0.006 A 
ATOM     22  C   UNL A   1      36.283  24.029  25.347  1.00  0.00     0.000 A 
ATOM     23  C   UNL A   1      36.887  21.948  24.295  1.00  0.00     0.000 A 
ATOM     24  C   UNL A   1      37.025  23.331  24.399  1.00  0.00     0.000 A 
ENDBRANCH  17  19
ENDBRANCH  14  17
ENDBRANCH   8  13
ENDBRANCH   4   7
ENDBRANCH   2   3
ENDBRANCH   1   2
BRANCH   1  25
ATOM     25  C   UNL A   1      33.007  28.625  26.862  1.00  0.00     0.118 C 
BRANCH  25  26
ATOM     26  N   UNL A   1      33.178  30.063  26.952  1.00  0.00    -0.352 N 
ATOM     27  C   UNL A   1      34.139  30.819  27.573  1.00  0.00     0.251 C 
ATOM     28  H   UNL A   1      32.485  30.586  26.487  1.00  0.00     0.163 HD
ATOM     29  O   UNL A   1      33.905  32.013  27.751  1.00  0.00    -0.269 OA
BRANCH  27  30
ATOM     30  C   UNL A   1      35.430  30.244  28.021  1.00  0.00     0.039 A 
ATOM     31  C   UNL A   1      35.500  29.711  29.313  1.00  0.00     0.014 A 
ATOM     32  C   UNL A   1      36.592  30.316  27.246  1.00  0.00     0.014 A 
ATOM     33  C   UNL A   1      36.715  29.237  29.814  1.00  0.00     0.010 A 
ATOM     34  C   UNL A   1      37.793  29.780  27.722  1.00  0.00     0.010 A 
ATOM     35  C   UNL A   1      37.872  29.252  29.019  1.00  0.00    -0.014 A 
BRANCH  35  36
ATOM     36  C   UNL A   1      39.164  28.747  29.557  1.00  0.00     0.031 A 
ATOM     37  C   UNL A   1      39.777  29.372  30.784  1.00  0.00     0.074 A 
ATOM     38  C   UNL A   1      39.786  27.724  28.938  1.00  0.00     0.049 A 
ATOM     39  N   UNL A   1      40.893  29.071  31.398  1.00  0.00    -0.248 NA
ATOM     40  C   UNL A   1      39.047  30.498  31.385  1.00  0.00     0.031 C 
ATOM     41  C   UNL A   1      39.303  27.052  27.729  1.00  0.00     0.029 A 
ATOM     42  N   UNL A   1      40.949  27.062  29.241  1.00  0.00    -0.354 N 
ATOM     43  C   UNL A   1      40.998  29.964  32.460  1.00  0.00     0.074 A 
ATOM     44  C   UNL A   1      39.866  30.862  32.361  1.00  0.00     0.031 C 
ATOM     45  C   UNL A   1      40.145  26.052  27.417  1.00  0.00     0.029 A 
ATOM     46  C   UNL A   1      41.245  26.035  28.375  1.00  0.00     0.049 A 
ATOM     47  H   UNL A   1      41.520  27.300  30.008  1.00  0.00     0.167 HD
ATOM     48  C   UNL A   1      41.933  30.013  33.443  1.00  0.00     0.034 A 
ATOM     49  C   UNL A   1      42.283  25.176  28.355  1.00  0.00     0.034 A 
ATOM     50  C   UNL A   1      43.056  29.111  33.531  1.00  0.00     0.049 A 
ATOM     51  C   UNL A   1      43.326  25.274  29.440  1.00  0.00     0.074 A 
ATOM     52  C   UNL A   1      44.057  29.065  34.487  1.00  0.00     0.029 A 
ATOM     53  N   UNL A   1      43.327  28.090  32.628  1.00  0.00    -0.354 N 
ATOM     54  N   UNL A   1      43.392  26.107  30.454  1.00  0.00    -0.248 NA
ATOM     55  C   UNL A   1      44.425  24.302  29.388  1.00  0.00     0.031 C 
ATOM     56  C   UNL A   1      44.959  28.055  34.134  1.00  0.00     0.029 A 
ATOM     57  C   UNL A   1      44.487  27.422  32.995  1.00  0.00     0.049 A 
ATOM     58  H   UNL A   1      42.777  27.871  31.841  1.00  0.00     0.167 HD
ATOM     59  C   UNL A   1      44.521  25.734  31.178  1.00  0.00     0.074 A 
ATOM     60  C   UNL A   1      45.090  24.588  30.497  1.00  0.00     0.031 C 
ATOM     61  C   UNL A   1      45.043  26.285  32.303  1.00  0.00     0.034 A 
BRANCH  48  62
ATOM     62  C   UNL A   1      41.781  31.093  34.490  1.00  0.00     0.023 A 
ATOM     63  C   UNL A   1      40.717  31.077  35.409  1.00  0.00     0.031 A 
ATOM     64  C   UNL A   1      42.696  32.157  34.563  1.00  0.00     0.131 A 
ATOM     65  C   UNL A   1      40.552  32.141  36.310  1.00  0.00     0.055 A 
ATOM     66  C   UNL A   1      42.572  33.171  35.516  1.00  0.00     0.041 A 
ATOM     67  F   UNL A   1      43.722  32.237  33.701  1.00  0.00    -0.206 F 
ATOM     68  C   UNL A   1      41.487  33.176  36.387  1.00  0.00     0.022 A 
BRANCH  65  69
ATOM     69  S   UNL A   1      39.025  32.221  37.285  1.00  0.00     0.124 S 
ATOM     70  O   UNL A   1      39.550  32.336  38.643  1.00  0.00    -0.237 OA
ATOM     71  O   UNL A   1      38.370  33.410  36.751  1.00  0.00    -0.237 OA
ATOM     72  O   UNL A   1      38.360  30.955  36.987  1.00  0.00    -0.744 OA
ENDBRANCH  65  69
ENDBRANCH  48  62
BRANCH  49  73
ATOM     73  C   UNL A   1      42.399  24.143  27.286  1.00  0.00     0.023 A 
ATOM     74  C   UNL A   1      41.611  22.981  27.318  1.00  0.00     0.031 A 
ATOM     75  C   UNL A   1      43.347  24.267  26.254  1.00  0.00     0.131 A 
ATOM     76  C   UNL A   1      41.827  21.962  26.378  1.00  0.00     0.055 A 
ATOM     77  C   UNL A   1      43.516  23.276  25.285  1.00  0.00     0.041 A 
ATOM     78  F   UNL A   1      44.123  25.360  26.172  1.00  0.00    -0.206 F 
ATOM     79  C   UNL A   1      42.765  22.106  25.354  1.00  0.00     0.022 A 
BRANCH  76  80
ATOM     80  S   UNL A   1      40.939  20.393  26.582  1.00  0.00     0.124 S 
ATOM     81  O   UNL A   1      41.129  20.126  28.003  1.00  0.00    -0.237 OA
ATOM     82  O   UNL A   1      39.586  20.759  26.173  1.00  0.00    -0.237 OA
ATOM     83  O   UNL A   1      41.639  19.486  25.676  1.00  0.00    -0.744 OA
ENDBRANCH  76  80
ENDBRANCH  49  73
BRANCH  61  84
ATOM     84  C   UNL A   1      46.265  25.614  32.884  1.00  0.00     0.023 A 
ATOM     85  C   UNL A   1      46.159  24.581  33.831  1.00  0.00     0.031 A 
ATOM     86  C   UNL A   1      47.551  26.045  32.515  1.00  0.00     0.131 A 
ATOM     87  C   UNL A   1      47.316  24.062  34.432  1.00  0.00     0.055 A 
ATOM     88  C   UNL A   1      48.701  25.481  33.069  1.00  0.00     0.041 A 
ATOM     89  F   UNL A   1      47.710  27.028  31.614  1.00  0.00    -0.206 F 
ATOM     90  C   UNL A   1      48.587  24.497  34.046  1.00  0.00     0.022 A 
BRANCH  87  91
ATOM     91  S   UNL A   1      47.132  22.895  35.807  1.00  0.00     0.124 S 
ATOM     92  O   UNL A   1      47.068  21.613  35.112  1.00  0.00    -0.237 OA
ATOM     93  O   UNL A   1      48.341  23.138  36.585  1.00  0.00    -0.237 OA
ATOM     94  O   UNL A   1      45.887  23.315  36.449  1.00  0.00    -0.744 OA
ENDBRANCH  87  91
ENDBRANCH  61  84
ENDBRANCH  35  36
ENDBRANCH  27  30
ENDBRANCH  25  26
ENDBRANCH   1  25
TORSDOF 16
ENDMDL
MODEL 3
REMARK VINA RESULT:     -11.9      1.862      2.811
REMARK SMILES C[C@@H](NC(=O)c1cc(C(=O)NCCCNC(=O)c2ccc(-c3c4nc(c(-c5cc(S(=O)(=O)[O-])ccc5F)c5ccc([nH]5)c(-c5cc(S(=O)(=O)[O-])ccc5F)c5nc(c(-c6cc(S(=O)(=O)[O-])ccc6F)c6ccc3[nH]6)C=C5)C=C4)cc2)n(C)n1)c1ccccc1
REMARK SMILES IDX 13 1 12 2 11 3 9 4 10 5 8 7 6 8 7 9 83 10 81 11 82 12 4 13
REMARK SMILES IDX 3 14 5 16 2 17 1 18 84 19 85 20 89 21 86 22 88 23 87 24
REMARK SMILES IDX 14 25 15 26 16 27 17 29 18 30 19 31 80 32 20 33 79 34 21 35
REMARK SMILES IDX 22 36 23 37 73 38 24 39 78 40 72 41 74 42 25 43 77 44 71 45
REMARK SMILES IDX 70 46 26 48 58 49 38 50 57 51 39 52 42 53 56 54 75 55 40 56
REMARK SMILES IDX 41 57 55 59 76 60 43 61 27 62 28 63 36 64 29 65 35 66 37 67
REMARK SMILES IDX 34 68 30 69 31 70 32 71 33 72 59 73 60 74 68 75 61 76 67 77
REMARK SMILES IDX 69 78 66 79 62 80 63 81 64 82 65 83 44 84 45 85 53 86 46 87
REMARK SMILES IDX 52 88 54 89 51 90 47 91 48 92 49 93 50 94
REMARK H PARENT 11 6 3 15 15 28 74 47 42 58
REMARK Flexibility Score: inf
ROOT
ATOM      1  C   UNL A   1      32.209  28.552  26.874  1.00  0.00     0.042 C 
ENDROOT
BRANCH   1   2
ATOM      2  C   UNL A   1      31.190  27.802  26.011  1.00  0.00     0.118 C 
BRANCH   2   3
ATOM      3  N   UNL A   1      30.930  26.476  26.517  1.00  0.00    -0.351 N 
ATOM      4  C   UNL A   1      31.587  25.279  26.492  1.00  0.00     0.269 C 
ATOM      5  O   UNL A   1      31.077  24.441  27.247  1.00  0.00    -0.268 OA
ATOM      6  H   UNL A   1      30.070  26.420  26.994  1.00  0.00     0.163 HD
BRANCH   4   7
ATOM      7  C   UNL A   1      32.762  24.937  25.712  1.00  0.00     0.126 A 
ATOM      8  C   UNL A   1      34.596  23.747  25.157  1.00  0.00     0.151 A 
ATOM      9  C   UNL A   1      33.751  24.089  26.224  1.00  0.00     0.069 A 
ATOM     10  N   UNL A   1      34.334  24.528  24.105  1.00  0.00    -0.167 NA
ATOM     11  N   UNL A   1      33.158  25.120  24.405  1.00  0.00    -0.262 N 
ATOM     12  C   UNL A   1      32.469  25.657  23.259  1.00  0.00     0.174 C 
BRANCH   8  13
ATOM     13  C   UNL A   1      35.603  22.692  25.055  1.00  0.00     0.272 C 
ATOM     14  N   UNL A   1      35.190  21.406  24.760  1.00  0.00    -0.344 N 
ATOM     15  H   UNL A   1      35.879  20.867  24.308  1.00  0.00     0.164 HD
ATOM     16  O   UNL A   1      36.802  22.909  25.119  1.00  0.00    -0.267 OA
BRANCH  14  17
ATOM     17  C   UNL A   1      33.937  20.685  24.984  1.00  0.00     0.109 C 
ATOM     18  C   UNL A   1      33.666  20.623  26.493  1.00  0.00     0.036 C 
BRANCH  17  19
ATOM     19  C   UNL A   1      33.797  19.285  24.420  1.00  0.00    -0.026 A 
ATOM     20  C   UNL A   1      34.843  18.364  24.624  1.00  0.00     0.006 A 
ATOM     21  C   UNL A   1      32.695  18.882  23.655  1.00  0.00     0.006 A 
ATOM     22  C   UNL A   1      34.769  17.067  24.112  1.00  0.00     0.000 A 
ATOM     23  C   UNL A   1      32.624  17.581  23.143  1.00  0.00     0.000 A 
ATOM     24  C   UNL A   1      33.656  16.673  23.377  1.00  0.00     0.000 A 
ENDBRANCH  17  19
ENDBRANCH  14  17
ENDBRANCH   8  13
ENDBRANCH   4   7
ENDBRANCH   2   3
ENDBRANCH   1   2
BRANCH   1  25
ATOM     25  C   UNL A   1      33.169  29.442  26.085  1.00  0.00     0.118 C 
BRANCH  25  26
ATOM     26  N   UNL A   1      33.075  30.831  26.494  1.00  0.00    -0.352 N 
ATOM     27  C   UNL A   1      33.797  31.551  27.410  1.00  0.00     0.251 C 
ATOM     28  H   UNL A   1      32.372  31.345  26.034  1.00  0.00     0.163 HD
ATOM     29  O   UNL A   1      33.338  32.629  27.785  1.00  0.00    -0.269 OA
BRANCH  27  30
ATOM     30  C   UNL A   1      35.095  31.074  27.946  1.00  0.00     0.039 A 
ATOM     31  C   UNL A   1      35.144  29.795  28.513  1.00  0.00     0.014 A 
ATOM     32  C   UNL A   1      36.229  31.891  28.002  1.00  0.00     0.014 A 
ATOM     33  C   UNL A   1      36.319  29.333  29.108  1.00  0.00     0.010 A 
ATOM     34  C   UNL A   1      37.424  31.403  28.537  1.00  0.00     0.010 A 
ATOM     35  C   UNL A   1      37.478  30.126  29.115  1.00  0.00    -0.014 A 
BRANCH  35  36
ATOM     36  C   UNL A   1      38.728  29.631  29.750  1.00  0.00     0.031 A 
ATOM     37  C   UNL A   1      39.163  30.161  31.093  1.00  0.00     0.074 A 
ATOM     38  C   UNL A   1      39.473  28.704  29.117  1.00  0.00     0.049 A 
ATOM     39  N   UNL A   1      40.218  29.853  31.804  1.00  0.00    -0.248 NA
ATOM     40  C   UNL A   1      38.307  31.188  31.706  1.00  0.00     0.031 C 
ATOM     41  C   UNL A   1      39.169  28.132  27.803  1.00  0.00     0.029 A 
ATOM     42  N   UNL A   1      40.632  28.071  29.492  1.00  0.00    -0.354 N 
ATOM     43  C   UNL A   1      40.153  30.641  32.948  1.00  0.00     0.074 A 
ATOM     44  C   UNL A   1      38.990  31.492  32.801  1.00  0.00     0.031 C 
ATOM     45  C   UNL A   1      40.096  27.208  27.501  1.00  0.00     0.029 A 
ATOM     46  C   UNL A   1      41.081  27.148  28.575  1.00  0.00     0.049 A 
ATOM     47  H   UNL A   1      41.098  28.259  30.339  1.00  0.00     0.167 HD
ATOM     48  C   UNL A   1      40.967  30.638  34.034  1.00  0.00     0.034 A 
ATOM     49  C   UNL A   1      42.162  26.344  28.599  1.00  0.00     0.034 A 
ATOM     50  C   UNL A   1      42.123  29.784  34.169  1.00  0.00     0.049 A 
ATOM     51  C   UNL A   1      43.070  26.384  29.803  1.00  0.00     0.074 A 
ATOM     52  C   UNL A   1      43.012  29.691  35.227  1.00  0.00     0.029 A 
ATOM     53  N   UNL A   1      42.552  28.870  33.214  1.00  0.00    -0.354 N 
ATOM     54  N   UNL A   1      42.974  27.116  30.889  1.00  0.00    -0.248 NA
ATOM     55  C   UNL A   1      44.222  25.474  29.790  1.00  0.00     0.031 C 
ATOM     56  C   UNL A   1      44.005  28.764  34.891  1.00  0.00     0.029 A 
ATOM     57  C   UNL A   1      43.700  28.225  33.652  1.00  0.00     0.049 A 
ATOM     58  H   UNL A   1      42.107  28.705  32.352  1.00  0.00     0.167 HD
ATOM     59  C   UNL A   1      44.034  26.726  31.703  1.00  0.00     0.074 A 
ATOM     60  C   UNL A   1      44.741  25.681  30.991  1.00  0.00     0.031 C 
ATOM     61  C   UNL A   1      44.395  27.188  32.927  1.00  0.00     0.034 A 
BRANCH  48  62
ATOM     62  C   UNL A   1      40.638  31.601  35.151  1.00  0.00     0.023 A 
ATOM     63  C   UNL A   1      39.618  31.324  36.080  1.00  0.00     0.031 A 
ATOM     64  C   UNL A   1      41.333  32.815  35.282  1.00  0.00     0.131 A 
ATOM     65  C   UNL A   1      39.275  32.278  37.050  1.00  0.00     0.055 A 
ATOM     66  C   UNL A   1      41.041  33.725  36.301  1.00  0.00     0.041 A 
ATOM     67  F   UNL A   1      42.305  33.144  34.416  1.00  0.00    -0.206 F 
ATOM     68  C   UNL A   1      39.996  33.467  37.183  1.00  0.00     0.022 A 
BRANCH  65  69
ATOM     69  S   UNL A   1      37.785  32.003  38.047  1.00  0.00     0.124 S 
ATOM     70  O   UNL A   1      38.300  32.186  39.401  1.00  0.00    -0.237 OA
ATOM     71  O   UNL A   1      36.883  33.042  37.560  1.00  0.00    -0.237 OA
ATOM     72  O   UNL A   1      37.398  30.634  37.714  1.00  0.00    -0.744 OA
ENDBRANCH  65  69
ENDBRANCH  48  62
BRANCH  49  73
ATOM     73  C   UNL A   1      42.457  25.427  27.460  1.00  0.00     0.023 A 
ATOM     74  C   UNL A   1      41.911  24.134  27.416  1.00  0.00     0.031 A 
ATOM     75  C   UNL A   1      43.341  25.804  26.433  1.00  0.00     0.131 A 
ATOM     76  C   UNL A   1      42.303  23.243  26.407  1.00  0.00     0.055 A 
ATOM     77  C   UNL A   1      43.681  24.932  25.396  1.00  0.00     0.041 A 
ATOM     78  F   UNL A   1      43.887  27.031  26.422  1.00  0.00    -0.206 F 
ATOM     79  C   UNL A   1      43.175  23.636  25.389  1.00  0.00     0.022 A 
BRANCH  76  80
ATOM     80  S   UNL A   1      41.743  21.519  26.507  1.00  0.00     0.124 S 
ATOM     81  O   UNL A   1      40.298  21.668  26.368  1.00  0.00    -0.237 OA
ATOM     82  O   UNL A   1      42.437  20.912  25.377  1.00  0.00    -0.237 OA
ATOM     83  O   UNL A   1      42.203  21.089  27.825  1.00  0.00    -0.744 OA
ENDBRANCH  76  80
ENDBRANCH  49  73
BRANCH  61  84
ATOM     84  C   UNL A   1      45.580  26.521  33.582  1.00  0.00     0.023 A 
ATOM     85  C   UNL A   1      45.430  25.384  34.396  1.00  0.00     0.031 A 
ATOM     86  C   UNL A   1      46.870  27.056  33.424  1.00  0.00     0.131 A 
ATOM     87  C   UNL A   1      46.540  24.863  35.080  1.00  0.00     0.055 A 
ATOM     88  C   UNL A   1      47.981  26.495  34.055  1.00  0.00     0.041 A 
ATOM     89  F   UNL A   1      47.070  28.141  32.658  1.00  0.00    -0.206 F 
ATOM     90  C   UNL A   1      47.816  25.403  34.902  1.00  0.00     0.022 A 
BRANCH  87  91
ATOM     91  S   UNL A   1      46.270  23.541  36.292  1.00  0.00     0.124 S 
ATOM     92  O   UNL A   1      44.908  23.119  35.984  1.00  0.00    -0.237 OA
ATOM     93  O   UNL A   1      47.324  22.590  35.954  1.00  0.00    -0.237 OA
ATOM     94  O   UNL A   1      46.435  24.217  37.578  1.00  0.00    -0.744 OA
ENDBRANCH  87  91
ENDBRANCH  61  84
ENDBRANCH  35  36
ENDBRANCH  27  30
ENDBRANCH  25  26
ENDBRANCH   1  25
TORSDOF 16
ENDMDL
