MODEL 1
REMARK VINA RESULT:     -12.7      0.000      0.000
REMARK SMILES CC1(C)CN(CC(=O)NCCCNC(=O)c2ccc(-c3c4nc(c(-c5cc(S(=O)(=O)[O-])ccc5F)c5ccc([nH]5)c(-c5cc(S(=O)(=O)[O-])ccc5F)c5nc(c(-c6cc(S(=O)(=O)[O-])ccc6F)c6ccc3[nH]6)C=C5)C=C4)cc2)c2ccc(S(=O)(=O)N3CCCCC3)cc21
REMARK SMILES IDX 11 1 10 2 9 3 7 4 8 5 6 7 5 8 1 9 2 10 3 11 4 12 93 13 79 14
REMARK SMILES IDX 92 15 80 16 82 17 81 18 83 19 84 20 85 21 86 22 87 23 91 24
REMARK SMILES IDX 88 25 90 26 89 27 12 28 13 29 14 30 15 32 16 33 17 34 78 35
REMARK SMILES IDX 18 36 77 37 19 38 20 39 21 40 71 41 22 42 76 43 70 44 72 45
REMARK SMILES IDX 23 46 75 47 69 48 68 49 24 51 56 52 36 53 55 54 37 55 40 56
REMARK SMILES IDX 54 57 73 58 38 59 39 60 53 62 74 63 41 64 25 65 26 66 34 67
REMARK SMILES IDX 27 68 33 69 35 70 32 71 28 72 29 73 30 74 31 75 57 76 58 77
REMARK SMILES IDX 66 78 59 79 65 80 67 81 64 82 60 83 61 84 62 85 63 86 42 87
REMARK SMILES IDX 43 88 51 89 44 90 50 91 52 92 49 93 45 94 46 95 47 96 48 97
REMARK H PARENT 9 6 13 31 72 50 40 61
REMARK Flexibility Score: inf
ROOT
ATOM      1  C   UNL A   1      32.099  29.594  24.853  1.00  0.00     0.042 C 
ENDROOT
BRANCH   1   2
ATOM      2  C   UNL A   1      30.651  30.071  24.860  1.00  0.00     0.117 C 
BRANCH   2   3
ATOM      3  N   UNL A   1      30.148  30.335  23.526  1.00  0.00    -0.354 N 
ATOM      4  C   UNL A   1      29.507  29.477  22.675  1.00  0.00     0.239 C 
ATOM      5  O   UNL A   1      29.172  29.901  21.565  1.00  0.00    -0.273 OA
ATOM      6  H   UNL A   1      30.286  31.250  23.190  1.00  0.00     0.163 HD
BRANCH   4   7
ATOM      7  C   UNL A   1      29.164  28.052  23.132  1.00  0.00     0.216 C 
BRANCH   7   8
ATOM      8  N   UNL A   1      30.274  27.120  22.999  1.00  0.00    -0.361 N 
ATOM      9  C   UNL A   1      32.657  25.196  21.342  1.00  0.00     0.018 C 
ATOM     10  C   UNL A   1      32.495  26.316  22.374  1.00  0.00     0.009 C 
ATOM     11  C   UNL A   1      33.803  27.097  22.532  1.00  0.00     0.018 C 
ATOM     12  C   UNL A   1      31.330  27.286  22.001  1.00  0.00     0.128 C 
ATOM     13  C   UNL A   1      32.005  25.759  23.689  1.00  0.00    -0.016 A 
ATOM     14  C   UNL A   1      30.741  26.276  23.987  1.00  0.00     0.041 A 
ATOM     15  C   UNL A   1      32.634  24.837  24.517  1.00  0.00     0.028 A 
ATOM     16  C   UNL A   1      30.109  25.893  25.157  1.00  0.00     0.027 A 
ATOM     17  C   UNL A   1      31.980  24.427  25.684  1.00  0.00     0.083 A 
ATOM     18  C   UNL A   1      30.728  24.967  26.007  1.00  0.00     0.024 A 
BRANCH  17  19
ATOM     19  S   UNL A   1      32.816  23.193  26.668  1.00  0.00     0.243 S 
ATOM     20  O   UNL A   1      34.069  23.800  27.079  1.00  0.00    -0.207 OA
ATOM     21  O   UNL A   1      31.846  22.735  27.635  1.00  0.00    -0.207 OA
BRANCH  19  22
ATOM     22  N   UNL A   1      33.197  21.874  25.655  1.00  0.00    -0.198 NA
ATOM     23  C   UNL A   1      34.380  21.072  26.038  1.00  0.00     0.102 C 
ATOM     24  C   UNL A   1      32.060  21.179  25.004  1.00  0.00     0.102 C 
ATOM     25  C   UNL A   1      34.796  20.117  24.928  1.00  0.00     0.017 C 
ATOM     26  C   UNL A   1      32.527  20.202  23.933  1.00  0.00     0.017 C 
ATOM     27  C   UNL A   1      33.618  19.279  24.455  1.00  0.00     0.003 C 
ENDBRANCH  19  22
ENDBRANCH  17  19
ENDBRANCH   7   8
ENDBRANCH   4   7
ENDBRANCH   2   3
ENDBRANCH   1   2
BRANCH   1  28
ATOM     28  C   UNL A   1      32.861  29.910  26.133  1.00  0.00     0.118 C 
BRANCH  28  29
ATOM     29  N   UNL A   1      32.682  31.289  26.571  1.00  0.00    -0.352 N 
ATOM     30  C   UNL A   1      33.443  32.053  27.425  1.00  0.00     0.251 C 
ATOM     31  H   UNL A   1      31.894  31.746  26.196  1.00  0.00     0.163 HD
ATOM     32  O   UNL A   1      33.015  33.144  27.795  1.00  0.00    -0.269 OA
BRANCH  30  33
ATOM     33  C   UNL A   1      34.746  31.556  27.922  1.00  0.00     0.039 A 
ATOM     34  C   UNL A   1      34.911  30.224  28.307  1.00  0.00     0.014 A 
ATOM     35  C   UNL A   1      35.827  32.440  28.004  1.00  0.00     0.014 A 
ATOM     36  C   UNL A   1      36.084  29.826  28.940  1.00  0.00     0.010 A 
ATOM     37  C   UNL A   1      37.040  32.013  28.557  1.00  0.00     0.010 A 
ATOM     38  C   UNL A   1      37.161  30.716  29.080  1.00  0.00    -0.014 A 
BRANCH  38  39
ATOM     39  C   UNL A   1      38.399  30.266  29.774  1.00  0.00     0.031 A 
ATOM     40  C   UNL A   1      38.713  30.733  31.169  1.00  0.00     0.074 A 
ATOM     41  C   UNL A   1      39.214  29.388  29.157  1.00  0.00     0.049 A 
ATOM     42  N   UNL A   1      39.725  30.412  31.935  1.00  0.00    -0.248 NA
ATOM     43  C   UNL A   1      37.777  31.686  31.787  1.00  0.00     0.031 C 
ATOM     44  C   UNL A   1      39.008  28.866  27.806  1.00  0.00     0.029 A 
ATOM     45  N   UNL A   1      40.359  28.760  29.585  1.00  0.00    -0.354 N 
ATOM     46  C   UNL A   1      39.556  31.129  33.114  1.00  0.00     0.074 A 
ATOM     47  C   UNL A   1      38.366  31.934  32.950  1.00  0.00     0.031 C 
ATOM     48  C   UNL A   1      39.956  27.957  27.537  1.00  0.00     0.029 A 
ATOM     49  C   UNL A   1      40.880  27.879  28.666  1.00  0.00     0.049 A 
ATOM     50  H   UNL A   1      40.766  28.925  30.466  1.00  0.00     0.167 HD
ATOM     51  C   UNL A   1      40.313  31.103  34.237  1.00  0.00     0.034 A 
ATOM     52  C   UNL A   1      41.980  27.100  28.715  1.00  0.00     0.034 A 
ATOM     53  C   UNL A   1      41.483  30.275  34.397  1.00  0.00     0.049 A 
ATOM     54  C   UNL A   1      42.818  27.104  29.968  1.00  0.00     0.074 A 
ATOM     55  C   UNL A   1      42.303  30.163  35.507  1.00  0.00     0.029 A 
ATOM     56  N   UNL A   1      41.993  29.415  33.435  1.00  0.00    -0.354 N 
ATOM     57  N   UNL A   1      42.619  27.759  31.087  1.00  0.00    -0.248 NA
ATOM     58  C   UNL A   1      44.024  26.265  29.972  1.00  0.00     0.031 C 
ATOM     59  C   UNL A   1      43.340  29.282  35.196  1.00  0.00     0.029 A 
ATOM     60  C   UNL A   1      43.130  28.788  33.918  1.00  0.00     0.049 A 
ATOM     61  H   UNL A   1      41.605  29.272  32.542  1.00  0.00     0.167 HD
ATOM     62  C   UNL A   1      43.662  27.396  31.935  1.00  0.00     0.074 A 
ATOM     63  C   UNL A   1      44.475  26.444  31.207  1.00  0.00     0.031 C 
ATOM     64  C   UNL A   1      43.925  27.823  33.195  1.00  0.00     0.034 A 
BRANCH  51  65
ATOM     65  C   UNL A   1      39.913  31.973  35.405  1.00  0.00     0.023 A 
ATOM     66  C   UNL A   1      39.037  31.473  36.388  1.00  0.00     0.031 A 
ATOM     67  C   UNL A   1      40.283  33.327  35.472  1.00  0.00     0.131 A 
ATOM     68  C   UNL A   1      38.533  32.331  37.373  1.00  0.00     0.055 A 
ATOM     69  C   UNL A   1      39.809  34.169  36.479  1.00  0.00     0.041 A 
ATOM     70  F   UNL A   1      41.119  33.851  34.561  1.00  0.00    -0.206 F 
ATOM     71  C   UNL A   1      38.919  33.674  37.427  1.00  0.00     0.022 A 
BRANCH  68  72
ATOM     72  S   UNL A   1      37.310  31.757  38.584  1.00  0.00     0.124 S 
ATOM     73  O   UNL A   1      37.033  30.402  38.109  1.00  0.00    -0.237 OA
ATOM     74  O   UNL A   1      38.057  31.837  39.836  1.00  0.00    -0.237 OA
ATOM     75  O   UNL A   1      36.206  32.700  38.444  1.00  0.00    -0.744 OA
ENDBRANCH  68  72
ENDBRANCH  51  65
BRANCH  52  76
ATOM     76  C   UNL A   1      42.301  26.223  27.550  1.00  0.00     0.023 A 
ATOM     77  C   UNL A   1      41.819  24.903  27.485  1.00  0.00     0.031 A 
ATOM     78  C   UNL A   1      43.190  26.650  26.550  1.00  0.00     0.131 A 
ATOM     79  C   UNL A   1      42.289  24.035  26.491  1.00  0.00     0.055 A 
ATOM     80  C   UNL A   1      43.596  25.805  25.515  1.00  0.00     0.041 A 
ATOM     81  F   UNL A   1      43.688  27.896  26.574  1.00  0.00    -0.206 F 
ATOM     82  C   UNL A   1      43.162  24.482  25.495  1.00  0.00     0.022 A 
BRANCH  79  83
ATOM     83  S   UNL A   1      41.906  22.262  26.549  1.00  0.00     0.124 S 
ATOM     84  O   UNL A   1      42.465  21.872  27.840  1.00  0.00    -0.237 OA
ATOM     85  O   UNL A   1      40.447  22.269  26.470  1.00  0.00    -0.237 OA
ATOM     86  O   UNL A   1      42.586  21.725  25.376  1.00  0.00    -0.744 OA
ENDBRANCH  79  83
ENDBRANCH  52  76
BRANCH  64  87
ATOM     87  C   UNL A   1      45.139  27.275  33.908  1.00  0.00     0.023 A 
ATOM     88  C   UNL A   1      45.026  26.116  34.701  1.00  0.00     0.031 A 
ATOM     89  C   UNL A   1      46.353  27.983  33.932  1.00  0.00     0.131 A 
ATOM     90  C   UNL A   1      46.093  25.726  35.520  1.00  0.00     0.055 A 
ATOM     91  C   UNL A   1      47.429  27.564  34.715  1.00  0.00     0.041 A 
ATOM     92  F   UNL A   1      46.505  29.100  33.202  1.00  0.00    -0.206 F 
ATOM     93  C   UNL A   1      47.296  26.440  35.526  1.00  0.00     0.022 A 
BRANCH  90  94
ATOM     94  S   UNL A   1      45.929  24.339  36.678  1.00  0.00     0.124 S 
ATOM     95  O   UNL A   1      46.807  23.339  36.076  1.00  0.00    -0.237 OA
ATOM     96  O   UNL A   1      46.413  24.922  37.927  1.00  0.00    -0.237 OA
ATOM     97  O   UNL A   1      44.506  24.018  36.645  1.00  0.00    -0.744 OA
ENDBRANCH  90  94
ENDBRANCH  64  87
ENDBRANCH  38  39
ENDBRANCH  30  33
ENDBRANCH  28  29
ENDBRANCH   1  28
TORSDOF 16
ENDMDL
MODEL 2
REMARK VINA RESULT:     -12.1      2.880      8.102
REMARK SMILES CC1(C)CN(CC(=O)NCCCNC(=O)c2ccc(-c3c4nc(c(-c5cc(S(=O)(=O)[O-])ccc5F)c5ccc([nH]5)c(-c5cc(S(=O)(=O)[O-])ccc5F)c5nc(c(-c6cc(S(=O)(=O)[O-])ccc6F)c6ccc3[nH]6)C=C5)C=C4)cc2)c2ccc(S(=O)(=O)N3CCCCC3)cc21
REMARK SMILES IDX 11 1 10 2 9 3 7 4 8 5 6 7 5 8 1 9 2 10 3 11 4 12 93 13 79 14
REMARK SMILES IDX 92 15 80 16 82 17 81 18 83 19 84 20 85 21 86 22 87 23 91 24
REMARK SMILES IDX 88 25 90 26 89 27 12 28 13 29 14 30 15 32 16 33 17 34 78 35
REMARK SMILES IDX 18 36 77 37 19 38 20 39 21 40 71 41 22 42 76 43 70 44 72 45
REMARK SMILES IDX 23 46 75 47 69 48 68 49 24 51 56 52 36 53 55 54 37 55 40 56
REMARK SMILES IDX 54 57 73 58 38 59 39 60 53 62 74 63 41 64 25 65 26 66 34 67
REMARK SMILES IDX 27 68 33 69 35 70 32 71 28 72 29 73 30 74 31 75 57 76 58 77
REMARK SMILES IDX 66 78 59 79 65 80 67 81 64 82 60 83 61 84 62 85 63 86 42 87
REMARK SMILES IDX 43 88 51 89 44 90 50 91 52 92 49 93 45 94 46 95 47 96 48 97
REMARK H PARENT 9 6 13 31 72 50 40 61
REMARK Flexibility Score: inf
ROOT
ATOM      1  C   UNL A   1      31.695  32.003  26.747  1.00  0.00     0.042 C 
ENDROOT
BRANCH   1   2
ATOM      2  C   UNL A   1      31.788  30.482  26.766  1.00  0.00     0.117 C 
BRANCH   2   3
ATOM      3  N   UNL A   1      33.124  30.012  27.073  1.00  0.00    -0.354 N 
ATOM      4  C   UNL A   1      33.867  29.073  26.410  1.00  0.00     0.239 C 
ATOM      5  O   UNL A   1      34.989  28.803  26.850  1.00  0.00    -0.273 OA
ATOM      6  H   UNL A   1      33.553  30.422  27.859  1.00  0.00     0.163 HD
BRANCH   4   7
ATOM      7  C   UNL A   1      33.330  28.435  25.121  1.00  0.00     0.216 C 
BRANCH   7   8
ATOM      8  N   UNL A   1      32.591  27.204  25.352  1.00  0.00    -0.361 N 
ATOM      9  C   UNL A   1      29.860  25.225  26.222  1.00  0.00     0.018 C 
ATOM     10  C   UNL A   1      30.829  25.533  25.076  1.00  0.00     0.009 C 
ATOM     11  C   UNL A   1      30.251  25.059  23.740  1.00  0.00     0.018 C 
ATOM     12  C   UNL A   1      31.178  27.053  25.003  1.00  0.00     0.128 C 
ATOM     13  C   UNL A   1      32.186  24.932  25.353  1.00  0.00    -0.016 A 
ATOM     14  C   UNL A   1      33.141  25.944  25.479  1.00  0.00     0.041 A 
ATOM     15  C   UNL A   1      32.513  23.590  25.512  1.00  0.00     0.028 A 
ATOM     16  C   UNL A   1      34.459  25.606  25.734  1.00  0.00     0.027 A 
ATOM     17  C   UNL A   1      33.840  23.253  25.801  1.00  0.00     0.083 A 
ATOM     18  C   UNL A   1      34.810  24.259  25.896  1.00  0.00     0.024 A 
BRANCH  17  19
ATOM     19  S   UNL A   1      34.177  21.517  26.058  1.00  0.00     0.243 S 
ATOM     20  O   UNL A   1      35.582  21.338  25.738  1.00  0.00    -0.207 OA
ATOM     21  O   UNL A   1      33.654  21.203  27.366  1.00  0.00    -0.207 OA
BRANCH  19  22
ATOM     22  N   UNL A   1      33.278  20.627  24.914  1.00  0.00    -0.198 NA
ATOM     23  C   UNL A   1      33.139  21.232  23.572  1.00  0.00     0.102 C 
ATOM     24  C   UNL A   1      33.349  19.148  25.011  1.00  0.00     0.102 C 
ATOM     25  C   UNL A   1      32.094  20.510  22.732  1.00  0.00     0.017 C 
ATOM     26  C   UNL A   1      32.315  18.469  24.122  1.00  0.00     0.017 C 
ATOM     27  C   UNL A   1      32.356  19.012  22.701  1.00  0.00     0.003 C 
ENDBRANCH  19  22
ENDBRANCH  17  19
ENDBRANCH   7   8
ENDBRANCH   4   7
ENDBRANCH   2   3
ENDBRANCH   1   2
BRANCH   1  28
ATOM     28  C   UNL A   1      32.942  32.707  27.265  1.00  0.00     0.118 C 
BRANCH  28  29
ATOM     29  N   UNL A   1      32.686  34.083  27.671  1.00  0.00    -0.352 N 
ATOM     30  C   UNL A   1      33.209  34.812  28.714  1.00  0.00     0.251 C 
ATOM     31  H   UNL A   1      32.036  34.568  27.111  1.00  0.00     0.163 HD
ATOM     32  O   UNL A   1      32.724  35.909  28.982  1.00  0.00    -0.269 OA
BRANCH  30  33
ATOM     33  C   UNL A   1      34.322  34.270  29.527  1.00  0.00     0.039 A 
ATOM     34  C   UNL A   1      35.652  34.504  29.177  1.00  0.00     0.014 A 
ATOM     35  C   UNL A   1      34.027  33.512  30.666  1.00  0.00     0.014 A 
ATOM     36  C   UNL A   1      36.673  33.836  29.845  1.00  0.00     0.010 A 
ATOM     37  C   UNL A   1      35.062  32.915  31.395  1.00  0.00     0.010 A 
ATOM     38  C   UNL A   1      36.391  33.027  30.959  1.00  0.00    -0.014 A 
BRANCH  38  39
ATOM     39  C   UNL A   1      37.502  32.314  31.646  1.00  0.00     0.031 A 
ATOM     40  C   UNL A   1      38.243  31.198  30.960  1.00  0.00     0.074 A 
ATOM     41  C   UNL A   1      37.877  32.714  32.877  1.00  0.00     0.049 A 
ATOM     42  N   UNL A   1      39.257  30.495  31.396  1.00  0.00    -0.248 NA
ATOM     43  C   UNL A   1      37.787  30.815  29.614  1.00  0.00     0.031 C 
ATOM     44  C   UNL A   1      37.232  33.786  33.638  1.00  0.00     0.029 A 
ATOM     45  N   UNL A   1      38.896  32.294  33.696  1.00  0.00    -0.354 N 
ATOM     46  C   UNL A   1      39.552  29.583  30.388  1.00  0.00     0.074 A 
ATOM     47  C   UNL A   1      38.585  29.793  29.335  1.00  0.00     0.031 C 
ATOM     48  C   UNL A   1      37.903  33.978  34.781  1.00  0.00     0.029 A 
ATOM     49  C   UNL A   1      38.985  33.000  34.873  1.00  0.00     0.049 A 
ATOM     50  H   UNL A   1      39.506  31.558  33.461  1.00  0.00     0.167 HD
ATOM     51  C   UNL A   1      40.551  28.668  30.341  1.00  0.00     0.034 A 
ATOM     52  C   UNL A   1      39.831  32.875  35.916  1.00  0.00     0.034 A 
ATOM     53  C   UNL A   1      41.525  28.488  31.388  1.00  0.00     0.049 A 
ATOM     54  C   UNL A   1      40.921  31.836  35.847  1.00  0.00     0.074 A 
ATOM     55  C   UNL A   1      42.589  27.602  31.421  1.00  0.00     0.029 A 
ATOM     56  N   UNL A   1      41.567  29.205  32.576  1.00  0.00    -0.354 N 
ATOM     57  N   UNL A   1      41.208  31.010  34.869  1.00  0.00    -0.248 NA
ATOM     58  C   UNL A   1      41.804  31.711  37.015  1.00  0.00     0.031 C 
ATOM     59  C   UNL A   1      43.236  27.742  32.649  1.00  0.00     0.029 A 
ATOM     60  C   UNL A   1      42.623  28.764  33.357  1.00  0.00     0.049 A 
ATOM     61  H   UNL A   1      40.939  29.921  32.826  1.00  0.00     0.167 HD
ATOM     62  C   UNL A   1      42.315  30.282  35.294  1.00  0.00     0.074 A 
ATOM     63  C   UNL A   1      42.662  30.784  36.608  1.00  0.00     0.031 C 
ATOM     64  C   UNL A   1      42.976  29.283  34.657  1.00  0.00     0.034 A 
BRANCH  51  65
ATOM     65  C   UNL A   1      40.675  27.791  29.118  1.00  0.00     0.023 A 
ATOM     66  C   UNL A   1      41.566  28.142  28.086  1.00  0.00     0.031 A 
ATOM     67  C   UNL A   1      39.821  26.694  28.912  1.00  0.00     0.131 A 
ATOM     68  C   UNL A   1      41.556  27.426  26.882  1.00  0.00     0.055 A 
ATOM     69  C   UNL A   1      39.842  25.958  27.727  1.00  0.00     0.041 A 
ATOM     70  F   UNL A   1      38.955  26.316  29.867  1.00  0.00    -0.206 F 
ATOM     71  C   UNL A   1      40.704  26.332  26.700  1.00  0.00     0.022 A 
BRANCH  68  72
ATOM     72  S   UNL A   1      42.602  27.920  25.485  1.00  0.00     0.124 S 
ATOM     73  O   UNL A   1      42.633  26.695  24.687  1.00  0.00    -0.237 OA
ATOM     74  O   UNL A   1      41.840  29.021  24.906  1.00  0.00    -0.237 OA
ATOM     75  O   UNL A   1      43.870  28.285  26.107  1.00  0.00    -0.744 OA
ENDBRANCH  68  72
ENDBRANCH  51  65
BRANCH  52  76
ATOM     76  C   UNL A   1      39.693  33.802  37.078  1.00  0.00     0.023 A 
ATOM     77  C   UNL A   1      40.572  34.888  37.245  1.00  0.00     0.031 A 
ATOM     78  C   UNL A   1      38.761  33.547  38.097  1.00  0.00     0.131 A 
ATOM     79  C   UNL A   1      40.555  35.625  38.435  1.00  0.00     0.055 A 
ATOM     80  C   UNL A   1      38.695  34.332  39.250  1.00  0.00     0.041 A 
ATOM     81  F   UNL A   1      37.909  32.515  37.992  1.00  0.00    -0.206 F 
ATOM     82  C   UNL A   1      39.610  35.365  39.433  1.00  0.00     0.022 A 
BRANCH  79  83
ATOM     83  S   UNL A   1      41.854  36.840  38.794  1.00  0.00     0.124 S 
ATOM     84  O   UNL A   1      42.442  37.055  37.477  1.00  0.00    -0.237 OA
ATOM     85  O   UNL A   1      41.079  37.957  39.329  1.00  0.00    -0.237 OA
ATOM     86  O   UNL A   1      42.705  36.158  39.764  1.00  0.00    -0.744 OA
ENDBRANCH  79  83
ENDBRANCH  52  76
BRANCH  64  87
ATOM     87  C   UNL A   1      44.159  28.642  35.344  1.00  0.00     0.023 A 
ATOM     88  C   UNL A   1      43.957  27.584  36.252  1.00  0.00     0.031 A 
ATOM     89  C   UNL A   1      45.451  29.180  35.225  1.00  0.00     0.131 A 
ATOM     90  C   UNL A   1      45.022  27.128  37.038  1.00  0.00     0.055 A 
ATOM     91  C   UNL A   1      46.520  28.691  35.978  1.00  0.00     0.041 A 
ATOM     92  F   UNL A   1      45.691  30.198  34.382  1.00  0.00    -0.206 F 
ATOM     93  C   UNL A   1      46.304  27.671  36.901  1.00  0.00     0.022 A 
BRANCH  90  94
ATOM     94  S   UNL A   1      44.767  25.883  38.333  1.00  0.00     0.124 S 
ATOM     95  O   UNL A   1      44.148  26.675  39.394  1.00  0.00    -0.237 OA
ATOM     96  O   UNL A   1      43.882  24.928  37.672  1.00  0.00    -0.237 OA
ATOM     97  O   UNL A   1      46.111  25.397  38.626  1.00  0.00    -0.744 OA
ENDBRANCH  90  94
ENDBRANCH  64  87
ENDBRANCH  38  39
ENDBRANCH  30  33
ENDBRANCH  28  29
ENDBRANCH   1  28
TORSDOF 16
ENDMDL
MODEL 3
REMARK VINA RESULT:     -12.0      5.175     10.573
REMARK SMILES CC1(C)CN(CC(=O)NCCCNC(=O)c2ccc(-c3c4nc(c(-c5cc(S(=O)(=O)[O-])ccc5F)c5ccc([nH]5)c(-c5cc(S(=O)(=O)[O-])ccc5F)c5nc(c(-c6cc(S(=O)(=O)[O-])ccc6F)c6ccc3[nH]6)C=C5)C=C4)cc2)c2ccc(S(=O)(=O)N3CCCCC3)cc21
REMARK SMILES IDX 11 1 10 2 9 3 7 4 8 5 6 7 5 8 1 9 2 10 3 11 4 12 93 13 79 14
REMARK SMILES IDX 92 15 80 16 82 17 81 18 83 19 84 20 85 21 86 22 87 23 91 24
REMARK SMILES IDX 88 25 90 26 89 27 12 28 13 29 14 30 15 32 16 33 17 34 78 35
REMARK SMILES IDX 18 36 77 37 19 38 20 39 21 40 71 41 22 42 76 43 70 44 72 45
REMARK SMILES IDX 23 46 75 47 69 48 68 49 24 51 56 52 36 53 55 54 37 55 40 56
REMARK SMILES IDX 54 57 73 58 38 59 39 60 53 62 74 63 41 64 25 65 26 66 34 67
REMARK SMILES IDX 27 68 33 69 35 70 32 71 28 72 29 73 30 74 31 75 57 76 58 77
REMARK SMILES IDX 66 78 59 79 65 80 67 81 64 82 60 83 61 84 62 85 63 86 42 87
REMARK SMILES IDX 43 88 51 89 44 90 50 91 52 92 49 93 45 94 46 95 47 96 48 97
REMARK H PARENT 9 6 13 31 72 50 40 61
REMARK Flexibility Score: inf
ROOT
ATOM      1  C   UNL A   1      37.905  20.027  24.763  1.00  0.00     0.042 C 
ENDROOT
BRANCH   1   2
ATOM      2  C   UNL A   1      36.742  21.012  24.733  1.00  0.00     0.117 C 
BRANCH   2   3
ATOM      3  N   UNL A   1      35.635  20.589  25.568  1.00  0.00    -0.354 N 
ATOM      4  C   UNL A   1      34.775  21.365  26.294  1.00  0.00     0.239 C 
ATOM      5  O   UNL A   1      33.901  20.799  26.959  1.00  0.00    -0.273 OA
ATOM      6  H   UNL A   1      35.484  19.617  25.618  1.00  0.00     0.163 HD
BRANCH   4   7
ATOM      7  C   UNL A   1      34.866  22.896  26.218  1.00  0.00     0.216 C 
BRANCH   7   8
ATOM      8  N   UNL A   1      34.181  23.458  25.064  1.00  0.00    -0.361 N 
ATOM      9  C   UNL A   1      33.058  23.612  21.771  1.00  0.00     0.018 C 
ATOM     10  C   UNL A   1      32.577  23.594  23.226  1.00  0.00     0.009 C 
ATOM     11  C   UNL A   1      31.100  23.198  23.300  1.00  0.00     0.018 C 
ATOM     12  C   UNL A   1      33.437  22.636  24.109  1.00  0.00     0.128 C 
ATOM     13  C   UNL A   1      32.843  24.924  23.888  1.00  0.00    -0.016 A 
ATOM     14  C   UNL A   1      33.752  24.764  24.937  1.00  0.00     0.041 A 
ATOM     15  C   UNL A   1      32.333  26.171  23.542  1.00  0.00     0.028 A 
ATOM     16  C   UNL A   1      34.131  25.867  25.681  1.00  0.00     0.027 A 
ATOM     17  C   UNL A   1      32.742  27.289  24.277  1.00  0.00     0.083 A 
ATOM     18  C   UNL A   1      33.627  27.132  25.351  1.00  0.00     0.024 A 
BRANCH  17  19
ATOM     19  S   UNL A   1      32.100  28.867  23.738  1.00  0.00     0.243 S 
ATOM     20  O   UNL A   1      32.120  29.721  24.913  1.00  0.00    -0.207 OA
ATOM     21  O   UNL A   1      32.838  29.208  22.545  1.00  0.00    -0.207 OA
BRANCH  19  22
ATOM     22  N   UNL A   1      30.467  28.652  23.293  1.00  0.00    -0.198 NA
ATOM     23  C   UNL A   1      29.677  27.718  24.125  1.00  0.00     0.102 C 
ATOM     24  C   UNL A   1      29.774  29.824  22.705  1.00  0.00     0.102 C 
ATOM     25  C   UNL A   1      28.340  27.382  23.480  1.00  0.00     0.017 C 
ATOM     26  C   UNL A   1      28.422  29.447  22.111  1.00  0.00     0.017 C 
ATOM     27  C   UNL A   1      27.584  28.644  23.095  1.00  0.00     0.003 C 
ENDBRANCH  19  22
ENDBRANCH  17  19
ENDBRANCH   7   8
ENDBRANCH   4   7
ENDBRANCH   2   3
ENDBRANCH   1   2
BRANCH   1  28
ATOM     28  C   UNL A   1      38.922  20.303  25.862  1.00  0.00     0.118 C 
BRANCH  28  29
ATOM     29  N   UNL A   1      39.992  19.314  25.901  1.00  0.00    -0.352 N 
ATOM     30  C   UNL A   1      41.348  19.481  26.065  1.00  0.00     0.251 C 
ATOM     31  H   UNL A   1      39.700  18.379  25.793  1.00  0.00     0.163 HD
ATOM     32  O   UNL A   1      42.096  18.521  25.892  1.00  0.00    -0.269 OA
BRANCH  30  33
ATOM     33  C   UNL A   1      41.907  20.808  26.411  1.00  0.00     0.039 A 
ATOM     34  C   UNL A   1      42.275  21.116  27.721  1.00  0.00     0.014 A 
ATOM     35  C   UNL A   1      42.066  21.765  25.403  1.00  0.00     0.014 A 
ATOM     36  C   UNL A   1      42.621  22.421  28.055  1.00  0.00     0.010 A 
ATOM     37  C   UNL A   1      42.505  23.054  25.725  1.00  0.00     0.010 A 
ATOM     38  C   UNL A   1      42.735  23.409  27.063  1.00  0.00    -0.014 A 
BRANCH  38  39
ATOM     39  C   UNL A   1      43.095  24.800  27.452  1.00  0.00     0.031 A 
ATOM     40  C   UNL A   1      44.463  25.353  27.158  1.00  0.00     0.074 A 
ATOM     41  C   UNL A   1      42.160  25.584  28.025  1.00  0.00     0.049 A 
ATOM     42  N   UNL A   1      44.933  26.552  27.393  1.00  0.00    -0.248 NA
ATOM     43  C   UNL A   1      45.434  24.446  26.524  1.00  0.00     0.031 C 
ATOM     44  C   UNL A   1      40.801  25.155  28.356  1.00  0.00     0.029 A 
ATOM     45  N   UNL A   1      42.195  26.902  28.409  1.00  0.00    -0.354 N 
ATOM     46  C   UNL A   1      46.251  26.540  26.949  1.00  0.00     0.074 A 
ATOM     47  C   UNL A   1      46.521  25.204  26.468  1.00  0.00     0.031 C 
ATOM     48  C   UNL A   1      40.115  26.201  28.836  1.00  0.00     0.029 A 
ATOM     49  C   UNL A   1      41.001  27.360  28.916  1.00  0.00     0.049 A 
ATOM     50  H   UNL A   1      42.998  27.466  28.327  1.00  0.00     0.167 HD
ATOM     51  C   UNL A   1      47.146  27.558  26.928  1.00  0.00     0.034 A 
ATOM     52  C   UNL A   1      40.653  28.570  29.401  1.00  0.00     0.034 A 
ATOM     53  C   UNL A   1      46.855  28.893  27.388  1.00  0.00     0.049 A 
ATOM     54  C   UNL A   1      41.673  29.679  29.385  1.00  0.00     0.074 A 
ATOM     55  C   UNL A   1      47.690  29.997  27.385  1.00  0.00     0.029 A 
ATOM     56  N   UNL A   1      45.642  29.311  27.917  1.00  0.00    -0.354 N 
ATOM     57  N   UNL A   1      42.902  29.660  28.925  1.00  0.00    -0.248 NA
ATOM     58  C   UNL A   1      41.266  30.974  29.948  1.00  0.00     0.031 C 
ATOM     59  C   UNL A   1      47.004  31.064  27.966  1.00  0.00     0.029 A 
ATOM     60  C   UNL A   1      45.716  30.650  28.267  1.00  0.00     0.049 A 
ATOM     61  H   UNL A   1      44.847  28.741  28.028  1.00  0.00     0.167 HD
ATOM     62  C   UNL A   1      43.407  30.941  29.123  1.00  0.00     0.074 A 
ATOM     63  C   UNL A   1      42.341  31.719  29.722  1.00  0.00     0.031 C 
ATOM     64  C   UNL A   1      44.643  31.425  28.844  1.00  0.00     0.034 A 
BRANCH  51  65
ATOM     65  C   UNL A   1      48.529  27.298  26.378  1.00  0.00     0.023 A 
ATOM     66  C   UNL A   1      48.807  27.555  25.023  1.00  0.00     0.031 A 
ATOM     67  C   UNL A   1      49.521  26.673  27.153  1.00  0.00     0.131 A 
ATOM     68  C   UNL A   1      50.033  27.155  24.475  1.00  0.00     0.055 A 
ATOM     69  C   UNL A   1      50.756  26.313  26.613  1.00  0.00     0.041 A 
ATOM     70  F   UNL A   1      49.306  26.410  28.453  1.00  0.00    -0.206 F 
ATOM     71  C   UNL A   1      51.010  26.541  25.265  1.00  0.00     0.022 A 
BRANCH  68  72
ATOM     72  S   UNL A   1      50.384  27.359  22.707  1.00  0.00     0.124 S 
ATOM     73  O   UNL A   1      51.759  26.868  22.617  1.00  0.00    -0.237 OA
ATOM     74  O   UNL A   1      49.375  26.501  22.093  1.00  0.00    -0.237 OA
ATOM     75  O   UNL A   1      50.223  28.791  22.479  1.00  0.00    -0.744 OA
ENDBRANCH  68  72
ENDBRANCH  51  65
BRANCH  52  76
ATOM     76  C   UNL A   1      39.258  28.784  29.886  1.00  0.00     0.023 A 
ATOM     77  C   UNL A   1      38.270  29.313  29.035  1.00  0.00     0.031 A 
ATOM     78  C   UNL A   1      38.924  28.577  31.234  1.00  0.00     0.131 A 
ATOM     79  C   UNL A   1      37.026  29.692  29.557  1.00  0.00     0.055 A 
ATOM     80  C   UNL A   1      37.656  28.883  31.735  1.00  0.00     0.041 A 
ATOM     81  F   UNL A   1      39.834  28.086  32.089  1.00  0.00    -0.206 F 
ATOM     82  C   UNL A   1      36.707  29.464  30.899  1.00  0.00     0.022 A 
BRANCH  79  83
ATOM     83  S   UNL A   1      35.843  30.630  28.552  1.00  0.00     0.124 S 
ATOM     84  O   UNL A   1      35.018  29.569  27.984  1.00  0.00    -0.237 OA
ATOM     85  O   UNL A   1      35.192  31.465  29.559  1.00  0.00    -0.237 OA
ATOM     86  O   UNL A   1      36.689  31.349  27.606  1.00  0.00    -0.744 OA
ENDBRANCH  79  83
ENDBRANCH  52  76
BRANCH  64  87
ATOM     87  C   UNL A   1      44.947  32.868  29.166  1.00  0.00     0.023 A 
ATOM     88  C   UNL A   1      44.703  33.870  28.205  1.00  0.00     0.031 A 
ATOM     89  C   UNL A   1      45.623  33.227  30.345  1.00  0.00     0.131 A 
ATOM     90  C   UNL A   1      45.171  35.172  28.422  1.00  0.00     0.055 A 
ATOM     91  C   UNL A   1      46.046  34.537  30.576  1.00  0.00     0.041 A 
ATOM     92  F   UNL A   1      45.889  32.306  31.284  1.00  0.00    -0.206 F 
ATOM     93  C   UNL A   1      45.834  35.512  29.605  1.00  0.00     0.022 A 
BRANCH  90  94
ATOM     94  S   UNL A   1      45.022  36.448  27.140  1.00  0.00     0.124 S 
ATOM     95  O   UNL A   1      46.173  36.154  26.289  1.00  0.00    -0.237 OA
ATOM     96  O   UNL A   1      43.719  36.145  26.554  1.00  0.00    -0.237 OA
ATOM     97  O   UNL A   1      45.102  37.702  27.880  1.00  0.00    -0.744 OA
ENDBRANCH  90  94
ENDBRANCH  64  87
ENDBRANCH  38  39
ENDBRANCH  30  33
ENDBRANCH  28  29
ENDBRANCH   1  28
TORSDOF 16
ENDMDL
