MODEL 1
REMARK VINA RESULT:     -12.4      0.000      0.000
REMARK SMILES O=C(CS(=O)(=O)[C@@H]1CCOC2(CCCCC2)C1)NCCCNC(=O)c1ccc(-c2c3nc(c(-c4cc(S(=O)(=O)[O-])ccc4F)c4ccc([nH]4)c(-c4cc(S(=O)(=O)[O-])ccc4F)c4nc(c(-c5cc(S(=O)(=O)[O-])ccc5F)c5ccc2[nH]5)C=C4)C=C3)cc1
REMARK SMILES IDX 20 1 19 2 18 3 1 4 2 5 3 7 4 8 5 9 6 10 7 11 8 12 17 13 9 14
REMARK SMILES IDX 11 15 10 16 12 17 16 18 13 19 15 20 14 21 21 22 22 23 23 24
REMARK SMILES IDX 24 26 25 27 26 28 87 29 27 30 86 31 28 32 29 33 30 34 80 35
REMARK SMILES IDX 31 36 85 37 79 38 81 39 32 40 84 41 78 42 77 43 33 45 65 46
REMARK SMILES IDX 45 47 64 48 46 49 49 50 63 51 82 52 47 53 48 54 62 56 83 57
REMARK SMILES IDX 50 58 34 59 35 60 43 61 36 62 42 63 44 64 41 65 37 66 38 67
REMARK SMILES IDX 39 68 40 69 66 70 67 71 75 72 68 73 74 74 76 75 73 76 69 77
REMARK SMILES IDX 70 78 71 79 72 80 51 81 52 82 60 83 53 84 59 85 61 86 58 87
REMARK SMILES IDX 54 88 55 89 56 90 57 91
REMARK H PARENT 18 6 22 25 81 44 49 55
REMARK Flexibility Score: inf
ROOT
ATOM      1  C   UNL A   1      35.890  22.169  24.483  1.00  0.00     0.042 C 
ENDROOT
BRANCH   1   2
ATOM      2  C   UNL A   1      34.628  21.334  24.664  1.00  0.00     0.117 C 
BRANCH   2   3
ATOM      3  N   UNL A   1      33.416  22.048  25.045  1.00  0.00    -0.355 N 
ATOM      4  O   UNL A   1      32.133  20.179  25.102  1.00  0.00    -0.274 OA
ATOM      5  C   UNL A   1      32.260  21.376  25.352  1.00  0.00     0.235 C 
ATOM      6  H   UNL A   1      33.428  23.032  25.082  1.00  0.00     0.163 HD
BRANCH   5   7
ATOM      7  C   UNL A   1      31.086  22.169  25.804  1.00  0.00     0.236 C 
BRANCH   7   8
ATOM      8  S   UNL A   1      31.207  23.927  26.015  1.00  0.00     0.162 S 
ATOM      9  O   UNL A   1      30.104  24.270  26.905  1.00  0.00    -0.228 OA
ATOM     10  O   UNL A   1      32.560  24.171  26.494  1.00  0.00    -0.228 OA
BRANCH   8  11
ATOM     11  C   UNL A   1      31.009  25.030  24.606  1.00  0.00     0.114 C 
ATOM     12  C   UNL A   1      32.189  25.066  23.652  1.00  0.00     0.048 C 
ATOM     13  C   UNL A   1      30.432  26.428  24.841  1.00  0.00     0.055 C 
ATOM     14  C   UNL A   1      32.967  26.360  23.788  1.00  0.00     0.162 C 
ATOM     15  C   UNL A   1      31.476  27.432  25.359  1.00  0.00     0.069 C 
ATOM     16  O   UNL A   1      32.788  26.917  25.089  1.00  0.00    -0.375 OA
ATOM     17  C   UNL A   1      31.255  27.602  26.881  1.00  0.00     0.035 C 
ATOM     18  C   UNL A   1      31.353  28.832  24.711  1.00  0.00     0.035 C 
ATOM     19  C   UNL A   1      32.176  28.624  27.536  1.00  0.00     0.003 C 
ATOM     20  C   UNL A   1      32.301  29.854  25.357  1.00  0.00     0.003 C 
ATOM     21  C   UNL A   1      32.056  29.977  26.856  1.00  0.00     0.000 C 
ENDBRANCH   8  11
ENDBRANCH   7   8
ENDBRANCH   5   7
ENDBRANCH   2   3
ENDBRANCH   1   2
BRANCH   1  22
ATOM     22  C   UNL A   1      36.757  22.297  25.721  1.00  0.00     0.118 C 
BRANCH  22  23
ATOM     23  N   UNL A   1      37.788  21.275  25.799  1.00  0.00    -0.352 N 
ATOM     24  C   UNL A   1      39.101  21.389  26.176  1.00  0.00     0.251 C 
ATOM     25  H   UNL A   1      37.500  20.369  25.543  1.00  0.00     0.163 HD
ATOM     26  O   UNL A   1      39.849  20.429  26.066  1.00  0.00    -0.269 OA
BRANCH  24  27
ATOM     27  C   UNL A   1      39.596  22.688  26.672  1.00  0.00     0.039 A 
ATOM     28  C   UNL A   1      40.574  22.693  27.667  1.00  0.00     0.014 A 
ATOM     29  C   UNL A   1      39.121  23.888  26.135  1.00  0.00     0.014 A 
ATOM     30  C   UNL A   1      41.118  23.906  28.083  1.00  0.00     0.010 A 
ATOM     31  C   UNL A   1      39.728  25.087  26.485  1.00  0.00     0.010 A 
ATOM     32  C   UNL A   1      40.722  25.108  27.472  1.00  0.00    -0.014 A 
BRANCH  32  33
ATOM     33  C   UNL A   1      41.332  26.395  27.880  1.00  0.00     0.031 A 
ATOM     34  C   UNL A   1      42.741  26.715  27.471  1.00  0.00     0.074 A 
ATOM     35  C   UNL A   1      40.617  27.248  28.638  1.00  0.00     0.049 A 
ATOM     36  N   UNL A   1      43.447  27.791  27.709  1.00  0.00    -0.248 NA
ATOM     37  C   UNL A   1      43.467  25.676  26.724  1.00  0.00     0.031 C 
ATOM     38  C   UNL A   1      39.264  26.996  29.144  1.00  0.00     0.029 A 
ATOM     39  N   UNL A   1      40.919  28.497  29.111  1.00  0.00    -0.354 N 
ATOM     40  C   UNL A   1      44.697  27.554  27.148  1.00  0.00     0.074 A 
ATOM     41  C   UNL A   1      44.676  26.205  26.628  1.00  0.00     0.031 C 
ATOM     42  C   UNL A   1      38.837  28.077  29.816  1.00  0.00     0.029 A 
ATOM     43  C   UNL A   1      39.895  29.082  29.819  1.00  0.00     0.049 A 
ATOM     44  H   UNL A   1      41.787  28.936  28.958  1.00  0.00     0.167 HD
ATOM     45  C   UNL A   1      45.753  28.398  27.049  1.00  0.00     0.034 A 
ATOM     46  C   UNL A   1      39.819  30.296  30.397  1.00  0.00     0.034 A 
ATOM     47  C   UNL A   1      45.740  29.743  27.571  1.00  0.00     0.049 A 
ATOM     48  C   UNL A   1      40.998  31.225  30.258  1.00  0.00     0.074 A 
ATOM     49  C   UNL A   1      46.726  30.709  27.497  1.00  0.00     0.029 A 
ATOM     50  N   UNL A   1      44.680  30.311  28.271  1.00  0.00    -0.354 N 
ATOM     51  N   UNL A   1      42.153  31.012  29.666  1.00  0.00    -0.248 NA
ATOM     52  C   UNL A   1      40.855  32.562  30.842  1.00  0.00     0.031 C 
ATOM     53  C   UNL A   1      46.289  31.836  28.206  1.00  0.00     0.029 A 
ATOM     54  C   UNL A   1      44.998  31.604  28.655  1.00  0.00     0.049 A 
ATOM     55  H   UNL A   1      43.827  29.858  28.466  1.00  0.00     0.167 HD
ATOM     56  C   UNL A   1      42.863  32.203  29.784  1.00  0.00     0.074 A 
ATOM     57  C   UNL A   1      41.993  33.132  30.478  1.00  0.00     0.031 C 
ATOM     58  C   UNL A   1      44.118  32.506  29.362  1.00  0.00     0.034 A 
BRANCH  45  59
ATOM     59  C   UNL A   1      46.999  27.874  26.373  1.00  0.00     0.023 A 
ATOM     60  C   UNL A   1      47.250  28.099  25.007  1.00  0.00     0.031 A 
ATOM     61  C   UNL A   1      47.929  27.101  27.089  1.00  0.00     0.131 A 
ATOM     62  C   UNL A   1      48.349  27.489  24.383  1.00  0.00     0.055 A 
ATOM     63  C   UNL A   1      49.069  26.569  26.482  1.00  0.00     0.041 A 
ATOM     64  F   UNL A   1      47.736  26.830  28.390  1.00  0.00    -0.206 F 
ATOM     65  C   UNL A   1      49.276  26.748  25.117  1.00  0.00     0.022 A 
BRANCH  62  66
ATOM     66  S   UNL A   1      48.466  27.555  22.574  1.00  0.00     0.124 S 
ATOM     67  O   UNL A   1      48.463  26.135  22.228  1.00  0.00    -0.237 OA
ATOM     68  O   UNL A   1      47.271  28.304  22.205  1.00  0.00    -0.237 OA
ATOM     69  O   UNL A   1      49.734  28.243  22.336  1.00  0.00    -0.744 OA
ENDBRANCH  62  66
ENDBRANCH  45  59
BRANCH  46  70
ATOM     70  C   UNL A   1      38.590  30.711  31.133  1.00  0.00     0.023 A 
ATOM     71  C   UNL A   1      37.524  31.341  30.468  1.00  0.00     0.031 A 
ATOM     72  C   UNL A   1      38.474  30.512  32.519  1.00  0.00     0.131 A 
ATOM     73  C   UNL A   1      36.413  31.793  31.197  1.00  0.00     0.055 A 
ATOM     74  C   UNL A   1      37.344  30.917  33.232  1.00  0.00     0.041 A 
ATOM     75  F   UNL A   1      39.459  29.906  33.203  1.00  0.00    -0.206 F 
ATOM     76  C   UNL A   1      36.310  31.574  32.573  1.00  0.00     0.022 A 
BRANCH  73  77
ATOM     77  S   UNL A   1      35.137  32.750  30.333  1.00  0.00     0.124 S 
ATOM     78  O   UNL A   1      34.120  32.893  31.369  1.00  0.00    -0.237 OA
ATOM     79  O   UNL A   1      35.861  33.965  29.972  1.00  0.00    -0.237 OA
ATOM     80  O   UNL A   1      34.770  31.890  29.210  1.00  0.00    -0.744 OA
ENDBRANCH  73  77
ENDBRANCH  46  70
BRANCH  58  81
ATOM     81  C   UNL A   1      44.593  33.915  29.615  1.00  0.00     0.023 A 
ATOM     82  C   UNL A   1      44.291  34.965  28.730  1.00  0.00     0.031 A 
ATOM     83  C   UNL A   1      45.392  34.204  30.735  1.00  0.00     0.131 A 
ATOM     84  C   UNL A   1      44.852  36.233  28.933  1.00  0.00     0.055 A 
ATOM     85  C   UNL A   1      45.887  35.486  30.973  1.00  0.00     0.041 A 
ATOM     86  F   UNL A   1      45.712  33.240  31.614  1.00  0.00    -0.206 F 
ATOM     87  C   UNL A   1      45.634  36.505  30.058  1.00  0.00     0.022 A 
BRANCH  84  88
ATOM     88  S   UNL A   1      44.655  37.485  27.637  1.00  0.00     0.124 S 
ATOM     89  O   UNL A   1      44.320  38.675  28.414  1.00  0.00    -0.237 OA
ATOM     90  O   UNL A   1      45.969  37.487  27.003  1.00  0.00    -0.237 OA
ATOM     91  O   UNL A   1      43.570  36.957  26.812  1.00  0.00    -0.744 OA
ENDBRANCH  84  88
ENDBRANCH  58  81
ENDBRANCH  32  33
ENDBRANCH  24  27
ENDBRANCH  22  23
ENDBRANCH   1  22
TORSDOF 15
ENDMDL
MODEL 2
REMARK VINA RESULT:     -12.3      4.867     10.078
REMARK SMILES O=C(CS(=O)(=O)[C@@H]1CCOC2(CCCCC2)C1)NCCCNC(=O)c1ccc(-c2c3nc(c(-c4cc(S(=O)(=O)[O-])ccc4F)c4ccc([nH]4)c(-c4cc(S(=O)(=O)[O-])ccc4F)c4nc(c(-c5cc(S(=O)(=O)[O-])ccc5F)c5ccc2[nH]5)C=C4)C=C3)cc1
REMARK SMILES IDX 20 1 19 2 18 3 1 4 2 5 3 7 4 8 5 9 6 10 7 11 8 12 17 13 9 14
REMARK SMILES IDX 11 15 10 16 12 17 16 18 13 19 15 20 14 21 21 22 22 23 23 24
REMARK SMILES IDX 24 26 25 27 26 28 87 29 27 30 86 31 28 32 29 33 30 34 80 35
REMARK SMILES IDX 31 36 85 37 79 38 81 39 32 40 84 41 78 42 77 43 33 45 65 46
REMARK SMILES IDX 45 47 64 48 46 49 49 50 63 51 82 52 47 53 48 54 62 56 83 57
REMARK SMILES IDX 50 58 34 59 35 60 43 61 36 62 42 63 44 64 41 65 37 66 38 67
REMARK SMILES IDX 39 68 40 69 66 70 67 71 75 72 68 73 74 74 76 75 73 76 69 77
REMARK SMILES IDX 70 78 71 79 72 80 51 81 52 82 60 83 53 84 59 85 61 86 58 87
REMARK SMILES IDX 54 88 55 89 56 90 57 91
REMARK H PARENT 18 6 22 25 81 44 49 55
REMARK Flexibility Score: inf
ROOT
ATOM      1  C   UNL A   1      31.998  28.857  26.030  1.00  0.00     0.042 C 
ENDROOT
BRANCH   1   2
ATOM      2  C   UNL A   1      31.698  27.627  26.878  1.00  0.00     0.117 C 
BRANCH   2   3
ATOM      3  N   UNL A   1      32.032  26.332  26.299  1.00  0.00    -0.355 N 
ATOM      4  O   UNL A   1      29.935  25.499  26.536  1.00  0.00    -0.274 OA
ATOM      5  C   UNL A   1      31.066  25.386  26.065  1.00  0.00     0.235 C 
ATOM      6  H   UNL A   1      32.969  26.132  26.071  1.00  0.00     0.163 HD
BRANCH   5   7
ATOM      7  C   UNL A   1      31.471  24.118  25.403  1.00  0.00     0.236 C 
BRANCH   7   8
ATOM      8  S   UNL A   1      31.647  24.031  23.639  1.00  0.00     0.162 S 
ATOM      9  O   UNL A   1      30.317  23.689  23.150  1.00  0.00    -0.228 OA
ATOM     10  O   UNL A   1      32.203  25.317  23.239  1.00  0.00    -0.228 OA
BRANCH   8  11
ATOM     11  C   UNL A   1      32.732  22.806  22.890  1.00  0.00     0.114 C 
ATOM     12  C   UNL A   1      32.505  21.380  23.359  1.00  0.00     0.048 C 
ATOM     13  C   UNL A   1      34.223  23.125  22.759  1.00  0.00     0.055 C 
ATOM     14  C   UNL A   1      33.618  20.920  24.279  1.00  0.00     0.162 C 
ATOM     15  C   UNL A   1      35.008  22.885  24.059  1.00  0.00     0.069 C 
ATOM     16  O   UNL A   1      34.232  22.037  24.919  1.00  0.00    -0.375 OA
ATOM     17  C   UNL A   1      35.256  24.261  24.723  1.00  0.00     0.035 C 
ATOM     18  C   UNL A   1      36.388  22.223  23.828  1.00  0.00     0.035 C 
ATOM     19  C   UNL A   1      36.087  24.198  25.998  1.00  0.00     0.003 C 
ATOM     20  C   UNL A   1      37.213  22.138  25.122  1.00  0.00     0.003 C 
ATOM     21  C   UNL A   1      37.420  23.514  25.746  1.00  0.00     0.000 C 
ENDBRANCH   8  11
ENDBRANCH   7   8
ENDBRANCH   5   7
ENDBRANCH   2   3
ENDBRANCH   1   2
BRANCH   1  22
ATOM     22  C   UNL A   1      33.313  29.545  26.342  1.00  0.00     0.118 C 
BRANCH  22  23
ATOM     23  N   UNL A   1      33.142  30.923  26.774  1.00  0.00    -0.352 N 
ATOM     24  C   UNL A   1      33.934  31.682  27.597  1.00  0.00     0.251 C 
ATOM     25  H   UNL A   1      32.341  31.376  26.425  1.00  0.00     0.163 HD
ATOM     26  O   UNL A   1      33.562  32.795  27.940  1.00  0.00    -0.269 OA
BRANCH  24  27
ATOM     27  C   UNL A   1      35.208  31.120  28.088  1.00  0.00     0.039 A 
ATOM     28  C   UNL A   1      36.352  31.917  28.034  1.00  0.00     0.014 A 
ATOM     29  C   UNL A   1      35.263  29.831  28.625  1.00  0.00     0.014 A 
ATOM     30  C   UNL A   1      37.543  31.437  28.574  1.00  0.00     0.010 A 
ATOM     31  C   UNL A   1      36.426  29.391  29.244  1.00  0.00     0.010 A 
ATOM     32  C   UNL A   1      37.579  30.185  29.211  1.00  0.00    -0.014 A 
BRANCH  32  33
ATOM     33  C   UNL A   1      38.833  29.692  29.828  1.00  0.00     0.031 A 
ATOM     34  C   UNL A   1      39.253  30.205  31.177  1.00  0.00     0.074 A 
ATOM     35  C   UNL A   1      39.593  28.808  29.153  1.00  0.00     0.049 A 
ATOM     36  N   UNL A   1      40.301  29.886  31.892  1.00  0.00    -0.248 NA
ATOM     37  C   UNL A   1      38.402  31.237  31.787  1.00  0.00     0.031 C 
ATOM     38  C   UNL A   1      39.304  28.304  27.807  1.00  0.00     0.029 A 
ATOM     39  N   UNL A   1      40.754  28.173  29.502  1.00  0.00    -0.354 N 
ATOM     40  C   UNL A   1      40.236  30.682  33.031  1.00  0.00     0.074 A 
ATOM     41  C   UNL A   1      39.092  31.551  32.872  1.00  0.00     0.031 C 
ATOM     42  C   UNL A   1      40.238  27.402  27.466  1.00  0.00     0.029 A 
ATOM     43  C   UNL A   1      41.208  27.291  28.549  1.00  0.00     0.049 A 
ATOM     44  H   UNL A   1      41.221  28.333  30.354  1.00  0.00     0.167 HD
ATOM     45  C   UNL A   1      41.041  30.664  34.121  1.00  0.00     0.034 A 
ATOM     46  C   UNL A   1      42.283  26.478  28.557  1.00  0.00     0.034 A 
ATOM     47  C   UNL A   1      42.171  29.778  34.254  1.00  0.00     0.049 A 
ATOM     48  C   UNL A   1      43.152  26.462  29.788  1.00  0.00     0.074 A 
ATOM     49  C   UNL A   1      43.037  29.632  35.323  1.00  0.00     0.029 A 
ATOM     50  N   UNL A   1      42.596  28.884  33.276  1.00  0.00    -0.354 N 
ATOM     51  N   UNL A   1      43.043  27.174  30.888  1.00  0.00    -0.248 NA
ATOM     52  C   UNL A   1      44.274  25.518  29.788  1.00  0.00     0.031 C 
ATOM     53  C   UNL A   1      44.019  28.700  34.967  1.00  0.00     0.029 A 
ATOM     54  C   UNL A   1      43.723  28.203  33.707  1.00  0.00     0.049 A 
ATOM     55  H   UNL A   1      42.159  28.755  32.403  1.00  0.00     0.167 HD
ATOM     56  C   UNL A   1      44.068  26.740  31.723  1.00  0.00     0.074 A 
ATOM     57  C   UNL A   1      44.763  25.689  31.007  1.00  0.00     0.031 C 
ATOM     58  C   UNL A   1      44.409  27.169  32.966  1.00  0.00     0.034 A 
BRANCH  45  59
ATOM     59  C   UNL A   1      40.730  31.645  35.229  1.00  0.00     0.023 A 
ATOM     60  C   UNL A   1      39.642  31.455  36.101  1.00  0.00     0.031 A 
ATOM     61  C   UNL A   1      41.502  32.809  35.390  1.00  0.00     0.131 A 
ATOM     62  C   UNL A   1      39.306  32.448  37.034  1.00  0.00     0.055 A 
ATOM     63  C   UNL A   1      41.213  33.754  36.378  1.00  0.00     0.041 A 
ATOM     64  F   UNL A   1      42.537  33.061  34.575  1.00  0.00    -0.206 F 
ATOM     65  C   UNL A   1      40.100  33.584  37.196  1.00  0.00     0.022 A 
BRANCH  62  66
ATOM     66  S   UNL A   1      37.731  32.305  37.923  1.00  0.00     0.124 S 
ATOM     67  O   UNL A   1      38.081  32.856  39.230  1.00  0.00    -0.237 OA
ATOM     68  O   UNL A   1      36.832  33.113  37.109  1.00  0.00    -0.237 OA
ATOM     69  O   UNL A   1      37.461  30.867  37.914  1.00  0.00    -0.744 OA
ENDBRANCH  62  66
ENDBRANCH  45  59
BRANCH  46  70
ATOM     70  C   UNL A   1      42.583  25.605  27.386  1.00  0.00     0.023 A 
ATOM     71  C   UNL A   1      42.130  24.276  27.336  1.00  0.00     0.031 A 
ATOM     72  C   UNL A   1      43.355  26.077  26.311  1.00  0.00     0.131 A 
ATOM     73  C   UNL A   1      42.494  23.452  26.260  1.00  0.00     0.055 A 
ATOM     74  C   UNL A   1      43.670  25.269  25.217  1.00  0.00     0.041 A 
ATOM     75  F   UNL A   1      43.806  27.342  26.302  1.00  0.00    -0.206 F 
ATOM     76  C   UNL A   1      43.251  23.943  25.193  1.00  0.00     0.022 A 
BRANCH  73  77
ATOM     77  S   UNL A   1      42.032  21.698  26.313  1.00  0.00     0.124 S 
ATOM     78  O   UNL A   1      42.397  21.335  27.677  1.00  0.00    -0.237 OA
ATOM     79  O   UNL A   1      40.602  21.754  26.023  1.00  0.00    -0.237 OA
ATOM     80  O   UNL A   1      42.854  21.098  25.264  1.00  0.00    -0.744 OA
ENDBRANCH  73  77
ENDBRANCH  46  70
BRANCH  58  81
ATOM     81  C   UNL A   1      45.566  26.463  33.629  1.00  0.00     0.023 A 
ATOM     82  C   UNL A   1      45.373  25.315  34.418  1.00  0.00     0.031 A 
ATOM     83  C   UNL A   1      46.872  26.968  33.503  1.00  0.00     0.131 A 
ATOM     84  C   UNL A   1      46.454  24.759  35.118  1.00  0.00     0.055 A 
ATOM     85  C   UNL A   1      47.956  26.366  34.142  1.00  0.00     0.041 A 
ATOM     86  F   UNL A   1      47.114  28.061  32.761  1.00  0.00    -0.206 F 
ATOM     87  C   UNL A   1      47.747  25.267  34.970  1.00  0.00     0.022 A 
BRANCH  84  88
ATOM     88  S   UNL A   1      46.123  23.448  36.325  1.00  0.00     0.124 S 
ATOM     89  O   UNL A   1      45.539  24.197  37.434  1.00  0.00    -0.237 OA
ATOM     90  O   UNL A   1      45.210  22.576  35.594  1.00  0.00    -0.237 OA
ATOM     91  O   UNL A   1      47.445  22.882  36.587  1.00  0.00    -0.744 OA
ENDBRANCH  84  88
ENDBRANCH  58  81
ENDBRANCH  32  33
ENDBRANCH  24  27
ENDBRANCH  22  23
ENDBRANCH   1  22
TORSDOF 15
ENDMDL
MODEL 3
REMARK VINA RESULT:     -12.3      1.674      2.010
REMARK SMILES O=C(CS(=O)(=O)[C@@H]1CCOC2(CCCCC2)C1)NCCCNC(=O)c1ccc(-c2c3nc(c(-c4cc(S(=O)(=O)[O-])ccc4F)c4ccc([nH]4)c(-c4cc(S(=O)(=O)[O-])ccc4F)c4nc(c(-c5cc(S(=O)(=O)[O-])ccc5F)c5ccc2[nH]5)C=C4)C=C3)cc1
REMARK SMILES IDX 20 1 19 2 18 3 1 4 2 5 3 7 4 8 5 9 6 10 7 11 8 12 17 13 9 14
REMARK SMILES IDX 11 15 10 16 12 17 16 18 13 19 15 20 14 21 21 22 22 23 23 24
REMARK SMILES IDX 24 26 25 27 26 28 87 29 27 30 86 31 28 32 29 33 30 34 80 35
REMARK SMILES IDX 31 36 85 37 79 38 81 39 32 40 84 41 78 42 77 43 33 45 65 46
REMARK SMILES IDX 45 47 64 48 46 49 49 50 63 51 82 52 47 53 48 54 62 56 83 57
REMARK SMILES IDX 50 58 34 59 35 60 43 61 36 62 42 63 44 64 41 65 37 66 38 67
REMARK SMILES IDX 39 68 40 69 66 70 67 71 75 72 68 73 74 74 76 75 73 76 69 77
REMARK SMILES IDX 70 78 71 79 72 80 51 81 52 82 60 83 53 84 59 85 61 86 58 87
REMARK SMILES IDX 54 88 55 89 56 90 57 91
REMARK H PARENT 18 6 22 25 81 44 49 55
REMARK Flexibility Score: inf
ROOT
ATOM      1  C   UNL A   1      35.336  22.043  26.546  1.00  0.00     0.042 C 
ENDROOT
BRANCH   1   2
ATOM      2  C   UNL A   1      34.099  21.209  26.229  1.00  0.00     0.117 C 
BRANCH   2   3
ATOM      3  N   UNL A   1      32.982  21.903  25.599  1.00  0.00    -0.355 N 
ATOM      4  O   UNL A   1      32.257  22.840  27.534  1.00  0.00    -0.274 OA
ATOM      5  C   UNL A   1      32.198  22.778  26.307  1.00  0.00     0.235 C 
ATOM      6  H   UNL A   1      32.788  21.740  24.648  1.00  0.00     0.163 HD
BRANCH   5   7
ATOM      7  C   UNL A   1      31.124  23.504  25.578  1.00  0.00     0.236 C 
BRANCH   7   8
ATOM      8  S   UNL A   1      31.365  24.036  23.902  1.00  0.00     0.162 S 
ATOM      9  O   UNL A   1      31.627  22.810  23.159  1.00  0.00    -0.228 OA
ATOM     10  O   UNL A   1      30.168  24.792  23.557  1.00  0.00    -0.228 OA
BRANCH   8  11
ATOM     11  C   UNL A   1      32.736  25.123  23.479  1.00  0.00     0.114 C 
ATOM     12  C   UNL A   1      34.101  24.635  23.930  1.00  0.00     0.048 C 
ATOM     13  C   UNL A   1      32.575  26.629  23.697  1.00  0.00     0.055 C 
ATOM     14  C   UNL A   1      34.612  25.444  25.106  1.00  0.00     0.162 C 
ATOM     15  C   UNL A   1      32.813  27.056  25.156  1.00  0.00     0.069 C 
ATOM     16  O   UNL A   1      33.525  26.011  25.834  1.00  0.00    -0.375 OA
ATOM     17  C   UNL A   1      31.431  27.293  25.811  1.00  0.00     0.035 C 
ATOM     18  C   UNL A   1      33.622  28.369  25.286  1.00  0.00     0.035 C 
ATOM     19  C   UNL A   1      31.498  27.790  27.249  1.00  0.00     0.003 C 
ATOM     20  C   UNL A   1      33.710  28.853  26.742  1.00  0.00     0.003 C 
ATOM     21  C   UNL A   1      32.327  29.060  27.348  1.00  0.00     0.000 C 
ENDBRANCH   8  11
ENDBRANCH   7   8
ENDBRANCH   5   7
ENDBRANCH   2   3
ENDBRANCH   1   2
BRANCH   1  22
ATOM     22  C   UNL A   1      36.364  22.110  25.434  1.00  0.00     0.118 C 
BRANCH  22  23
ATOM     23  N   UNL A   1      37.329  21.024  25.489  1.00  0.00    -0.352 N 
ATOM     24  C   UNL A   1      38.649  21.047  25.862  1.00  0.00     0.251 C 
ATOM     25  H   UNL A   1      36.984  20.142  25.218  1.00  0.00     0.163 HD
ATOM     26  O   UNL A   1      39.334  20.045  25.732  1.00  0.00    -0.269 OA
BRANCH  24  27
ATOM     27  C   UNL A   1      39.226  22.304  26.380  1.00  0.00     0.039 A 
ATOM     28  C   UNL A   1      40.314  22.228  27.250  1.00  0.00     0.014 A 
ATOM     29  C   UNL A   1      38.717  23.544  25.982  1.00  0.00     0.014 A 
ATOM     30  C   UNL A   1      40.929  23.404  27.677  1.00  0.00     0.010 A 
ATOM     31  C   UNL A   1      39.387  24.708  26.334  1.00  0.00     0.010 A 
ATOM     32  C   UNL A   1      40.490  24.649  27.196  1.00  0.00    -0.014 A 
BRANCH  32  33
ATOM     33  C   UNL A   1      41.171  25.897  27.611  1.00  0.00     0.031 A 
ATOM     34  C   UNL A   1      42.595  26.143  27.199  1.00  0.00     0.074 A 
ATOM     35  C   UNL A   1      40.506  26.782  28.378  1.00  0.00     0.049 A 
ATOM     36  N   UNL A   1      43.359  27.176  27.443  1.00  0.00    -0.248 NA
ATOM     37  C   UNL A   1      43.259  25.071  26.442  1.00  0.00     0.031 C 
ATOM     38  C   UNL A   1      39.144  26.601  28.887  1.00  0.00     0.029 A 
ATOM     39  N   UNL A   1      40.879  28.009  28.859  1.00  0.00    -0.354 N 
ATOM     40  C   UNL A   1      44.593  26.875  26.875  1.00  0.00     0.074 A 
ATOM     41  C   UNL A   1      44.496  25.533  26.346  1.00  0.00     0.031 C 
ATOM     42  C   UNL A   1      38.779  27.699  29.568  1.00  0.00     0.029 A 
ATOM     43  C   UNL A   1      39.890  28.644  29.575  1.00  0.00     0.049 A 
ATOM     44  H   UNL A   1      41.769  28.401  28.706  1.00  0.00     0.167 HD
ATOM     45  C   UNL A   1      45.693  27.661  26.779  1.00  0.00     0.034 A 
ATOM     46  C   UNL A   1      39.884  29.856  30.163  1.00  0.00     0.034 A 
ATOM     47  C   UNL A   1      45.755  29.000  27.311  1.00  0.00     0.049 A 
ATOM     48  C   UNL A   1      41.111  30.720  30.026  1.00  0.00     0.074 A 
ATOM     49  C   UNL A   1      46.793  29.911  27.241  1.00  0.00     0.029 A 
ATOM     50  N   UNL A   1      44.731  29.620  28.019  1.00  0.00    -0.354 N 
ATOM     51  N   UNL A   1      42.251  30.448  29.429  1.00  0.00    -0.248 NA
ATOM     52  C   UNL A   1      41.044  32.058  30.621  1.00  0.00     0.031 C 
ATOM     53  C   UNL A   1      46.422  31.054  27.960  1.00  0.00     0.029 A 
ATOM     54  C   UNL A   1      45.121  30.891  28.411  1.00  0.00     0.049 A 
ATOM     55  H   UNL A   1      43.856  29.213  28.214  1.00  0.00     0.167 HD
ATOM     56  C   UNL A   1      43.026  31.598  29.553  1.00  0.00     0.074 A 
ATOM     57  C   UNL A   1      42.210  32.568  30.258  1.00  0.00     0.031 C 
ATOM     58  C   UNL A   1      44.294  31.834  29.129  1.00  0.00     0.034 A 
BRANCH  45  59
ATOM     59  C   UNL A   1      46.906  27.074  26.095  1.00  0.00     0.023 A 
ATOM     60  C   UNL A   1      47.894  26.373  26.812  1.00  0.00     0.031 A 
ATOM     61  C   UNL A   1      47.105  27.253  24.715  1.00  0.00     0.131 A 
ATOM     62  C   UNL A   1      49.068  25.955  26.169  1.00  0.00     0.055 A 
ATOM     63  C   UNL A   1      48.237  26.758  24.062  1.00  0.00     0.041 A 
ATOM     64  F   UNL A   1      46.213  27.933  23.978  1.00  0.00    -0.206 F 
ATOM     65  C   UNL A   1      49.235  26.119  24.793  1.00  0.00     0.022 A 
BRANCH  62  66
ATOM     66  S   UNL A   1      50.438  25.331  27.182  1.00  0.00     0.124 S 
ATOM     67  O   UNL A   1      51.433  25.007  26.163  1.00  0.00    -0.237 OA
ATOM     68  O   UNL A   1      50.746  26.473  28.036  1.00  0.00    -0.237 OA
ATOM     69  O   UNL A   1      49.859  24.176  27.868  1.00  0.00    -0.744 OA
ENDBRANCH  62  66
ENDBRANCH  45  59
BRANCH  46  70
ATOM     70  C   UNL A   1      38.681  30.333  30.906  1.00  0.00     0.023 A 
ATOM     71  C   UNL A   1      37.622  30.971  30.240  1.00  0.00     0.031 A 
ATOM     72  C   UNL A   1      38.587  30.185  32.301  1.00  0.00     0.131 A 
ATOM     73  C   UNL A   1      36.539  31.480  30.973  1.00  0.00     0.055 A 
ATOM     74  C   UNL A   1      37.483  30.647  33.019  1.00  0.00     0.041 A 
ATOM     75  F   UNL A   1      39.567  29.574  32.986  1.00  0.00    -0.206 F 
ATOM     76  C   UNL A   1      36.456  31.312  32.357  1.00  0.00     0.022 A 
BRANCH  73  77
ATOM     77  S   UNL A   1      35.274  32.444  30.099  1.00  0.00     0.124 S 
ATOM     78  O   UNL A   1      34.906  31.539  29.016  1.00  0.00    -0.237 OA
ATOM     79  O   UNL A   1      34.270  32.640  31.141  1.00  0.00    -0.237 OA
ATOM     80  O   UNL A   1      35.987  33.652  29.691  1.00  0.00    -0.744 OA
ENDBRANCH  73  77
ENDBRANCH  46  70
BRANCH  58  81
ATOM     81  C   UNL A   1      44.847  33.213  29.391  1.00  0.00     0.023 A 
ATOM     82  C   UNL A   1      44.714  34.250  28.451  1.00  0.00     0.031 A 
ATOM     83  C   UNL A   1      45.550  33.481  30.578  1.00  0.00     0.131 A 
ATOM     84  C   UNL A   1      45.347  35.481  28.676  1.00  0.00     0.055 A 
ATOM     85  C   UNL A   1      46.115  34.731  30.830  1.00  0.00     0.041 A 
ATOM     86  F   UNL A   1      45.707  32.528  31.511  1.00  0.00    -0.206 F 
ATOM     87  C   UNL A   1      46.032  35.734  29.867  1.00  0.00     0.022 A 
BRANCH  84  88
ATOM     88  S   UNL A   1      45.376  36.699  27.334  1.00  0.00     0.124 S 
ATOM     89  O   UNL A   1      46.282  37.714  27.864  1.00  0.00    -0.237 OA
ATOM     90  O   UNL A   1      45.883  35.915  26.213  1.00  0.00    -0.237 OA
ATOM     91  O   UNL A   1      43.978  37.114  27.218  1.00  0.00    -0.744 OA
ENDBRANCH  84  88
ENDBRANCH  58  81
ENDBRANCH  32  33
ENDBRANCH  24  27
ENDBRANCH  22  23
ENDBRANCH   1  22
TORSDOF 15
ENDMDL
