MODEL 1
REMARK VINA RESULT:     -12.5      0.000      0.000
REMARK SMILES COC(=O)c1ccc(Cl)c(-c2ccc(C(=O)NCCCNC(=O)c3ccc(-c4c5nc(c(-c6cc(S(=O)(=O)[O-])ccc6F)c6ccc([nH]6)c(-c6cc(S(=O)(=O)[O-])ccc6F)c6nc(c(-c7cc(S(=O)(=O)[O-])ccc7F)c7ccc4[nH]7)C=C6)C=C5)cc3)nc2)c1
REMARK SMILES IDX 19 1 18 2 17 3 15 4 16 5 14 7 11 8 12 9 88 10 13 11 87 12
REMARK SMILES IDX 10 13 5 14 6 15 89 16 7 17 8 18 9 19 3 20 4 21 2 22 1 23
REMARK SMILES IDX 20 24 21 25 22 26 23 28 24 29 25 30 86 31 26 32 85 33 27 34
REMARK SMILES IDX 28 35 29 36 79 37 30 38 84 39 78 40 80 41 31 42 83 43 77 44
REMARK SMILES IDX 76 45 32 47 64 48 44 49 63 50 45 51 48 52 62 53 81 54 46 55
REMARK SMILES IDX 47 56 61 58 82 59 49 60 33 61 34 62 42 63 35 64 41 65 43 66
REMARK SMILES IDX 40 67 36 68 37 69 38 70 39 71 65 72 66 73 74 74 67 75 73 76
REMARK SMILES IDX 75 77 72 78 68 79 69 80 70 81 71 82 50 83 51 84 59 85 52 86
REMARK SMILES IDX 58 87 60 88 57 89 53 90 54 91 55 92 56 93
REMARK H PARENT 17 6 21 27 80 46 48 57
REMARK Flexibility Score: inf
ROOT
ATOM      1  C   UNL A   1      35.415  21.871  24.532  1.00  0.00     0.042 C 
ENDROOT
BRANCH   1   2
ATOM      2  C   UNL A   1      33.940  21.553  24.781  1.00  0.00     0.118 C 
BRANCH   2   3
ATOM      3  N   UNL A   1      33.618  21.600  26.195  1.00  0.00    -0.351 N 
ATOM      4  C   UNL A   1      33.091  22.589  26.996  1.00  0.00     0.269 C 
ATOM      5  O   UNL A   1      32.850  22.280  28.165  1.00  0.00    -0.268 OA
ATOM      6  H   UNL A   1      33.813  20.763  26.675  1.00  0.00     0.163 HD
BRANCH   4   7
ATOM      7  C   UNL A   1      32.788  23.982  26.510  1.00  0.00     0.128 A 
ATOM      8  C   UNL A   1      32.046  26.544  25.738  1.00  0.00     0.002 A 
ATOM      9  C   UNL A   1      33.324  26.065  25.444  1.00  0.00     0.013 A 
ATOM     10  C   UNL A   1      31.208  25.686  26.442  1.00  0.00     0.120 A 
ATOM     11  C   UNL A   1      33.707  24.788  25.853  1.00  0.00     0.035 A 
ATOM     12  N   UNL A   1      31.540  24.430  26.819  1.00  0.00    -0.250 NA
BRANCH   8  13
ATOM     13  C   UNL A   1      31.644  27.901  25.360  1.00  0.00     0.003 A 
ATOM     14  C   UNL A   1      30.359  29.345  23.864  1.00  0.00     0.060 A 
ATOM     15  C   UNL A   1      30.742  30.468  24.602  1.00  0.00     0.017 A 
ATOM     16  C   UNL A   1      30.797  28.072  24.250  1.00  0.00     0.026 A 
ATOM     17  C   UNL A   1      31.583  30.318  25.706  1.00  0.00     0.022 A 
ATOM     18  C   UNL A   1      32.038  29.047  26.077  1.00  0.00     0.048 A 
ATOM     19  Cl  UNL A   1      33.107  28.951  27.436  1.00  0.00    -0.084 Cl
BRANCH  14  20
ATOM     20  C   UNL A   1      29.489  29.447  22.666  1.00  0.00     0.337 C 
ATOM     21  O   UNL A   1      29.907  29.454  21.529  1.00  0.00    -0.246 OA
BRANCH  20  22
ATOM     22  O   UNL A   1      28.200  29.623  23.060  1.00  0.00    -0.465 OA
ATOM     23  C   UNL A   1      27.707  30.942  22.828  1.00  0.00     0.282 C 
ENDBRANCH  20  22
ENDBRANCH  14  20
ENDBRANCH   8  13
ENDBRANCH   4   7
ENDBRANCH   2   3
ENDBRANCH   1   2
BRANCH   1  24
ATOM     24  C   UNL A   1      36.236  22.033  25.810  1.00  0.00     0.118 C 
BRANCH  24  25
ATOM     25  N   UNL A   1      37.287  21.033  25.907  1.00  0.00    -0.352 N 
ATOM     26  C   UNL A   1      38.647  21.171  26.022  1.00  0.00     0.251 C 
ATOM     27  H   UNL A   1      36.969  20.102  25.887  1.00  0.00     0.163 HD
ATOM     28  O   UNL A   1      39.352  20.186  25.810  1.00  0.00    -0.269 OA
BRANCH  26  29
ATOM     29  C   UNL A   1      39.270  22.464  26.386  1.00  0.00     0.039 A 
ATOM     30  C   UNL A   1      40.332  22.454  27.297  1.00  0.00     0.014 A 
ATOM     31  C   UNL A   1      38.779  23.685  25.911  1.00  0.00     0.014 A 
ATOM     32  C   UNL A   1      40.920  23.656  27.697  1.00  0.00     0.010 A 
ATOM     33  C   UNL A   1      39.415  24.879  26.254  1.00  0.00     0.010 A 
ATOM     34  C   UNL A   1      40.486  24.878  27.159  1.00  0.00    -0.014 A 
BRANCH  34  35
ATOM     35  C   UNL A   1      41.160  26.148  27.539  1.00  0.00     0.031 A 
ATOM     36  C   UNL A   1      42.557  26.453  27.068  1.00  0.00     0.074 A 
ATOM     37  C   UNL A   1      40.513  27.017  28.341  1.00  0.00     0.049 A 
ATOM     38  N   UNL A   1      43.291  27.516  27.283  1.00  0.00    -0.248 NA
ATOM     39  C   UNL A   1      43.228  25.413  26.274  1.00  0.00     0.031 C 
ATOM     40  C   UNL A   1      39.180  26.803  28.910  1.00  0.00     0.029 A 
ATOM     41  N   UNL A   1      40.877  28.253  28.811  1.00  0.00    -0.354 N 
ATOM     42  C   UNL A   1      44.510  27.271  26.660  1.00  0.00     0.074 A 
ATOM     43  C   UNL A   1      44.437  25.932  26.115  1.00  0.00     0.031 C 
ATOM     44  C   UNL A   1      38.825  27.884  29.620  1.00  0.00     0.029 A 
ATOM     45  C   UNL A   1      39.916  28.853  29.590  1.00  0.00     0.049 A 
ATOM     46  H   UNL A   1      41.746  28.671  28.610  1.00  0.00     0.167 HD
ATOM     47  C   UNL A   1      45.582  28.096  26.536  1.00  0.00     0.034 A 
ATOM     48  C   UNL A   1      39.909  30.050  30.208  1.00  0.00     0.034 A 
ATOM     49  C   UNL A   1      45.632  29.431  27.085  1.00  0.00     0.049 A 
ATOM     50  C   UNL A   1      41.100  30.956  30.043  1.00  0.00     0.074 A 
ATOM     51  C   UNL A   1      46.640  30.374  26.976  1.00  0.00     0.029 A 
ATOM     52  N   UNL A   1      44.633  30.013  27.858  1.00  0.00    -0.354 N 
ATOM     53  N   UNL A   1      42.220  30.738  29.391  1.00  0.00    -0.248 NA
ATOM     54  C   UNL A   1      41.016  32.277  30.674  1.00  0.00     0.031 C 
ATOM     55  C   UNL A   1      46.281  31.494  27.736  1.00  0.00     0.029 A 
ATOM     56  C   UNL A   1      45.013  31.288  28.254  1.00  0.00     0.049 A 
ATOM     57  H   UNL A   1      43.778  29.583  28.090  1.00  0.00     0.167 HD
ATOM     58  C   UNL A   1      42.963  31.909  29.513  1.00  0.00     0.074 A 
ATOM     59  C   UNL A   1      42.151  32.834  30.277  1.00  0.00     0.031 C 
ATOM     60  C   UNL A   1      44.203  32.194  29.035  1.00  0.00     0.034 A 
BRANCH  47  61
ATOM     61  C   UNL A   1      46.793  27.560  25.803  1.00  0.00     0.023 A 
ATOM     62  C   UNL A   1      47.092  27.945  24.483  1.00  0.00     0.031 A 
ATOM     63  C   UNL A   1      47.645  26.627  26.421  1.00  0.00     0.131 A 
ATOM     64  C   UNL A   1      48.159  27.342  23.799  1.00  0.00     0.055 A 
ATOM     65  C   UNL A   1      48.758  26.094  25.763  1.00  0.00     0.041 A 
ATOM     66  F   UNL A   1      47.405  26.203  27.671  1.00  0.00    -0.206 F 
ATOM     67  C   UNL A   1      49.010  26.438  24.439  1.00  0.00     0.022 A 
BRANCH  64  68
ATOM     68  S   UNL A   1      48.325  27.639  22.017  1.00  0.00     0.124 S 
ATOM     69  O   UNL A   1      47.032  28.239  21.698  1.00  0.00    -0.237 OA
ATOM     70  O   UNL A   1      49.477  28.529  21.951  1.00  0.00    -0.237 OA
ATOM     71  O   UNL A   1      48.535  26.302  21.465  1.00  0.00    -0.744 OA
ENDBRANCH  64  68
ENDBRANCH  47  61
BRANCH  48  72
ATOM     72  C   UNL A   1      38.735  30.465  31.029  1.00  0.00     0.023 A 
ATOM     73  C   UNL A   1      37.647  31.140  30.453  1.00  0.00     0.031 A 
ATOM     74  C   UNL A   1      38.695  30.207  32.411  1.00  0.00     0.131 A 
ATOM     75  C   UNL A   1      36.585  31.574  31.262  1.00  0.00     0.055 A 
ATOM     76  C   UNL A   1      37.612  30.595  33.202  1.00  0.00     0.041 A 
ATOM     77  F   UNL A   1      39.704  29.556  33.009  1.00  0.00    -0.206 F 
ATOM     78  C   UNL A   1      36.555  31.293  32.630  1.00  0.00     0.022 A 
BRANCH  75  79
ATOM     79  S   UNL A   1      35.272  32.576  30.512  1.00  0.00     0.124 S 
ATOM     80  O   UNL A   1      35.983  33.809  30.194  1.00  0.00    -0.237 OA
ATOM     81  O   UNL A   1      34.877  31.752  29.374  1.00  0.00    -0.237 OA
ATOM     82  O   UNL A   1      34.277  32.684  31.576  1.00  0.00    -0.744 OA
ENDBRANCH  75  79
ENDBRANCH  48  72
BRANCH  60  83
ATOM     83  C   UNL A   1      44.727  33.586  29.301  1.00  0.00     0.023 A 
ATOM     84  C   UNL A   1      44.376  34.677  28.485  1.00  0.00     0.031 A 
ATOM     85  C   UNL A   1      45.626  33.815  30.357  1.00  0.00     0.131 A 
ATOM     86  C   UNL A   1      44.982  35.925  28.688  1.00  0.00     0.055 A 
ATOM     87  C   UNL A   1      46.170  35.077  30.600  1.00  0.00     0.041 A 
ATOM     88  F   UNL A   1      46.000  32.812  31.167  1.00  0.00    -0.206 F 
ATOM     89  C   UNL A   1      45.865  36.137  29.751  1.00  0.00     0.022 A 
BRANCH  86  90
ATOM     90  S   UNL A   1      44.706  37.236  27.464  1.00  0.00     0.124 S 
ATOM     91  O   UNL A   1      44.558  38.415  28.310  1.00  0.00    -0.237 OA
ATOM     92  O   UNL A   1      45.926  37.175  26.664  1.00  0.00    -0.237 OA
ATOM     93  O   UNL A   1      43.491  36.810  26.773  1.00  0.00    -0.744 OA
ENDBRANCH  86  90
ENDBRANCH  60  83
ENDBRANCH  34  35
ENDBRANCH  26  29
ENDBRANCH  24  25
ENDBRANCH   1  24
TORSDOF 16
ENDMDL
MODEL 2
REMARK VINA RESULT:     -12.4      4.959     10.147
REMARK SMILES COC(=O)c1ccc(Cl)c(-c2ccc(C(=O)NCCCNC(=O)c3ccc(-c4c5nc(c(-c6cc(S(=O)(=O)[O-])ccc6F)c6ccc([nH]6)c(-c6cc(S(=O)(=O)[O-])ccc6F)c6nc(c(-c7cc(S(=O)(=O)[O-])ccc7F)c7ccc4[nH]7)C=C6)C=C5)cc3)nc2)c1
REMARK SMILES IDX 19 1 18 2 17 3 15 4 16 5 14 7 11 8 12 9 88 10 13 11 87 12
REMARK SMILES IDX 10 13 5 14 6 15 89 16 7 17 8 18 9 19 3 20 4 21 2 22 1 23
REMARK SMILES IDX 20 24 21 25 22 26 23 28 24 29 25 30 86 31 26 32 85 33 27 34
REMARK SMILES IDX 28 35 29 36 79 37 30 38 84 39 78 40 80 41 31 42 83 43 77 44
REMARK SMILES IDX 76 45 32 47 64 48 44 49 63 50 45 51 48 52 62 53 81 54 46 55
REMARK SMILES IDX 47 56 61 58 82 59 49 60 33 61 34 62 42 63 35 64 41 65 43 66
REMARK SMILES IDX 40 67 36 68 37 69 38 70 39 71 65 72 66 73 74 74 67 75 73 76
REMARK SMILES IDX 75 77 72 78 68 79 69 80 70 81 71 82 50 83 51 84 59 85 52 86
REMARK SMILES IDX 58 87 60 88 57 89 53 90 54 91 55 92 56 93
REMARK H PARENT 17 6 21 27 80 46 48 57
REMARK Flexibility Score: inf
ROOT
ATOM      1  C   UNL A   1      32.082  29.247  26.876  1.00  0.00     0.042 C 
ENDROOT
BRANCH   1   2
ATOM      2  C   UNL A   1      31.600  28.714  25.526  1.00  0.00     0.118 C 
BRANCH   2   3
ATOM      3  N   UNL A   1      32.542  29.023  24.466  1.00  0.00    -0.351 N 
ATOM      4  C   UNL A   1      33.457  28.254  23.782  1.00  0.00     0.269 C 
ATOM      5  O   UNL A   1      34.057  28.806  22.857  1.00  0.00    -0.268 OA
ATOM      6  H   UNL A   1      32.524  29.965  24.181  1.00  0.00     0.163 HD
BRANCH   4   7
ATOM      7  C   UNL A   1      33.729  26.806  24.094  1.00  0.00     0.128 A 
ATOM      8  C   UNL A   1      34.250  24.102  24.453  1.00  0.00     0.002 A 
ATOM      9  C   UNL A   1      34.250  24.968  25.547  1.00  0.00     0.013 A 
ATOM     10  C   UNL A   1      34.002  24.673  23.209  1.00  0.00     0.120 A 
ATOM     11  C   UNL A   1      34.013  26.330  25.366  1.00  0.00     0.035 A 
ATOM     12  N   UNL A   1      33.734  25.985  23.008  1.00  0.00    -0.250 NA
BRANCH   8  13
ATOM     13  C   UNL A   1      34.546  22.677  24.618  1.00  0.00     0.003 A 
ATOM     14  C   UNL A   1      33.731  20.372  24.608  1.00  0.00     0.060 A 
ATOM     15  C   UNL A   1      35.027  19.902  24.834  1.00  0.00     0.017 A 
ATOM     16  C   UNL A   1      33.497  21.748  24.489  1.00  0.00     0.026 A 
ATOM     17  C   UNL A   1      36.080  20.810  24.964  1.00  0.00     0.022 A 
ATOM     18  C   UNL A   1      35.841  22.185  24.867  1.00  0.00     0.048 A 
ATOM     19  Cl  UNL A   1      37.194  23.244  25.079  1.00  0.00    -0.084 Cl
BRANCH  14  20
ATOM     20  C   UNL A   1      32.569  19.457  24.486  1.00  0.00     0.337 C 
ATOM     21  O   UNL A   1      32.148  18.779  25.398  1.00  0.00    -0.246 OA
BRANCH  20  22
ATOM     22  O   UNL A   1      32.142  19.441  23.197  1.00  0.00    -0.465 OA
ATOM     23  C   UNL A   1      32.450  18.230  22.507  1.00  0.00     0.282 C 
ENDBRANCH  20  22
ENDBRANCH  14  20
ENDBRANCH   8  13
ENDBRANCH   4   7
ENDBRANCH   2   3
ENDBRANCH   1   2
BRANCH   1  24
ATOM     24  C   UNL A   1      33.525  29.749  26.862  1.00  0.00     0.118 C 
BRANCH  24  25
ATOM     25  N   UNL A   1      33.611  31.153  27.227  1.00  0.00    -0.352 N 
ATOM     26  C   UNL A   1      34.453  31.805  28.091  1.00  0.00     0.251 C 
ATOM     27  H   UNL A   1      32.954  31.733  26.778  1.00  0.00     0.163 HD
ATOM     28  O   UNL A   1      34.158  32.945  28.443  1.00  0.00    -0.269 OA
BRANCH  26  29
ATOM     29  C   UNL A   1      35.689  31.167  28.602  1.00  0.00     0.039 A 
ATOM     30  C   UNL A   1      36.912  31.794  28.344  1.00  0.00     0.014 A 
ATOM     31  C   UNL A   1      35.671  29.932  29.258  1.00  0.00     0.014 A 
ATOM     32  C   UNL A   1      38.104  31.204  28.773  1.00  0.00     0.010 A 
ATOM     33  C   UNL A   1      36.854  29.382  29.752  1.00  0.00     0.010 A 
ATOM     34  C   UNL A   1      38.085  30.007  29.506  1.00  0.00    -0.014 A 
BRANCH  34  35
ATOM     35  C   UNL A   1      39.351  29.419  30.017  1.00  0.00     0.031 A 
ATOM     36  C   UNL A   1      40.023  29.977  31.243  1.00  0.00     0.074 A 
ATOM     37  C   UNL A   1      39.911  28.390  29.349  1.00  0.00     0.049 A 
ATOM     38  N   UNL A   1      41.117  29.580  31.842  1.00  0.00    -0.248 NA
ATOM     39  C   UNL A   1      39.398  31.156  31.860  1.00  0.00     0.031 C 
ATOM     40  C   UNL A   1      39.384  27.804  28.114  1.00  0.00     0.029 A 
ATOM     41  N   UNL A   1      41.036  27.651  29.612  1.00  0.00    -0.354 N 
ATOM     42  C   UNL A   1      41.316  30.461  32.899  1.00  0.00     0.074 A 
ATOM     43  C   UNL A   1      40.265  31.452  32.817  1.00  0.00     0.031 C 
ATOM     44  C   UNL A   1      40.163  26.774  27.748  1.00  0.00     0.029 A 
ATOM     45  C   UNL A   1      41.263  26.648  28.697  1.00  0.00     0.049 A 
ATOM     46  H   UNL A   1      41.626  27.822  30.381  1.00  0.00     0.167 HD
ATOM     47  C   UNL A   1      42.275  30.434  33.860  1.00  0.00     0.034 A 
ATOM     48  C   UNL A   1      42.245  25.729  28.631  1.00  0.00     0.034 A 
ATOM     49  C   UNL A   1      43.314  29.432  33.925  1.00  0.00     0.049 A 
ATOM     50  C   UNL A   1      43.288  25.704  29.717  1.00  0.00     0.074 A 
ATOM     51  C   UNL A   1      44.303  29.272  34.881  1.00  0.00     0.029 A 
ATOM     52  N   UNL A   1      43.507  28.421  32.989  1.00  0.00    -0.354 N 
ATOM     53  N   UNL A   1      43.424  26.504  30.751  1.00  0.00    -0.248 NA
ATOM     54  C   UNL A   1      44.293  24.639  29.641  1.00  0.00     0.031 C 
ATOM     55  C   UNL A   1      45.130  28.213  34.488  1.00  0.00     0.029 A 
ATOM     56  C   UNL A   1      44.613  27.655  33.330  1.00  0.00     0.049 A 
ATOM     57  H   UNL A   1      42.939  28.271  32.198  1.00  0.00     0.167 HD
ATOM     58  C   UNL A   1      44.516  26.019  31.464  1.00  0.00     0.074 A 
ATOM     59  C   UNL A   1      44.983  24.845  30.754  1.00  0.00     0.031 C 
ATOM     60  C   UNL A   1      45.082  26.499  32.602  1.00  0.00     0.034 A 
BRANCH  47  61
ATOM     61  C   UNL A   1      42.256  31.536  34.896  1.00  0.00     0.023 A 
ATOM     62  C   UNL A   1      41.289  31.577  35.919  1.00  0.00     0.031 A 
ATOM     63  C   UNL A   1      43.198  32.579  34.846  1.00  0.00     0.131 A 
ATOM     64  C   UNL A   1      41.236  32.674  36.793  1.00  0.00     0.055 A 
ATOM     65  C   UNL A   1      43.192  33.625  35.773  1.00  0.00     0.041 A 
ATOM     66  F   UNL A   1      44.134  32.611  33.885  1.00  0.00    -0.206 F 
ATOM     67  C   UNL A   1      42.196  33.686  36.744  1.00  0.00     0.022 A 
BRANCH  64  68
ATOM     68  S   UNL A   1      39.802  32.836  37.893  1.00  0.00     0.124 S 
ATOM     69  O   UNL A   1      38.943  31.754  37.418  1.00  0.00    -0.237 OA
ATOM     70  O   UNL A   1      40.393  32.651  39.212  1.00  0.00    -0.237 OA
ATOM     71  O   UNL A   1      39.306  34.183  37.614  1.00  0.00    -0.744 OA
ENDBRANCH  64  68
ENDBRANCH  47  61
BRANCH  48  72
ATOM     72  C   UNL A   1      42.283  24.751  27.506  1.00  0.00     0.023 A 
ATOM     73  C   UNL A   1      41.563  23.547  27.564  1.00  0.00     0.031 A 
ATOM     74  C   UNL A   1      43.060  25.000  26.360  1.00  0.00     0.131 A 
ATOM     75  C   UNL A   1      41.668  22.617  26.518  1.00  0.00     0.055 A 
ATOM     76  C   UNL A   1      43.120  24.095  25.298  1.00  0.00     0.041 A 
ATOM     77  F   UNL A   1      43.758  26.141  26.249  1.00  0.00    -0.206 F 
ATOM     78  C   UNL A   1      42.431  22.890  25.379  1.00  0.00     0.022 A 
BRANCH  75  79
ATOM     79  S   UNL A   1      40.849  21.009  26.696  1.00  0.00     0.124 S 
ATOM     80  O   UNL A   1      40.856  20.829  28.143  1.00  0.00    -0.237 OA
ATOM     81  O   UNL A   1      39.547  21.265  26.088  1.00  0.00    -0.237 OA
ATOM     82  O   UNL A   1      41.715  20.100  25.948  1.00  0.00    -0.744 OA
ENDBRANCH  75  79
ENDBRANCH  48  72
BRANCH  60  83
ATOM     83  C   UNL A   1      46.247  25.716  33.162  1.00  0.00     0.023 A 
ATOM     84  C   UNL A   1      47.555  25.887  32.673  1.00  0.00     0.031 A 
ATOM     85  C   UNL A   1      46.038  24.756  34.166  1.00  0.00     0.131 A 
ATOM     86  C   UNL A   1      48.586  25.053  33.131  1.00  0.00     0.055 A 
ATOM     87  C   UNL A   1      47.083  23.980  34.670  1.00  0.00     0.041 A 
ATOM     88  F   UNL A   1      44.811  24.547  34.670  1.00  0.00    -0.206 F 
ATOM     89  C   UNL A   1      48.362  24.112  34.138  1.00  0.00     0.022 A 
BRANCH  86  90
ATOM     90  S   UNL A   1      50.196  25.122  32.295  1.00  0.00     0.124 S 
ATOM     91  O   UNL A   1      49.866  25.822  31.059  1.00  0.00    -0.237 OA
ATOM     92  O   UNL A   1      51.010  25.867  33.251  1.00  0.00    -0.237 OA
ATOM     93  O   UNL A   1      50.560  23.716  32.134  1.00  0.00    -0.744 OA
ENDBRANCH  86  90
ENDBRANCH  60  83
ENDBRANCH  34  35
ENDBRANCH  26  29
ENDBRANCH  24  25
ENDBRANCH   1  24
TORSDOF 16
ENDMDL
MODEL 3
REMARK VINA RESULT:     -12.3      5.059     10.438
REMARK SMILES COC(=O)c1ccc(Cl)c(-c2ccc(C(=O)NCCCNC(=O)c3ccc(-c4c5nc(c(-c6cc(S(=O)(=O)[O-])ccc6F)c6ccc([nH]6)c(-c6cc(S(=O)(=O)[O-])ccc6F)c6nc(c(-c7cc(S(=O)(=O)[O-])ccc7F)c7ccc4[nH]7)C=C6)C=C5)cc3)nc2)c1
REMARK SMILES IDX 19 1 18 2 17 3 15 4 16 5 14 7 11 8 12 9 88 10 13 11 87 12
REMARK SMILES IDX 10 13 5 14 6 15 89 16 7 17 8 18 9 19 3 20 4 21 2 22 1 23
REMARK SMILES IDX 20 24 21 25 22 26 23 28 24 29 25 30 86 31 26 32 85 33 27 34
REMARK SMILES IDX 28 35 29 36 79 37 30 38 84 39 78 40 80 41 31 42 83 43 77 44
REMARK SMILES IDX 76 45 32 47 64 48 44 49 63 50 45 51 48 52 62 53 81 54 46 55
REMARK SMILES IDX 47 56 61 58 82 59 49 60 33 61 34 62 42 63 35 64 41 65 43 66
REMARK SMILES IDX 40 67 36 68 37 69 38 70 39 71 65 72 66 73 74 74 67 75 73 76
REMARK SMILES IDX 75 77 72 78 68 79 69 80 70 81 71 82 50 83 51 84 59 85 52 86
REMARK SMILES IDX 58 87 60 88 57 89 53 90 54 91 55 92 56 93
REMARK H PARENT 17 6 21 27 80 46 48 57
REMARK Flexibility Score: inf
ROOT
ATOM      1  C   UNL A   1      31.753  28.659  25.269  1.00  0.00     0.042 C 
ENDROOT
BRANCH   1   2
ATOM      2  C   UNL A   1      31.263  28.567  23.823  1.00  0.00     0.118 C 
BRANCH   2   3
ATOM      3  N   UNL A   1      29.918  28.027  23.750  1.00  0.00    -0.351 N 
ATOM      4  C   UNL A   1      29.413  26.762  23.947  1.00  0.00     0.269 C 
ATOM      5  O   UNL A   1      28.186  26.646  23.897  1.00  0.00    -0.268 OA
ATOM      6  H   UNL A   1      29.234  28.696  23.515  1.00  0.00     0.163 HD
BRANCH   4   7
ATOM      7  C   UNL A   1      30.269  25.556  24.233  1.00  0.00     0.128 A 
ATOM      8  C   UNL A   1      31.902  23.332  24.547  1.00  0.00     0.002 A 
ATOM      9  C   UNL A   1      31.416  24.009  25.667  1.00  0.00     0.013 A 
ATOM     10  C   UNL A   1      31.542  23.846  23.306  1.00  0.00     0.120 A 
ATOM     11  C   UNL A   1      30.616  25.141  25.511  1.00  0.00     0.035 A 
ATOM     12  N   UNL A   1      30.739  24.921  23.125  1.00  0.00    -0.250 NA
BRANCH   8  13
ATOM     13  C   UNL A   1      32.783  22.171  24.692  1.00  0.00     0.003 A 
ATOM     14  C   UNL A   1      33.110  19.765  24.414  1.00  0.00     0.060 A 
ATOM     15  C   UNL A   1      34.432  19.883  24.852  1.00  0.00     0.017 A 
ATOM     16  C   UNL A   1      32.298  20.903  24.323  1.00  0.00     0.026 A 
ATOM     17  C   UNL A   1      34.929  21.134  25.221  1.00  0.00     0.022 A 
ATOM     18  C   UNL A   1      34.110  22.267  25.152  1.00  0.00     0.048 A 
ATOM     19  Cl  UNL A   1      34.792  23.774  25.664  1.00  0.00    -0.084 Cl
BRANCH  14  20
ATOM     20  C   UNL A   1      32.519  18.458  24.033  1.00  0.00     0.337 C 
ATOM     21  O   UNL A   1      32.404  18.079  22.888  1.00  0.00    -0.246 OA
BRANCH  20  22
ATOM     22  O   UNL A   1      32.058  17.831  25.146  1.00  0.00    -0.465 OA
ATOM     23  C   UNL A   1      32.851  16.712  25.542  1.00  0.00     0.282 C 
ENDBRANCH  20  22
ENDBRANCH  14  20
ENDBRANCH   8  13
ENDBRANCH   4   7
ENDBRANCH   2   3
ENDBRANCH   1   2
BRANCH   1  24
ATOM     24  C   UNL A   1      33.038  29.469  25.434  1.00  0.00     0.118 C 
BRANCH  24  25
ATOM     25  N   UNL A   1      32.766  30.832  25.860  1.00  0.00    -0.352 N 
ATOM     26  C   UNL A   1      33.266  31.560  26.909  1.00  0.00     0.251 C 
ATOM     27  H   UNL A   1      32.113  31.313  25.301  1.00  0.00     0.163 HD
ATOM     28  O   UNL A   1      32.684  32.594  27.231  1.00  0.00    -0.269 OA
BRANCH  26  29
ATOM     29  C   UNL A   1      34.473  31.127  27.651  1.00  0.00     0.039 A 
ATOM     30  C   UNL A   1      35.486  32.066  27.873  1.00  0.00     0.014 A 
ATOM     31  C   UNL A   1      34.658  29.803  28.060  1.00  0.00     0.014 A 
ATOM     32  C   UNL A   1      36.658  31.687  28.533  1.00  0.00     0.010 A 
ATOM     33  C   UNL A   1      35.795  29.443  28.784  1.00  0.00     0.010 A 
ATOM     34  C   UNL A   1      36.812  30.379  29.020  1.00  0.00    -0.014 A 
BRANCH  34  35
ATOM     35  C   UNL A   1      38.033  30.000  29.779  1.00  0.00     0.031 A 
ATOM     36  C   UNL A   1      38.272  30.525  31.169  1.00  0.00     0.074 A 
ATOM     37  C   UNL A   1      38.945  29.198  29.193  1.00  0.00     0.049 A 
ATOM     38  N   UNL A   1      39.267  30.284  31.986  1.00  0.00    -0.248 NA
ATOM     39  C   UNL A   1      37.276  31.466  31.701  1.00  0.00     0.031 C 
ATOM     40  C   UNL A   1      38.851  28.677  27.827  1.00  0.00     0.029 A 
ATOM     41  N   UNL A   1      40.121  28.674  29.667  1.00  0.00    -0.354 N 
ATOM     42  C   UNL A   1      39.022  31.048  33.123  1.00  0.00     0.074 A 
ATOM     43  C   UNL A   1      37.819  31.809  32.861  1.00  0.00     0.031 C 
ATOM     44  C   UNL A   1      39.904  27.881  27.587  1.00  0.00     0.029 A 
ATOM     45  C   UNL A   1      40.766  27.862  28.764  1.00  0.00     0.049 A 
ATOM     46  H   UNL A   1      40.471  28.863  30.567  1.00  0.00     0.167 HD
ATOM     47  C   UNL A   1      39.725  31.095  34.284  1.00  0.00     0.034 A 
ATOM     48  C   UNL A   1      41.920  27.175  28.870  1.00  0.00     0.034 A 
ATOM     49  C   UNL A   1      40.923  30.323  34.525  1.00  0.00     0.049 A 
ATOM     50  C   UNL A   1      42.674  27.226  30.173  1.00  0.00     0.074 A 
ATOM     51  C   UNL A   1      41.685  30.248  35.679  1.00  0.00     0.029 A 
ATOM     52  N   UNL A   1      41.542  29.499  33.592  1.00  0.00    -0.354 N 
ATOM     53  N   UNL A   1      42.392  27.900  31.265  1.00  0.00    -0.248 NA
ATOM     54  C   UNL A   1      43.885  26.404  30.265  1.00  0.00     0.031 C 
ATOM     55  C   UNL A   1      42.796  29.436  35.421  1.00  0.00     0.029 A 
ATOM     56  C   UNL A   1      42.688  28.935  34.135  1.00  0.00     0.049 A 
ATOM     57  H   UNL A   1      41.213  29.337  32.678  1.00  0.00     0.167 HD
ATOM     58  C   UNL A   1      43.380  27.560  32.184  1.00  0.00     0.074 A 
ATOM     59  C   UNL A   1      44.246  26.603  31.525  1.00  0.00     0.031 C 
ATOM     60  C   UNL A   1      43.556  27.998  33.459  1.00  0.00     0.034 A 
BRANCH  47  61
ATOM     61  C   UNL A   1      39.227  32.032  35.363  1.00  0.00     0.023 A 
ATOM     62  C   UNL A   1      39.678  33.361  35.457  1.00  0.00     0.031 A 
ATOM     63  C   UNL A   1      38.311  31.582  36.330  1.00  0.00     0.131 A 
ATOM     64  C   UNL A   1      39.278  34.165  36.537  1.00  0.00     0.055 A 
ATOM     65  C   UNL A   1      37.850  32.414  37.354  1.00  0.00     0.041 A 
ATOM     66  F   UNL A   1      37.857  30.319  36.309  1.00  0.00    -0.206 F 
ATOM     67  C   UNL A   1      38.347  33.708  37.473  1.00  0.00     0.022 A 
BRANCH  64  68
ATOM     68  S   UNL A   1      40.111  35.757  36.788  1.00  0.00     0.124 S 
ATOM     69  O   UNL A   1      39.600  36.153  38.098  1.00  0.00    -0.237 OA
ATOM     70  O   UNL A   1      41.520  35.388  36.735  1.00  0.00    -0.237 OA
ATOM     71  O   UNL A   1      39.636  36.571  35.671  1.00  0.00    -0.744 OA
ENDBRANCH  64  68
ENDBRANCH  47  61
BRANCH  48  72
ATOM     72  C   UNL A   1      42.426  26.374  27.719  1.00  0.00     0.023 A 
ATOM     73  C   UNL A   1      41.992  25.057  27.503  1.00  0.00     0.031 A 
ATOM     74  C   UNL A   1      43.371  26.912  26.827  1.00  0.00     0.131 A 
ATOM     75  C   UNL A   1      42.534  24.305  26.448  1.00  0.00     0.055 A 
ATOM     76  C   UNL A   1      43.868  26.179  25.748  1.00  0.00     0.041 A 
ATOM     77  F   UNL A   1      43.811  28.171  26.982  1.00  0.00    -0.206 F 
ATOM     78  C   UNL A   1      43.459  24.863  25.561  1.00  0.00     0.022 A 
BRANCH  75  79
ATOM     79  S   UNL A   1      42.066  22.560  26.291  1.00  0.00     0.124 S 
ATOM     80  O   UNL A   1      40.610  22.643  26.269  1.00  0.00    -0.237 OA
ATOM     81  O   UNL A   1      42.705  22.187  25.033  1.00  0.00    -0.237 OA
ATOM     82  O   UNL A   1      42.640  21.945  27.485  1.00  0.00    -0.744 OA
ENDBRANCH  75  79
ENDBRANCH  48  72
BRANCH  60  83
ATOM     83  C   UNL A   1      44.714  27.404  34.226  1.00  0.00     0.023 A 
ATOM     84  C   UNL A   1      44.592  26.188  34.924  1.00  0.00     0.031 A 
ATOM     85  C   UNL A   1      45.941  28.085  34.297  1.00  0.00     0.131 A 
ATOM     86  C   UNL A   1      45.650  25.734  35.726  1.00  0.00     0.055 A 
ATOM     87  C   UNL A   1      47.016  27.590  35.038  1.00  0.00     0.041 A 
ATOM     88  F   UNL A   1      46.115  29.251  33.654  1.00  0.00    -0.206 F 
ATOM     89  C   UNL A   1      46.867  26.419  35.774  1.00  0.00     0.022 A 
BRANCH  86  90
ATOM     90  S   UNL A   1      45.368  24.308  36.811  1.00  0.00     0.124 S 
ATOM     91  O   UNL A   1      44.580  24.898  37.888  1.00  0.00    -0.237 OA
ATOM     92  O   UNL A   1      44.655  23.385  35.933  1.00  0.00    -0.237 OA
ATOM     93  O   UNL A   1      46.717  23.889  37.187  1.00  0.00    -0.744 OA
ENDBRANCH  86  90
ENDBRANCH  60  83
ENDBRANCH  34  35
ENDBRANCH  26  29
ENDBRANCH  24  25
ENDBRANCH   1  24
TORSDOF 16
ENDMDL
