MODEL 1
REMARK VINA RESULT:      -8.6      0.000      0.000
REMARK SMILES O=C(CNC(=O)CN1C(=O)S/C(=C\c2cccc(Br)c2)C1=O)NCCCNC(=O)c1ccc(-c2c3nc(c(-c4cc(S(=O)(=O)[O-])ccc4F)c4ccc([nH]4)c(-c4cc(S(=O)(=O)[O-])ccc4F)c4nc(c(-c5cc(S(=O)(=O)[O-])ccc5F)c5ccc2[nH]5)C=C4)C=C3)cc1
REMARK SMILES IDX 24 1 23 2 1 3 2 4 3 6 4 7 5 8 6 10 7 11 8 12 9 13 21 14
REMARK SMILES IDX 10 15 11 16 12 17 22 18 13 19 14 20 15 21 20 22 16 23 18 24
REMARK SMILES IDX 17 25 19 26 25 27 26 28 27 29 28 30 29 32 30 33 31 34 92 35
REMARK SMILES IDX 32 36 91 37 33 38 34 39 35 40 85 41 36 42 90 43 84 44 86 45
REMARK SMILES IDX 37 46 89 47 83 48 82 49 38 51 70 52 50 53 69 54 51 55 54 56
REMARK SMILES IDX 68 57 87 58 52 59 53 60 67 62 88 63 55 64 39 65 40 66 48 67
REMARK SMILES IDX 41 68 47 69 49 70 46 71 42 72 43 73 44 74 45 75 71 76 72 77
REMARK SMILES IDX 80 78 73 79 79 80 81 81 78 82 74 83 75 84 76 85 77 86 56 87
REMARK SMILES IDX 57 88 65 89 58 90 64 91 66 92 63 93 59 94 60 95 61 96 62 97
REMARK H PARENT 23 5 4 9 27 31 86 50 54 61
REMARK Flexibility Score: inf
ROOT
ATOM      1  C   UNL A   1      48.291  26.858  31.027  1.00  0.00     0.117 C 
ENDROOT
BRANCH   1   2
ATOM      2  N   UNL A   1      48.421  26.961  29.580  1.00  0.00    -0.355 N 
ATOM      3  O   UNL A   1      46.433  25.952  29.015  1.00  0.00    -0.273 OA
ATOM      4  C   UNL A   1      47.459  26.537  28.684  1.00  0.00     0.239 C 
ATOM      5  H   UNL A   1      49.248  27.356  29.217  1.00  0.00     0.163 HD
BRANCH   4   6
ATOM      6  C   UNL A   1      47.831  26.739  27.206  1.00  0.00     0.216 C 
BRANCH   6   7
ATOM      7  N   UNL A   1      46.694  27.169  26.403  1.00  0.00    -0.345 N 
ATOM      8  C   UNL A   1      46.181  28.397  26.133  1.00  0.00     0.240 C 
ATOM      9  H   UNL A   1      46.205  26.430  25.976  1.00  0.00     0.164 HD
ATOM     10  O   UNL A   1      45.349  28.439  25.219  1.00  0.00    -0.273 OA
BRANCH   8  11
ATOM     11  C   UNL A   1      46.719  29.696  26.742  1.00  0.00     0.229 C 
BRANCH  11  12
ATOM     12  N   UNL A   1      45.767  30.571  27.396  1.00  0.00    -0.259 N 
ATOM     13  C   UNL A   1      45.182  31.620  26.736  1.00  0.00     0.294 C 
ATOM     14  C   UNL A   1      45.269  30.277  28.639  1.00  0.00     0.268 C 
ATOM     15  O   UNL A   1      45.404  31.972  25.592  1.00  0.00    -0.261 OA
ATOM     16  S   UNL A   1      44.036  32.437  27.780  1.00  0.00    -0.022 SA
ATOM     17  C   UNL A   1      44.242  31.289  29.028  1.00  0.00     0.083 C 
ATOM     18  O   UNL A   1      45.657  29.369  29.360  1.00  0.00    -0.268 OA
ATOM     19  C   UNL A   1      43.675  31.270  30.236  1.00  0.00     0.029 C 
BRANCH  19  20
ATOM     20  C   UNL A   1      42.807  32.276  30.866  1.00  0.00    -0.023 A 
ATOM     21  C   UNL A   1      41.585  32.632  30.302  1.00  0.00     0.008 A 
ATOM     22  C   UNL A   1      43.152  32.824  32.115  1.00  0.00     0.023 A 
ATOM     23  C   UNL A   1      40.731  33.517  30.974  1.00  0.00     0.002 A 
ATOM     24  C   UNL A   1      42.306  33.708  32.779  1.00  0.00     0.018 A 
ATOM     25  C   UNL A   1      41.091  34.058  32.211  1.00  0.00     0.016 A 
ATOM     26  Br  UNL A   1      42.845  34.408  34.451  1.00  0.00    -0.051 Br
ENDBRANCH  19  20
ENDBRANCH  11  12
ENDBRANCH   8  11
ENDBRANCH   6   7
ENDBRANCH   4   6
ENDBRANCH   1   2
BRANCH   1  27
ATOM     27  C   UNL A   1      49.582  27.205  31.788  1.00  0.00     0.042 C 
BRANCH  27  28
ATOM     28  C   UNL A   1      49.881  26.307  33.007  1.00  0.00     0.118 C 
BRANCH  28  29
ATOM     29  N   UNL A   1      49.739  26.913  34.320  1.00  0.00    -0.352 N 
ATOM     30  C   UNL A   1      48.666  27.313  35.104  1.00  0.00     0.251 C 
ATOM     31  H   UNL A   1      50.606  27.078  34.756  1.00  0.00     0.163 HD
ATOM     32  O   UNL A   1      48.922  27.528  36.293  1.00  0.00    -0.269 OA
BRANCH  30  33
ATOM     33  C   UNL A   1      47.266  27.611  34.654  1.00  0.00     0.039 A 
ATOM     34  C   UNL A   1      47.051  28.809  33.968  1.00  0.00     0.014 A 
ATOM     35  C   UNL A   1      46.115  26.959  35.086  1.00  0.00     0.014 A 
ATOM     36  C   UNL A   1      45.747  29.261  33.627  1.00  0.00     0.010 A 
ATOM     37  C   UNL A   1      44.816  27.338  34.606  1.00  0.00     0.010 A 
ATOM     38  C   UNL A   1      44.585  28.487  33.823  1.00  0.00    -0.014 A 
BRANCH  38  39
ATOM     39  C   UNL A   1      43.230  28.893  33.189  1.00  0.00     0.031 A 
ATOM     40  C   UNL A   1      42.185  29.800  33.864  1.00  0.00     0.074 A 
ATOM     41  C   UNL A   1      42.840  28.393  31.980  1.00  0.00     0.049 A 
ATOM     42  N   UNL A   1      41.010  30.203  33.411  1.00  0.00    -0.248 NA
ATOM     43  C   UNL A   1      42.458  30.277  35.223  1.00  0.00     0.031 C 
ATOM     44  C   UNL A   1      43.584  27.421  31.178  1.00  0.00     0.029 A 
ATOM     45  N   UNL A   1      41.711  28.618  31.203  1.00  0.00    -0.354 N 
ATOM     46  C   UNL A   1      40.415  30.954  34.428  1.00  0.00     0.074 A 
ATOM     47  C   UNL A   1      41.310  30.849  35.562  1.00  0.00     0.031 C 
ATOM     48  C   UNL A   1      42.937  27.170  30.033  1.00  0.00     0.029 A 
ATOM     49  C   UNL A   1      41.698  27.932  30.002  1.00  0.00     0.049 A 
ATOM     50  H   UNL A   1      40.981  29.217  31.483  1.00  0.00     0.167 HD
ATOM     51  C   UNL A   1      39.281  31.715  34.433  1.00  0.00     0.034 A 
ATOM     52  C   UNL A   1      40.828  27.894  28.965  1.00  0.00     0.034 A 
ATOM     53  C   UNL A   1      38.381  31.889  33.313  1.00  0.00     0.049 A 
ATOM     54  C   UNL A   1      39.588  28.750  28.971  1.00  0.00     0.074 A 
ATOM     55  C   UNL A   1      37.289  32.742  33.208  1.00  0.00     0.029 A 
ATOM     56  N   UNL A   1      38.447  31.203  32.111  1.00  0.00    -0.354 N 
ATOM     57  N   UNL A   1      39.146  29.558  29.904  1.00  0.00    -0.248 NA
ATOM     58  C   UNL A   1      38.747  28.714  27.763  1.00  0.00     0.031 C 
ATOM     59  C   UNL A   1      36.652  32.512  31.982  1.00  0.00     0.029 A 
ATOM     60  C   UNL A   1      37.399  31.585  31.279  1.00  0.00     0.049 A 
ATOM     61  H   UNL A   1      39.136  30.539  31.879  1.00  0.00     0.167 HD
ATOM     62  C   UNL A   1      38.009  30.165  29.368  1.00  0.00     0.074 A 
ATOM     63  C   UNL A   1      37.843  29.642  28.032  1.00  0.00     0.031 C 
ATOM     64  C   UNL A   1      37.193  31.084  29.941  1.00  0.00     0.034 A 
BRANCH  51  65
ATOM     65  C   UNL A   1      38.950  32.477  35.708  1.00  0.00     0.023 A 
ATOM     66  C   UNL A   1      39.332  33.820  35.873  1.00  0.00     0.031 A 
ATOM     67  C   UNL A   1      38.238  31.872  36.760  1.00  0.00     0.131 A 
ATOM     68  C   UNL A   1      39.102  34.476  37.091  1.00  0.00     0.055 A 
ATOM     69  C   UNL A   1      37.917  32.565  37.933  1.00  0.00     0.041 A 
ATOM     70  F   UNL A   1      37.836  30.594  36.671  1.00  0.00    -0.206 F 
ATOM     71  C   UNL A   1      38.371  33.868  38.113  1.00  0.00     0.022 A 
BRANCH  68  72
ATOM     72  S   UNL A   1      39.929  36.064  37.380  1.00  0.00     0.124 S 
ATOM     73  O   UNL A   1      39.100  36.635  38.439  1.00  0.00    -0.237 OA
ATOM     74  O   UNL A   1      41.273  35.654  37.770  1.00  0.00    -0.237 OA
ATOM     75  O   UNL A   1      39.831  36.742  36.089  1.00  0.00    -0.744 OA
ENDBRANCH  68  72
ENDBRANCH  51  65
BRANCH  52  76
ATOM     76  C   UNL A   1      41.100  27.023  27.776  1.00  0.00     0.023 A 
ATOM     77  C   UNL A   1      40.797  25.650  27.798  1.00  0.00     0.031 A 
ATOM     78  C   UNL A   1      41.735  27.536  26.631  1.00  0.00     0.131 A 
ATOM     79  C   UNL A   1      41.185  24.827  26.728  1.00  0.00     0.055 A 
ATOM     80  C   UNL A   1      42.063  26.724  25.542  1.00  0.00     0.041 A 
ATOM     81  F   UNL A   1      42.045  28.840  26.555  1.00  0.00    -0.206 F 
ATOM     82  C   UNL A   1      41.802  25.358  25.595  1.00  0.00     0.022 A 
BRANCH  79  83
ATOM     83  S   UNL A   1      40.967  23.032  26.886  1.00  0.00     0.124 S 
ATOM     84  O   UNL A   1      39.558  22.874  26.549  1.00  0.00    -0.237 OA
ATOM     85  O   UNL A   1      41.922  22.523  25.907  1.00  0.00    -0.237 OA
ATOM     86  O   UNL A   1      41.310  22.769  28.283  1.00  0.00    -0.744 OA
ENDBRANCH  79  83
ENDBRANCH  52  76
BRANCH  64  87
ATOM     87  C   UNL A   1      36.067  31.646  29.098  1.00  0.00     0.023 A 
ATOM     88  C   UNL A   1      35.008  30.844  28.632  1.00  0.00     0.031 A 
ATOM     89  C   UNL A   1      36.080  32.998  28.709  1.00  0.00     0.131 A 
ATOM     90  C   UNL A   1      34.060  31.376  27.742  1.00  0.00     0.055 A 
ATOM     91  C   UNL A   1      35.090  33.542  27.887  1.00  0.00     0.041 A 
ATOM     92  F   UNL A   1      37.065  33.817  29.112  1.00  0.00    -0.206 F 
ATOM     93  C   UNL A   1      34.083  32.725  27.382  1.00  0.00     0.022 A 
BRANCH  90  94
ATOM     94  S   UNL A   1      32.877  30.248  26.950  1.00  0.00     0.124 S 
ATOM     95  O   UNL A   1      32.860  29.126  27.882  1.00  0.00    -0.237 OA
ATOM     96  O   UNL A   1      31.663  31.056  26.902  1.00  0.00    -0.237 OA
ATOM     97  O   UNL A   1      33.487  29.968  25.652  1.00  0.00    -0.744 OA
ENDBRANCH  90  94
ENDBRANCH  64  87
ENDBRANCH  38  39
ENDBRANCH  30  33
ENDBRANCH  28  29
ENDBRANCH  27  28
ENDBRANCH   1  27
TORSDOF 17
ENDMDL
MODEL 2
REMARK VINA RESULT:      -8.5      5.181     11.550
REMARK SMILES O=C(CNC(=O)CN1C(=O)S/C(=C\c2cccc(Br)c2)C1=O)NCCCNC(=O)c1ccc(-c2c3nc(c(-c4cc(S(=O)(=O)[O-])ccc4F)c4ccc([nH]4)c(-c4cc(S(=O)(=O)[O-])ccc4F)c4nc(c(-c5cc(S(=O)(=O)[O-])ccc5F)c5ccc2[nH]5)C=C4)C=C3)cc1
REMARK SMILES IDX 24 1 23 2 1 3 2 4 3 6 4 7 5 8 6 10 7 11 8 12 9 13 21 14
REMARK SMILES IDX 10 15 11 16 12 17 22 18 13 19 14 20 15 21 20 22 16 23 18 24
REMARK SMILES IDX 17 25 19 26 25 27 26 28 27 29 28 30 29 32 30 33 31 34 92 35
REMARK SMILES IDX 32 36 91 37 33 38 34 39 35 40 85 41 36 42 90 43 84 44 86 45
REMARK SMILES IDX 37 46 89 47 83 48 82 49 38 51 70 52 50 53 69 54 51 55 54 56
REMARK SMILES IDX 68 57 87 58 52 59 53 60 67 62 88 63 55 64 39 65 40 66 48 67
REMARK SMILES IDX 41 68 47 69 49 70 46 71 42 72 43 73 44 74 45 75 71 76 72 77
REMARK SMILES IDX 80 78 73 79 79 80 81 81 78 82 74 83 75 84 76 85 77 86 56 87
REMARK SMILES IDX 57 88 65 89 58 90 64 91 66 92 63 93 59 94 60 95 61 96 62 97
REMARK H PARENT 23 5 4 9 27 31 86 50 54 61
REMARK Flexibility Score: inf
ROOT
ATOM      1  C   UNL A   1      37.851  23.376  26.036  1.00  0.00     0.117 C 
ENDROOT
BRANCH   1   2
ATOM      2  N   UNL A   1      37.005  22.190  26.062  1.00  0.00    -0.355 N 
ATOM      3  O   UNL A   1      36.750  21.940  23.789  1.00  0.00    -0.273 OA
ATOM      4  C   UNL A   1      36.555  21.537  24.931  1.00  0.00     0.239 C 
ATOM      5  H   UNL A   1      36.738  21.832  26.939  1.00  0.00     0.163 HD
BRANCH   4   6
ATOM      6  C   UNL A   1      35.664  20.315  25.213  1.00  0.00     0.216 C 
BRANCH   6   7
ATOM      7  N   UNL A   1      34.399  20.374  24.493  1.00  0.00    -0.345 N 
ATOM      8  C   UNL A   1      33.205  20.946  24.794  1.00  0.00     0.240 C 
ATOM      9  H   UNL A   1      34.412  19.911  23.625  1.00  0.00     0.164 HD
ATOM     10  O   UNL A   1      32.398  21.020  23.861  1.00  0.00    -0.273 OA
BRANCH   8  11
ATOM     11  C   UNL A   1      32.912  21.656  26.120  1.00  0.00     0.229 C 
BRANCH  11  12
ATOM     12  N   UNL A   1      32.355  22.992  26.053  1.00  0.00    -0.259 N 
ATOM     13  C   UNL A   1      31.007  23.215  26.160  1.00  0.00     0.294 C 
ATOM     14  C   UNL A   1      33.162  24.101  26.073  1.00  0.00     0.268 C 
ATOM     15  O   UNL A   1      30.138  22.371  26.269  1.00  0.00    -0.261 OA
ATOM     16  S   UNL A   1      30.666  24.934  26.107  1.00  0.00    -0.022 SA
ATOM     17  C   UNL A   1      32.326  25.337  26.091  1.00  0.00     0.083 C 
ATOM     18  O   UNL A   1      34.383  24.088  26.006  1.00  0.00    -0.268 OA
ATOM     19  C   UNL A   1      32.881  26.549  26.021  1.00  0.00     0.029 C 
BRANCH  19  20
ATOM     20  C   UNL A   1      32.233  27.855  25.830  1.00  0.00    -0.023 A 
ATOM     21  C   UNL A   1      32.391  28.883  26.756  1.00  0.00     0.008 A 
ATOM     22  C   UNL A   1      31.520  28.124  24.647  1.00  0.00     0.023 A 
ATOM     23  C   UNL A   1      31.847  30.149  26.501  1.00  0.00     0.002 A 
ATOM     24  C   UNL A   1      30.975  29.380  24.399  1.00  0.00     0.018 A 
ATOM     25  C   UNL A   1      31.136  30.399  25.324  1.00  0.00     0.016 A 
ATOM     26  Br  UNL A   1      30.022  29.661  22.788  1.00  0.00    -0.051 Br
ENDBRANCH  19  20
ENDBRANCH  11  12
ENDBRANCH   8  11
ENDBRANCH   6   7
ENDBRANCH   4   6
ENDBRANCH   1   2
BRANCH   1  27
ATOM     27  C   UNL A   1      39.233  23.161  26.677  1.00  0.00     0.042 C 
BRANCH  27  28
ATOM     28  C   UNL A   1      39.881  21.791  26.384  1.00  0.00     0.118 C 
BRANCH  28  29
ATOM     29  N   UNL A   1      41.133  21.801  25.647  1.00  0.00    -0.352 N 
ATOM     30  C   UNL A   1      42.256  22.616  25.631  1.00  0.00     0.251 C 
ATOM     31  H   UNL A   1      41.202  21.054  25.009  1.00  0.00     0.163 HD
ATOM     32  O   UNL A   1      43.251  22.146  25.071  1.00  0.00    -0.269 OA
BRANCH  30  33
ATOM     33  C   UNL A   1      42.366  24.030  26.120  1.00  0.00     0.039 A 
ATOM     34  C   UNL A   1      42.518  24.227  27.495  1.00  0.00     0.014 A 
ATOM     35  C   UNL A   1      42.056  25.172  25.387  1.00  0.00     0.014 A 
ATOM     36  C   UNL A   1      42.484  25.521  28.082  1.00  0.00     0.010 A 
ATOM     37  C   UNL A   1      42.177  26.483  25.960  1.00  0.00     0.010 A 
ATOM     38  C   UNL A   1      42.434  26.710  27.327  1.00  0.00    -0.014 A 
BRANCH  38  39
ATOM     39  C   UNL A   1      42.678  28.093  27.985  1.00  0.00     0.031 A 
ATOM     40  C   UNL A   1      44.058  28.760  28.134  1.00  0.00     0.074 A 
ATOM     41  C   UNL A   1      41.654  28.791  28.557  1.00  0.00     0.049 A 
ATOM     42  N   UNL A   1      44.369  29.926  28.675  1.00  0.00    -0.248 NA
ATOM     43  C   UNL A   1      45.236  28.022  27.669  1.00  0.00     0.031 C 
ATOM     44  C   UNL A   1      40.267  28.337  28.663  1.00  0.00     0.029 A 
ATOM     45  N   UNL A   1      41.608  30.035  29.173  1.00  0.00    -0.354 N 
ATOM     46  C   UNL A   1      45.760  30.041  28.625  1.00  0.00     0.074 A 
ATOM     47  C   UNL A   1      46.237  28.774  28.110  1.00  0.00     0.031 C 
ATOM     48  C   UNL A   1      39.513  29.277  29.249  1.00  0.00     0.029 A 
ATOM     49  C   UNL A   1      40.350  30.414  29.605  1.00  0.00     0.049 A 
ATOM     50  H   UNL A   1      42.406  30.600  29.292  1.00  0.00     0.167 HD
ATOM     51  C   UNL A   1      46.582  31.095  28.908  1.00  0.00     0.034 A 
ATOM     52  C   UNL A   1      39.873  31.528  30.207  1.00  0.00     0.034 A 
ATOM     53  C   UNL A   1      46.151  32.394  29.379  1.00  0.00     0.049 A 
ATOM     54  C   UNL A   1      40.783  32.693  30.499  1.00  0.00     0.074 A 
ATOM     55  C   UNL A   1      46.913  33.542  29.564  1.00  0.00     0.029 A 
ATOM     56  N   UNL A   1      44.859  32.728  29.754  1.00  0.00    -0.354 N 
ATOM     57  N   UNL A   1      42.072  32.805  30.296  1.00  0.00    -0.248 NA
ATOM     58  C   UNL A   1      40.160  33.898  31.070  1.00  0.00     0.031 C 
ATOM     59  C   UNL A   1      46.102  34.537  30.123  1.00  0.00     0.029 A 
ATOM     60  C   UNL A   1      44.813  34.045  30.201  1.00  0.00     0.049 A 
ATOM     61  H   UNL A   1      44.086  32.120  29.713  1.00  0.00     0.167 HD
ATOM     62  C   UNL A   1      42.399  34.111  30.664  1.00  0.00     0.074 A 
ATOM     63  C   UNL A   1      41.174  34.749  31.085  1.00  0.00     0.031 C 
ATOM     64  C   UNL A   1      43.612  34.719  30.635  1.00  0.00     0.034 A 
BRANCH  51  65
ATOM     65  C   UNL A   1      48.074  30.907  28.673  1.00  0.00     0.023 A 
ATOM     66  C   UNL A   1      48.895  30.311  29.647  1.00  0.00     0.031 A 
ATOM     67  C   UNL A   1      48.683  31.310  27.470  1.00  0.00     0.131 A 
ATOM     68  C   UNL A   1      50.281  30.234  29.451  1.00  0.00     0.055 A 
ATOM     69  C   UNL A   1      50.052  31.133  27.238  1.00  0.00     0.041 A 
ATOM     70  F   UNL A   1      47.962  31.882  26.493  1.00  0.00    -0.206 F 
ATOM     71  C   UNL A   1      50.864  30.614  28.241  1.00  0.00     0.022 A 
BRANCH  68  72
ATOM     72  S   UNL A   1      51.324  29.799  30.870  1.00  0.00     0.124 S 
ATOM     73  O   UNL A   1      51.769  28.457  30.502  1.00  0.00    -0.237 OA
ATOM     74  O   UNL A   1      52.344  30.841  30.844  1.00  0.00    -0.237 OA
ATOM     75  O   UNL A   1      50.402  29.852  32.002  1.00  0.00    -0.744 OA
ENDBRANCH  68  72
ENDBRANCH  51  65
BRANCH  52  76
ATOM     76  C   UNL A   1      38.420  31.638  30.562  1.00  0.00     0.023 A 
ATOM     77  C   UNL A   1      37.464  32.002  29.598  1.00  0.00     0.031 A 
ATOM     78  C   UNL A   1      37.981  31.453  31.885  1.00  0.00     0.131 A 
ATOM     79  C   UNL A   1      36.132  32.233  29.981  1.00  0.00     0.055 A 
ATOM     80  C   UNL A   1      36.643  31.622  32.249  1.00  0.00     0.041 A 
ATOM     81  F   UNL A   1      38.851  31.101  32.846  1.00  0.00    -0.206 F 
ATOM     82  C   UNL A   1      35.713  32.031  31.297  1.00  0.00     0.022 A 
BRANCH  79  83
ATOM     83  S   UNL A   1      34.977  32.907  28.754  1.00  0.00     0.124 S 
ATOM     84  O   UNL A   1      34.168  31.737  28.436  1.00  0.00    -0.237 OA
ATOM     85  O   UNL A   1      34.310  33.961  29.512  1.00  0.00    -0.237 OA
ATOM     86  O   UNL A   1      35.853  33.372  27.680  1.00  0.00    -0.744 OA
ENDBRANCH  79  83
ENDBRANCH  52  76
BRANCH  64  87
ATOM     87  C   UNL A   1      43.672  36.184  31.012  1.00  0.00     0.023 A 
ATOM     88  C   UNL A   1      43.620  37.208  30.047  1.00  0.00     0.031 A 
ATOM     89  C   UNL A   1      43.836  36.564  32.357  1.00  0.00     0.131 A 
ATOM     90  C   UNL A   1      43.816  38.546  30.429  1.00  0.00     0.055 A 
ATOM     91  C   UNL A   1      43.951  37.903  32.740  1.00  0.00     0.041 A 
ATOM     92  F   UNL A   1      43.900  35.639  33.327  1.00  0.00    -0.206 F 
ATOM     93  C   UNL A   1      43.961  38.902  31.771  1.00  0.00     0.022 A 
BRANCH  90  94
ATOM     94  S   UNL A   1      44.017  39.802  29.133  1.00  0.00     0.124 S 
ATOM     95  O   UNL A   1      42.963  39.438  28.193  1.00  0.00    -0.237 OA
ATOM     96  O   UNL A   1      43.813  41.044  29.870  1.00  0.00    -0.237 OA
ATOM     97  O   UNL A   1      45.380  39.583  28.652  1.00  0.00    -0.744 OA
ENDBRANCH  90  94
ENDBRANCH  64  87
ENDBRANCH  38  39
ENDBRANCH  30  33
ENDBRANCH  28  29
ENDBRANCH  27  28
ENDBRANCH   1  27
TORSDOF 17
ENDMDL
MODEL 3
REMARK VINA RESULT:      -8.5      5.014     11.540
REMARK SMILES O=C(CNC(=O)CN1C(=O)S/C(=C\c2cccc(Br)c2)C1=O)NCCCNC(=O)c1ccc(-c2c3nc(c(-c4cc(S(=O)(=O)[O-])ccc4F)c4ccc([nH]4)c(-c4cc(S(=O)(=O)[O-])ccc4F)c4nc(c(-c5cc(S(=O)(=O)[O-])ccc5F)c5ccc2[nH]5)C=C4)C=C3)cc1
REMARK SMILES IDX 24 1 23 2 1 3 2 4 3 6 4 7 5 8 6 10 7 11 8 12 9 13 21 14
REMARK SMILES IDX 10 15 11 16 12 17 22 18 13 19 14 20 15 21 20 22 16 23 18 24
REMARK SMILES IDX 17 25 19 26 25 27 26 28 27 29 28 30 29 32 30 33 31 34 92 35
REMARK SMILES IDX 32 36 91 37 33 38 34 39 35 40 85 41 36 42 90 43 84 44 86 45
REMARK SMILES IDX 37 46 89 47 83 48 82 49 38 51 70 52 50 53 69 54 51 55 54 56
REMARK SMILES IDX 68 57 87 58 52 59 53 60 67 62 88 63 55 64 39 65 40 66 48 67
REMARK SMILES IDX 41 68 47 69 49 70 46 71 42 72 43 73 44 74 45 75 71 76 72 77
REMARK SMILES IDX 80 78 73 79 79 80 81 81 78 82 74 83 75 84 76 85 77 86 56 87
REMARK SMILES IDX 57 88 65 89 58 90 64 91 66 92 63 93 59 94 60 95 61 96 62 97
REMARK H PARENT 23 5 4 9 27 31 86 50 54 61
REMARK Flexibility Score: inf
ROOT
ATOM      1  C   UNL A   1      34.358  32.064  28.243  1.00  0.00     0.117 C 
ENDROOT
BRANCH   1   2
ATOM      2  N   UNL A   1      33.209  31.653  27.446  1.00  0.00    -0.355 N 
ATOM      3  O   UNL A   1      33.943  29.541  26.906  1.00  0.00    -0.273 OA
ATOM      4  C   UNL A   1      33.071  30.403  26.874  1.00  0.00     0.239 C 
ATOM      5  H   UNL A   1      32.486  32.307  27.306  1.00  0.00     0.163 HD
BRANCH   4   6
ATOM      6  C   UNL A   1      31.776  30.210  26.068  1.00  0.00     0.216 C 
BRANCH   6   7
ATOM      7  N   UNL A   1      32.035  29.926  24.663  1.00  0.00    -0.345 N 
ATOM      8  C   UNL A   1      31.534  28.993  23.814  1.00  0.00     0.240 C 
ATOM      9  H   UNL A   1      32.702  30.523  24.252  1.00  0.00     0.164 HD
ATOM     10  O   UNL A   1      31.786  29.170  22.616  1.00  0.00    -0.273 OA
BRANCH   8  11
ATOM     11  C   UNL A   1      30.543  27.903  24.237  1.00  0.00     0.229 C 
BRANCH  11  12
ATOM     12  N   UNL A   1      31.086  26.607  24.590  1.00  0.00    -0.259 N 
ATOM     13  C   UNL A   1      31.202  26.207  25.895  1.00  0.00     0.294 C 
ATOM     14  C   UNL A   1      31.329  25.654  23.634  1.00  0.00     0.268 C 
ATOM     15  O   UNL A   1      30.928  26.863  26.882  1.00  0.00    -0.261 OA
ATOM     16  S   UNL A   1      31.828  24.572  25.981  1.00  0.00    -0.022 SA
ATOM     17  C   UNL A   1      31.790  24.391  24.282  1.00  0.00     0.083 C 
ATOM     18  O   UNL A   1      31.255  25.829  22.426  1.00  0.00    -0.268 OA
ATOM     19  C   UNL A   1      32.177  23.341  23.554  1.00  0.00     0.029 C 
BRANCH  19  20
ATOM     20  C   UNL A   1      32.838  22.103  23.994  1.00  0.00    -0.023 A 
ATOM     21  C   UNL A   1      33.782  22.112  25.018  1.00  0.00     0.008 A 
ATOM     22  C   UNL A   1      32.448  20.864  23.455  1.00  0.00     0.023 A 
ATOM     23  C   UNL A   1      34.322  20.908  25.487  1.00  0.00     0.002 A 
ATOM     24  C   UNL A   1      32.990  19.668  23.917  1.00  0.00     0.018 A 
ATOM     25  C   UNL A   1      33.929  19.684  24.937  1.00  0.00     0.016 A 
ATOM     26  Br  UNL A   1      32.421  18.043  23.134  1.00  0.00    -0.051 Br
ENDBRANCH  19  20
ENDBRANCH  11  12
ENDBRANCH   8  11
ENDBRANCH   6   7
ENDBRANCH   4   6
ENDBRANCH   1   2
BRANCH   1  27
ATOM     27  C   UNL A   1      34.544  33.589  28.312  1.00  0.00     0.042 C 
BRANCH  27  28
ATOM     28  C   UNL A   1      33.277  34.385  28.685  1.00  0.00     0.118 C 
BRANCH  28  29
ATOM     29  N   UNL A   1      33.110  34.738  30.085  1.00  0.00    -0.352 N 
ATOM     30  C   UNL A   1      33.899  34.638  31.222  1.00  0.00     0.251 C 
ATOM     31  H   UNL A   1      32.232  35.143  30.271  1.00  0.00     0.163 HD
ATOM     32  O   UNL A   1      33.529  35.308  32.191  1.00  0.00    -0.269 OA
BRANCH  30  33
ATOM     33  C   UNL A   1      35.080  33.739  31.440  1.00  0.00     0.039 A 
ATOM     34  C   UNL A   1      36.320  34.177  30.968  1.00  0.00     0.014 A 
ATOM     35  C   UNL A   1      35.026  32.399  31.812  1.00  0.00     0.014 A 
ATOM     36  C   UNL A   1      37.473  33.346  30.988  1.00  0.00     0.010 A 
ATOM     37  C   UNL A   1      36.220  31.619  31.973  1.00  0.00     0.010 A 
ATOM     38  C   UNL A   1      37.500  32.078  31.602  1.00  0.00    -0.014 A 
BRANCH  38  39
ATOM     39  C   UNL A   1      38.836  31.329  31.844  1.00  0.00     0.031 A 
ATOM     40  C   UNL A   1      39.779  31.586  33.034  1.00  0.00     0.074 A 
ATOM     41  C   UNL A   1      39.306  30.416  30.945  1.00  0.00     0.049 A 
ATOM     42  N   UNL A   1      40.931  31.006  33.329  1.00  0.00    -0.248 NA
ATOM     43  C   UNL A   1      39.423  32.645  33.983  1.00  0.00     0.031 C 
ATOM     44  C   UNL A   1      38.672  30.069  29.672  1.00  0.00     0.029 A 
ATOM     45  N   UNL A   1      40.436  29.610  30.944  1.00  0.00    -0.354 N 
ATOM     46  C   UNL A   1      41.427  31.640  34.470  1.00  0.00     0.074 A 
ATOM     47  C   UNL A   1      40.508  32.726  34.742  1.00  0.00     0.031 C 
ATOM     48  C   UNL A   1      39.374  29.115  29.048  1.00  0.00     0.029 A 
ATOM     49  C   UNL A   1      40.546  28.779  29.843  1.00  0.00     0.049 A 
ATOM     50  H   UNL A   1      41.104  29.627  31.667  1.00  0.00     0.167 HD
ATOM     51  C   UNL A   1      42.493  31.339  35.270  1.00  0.00     0.034 A 
ATOM     52  C   UNL A   1      41.449  27.840  29.477  1.00  0.00     0.034 A 
ATOM     53  C   UNL A   1      43.411  30.238  35.067  1.00  0.00     0.049 A 
ATOM     54  C   UNL A   1      42.612  27.501  30.373  1.00  0.00     0.074 A 
ATOM     55  C   UNL A   1      44.431  29.799  35.903  1.00  0.00     0.029 A 
ATOM     56  N   UNL A   1      43.442  29.407  33.959  1.00  0.00    -0.354 N 
ATOM     57  N   UNL A   1      42.954  28.035  31.520  1.00  0.00    -0.248 NA
ATOM     58  C   UNL A   1      43.491  26.404  29.939  1.00  0.00     0.031 C 
ATOM     59  C   UNL A   1      45.123  28.763  35.266  1.00  0.00     0.029 A 
ATOM     60  C   UNL A   1      44.480  28.488  34.074  1.00  0.00     0.049 A 
ATOM     61  H   UNL A   1      42.819  29.460  33.198  1.00  0.00     0.167 HD
ATOM     62  C   UNL A   1      44.053  27.299  31.965  1.00  0.00     0.074 A 
ATOM     63  C   UNL A   1      44.305  26.279  30.974  1.00  0.00     0.031 C 
ATOM     64  C   UNL A   1      44.771  27.458  33.105  1.00  0.00     0.034 A 
BRANCH  51  65
ATOM     65  C   UNL A   1      42.717  32.205  36.500  1.00  0.00     0.023 A 
ATOM     66  C   UNL A   1      41.979  32.001  37.679  1.00  0.00     0.031 A 
ATOM     67  C   UNL A   1      43.681  33.232  36.509  1.00  0.00     0.131 A 
ATOM     68  C   UNL A   1      42.133  32.870  38.769  1.00  0.00     0.055 A 
ATOM     69  C   UNL A   1      43.904  34.028  37.637  1.00  0.00     0.041 A 
ATOM     70  F   UNL A   1      44.426  33.482  35.420  1.00  0.00    -0.206 F 
ATOM     71  C   UNL A   1      43.112  33.865  38.769  1.00  0.00     0.022 A 
BRANCH  68  72
ATOM     72  S   UNL A   1      40.913  32.789  40.109  1.00  0.00     0.124 S 
ATOM     73  O   UNL A   1      41.415  31.662  40.891  1.00  0.00    -0.237 OA
ATOM     74  O   UNL A   1      41.039  34.104  40.729  1.00  0.00    -0.237 OA
ATOM     75  O   UNL A   1      39.653  32.543  39.412  1.00  0.00    -0.744 OA
ENDBRANCH  68  72
ENDBRANCH  51  65
BRANCH  52  76
ATOM     76  C   UNL A   1      41.289  27.094  28.186  1.00  0.00     0.023 A 
ATOM     77  C   UNL A   1      40.862  25.754  28.172  1.00  0.00     0.031 A 
ATOM     78  C   UNL A   1      41.633  27.686  26.958  1.00  0.00     0.131 A 
ATOM     79  C   UNL A   1      40.851  25.033  26.967  1.00  0.00     0.055 A 
ATOM     80  C   UNL A   1      41.559  26.982  25.753  1.00  0.00     0.041 A 
ATOM     81  F   UNL A   1      42.044  28.964  26.913  1.00  0.00    -0.206 F 
ATOM     82  C   UNL A   1      41.183  25.642  25.756  1.00  0.00     0.022 A 
BRANCH  79  83
ATOM     83  S   UNL A   1      40.499  23.252  27.020  1.00  0.00     0.124 S 
ATOM     84  O   UNL A   1      39.075  23.223  26.715  1.00  0.00    -0.237 OA
ATOM     85  O   UNL A   1      41.389  22.737  25.984  1.00  0.00    -0.237 OA
ATOM     86  O   UNL A   1      40.854  22.877  28.388  1.00  0.00    -0.744 OA
ENDBRANCH  79  83
ENDBRANCH  52  76
BRANCH  64  87
ATOM     87  C   UNL A   1      45.872  26.457  33.386  1.00  0.00     0.023 A 
ATOM     88  C   UNL A   1      45.634  25.256  34.082  1.00  0.00     0.031 A 
ATOM     89  C   UNL A   1      47.196  26.733  32.997  1.00  0.00     0.131 A 
ATOM     90  C   UNL A   1      46.708  24.424  34.439  1.00  0.00     0.055 A 
ATOM     91  C   UNL A   1      48.250  25.862  33.286  1.00  0.00     0.041 A 
ATOM     92  F   UNL A   1      47.495  27.863  32.337  1.00  0.00    -0.206 F 
ATOM     93  C   UNL A   1      48.012  24.709  34.029  1.00  0.00     0.022 A 
BRANCH  90  94
ATOM     94  S   UNL A   1      46.397  23.035  35.567  1.00  0.00     0.124 S 
ATOM     95  O   UNL A   1      44.951  22.880  35.464  1.00  0.00    -0.237 OA
ATOM     96  O   UNL A   1      47.196  21.969  34.973  1.00  0.00    -0.237 OA
ATOM     97  O   UNL A   1      46.880  23.526  36.856  1.00  0.00    -0.744 OA
ENDBRANCH  90  94
ENDBRANCH  64  87
ENDBRANCH  38  39
ENDBRANCH  30  33
ENDBRANCH  28  29
ENDBRANCH  27  28
ENDBRANCH   1  27
TORSDOF 17
ENDMDL
