MODEL 1
REMARK VINA RESULT:     -13.0      0.000      0.000
REMARK SMILES CCc1ccc(S(=O)(=O)c2nnn(-c3ccc(C(=O)NCCCNC(=O)c4ccc(-c5c6nc(c(-c7cc(S(=O)(=O)[O-])ccc7F)c7ccc([nH]7)c(-c7cc(S(=O)(=O)[O-])ccc7F)c7nc(c(-c8cc(S(=O)(=O)[O-])ccc8F)c8ccc5[nH]8)C=C7)C=C6)cc4)cc3)c2C)cc1
REMARK SMILES IDX 21 1 20 2 18 3 19 4 17 6 14 7 15 8 91 9 16 10 90 11 13 12
REMARK SMILES IDX 10 13 11 14 92 15 12 16 93 17 7 18 8 19 9 20 6 21 3 22 4 23
REMARK SMILES IDX 95 24 5 25 94 26 2 27 1 28 22 29 23 30 24 31 25 32 26 34
REMARK SMILES IDX 27 35 28 36 89 37 29 38 88 39 30 40 31 41 32 42 82 43 33 44
REMARK SMILES IDX 87 45 81 46 83 47 34 48 86 49 80 50 79 51 35 53 67 54 47 55
REMARK SMILES IDX 66 56 48 57 51 58 65 59 84 60 49 61 50 62 64 64 85 65 52 66
REMARK SMILES IDX 36 67 37 68 45 69 38 70 44 71 46 72 43 73 39 74 40 75 41 76
REMARK SMILES IDX 42 77 68 78 69 79 77 80 70 81 76 82 78 83 75 84 71 85 72 86
REMARK SMILES IDX 73 87 74 88 53 89 54 90 62 91 55 92 61 93 63 94 60 95 56 96
REMARK SMILES IDX 57 97 58 98 59 99
REMARK H PARENT 20 5 24 33 83 52 51 63
REMARK Flexibility Score: inf
ROOT
ATOM      1  C   UNL A   1      36.305  33.647  28.786  1.00  0.00     0.118 C 
ENDROOT
BRANCH   1   2
ATOM      2  N   UNL A   1      35.075  34.357  29.113  1.00  0.00    -0.352 N 
ATOM      3  C   UNL A   1      33.753  34.104  28.826  1.00  0.00     0.251 C 
ATOM      4  O   UNL A   1      32.898  34.812  29.357  1.00  0.00    -0.269 OA
ATOM      5  H   UNL A   1      35.216  35.175  29.641  1.00  0.00     0.163 HD
BRANCH   3   6
ATOM      6  C   UNL A   1      33.306  32.985  27.947  1.00  0.00     0.039 A 
ATOM      7  C   UNL A   1      32.301  30.856  26.436  1.00  0.00     0.067 A 
ATOM      8  C   UNL A   1      31.510  31.991  26.622  1.00  0.00     0.029 A 
ATOM      9  C   UNL A   1      33.612  30.821  26.900  1.00  0.00     0.029 A 
ATOM     10  C   UNL A   1      32.008  33.040  27.405  1.00  0.00     0.016 A 
ATOM     11  C   UNL A   1      34.115  31.900  27.612  1.00  0.00     0.016 A 
BRANCH   7  12
ATOM     12  N   UNL A   1      31.785  29.713  25.805  1.00  0.00    -0.216 N 
ATOM     13  C   UNL A   1      31.229  27.688  25.251  1.00  0.00     0.205 A 
ATOM     14  N   UNL A   1      30.874  28.535  24.236  1.00  0.00    -0.117 NA
ATOM     15  C   UNL A   1      31.755  28.421  26.305  1.00  0.00     0.081 A 
ATOM     16  N   UNL A   1      31.138  29.775  24.623  1.00  0.00    -0.061 NA
ATOM     17  C   UNL A   1      32.021  28.070  27.726  1.00  0.00     0.070 C 
BRANCH  13  18
ATOM     18  S   UNL A   1      30.722  26.036  25.276  1.00  0.00     0.227 S 
ATOM     19  O   UNL A   1      30.180  25.788  23.965  1.00  0.00    -0.217 OA
ATOM     20  O   UNL A   1      29.931  25.881  26.491  1.00  0.00    -0.217 OA
BRANCH  18  21
ATOM     21  C   UNL A   1      32.202  25.076  25.459  1.00  0.00     0.073 A 
ATOM     22  C   UNL A   1      34.604  23.663  25.800  1.00  0.00    -0.048 A 
ATOM     23  C   UNL A   1      34.560  24.834  25.021  1.00  0.00     0.005 A 
ATOM     24  C   UNL A   1      33.425  23.219  26.407  1.00  0.00     0.005 A 
ATOM     25  C   UNL A   1      33.368  25.542  24.852  1.00  0.00     0.021 A 
ATOM     26  C   UNL A   1      32.227  23.908  26.225  1.00  0.00     0.021 A 
BRANCH  22  27
ATOM     27  C   UNL A   1      35.927  22.954  25.977  1.00  0.00     0.032 C 
ATOM     28  C   UNL A   1      35.925  21.448  25.736  1.00  0.00     0.009 C 
ENDBRANCH  22  27
ENDBRANCH  18  21
ENDBRANCH  13  18
ENDBRANCH   7  12
ENDBRANCH   3   6
ENDBRANCH   1   2
BRANCH   1  29
ATOM     29  C   UNL A   1      37.155  33.332  30.028  1.00  0.00     0.042 C 
BRANCH  29  30
ATOM     30  C   UNL A   1      37.675  31.908  30.042  1.00  0.00     0.118 C 
BRANCH  30  31
ATOM     31  N   UNL A   1      36.600  30.918  29.934  1.00  0.00    -0.352 N 
ATOM     32  C   UNL A   1      36.582  29.737  29.213  1.00  0.00     0.251 C 
ATOM     33  H   UNL A   1      35.781  31.121  30.441  1.00  0.00     0.163 HD
ATOM     34  O   UNL A   1      35.513  29.223  28.903  1.00  0.00    -0.269 OA
BRANCH  32  35
ATOM     35  C   UNL A   1      37.864  29.121  28.823  1.00  0.00     0.039 A 
ATOM     36  C   UNL A   1      38.553  29.487  27.663  1.00  0.00     0.014 A 
ATOM     37  C   UNL A   1      38.400  28.178  29.690  1.00  0.00     0.014 A 
ATOM     38  C   UNL A   1      39.819  28.944  27.440  1.00  0.00     0.010 A 
ATOM     39  C   UNL A   1      39.720  27.849  29.599  1.00  0.00     0.010 A 
ATOM     40  C   UNL A   1      40.403  28.137  28.428  1.00  0.00    -0.014 A 
BRANCH  40  41
ATOM     41  C   UNL A   1      41.776  27.655  28.345  1.00  0.00     0.031 A 
ATOM     42  C   UNL A   1      41.916  26.391  27.583  1.00  0.00     0.074 A 
ATOM     43  C   UNL A   1      42.841  28.424  28.676  1.00  0.00     0.049 A 
ATOM     44  N   UNL A   1      42.165  25.216  28.054  1.00  0.00    -0.248 NA
ATOM     45  C   UNL A   1      41.533  26.387  26.160  1.00  0.00     0.031 C 
ATOM     46  C   UNL A   1      42.843  29.821  29.133  1.00  0.00     0.029 A 
ATOM     47  N   UNL A   1      44.169  28.161  28.550  1.00  0.00    -0.354 N 
ATOM     48  C   UNL A   1      42.262  24.385  26.945  1.00  0.00     0.074 A 
ATOM     49  C   UNL A   1      41.601  25.084  25.879  1.00  0.00     0.031 C 
ATOM     50  C   UNL A   1      44.083  30.342  29.009  1.00  0.00     0.029 A 
ATOM     51  C   UNL A   1      44.998  29.281  28.630  1.00  0.00     0.049 A 
ATOM     52  H   UNL A   1      44.519  27.251  28.415  1.00  0.00     0.167 HD
ATOM     53  C   UNL A   1      43.140  23.342  26.930  1.00  0.00     0.034 A 
ATOM     54  C   UNL A   1      46.336  29.340  28.379  1.00  0.00     0.034 A 
ATOM     55  C   UNL A   1      43.629  23.069  28.268  1.00  0.00     0.049 A 
ATOM     56  C   UNL A   1      46.845  27.951  28.511  1.00  0.00     0.074 A 
ATOM     57  C   UNL A   1      43.023  22.778  29.477  1.00  0.00     0.029 A 
ATOM     58  N   UNL A   1      44.900  23.500  28.591  1.00  0.00    -0.354 N 
ATOM     59  N   UNL A   1      46.833  27.293  29.638  1.00  0.00    -0.248 NA
ATOM     60  C   UNL A   1      46.878  27.123  27.315  1.00  0.00     0.031 C 
ATOM     61  C   UNL A   1      43.755  23.530  30.445  1.00  0.00     0.029 A 
ATOM     62  C   UNL A   1      44.828  24.150  29.800  1.00  0.00     0.049 A 
ATOM     63  H   UNL A   1      45.713  23.364  28.053  1.00  0.00     0.167 HD
ATOM     64  C   UNL A   1      46.401  26.018  29.303  1.00  0.00     0.074 A 
ATOM     65  C   UNL A   1      46.544  25.943  27.848  1.00  0.00     0.031 C 
ATOM     66  C   UNL A   1      45.690  25.254  30.187  1.00  0.00     0.034 A 
BRANCH  53  67
ATOM     67  C   UNL A   1      43.863  22.832  25.699  1.00  0.00     0.023 A 
ATOM     68  C   UNL A   1      43.887  21.436  25.514  1.00  0.00     0.031 A 
ATOM     69  C   UNL A   1      44.745  23.568  24.875  1.00  0.00     0.131 A 
ATOM     70  C   UNL A   1      44.826  20.833  24.660  1.00  0.00     0.055 A 
ATOM     71  C   UNL A   1      45.629  22.967  23.974  1.00  0.00     0.041 A 
ATOM     72  F   UNL A   1      44.877  24.897  24.946  1.00  0.00    -0.206 F 
ATOM     73  C   UNL A   1      45.700  21.590  23.888  1.00  0.00     0.022 A 
BRANCH  70  74
ATOM     74  S   UNL A   1      45.005  19.034  24.727  1.00  0.00     0.124 S 
ATOM     75  O   UNL A   1      46.337  18.896  25.305  1.00  0.00    -0.237 OA
ATOM     76  O   UNL A   1      43.887  18.654  25.584  1.00  0.00    -0.237 OA
ATOM     77  O   UNL A   1      44.884  18.630  23.329  1.00  0.00    -0.744 OA
ENDBRANCH  70  74
ENDBRANCH  53  67
BRANCH  54  78
ATOM     78  C   UNL A   1      47.108  30.450  27.742  1.00  0.00     0.023 A 
ATOM     79  C   UNL A   1      46.500  31.549  27.094  1.00  0.00     0.031 A 
ATOM     80  C   UNL A   1      48.496  30.558  27.989  1.00  0.00     0.131 A 
ATOM     81  C   UNL A   1      47.269  32.683  26.728  1.00  0.00     0.055 A 
ATOM     82  C   UNL A   1      49.250  31.678  27.627  1.00  0.00     0.041 A 
ATOM     83  F   UNL A   1      49.156  29.610  28.673  1.00  0.00    -0.206 F 
ATOM     84  C   UNL A   1      48.636  32.751  27.003  1.00  0.00     0.022 A 
BRANCH  81  85
ATOM     85  S   UNL A   1      46.485  34.144  25.962  1.00  0.00     0.124 S 
ATOM     86  O   UNL A   1      47.520  34.610  25.046  1.00  0.00    -0.237 OA
ATOM     87  O   UNL A   1      45.287  33.576  25.354  1.00  0.00    -0.237 OA
ATOM     88  O   UNL A   1      46.228  35.032  27.097  1.00  0.00    -0.744 OA
ENDBRANCH  81  85
ENDBRANCH  54  78
BRANCH  66  89
ATOM     89  C   UNL A   1      45.629  25.693  31.641  1.00  0.00     0.023 A 
ATOM     90  C   UNL A   1      46.647  25.490  32.603  1.00  0.00     0.031 A 
ATOM     91  C   UNL A   1      44.519  26.465  32.027  1.00  0.00     0.131 A 
ATOM     92  C   UNL A   1      46.523  26.047  33.893  1.00  0.00     0.055 A 
ATOM     93  C   UNL A   1      44.409  27.033  33.295  1.00  0.00     0.041 A 
ATOM     94  F   UNL A   1      43.527  26.716  31.156  1.00  0.00    -0.206 F 
ATOM     95  C   UNL A   1      45.409  26.822  34.235  1.00  0.00     0.022 A 
BRANCH  92  96
ATOM     96  S   UNL A   1      47.797  25.762  35.166  1.00  0.00     0.124 S 
ATOM     97  O   UNL A   1      48.211  24.383  34.934  1.00  0.00    -0.237 OA
ATOM     98  O   UNL A   1      48.790  26.788  34.859  1.00  0.00    -0.237 OA
ATOM     99  O   UNL A   1      47.076  25.975  36.424  1.00  0.00    -0.744 OA
ENDBRANCH  92  96
ENDBRANCH  66  89
ENDBRANCH  40  41
ENDBRANCH  32  35
ENDBRANCH  30  31
ENDBRANCH  29  30
ENDBRANCH   1  29
TORSDOF 17
ENDMDL
MODEL 2
REMARK VINA RESULT:     -12.7      9.156     15.628
REMARK SMILES CCc1ccc(S(=O)(=O)c2nnn(-c3ccc(C(=O)NCCCNC(=O)c4ccc(-c5c6nc(c(-c7cc(S(=O)(=O)[O-])ccc7F)c7ccc([nH]7)c(-c7cc(S(=O)(=O)[O-])ccc7F)c7nc(c(-c8cc(S(=O)(=O)[O-])ccc8F)c8ccc5[nH]8)C=C7)C=C6)cc4)cc3)c2C)cc1
REMARK SMILES IDX 21 1 20 2 18 3 19 4 17 6 14 7 15 8 91 9 16 10 90 11 13 12
REMARK SMILES IDX 10 13 11 14 92 15 12 16 93 17 7 18 8 19 9 20 6 21 3 22 4 23
REMARK SMILES IDX 95 24 5 25 94 26 2 27 1 28 22 29 23 30 24 31 25 32 26 34
REMARK SMILES IDX 27 35 28 36 89 37 29 38 88 39 30 40 31 41 32 42 82 43 33 44
REMARK SMILES IDX 87 45 81 46 83 47 34 48 86 49 80 50 79 51 35 53 67 54 47 55
REMARK SMILES IDX 66 56 48 57 51 58 65 59 84 60 49 61 50 62 64 64 85 65 52 66
REMARK SMILES IDX 36 67 37 68 45 69 38 70 44 71 46 72 43 73 39 74 40 75 41 76
REMARK SMILES IDX 42 77 68 78 69 79 77 80 70 81 76 82 78 83 75 84 71 85 72 86
REMARK SMILES IDX 73 87 74 88 53 89 54 90 62 91 55 92 61 93 63 94 60 95 56 96
REMARK SMILES IDX 57 97 58 98 59 99
REMARK H PARENT 20 5 24 33 83 52 51 63
REMARK Flexibility Score: inf
ROOT
ATOM      1  C   UNL A   1      45.440  40.241  26.162  1.00  0.00     0.118 C 
ENDROOT
BRANCH   1   2
ATOM      2  N   UNL A   1      45.931  41.537  26.613  1.00  0.00    -0.352 N 
ATOM      3  C   UNL A   1      45.857  42.798  26.068  1.00  0.00     0.251 C 
ATOM      4  O   UNL A   1      46.248  43.747  26.746  1.00  0.00    -0.269 OA
ATOM      5  H   UNL A   1      46.409  41.504  27.472  1.00  0.00     0.163 HD
BRANCH   3   6
ATOM      6  C   UNL A   1      45.280  43.075  24.720  1.00  0.00     0.039 A 
ATOM      7  C   UNL A   1      44.004  43.524  22.272  1.00  0.00     0.067 A 
ATOM      8  C   UNL A   1      43.577  44.226  23.400  1.00  0.00     0.029 A 
ATOM      9  C   UNL A   1      45.118  42.692  22.333  1.00  0.00     0.029 A 
ATOM     10  C   UNL A   1      44.201  43.973  24.629  1.00  0.00     0.016 A 
ATOM     11  C   UNL A   1      45.769  42.509  23.544  1.00  0.00     0.016 A 
BRANCH   7  12
ATOM     12  N   UNL A   1      43.304  43.615  21.058  1.00  0.00    -0.216 N 
ATOM     13  C   UNL A   1      42.611  44.127  19.065  1.00  0.00     0.205 A 
ATOM     14  N   UNL A   1      41.682  43.315  19.658  1.00  0.00    -0.117 NA
ATOM     15  C   UNL A   1      43.699  44.284  19.911  1.00  0.00     0.081 A 
ATOM     16  N   UNL A   1      42.157  42.940  20.837  1.00  0.00    -0.061 NA
ATOM     17  C   UNL A   1      45.076  44.798  19.678  1.00  0.00     0.070 C 
BRANCH  13  18
ATOM     18  S   UNL A   1      42.524  44.535  17.388  1.00  0.00     0.227 S 
ATOM     19  O   UNL A   1      41.117  44.573  17.082  1.00  0.00    -0.217 OA
ATOM     20  O   UNL A   1      43.447  43.633  16.710  1.00  0.00    -0.217 OA
BRANCH  18  21
ATOM     21  C   UNL A   1      43.167  46.182  17.253  1.00  0.00     0.073 A 
ATOM     22  C   UNL A   1      44.212  48.766  16.911  1.00  0.00    -0.048 A 
ATOM     23  C   UNL A   1      44.995  47.629  16.637  1.00  0.00     0.005 A 
ATOM     24  C   UNL A   1      42.898  48.582  17.354  1.00  0.00     0.005 A 
ATOM     25  C   UNL A   1      44.478  46.341  16.802  1.00  0.00     0.021 A 
ATOM     26  C   UNL A   1      42.382  47.301  17.541  1.00  0.00     0.021 A 
BRANCH  22  27
ATOM     27  C   UNL A   1      44.811  50.135  16.683  1.00  0.00     0.032 C 
ATOM     28  C   UNL A   1      44.741  51.106  17.857  1.00  0.00     0.009 C 
ENDBRANCH  22  27
ENDBRANCH  18  21
ENDBRANCH  13  18
ENDBRANCH   7  12
ENDBRANCH   3   6
ENDBRANCH   1   2
BRANCH   1  29
ATOM     29  C   UNL A   1      44.717  39.463  27.274  1.00  0.00     0.042 C 
BRANCH  29  30
ATOM     30  C   UNL A   1      45.421  38.172  27.646  1.00  0.00     0.118 C 
BRANCH  30  31
ATOM     31  N   UNL A   1      45.326  37.159  26.591  1.00  0.00    -0.352 N 
ATOM     32  C   UNL A   1      44.804  35.879  26.667  1.00  0.00     0.251 C 
ATOM     33  H   UNL A   1      45.682  37.424  25.713  1.00  0.00     0.163 HD
ATOM     34  O   UNL A   1      45.138  35.031  25.848  1.00  0.00    -0.269 OA
BRANCH  32  35
ATOM     35  C   UNL A   1      43.852  35.562  27.748  1.00  0.00     0.039 A 
ATOM     36  C   UNL A   1      42.615  36.201  27.874  1.00  0.00     0.014 A 
ATOM     37  C   UNL A   1      44.213  34.552  28.629  1.00  0.00     0.014 A 
ATOM     38  C   UNL A   1      41.727  35.748  28.850  1.00  0.00     0.010 A 
ATOM     39  C   UNL A   1      43.261  33.955  29.401  1.00  0.00     0.010 A 
ATOM     40  C   UNL A   1      42.054  34.608  29.599  1.00  0.00    -0.014 A 
BRANCH  40  41
ATOM     41  C   UNL A   1      41.123  33.979  30.528  1.00  0.00     0.031 A 
ATOM     42  C   UNL A   1      41.602  33.971  31.932  1.00  0.00     0.074 A 
ATOM     43  C   UNL A   1      39.842  33.694  30.197  1.00  0.00     0.049 A 
ATOM     44  N   UNL A   1      42.027  32.959  32.609  1.00  0.00    -0.248 NA
ATOM     45  C   UNL A   1      41.830  35.265  32.599  1.00  0.00     0.031 C 
ATOM     46  C   UNL A   1      39.153  33.963  28.927  1.00  0.00     0.029 A 
ATOM     47  N   UNL A   1      38.834  33.217  30.975  1.00  0.00    -0.354 N 
ATOM     48  C   UNL A   1      42.293  33.449  33.882  1.00  0.00     0.074 A 
ATOM     49  C   UNL A   1      42.422  34.872  33.728  1.00  0.00     0.031 C 
ATOM     50  C   UNL A   1      37.816  33.876  29.103  1.00  0.00     0.029 A 
ATOM     51  C   UNL A   1      37.554  33.381  30.442  1.00  0.00     0.049 A 
ATOM     52  H   UNL A   1      38.994  32.787  31.845  1.00  0.00     0.167 HD
ATOM     53  C   UNL A   1      42.080  32.678  34.985  1.00  0.00     0.034 A 
ATOM     54  C   UNL A   1      36.363  33.150  31.062  1.00  0.00     0.034 A 
ATOM     55  C   UNL A   1      41.898  31.289  34.607  1.00  0.00     0.049 A 
ATOM     56  C   UNL A   1      36.653  32.226  32.189  1.00  0.00     0.074 A 
ATOM     57  C   UNL A   1      42.652  30.376  33.892  1.00  0.00     0.029 A 
ATOM     58  N   UNL A   1      40.614  30.784  34.605  1.00  0.00    -0.354 N 
ATOM     59  N   UNL A   1      37.083  31.006  32.016  1.00  0.00    -0.248 NA
ATOM     60  C   UNL A   1      36.967  32.812  33.484  1.00  0.00     0.031 C 
ATOM     61  C   UNL A   1      41.708  29.679  33.079  1.00  0.00     0.029 A 
ATOM     62  C   UNL A   1      40.426  30.120  33.416  1.00  0.00     0.049 A 
ATOM     63  H   UNL A   1      39.951  30.880  35.326  1.00  0.00     0.167 HD
ATOM     64  C   UNL A   1      38.085  30.842  32.960  1.00  0.00     0.074 A 
ATOM     65  C   UNL A   1      37.898  31.948  33.901  1.00  0.00     0.031 C 
ATOM     66  C   UNL A   1      39.149  30.014  32.731  1.00  0.00     0.034 A 
BRANCH  53  67
ATOM     67  C   UNL A   1      41.637  33.199  36.338  1.00  0.00     0.023 A 
ATOM     68  C   UNL A   1      42.425  32.829  37.445  1.00  0.00     0.031 A 
ATOM     69  C   UNL A   1      40.384  33.775  36.650  1.00  0.00     0.131 A 
ATOM     70  C   UNL A   1      41.921  32.913  38.754  1.00  0.00     0.055 A 
ATOM     71  C   UNL A   1      39.917  33.921  37.959  1.00  0.00     0.041 A 
ATOM     72  F   UNL A   1      39.498  34.148  35.721  1.00  0.00    -0.206 F 
ATOM     73  C   UNL A   1      40.670  33.455  39.020  1.00  0.00     0.022 A 
BRANCH  70  74
ATOM     74  S   UNL A   1      42.862  32.119  40.080  1.00  0.00     0.124 S 
ATOM     75  O   UNL A   1      41.793  31.577  40.911  1.00  0.00    -0.237 OA
ATOM     76  O   UNL A   1      43.661  31.148  39.340  1.00  0.00    -0.237 OA
ATOM     77  O   UNL A   1      43.614  33.224  40.669  1.00  0.00    -0.744 OA
ENDBRANCH  70  74
ENDBRANCH  53  67
BRANCH  54  78
ATOM     78  C   UNL A   1      35.087  33.916  30.925  1.00  0.00     0.023 A 
ATOM     79  C   UNL A   1      34.656  34.886  31.859  1.00  0.00     0.031 A 
ATOM     80  C   UNL A   1      34.378  33.866  29.702  1.00  0.00     0.131 A 
ATOM     81  C   UNL A   1      33.572  35.747  31.552  1.00  0.00     0.055 A 
ATOM     82  C   UNL A   1      33.310  34.717  29.404  1.00  0.00     0.041 A 
ATOM     83  F   UNL A   1      34.758  33.041  28.713  1.00  0.00    -0.206 F 
ATOM     84  C   UNL A   1      32.909  35.670  30.325  1.00  0.00     0.022 A 
BRANCH  81  85
ATOM     85  S   UNL A   1      33.054  37.057  32.713  1.00  0.00     0.124 S 
ATOM     86  O   UNL A   1      33.140  38.257  31.890  1.00  0.00    -0.237 OA
ATOM     87  O   UNL A   1      31.714  36.627  33.097  1.00  0.00    -0.237 OA
ATOM     88  O   UNL A   1      34.048  36.979  33.786  1.00  0.00    -0.744 OA
ENDBRANCH  81  85
ENDBRANCH  54  78
BRANCH  66  89
ATOM     89  C   UNL A   1      39.078  29.049  31.559  1.00  0.00     0.023 A 
ATOM     90  C   UNL A   1      39.610  29.284  30.269  1.00  0.00     0.031 A 
ATOM     91  C   UNL A   1      38.543  27.774  31.817  1.00  0.00     0.131 A 
ATOM     92  C   UNL A   1      39.584  28.262  29.297  1.00  0.00     0.055 A 
ATOM     93  C   UNL A   1      38.540  26.759  30.861  1.00  0.00     0.041 A 
ATOM     94  F   UNL A   1      38.043  27.477  33.028  1.00  0.00    -0.206 F 
ATOM     95  C   UNL A   1      39.055  27.001  29.595  1.00  0.00     0.022 A 
BRANCH  92  96
ATOM     96  S   UNL A   1      40.219  28.552  27.612  1.00  0.00     0.124 S 
ATOM     97  O   UNL A   1      40.368  27.209  27.065  1.00  0.00    -0.237 OA
ATOM     98  O   UNL A   1      39.169  29.373  27.013  1.00  0.00    -0.237 OA
ATOM     99  O   UNL A   1      41.482  29.258  27.840  1.00  0.00    -0.744 OA
ENDBRANCH  92  96
ENDBRANCH  66  89
ENDBRANCH  40  41
ENDBRANCH  32  35
ENDBRANCH  30  31
ENDBRANCH  29  30
ENDBRANCH   1  29
TORSDOF 17
ENDMDL
MODEL 3
REMARK VINA RESULT:     -12.4      4.154     10.058
REMARK SMILES CCc1ccc(S(=O)(=O)c2nnn(-c3ccc(C(=O)NCCCNC(=O)c4ccc(-c5c6nc(c(-c7cc(S(=O)(=O)[O-])ccc7F)c7ccc([nH]7)c(-c7cc(S(=O)(=O)[O-])ccc7F)c7nc(c(-c8cc(S(=O)(=O)[O-])ccc8F)c8ccc5[nH]8)C=C7)C=C6)cc4)cc3)c2C)cc1
REMARK SMILES IDX 21 1 20 2 18 3 19 4 17 6 14 7 15 8 91 9 16 10 90 11 13 12
REMARK SMILES IDX 10 13 11 14 92 15 12 16 93 17 7 18 8 19 9 20 6 21 3 22 4 23
REMARK SMILES IDX 95 24 5 25 94 26 2 27 1 28 22 29 23 30 24 31 25 32 26 34
REMARK SMILES IDX 27 35 28 36 89 37 29 38 88 39 30 40 31 41 32 42 82 43 33 44
REMARK SMILES IDX 87 45 81 46 83 47 34 48 86 49 80 50 79 51 35 53 67 54 47 55
REMARK SMILES IDX 66 56 48 57 51 58 65 59 84 60 49 61 50 62 64 64 85 65 52 66
REMARK SMILES IDX 36 67 37 68 45 69 38 70 44 71 46 72 43 73 39 74 40 75 41 76
REMARK SMILES IDX 42 77 68 78 69 79 77 80 70 81 76 82 78 83 75 84 71 85 72 86
REMARK SMILES IDX 73 87 74 88 53 89 54 90 62 91 55 92 61 93 63 94 60 95 56 96
REMARK SMILES IDX 57 97 58 98 59 99
REMARK H PARENT 20 5 24 33 83 52 51 63
REMARK Flexibility Score: inf
ROOT
ATOM      1  C   UNL A   1      36.043  31.319  32.226  1.00  0.00     0.118 C 
ENDROOT
BRANCH   1   2
ATOM      2  N   UNL A   1      36.351  31.426  33.646  1.00  0.00    -0.352 N 
ATOM      3  C   UNL A   1      37.371  32.045  34.332  1.00  0.00     0.251 C 
ATOM      4  O   UNL A   1      37.302  32.090  35.559  1.00  0.00    -0.269 OA
ATOM      5  H   UNL A   1      35.704  30.967  34.229  1.00  0.00     0.163 HD
BRANCH   3   6
ATOM      6  C   UNL A   1      38.525  32.707  33.657  1.00  0.00     0.039 A 
ATOM      7  C   UNL A   1      40.803  33.924  32.581  1.00  0.00     0.067 A 
ATOM      8  C   UNL A   1      40.883  32.603  33.024  1.00  0.00     0.029 A 
ATOM      9  C   UNL A   1      39.585  34.596  32.570  1.00  0.00     0.029 A 
ATOM     10  C   UNL A   1      39.746  32.010  33.590  1.00  0.00     0.016 A 
ATOM     11  C   UNL A   1      38.452  33.968  33.068  1.00  0.00     0.016 A 
BRANCH   7  12
ATOM     12  N   UNL A   1      41.951  34.615  32.164  1.00  0.00    -0.216 N 
ATOM     13  C   UNL A   1      43.676  35.361  31.076  1.00  0.00     0.205 A 
ATOM     14  N   UNL A   1      43.677  35.909  32.331  1.00  0.00    -0.117 NA
ATOM     15  C   UNL A   1      42.543  34.578  30.912  1.00  0.00     0.081 A 
ATOM     16  N   UNL A   1      42.574  35.515  32.952  1.00  0.00    -0.061 NA
ATOM     17  C   UNL A   1      41.898  34.003  29.701  1.00  0.00     0.070 C 
BRANCH  13  18
ATOM     18  S   UNL A   1      44.756  35.911  29.844  1.00  0.00     0.227 S 
ATOM     19  O   UNL A   1      45.110  34.730  29.099  1.00  0.00    -0.217 OA
ATOM     20  O   UNL A   1      45.749  36.734  30.523  1.00  0.00    -0.217 OA
BRANCH  18  21
ATOM     21  C   UNL A   1      43.795  36.967  28.791  1.00  0.00     0.073 A 
ATOM     22  C   UNL A   1      42.178  38.547  27.127  1.00  0.00    -0.048 A 
ATOM     23  C   UNL A   1      42.553  37.245  26.744  1.00  0.00     0.005 A 
ATOM     24  C   UNL A   1      42.624  39.036  28.359  1.00  0.00     0.005 A 
ATOM     25  C   UNL A   1      43.354  36.454  27.572  1.00  0.00     0.021 A 
ATOM     26  C   UNL A   1      43.442  38.261  29.179  1.00  0.00     0.021 A 
BRANCH  22  27
ATOM     27  C   UNL A   1      41.282  39.346  26.209  1.00  0.00     0.032 C 
ATOM     28  C   UNL A   1      41.153  40.833  26.519  1.00  0.00     0.009 C 
ENDBRANCH  22  27
ENDBRANCH  18  21
ENDBRANCH  13  18
ENDBRANCH   7  12
ENDBRANCH   3   6
ENDBRANCH   1   2
BRANCH   1  29
ATOM     29  C   UNL A   1      34.994  32.345  31.768  1.00  0.00     0.042 C 
BRANCH  29  30
ATOM     30  C   UNL A   1      35.586  33.461  30.929  1.00  0.00     0.118 C 
BRANCH  30  31
ATOM     31  N   UNL A   1      35.315  33.290  29.499  1.00  0.00    -0.352 N 
ATOM     32  C   UNL A   1      36.097  32.671  28.540  1.00  0.00     0.251 C 
ATOM     33  H   UNL A   1      34.464  33.667  29.178  1.00  0.00     0.163 HD
ATOM     34  O   UNL A   1      35.942  32.940  27.354  1.00  0.00    -0.269 OA
BRANCH  32  35
ATOM     35  C   UNL A   1      37.115  31.695  28.973  1.00  0.00     0.039 A 
ATOM     36  C   UNL A   1      36.978  30.320  28.762  1.00  0.00     0.014 A 
ATOM     37  C   UNL A   1      38.261  32.203  29.569  1.00  0.00     0.014 A 
ATOM     38  C   UNL A   1      38.047  29.485  29.090  1.00  0.00     0.010 A 
ATOM     39  C   UNL A   1      39.381  31.429  29.652  1.00  0.00     0.010 A 
ATOM     40  C   UNL A   1      39.255  30.055  29.520  1.00  0.00    -0.014 A 
BRANCH  40  41
ATOM     41  C   UNL A   1      40.465  29.271  29.736  1.00  0.00     0.031 A 
ATOM     42  C   UNL A   1      40.727  28.969  31.164  1.00  0.00     0.074 A 
ATOM     43  C   UNL A   1      41.118  28.643  28.730  1.00  0.00     0.049 A 
ATOM     44  N   UNL A   1      41.642  29.479  31.918  1.00  0.00    -0.248 NA
ATOM     45  C   UNL A   1      39.738  28.163  31.901  1.00  0.00     0.031 C 
ATOM     46  C   UNL A   1      40.759  28.598  27.305  1.00  0.00     0.029 A 
ATOM     47  N   UNL A   1      42.181  27.797  28.785  1.00  0.00    -0.354 N 
ATOM     48  C   UNL A   1      41.519  28.830  33.140  1.00  0.00     0.074 A 
ATOM     49  C   UNL A   1      40.197  28.268  33.149  1.00  0.00     0.031 C 
ATOM     50  C   UNL A   1      41.427  27.593  26.696  1.00  0.00     0.029 A 
ATOM     51  C   UNL A   1      42.384  27.035  27.633  1.00  0.00     0.049 A 
ATOM     52  H   UNL A   1      42.763  27.728  29.575  1.00  0.00     0.167 HD
ATOM     53  C   UNL A   1      42.619  28.557  33.898  1.00  0.00     0.034 A 
ATOM     54  C   UNL A   1      43.258  26.003  27.467  1.00  0.00     0.034 A 
ATOM     55  C   UNL A   1      43.764  29.311  33.422  1.00  0.00     0.049 A 
ATOM     56  C   UNL A   1      44.294  26.161  28.519  1.00  0.00     0.074 A 
ATOM     57  C   UNL A   1      44.017  30.654  33.214  1.00  0.00     0.029 A 
ATOM     58  N   UNL A   1      44.713  28.641  32.677  1.00  0.00    -0.354 N 
ATOM     59  N   UNL A   1      45.114  27.176  28.564  1.00  0.00    -0.248 NA
ATOM     60  C   UNL A   1      44.078  25.487  29.791  1.00  0.00     0.031 C 
ATOM     61  C   UNL A   1      44.736  30.705  31.982  1.00  0.00     0.029 A 
ATOM     62  C   UNL A   1      44.979  29.396  31.560  1.00  0.00     0.049 A 
ATOM     63  H   UNL A   1      45.126  27.777  32.905  1.00  0.00     0.167 HD
ATOM     64  C   UNL A   1      45.153  27.545  29.900  1.00  0.00     0.074 A 
ATOM     65  C   UNL A   1      44.579  26.408  30.621  1.00  0.00     0.031 C 
ATOM     66  C   UNL A   1      45.364  28.844  30.272  1.00  0.00     0.034 A 
BRANCH  53  67
ATOM     67  C   UNL A   1      42.781  27.342  34.790  1.00  0.00     0.023 A 
ATOM     68  C   UNL A   1      43.612  26.312  34.309  1.00  0.00     0.031 A 
ATOM     69  C   UNL A   1      41.982  27.006  35.907  1.00  0.00     0.131 A 
ATOM     70  C   UNL A   1      43.535  25.012  34.836  1.00  0.00     0.055 A 
ATOM     71  C   UNL A   1      41.962  25.728  36.473  1.00  0.00     0.041 A 
ATOM     72  F   UNL A   1      41.110  27.851  36.466  1.00  0.00    -0.206 F 
ATOM     73  C   UNL A   1      42.713  24.711  35.916  1.00  0.00     0.022 A 
BRANCH  70  74
ATOM     74  S   UNL A   1      44.391  23.684  33.954  1.00  0.00     0.124 S 
ATOM     75  O   UNL A   1      45.590  24.371  33.487  1.00  0.00    -0.237 OA
ATOM     76  O   UNL A   1      44.582  22.697  35.012  1.00  0.00    -0.237 OA
ATOM     77  O   UNL A   1      43.441  23.304  32.912  1.00  0.00    -0.744 OA
ENDBRANCH  70  74
ENDBRANCH  53  67
BRANCH  54  78
ATOM     78  C   UNL A   1      43.069  24.753  26.669  1.00  0.00     0.023 A 
ATOM     79  C   UNL A   1      44.086  24.175  25.875  1.00  0.00     0.031 A 
ATOM     80  C   UNL A   1      41.919  23.960  26.887  1.00  0.00     0.131 A 
ATOM     81  C   UNL A   1      43.928  22.870  25.344  1.00  0.00     0.055 A 
ATOM     82  C   UNL A   1      41.768  22.674  26.362  1.00  0.00     0.041 A 
ATOM     83  F   UNL A   1      40.932  24.377  27.696  1.00  0.00    -0.206 F 
ATOM     84  C   UNL A   1      42.779  22.118  25.595  1.00  0.00     0.022 A 
BRANCH  81  85
ATOM     85  S   UNL A   1      45.264  22.079  24.382  1.00  0.00     0.124 S 
ATOM     86  O   UNL A   1      44.528  21.161  23.521  1.00  0.00    -0.237 OA
ATOM     87  O   UNL A   1      45.898  23.218  23.726  1.00  0.00    -0.237 OA
ATOM     88  O   UNL A   1      46.088  21.431  25.405  1.00  0.00    -0.744 OA
ENDBRANCH  81  85
ENDBRANCH  54  78
BRANCH  66  89
ATOM     89  C   UNL A   1      45.848  29.831  29.221  1.00  0.00     0.023 A 
ATOM     90  C   UNL A   1      47.191  29.994  28.805  1.00  0.00     0.031 A 
ATOM     91  C   UNL A   1      44.863  30.555  28.527  1.00  0.00     0.131 A 
ATOM     92  C   UNL A   1      47.500  30.862  27.737  1.00  0.00     0.055 A 
ATOM     93  C   UNL A   1      45.169  31.394  27.457  1.00  0.00     0.041 A 
ATOM     94  F   UNL A   1      43.566  30.429  28.856  1.00  0.00    -0.206 F 
ATOM     95  C   UNL A   1      46.490  31.555  27.061  1.00  0.00     0.022 A 
BRANCH  92  96
ATOM     96  S   UNL A   1      49.226  31.127  27.211  1.00  0.00     0.124 S 
ATOM     97  O   UNL A   1      49.162  32.355  26.428  1.00  0.00    -0.237 OA
ATOM     98  O   UNL A   1      49.936  31.218  28.485  1.00  0.00    -0.237 OA
ATOM     99  O   UNL A   1      49.534  29.925  26.432  1.00  0.00    -0.744 OA
ENDBRANCH  92  96
ENDBRANCH  66  89
ENDBRANCH  40  41
ENDBRANCH  32  35
ENDBRANCH  30  31
ENDBRANCH  29  30
ENDBRANCH   1  29
TORSDOF 17
ENDMDL
