MODEL 1
REMARK VINA RESULT:     -12.5      0.000      0.000
REMARK SMILES COC(=O)c1cc(F)cc(-c2ccccc2C(=O)NCCCNC(=O)c2ccc(-c3c4nc(c(-c5cc(S(=O)(=O)[O-])ccc5F)c5ccc([nH]5)c(-c5cc(S(=O)(=O)[O-])ccc5F)c5nc(c(-c6cc(S(=O)(=O)[O-])ccc6F)c6ccc3[nH]6)C=C5)C=C4)cc2)c1
REMARK SMILES IDX 21 1 20 2 19 3 17 4 18 5 16 7 11 8 12 9 13 10 15 11 14 12
REMARK SMILES IDX 10 13 5 14 6 15 89 16 7 17 8 18 9 19 3 20 4 21 2 22 1 23
REMARK SMILES IDX 22 24 23 25 24 26 25 28 26 29 27 30 88 31 28 32 87 33 29 34
REMARK SMILES IDX 30 35 31 36 81 37 32 38 86 39 80 40 82 41 33 42 85 43 79 44
REMARK SMILES IDX 78 45 34 47 66 48 46 49 65 50 47 51 50 52 64 53 83 54 48 55
REMARK SMILES IDX 49 56 63 58 84 59 51 60 35 61 36 62 44 63 37 64 43 65 45 66
REMARK SMILES IDX 42 67 38 68 39 69 40 70 41 71 67 72 68 73 76 74 69 75 75 76
REMARK SMILES IDX 77 77 74 78 70 79 71 80 72 81 73 82 52 83 53 84 61 85 54 86
REMARK SMILES IDX 60 87 62 88 59 89 55 90 56 91 57 92 58 93
REMARK H PARENT 19 6 23 27 82 46 50 57
REMARK Flexibility Score: inf
ROOT
ATOM      1  C   UNL A   1      31.595  28.923  26.608  1.00  0.00     0.042 C 
ENDROOT
BRANCH   1   2
ATOM      2  C   UNL A   1      32.368  27.653  26.914  1.00  0.00     0.118 C 
BRANCH   2   3
ATOM      3  N   UNL A   1      31.602  26.447  27.110  1.00  0.00    -0.352 N 
ATOM      4  C   UNL A   1      31.616  25.278  26.383  1.00  0.00     0.251 C 
ATOM      5  O   UNL A   1      30.959  24.330  26.821  1.00  0.00    -0.269 OA
ATOM      6  H   UNL A   1      30.980  26.461  27.873  1.00  0.00     0.163 HD
BRANCH   4   7
ATOM      7  C   UNL A   1      32.289  25.107  25.053  1.00  0.00     0.047 A 
ATOM      8  C   UNL A   1      31.905  25.646  23.802  1.00  0.00    -0.005 A 
ATOM      9  C   UNL A   1      32.741  25.394  22.685  1.00  0.00     0.009 A 
ATOM     10  C   UNL A   1      33.915  24.648  22.787  1.00  0.00     0.001 A 
ATOM     11  C   UNL A   1      33.493  24.366  25.136  1.00  0.00     0.014 A 
ATOM     12  C   UNL A   1      34.294  24.135  24.017  1.00  0.00     0.001 A 
BRANCH   8  13
ATOM     13  C   UNL A   1      30.689  26.433  23.544  1.00  0.00    -0.014 A 
ATOM     14  C   UNL A   1      29.554  28.464  22.864  1.00  0.00     0.063 A 
ATOM     15  C   UNL A   1      28.336  27.996  23.363  1.00  0.00     0.055 A 
ATOM     16  C   UNL A   1      30.724  27.692  22.927  1.00  0.00     0.024 A 
ATOM     17  C   UNL A   1      28.292  26.727  23.914  1.00  0.00     0.124 A 
ATOM     18  F   UNL A   1      27.150  26.267  24.437  1.00  0.00    -0.207 F 
ATOM     19  C   UNL A   1      29.442  25.945  23.997  1.00  0.00     0.048 A 
BRANCH  14  20
ATOM     20  C   UNL A   1      29.627  29.840  22.366  1.00  0.00     0.337 C 
ATOM     21  O   UNL A   1      29.887  30.143  21.214  1.00  0.00    -0.246 OA
BRANCH  20  22
ATOM     22  O   UNL A   1      29.350  30.654  23.410  1.00  0.00    -0.465 OA
ATOM     23  C   UNL A   1      28.332  31.620  23.138  1.00  0.00     0.282 C 
ENDBRANCH  20  22
ENDBRANCH  14  20
ENDBRANCH   8  13
ENDBRANCH   4   7
ENDBRANCH   2   3
ENDBRANCH   1   2
BRANCH   1  24
ATOM     24  C   UNL A   1      32.382  30.015  25.885  1.00  0.00     0.118 C 
BRANCH  24  25
ATOM     25  N   UNL A   1      32.279  31.355  26.463  1.00  0.00    -0.352 N 
ATOM     26  C   UNL A   1      33.082  32.129  27.270  1.00  0.00     0.251 C 
ATOM     27  H   UNL A   1      31.441  31.809  26.218  1.00  0.00     0.163 HD
ATOM     28  O   UNL A   1      32.658  33.235  27.610  1.00  0.00    -0.269 OA
BRANCH  26  29
ATOM     29  C   UNL A   1      34.392  31.688  27.803  1.00  0.00     0.039 A 
ATOM     30  C   UNL A   1      35.395  32.659  27.960  1.00  0.00     0.014 A 
ATOM     31  C   UNL A   1      34.687  30.369  28.126  1.00  0.00     0.014 A 
ATOM     32  C   UNL A   1      36.624  32.326  28.539  1.00  0.00     0.010 A 
ATOM     33  C   UNL A   1      35.857  30.059  28.814  1.00  0.00     0.010 A 
ATOM     34  C   UNL A   1      36.834  31.037  29.042  1.00  0.00    -0.014 A 
BRANCH  34  35
ATOM     35  C   UNL A   1      38.055  30.674  29.808  1.00  0.00     0.031 A 
ATOM     36  C   UNL A   1      39.066  29.741  29.197  1.00  0.00     0.074 A 
ATOM     37  C   UNL A   1      38.203  31.110  31.076  1.00  0.00     0.049 A 
ATOM     38  N   UNL A   1      40.053  29.102  29.767  1.00  0.00    -0.248 NA
ATOM     39  C   UNL A   1      38.914  29.451  27.761  1.00  0.00     0.031 C 
ATOM     40  C   UNL A   1      37.279  32.006  31.780  1.00  0.00     0.029 A 
ATOM     41  N   UNL A   1      39.182  30.858  32.004  1.00  0.00    -0.354 N 
ATOM     42  C   UNL A   1      40.610  28.302  28.774  1.00  0.00     0.074 A 
ATOM     43  C   UNL A   1      39.824  28.506  27.576  1.00  0.00     0.031 C 
ATOM     44  C   UNL A   1      37.764  32.270  33.004  1.00  0.00     0.029 A 
ATOM     45  C   UNL A   1      38.991  31.508  33.201  1.00  0.00     0.049 A 
ATOM     46  H   UNL A   1      39.949  30.267  31.829  1.00  0.00     0.167 HD
ATOM     47  C   UNL A   1      41.689  27.489  28.853  1.00  0.00     0.034 A 
ATOM     48  C   UNL A   1      39.717  31.481  34.337  1.00  0.00     0.034 A 
ATOM     49  C   UNL A   1      42.494  27.350  30.039  1.00  0.00     0.049 A 
ATOM     50  C   UNL A   1      40.930  30.593  34.387  1.00  0.00     0.074 A 
ATOM     51  C   UNL A   1      43.613  26.561  30.239  1.00  0.00     0.029 A 
ATOM     52  N   UNL A   1      42.282  28.051  31.219  1.00  0.00    -0.354 N 
ATOM     53  N   UNL A   1      41.399  29.788  33.461  1.00  0.00    -0.248 NA
ATOM     54  C   UNL A   1      41.708  30.598  35.633  1.00  0.00     0.031 C 
ATOM     55  C   UNL A   1      44.068  26.771  31.545  1.00  0.00     0.029 A 
ATOM     56  C   UNL A   1      43.258  27.723  32.144  1.00  0.00     0.049 A 
ATOM     57  H   UNL A   1      41.548  28.687  31.374  1.00  0.00     0.167 HD
ATOM     58  C   UNL A   1      42.537  29.207  34.006  1.00  0.00     0.074 A 
ATOM     59  C   UNL A   1      42.690  29.758  35.338  1.00  0.00     0.031 C 
ATOM     60  C   UNL A   1      43.381  28.298  33.459  1.00  0.00     0.034 A 
BRANCH  47  61
ATOM     61  C   UNL A   1      42.056  26.693  27.628  1.00  0.00     0.023 A 
ATOM     62  C   UNL A   1      41.726  25.332  27.516  1.00  0.00     0.031 A 
ATOM     63  C   UNL A   1      42.745  27.298  26.562  1.00  0.00     0.131 A 
ATOM     64  C   UNL A   1      42.136  24.605  26.390  1.00  0.00     0.055 A 
ATOM     65  C   UNL A   1      43.090  26.585  25.412  1.00  0.00     0.041 A 
ATOM     66  F   UNL A   1      43.100  28.591  26.624  1.00  0.00    -0.206 F 
ATOM     67  C   UNL A   1      42.793  25.227  25.325  1.00  0.00     0.022 A 
BRANCH  64  68
ATOM     68  S   UNL A   1      41.866  22.812  26.364  1.00  0.00     0.124 S 
ATOM     69  O   UNL A   1      42.478  22.447  25.089  1.00  0.00    -0.237 OA
ATOM     70  O   UNL A   1      42.569  22.364  27.560  1.00  0.00    -0.237 OA
ATOM     71  O   UNL A   1      40.411  22.686  26.412  1.00  0.00    -0.744 OA
ENDBRANCH  64  68
ENDBRANCH  47  61
BRANCH  48  72
ATOM     72  C   UNL A   1      39.326  32.316  35.506  1.00  0.00     0.023 A 
ATOM     73  C   UNL A   1      39.782  33.640  35.619  1.00  0.00     0.031 A 
ATOM     74  C   UNL A   1      38.504  31.812  36.527  1.00  0.00     0.131 A 
ATOM     75  C   UNL A   1      39.436  34.406  36.743  1.00  0.00     0.055 A 
ATOM     76  C   UNL A   1      38.129  32.591  37.624  1.00  0.00     0.041 A 
ATOM     77  F   UNL A   1      38.033  30.556  36.462  1.00  0.00    -0.206 F 
ATOM     78  C   UNL A   1      38.603  33.894  37.741  1.00  0.00     0.022 A 
BRANCH  75  79
ATOM     79  S   UNL A   1      40.134  36.072  36.907  1.00  0.00     0.124 S 
ATOM     80  O   UNL A   1      39.770  36.673  35.629  1.00  0.00    -0.237 OA
ATOM     81  O   UNL A   1      39.432  36.581  38.080  1.00  0.00    -0.237 OA
ATOM     82  O   UNL A   1      41.562  35.826  37.097  1.00  0.00    -0.744 OA
ENDBRANCH  75  79
ENDBRANCH  48  72
BRANCH  60  83
ATOM     83  C   UNL A   1      44.563  27.884  34.287  1.00  0.00     0.023 A 
ATOM     84  C   UNL A   1      44.501  26.769  35.136  1.00  0.00     0.031 A 
ATOM     85  C   UNL A   1      45.772  28.592  34.191  1.00  0.00     0.131 A 
ATOM     86  C   UNL A   1      45.628  26.407  35.884  1.00  0.00     0.055 A 
ATOM     87  C   UNL A   1      46.902  28.204  34.907  1.00  0.00     0.041 A 
ATOM     88  F   UNL A   1      45.874  29.662  33.385  1.00  0.00    -0.206 F 
ATOM     89  C   UNL A   1      46.833  27.107  35.764  1.00  0.00     0.022 A 
BRANCH  86  90
ATOM     90  S   UNL A   1      45.498  25.013  37.036  1.00  0.00     0.124 S 
ATOM     91  O   UNL A   1      46.519  25.344  38.026  1.00  0.00    -0.237 OA
ATOM     92  O   UNL A   1      44.114  25.107  37.492  1.00  0.00    -0.237 OA
ATOM     93  O   UNL A   1      45.795  23.850  36.202  1.00  0.00    -0.744 OA
ENDBRANCH  86  90
ENDBRANCH  60  83
ENDBRANCH  34  35
ENDBRANCH  26  29
ENDBRANCH  24  25
ENDBRANCH   1  24
TORSDOF 16
ENDMDL
MODEL 2
REMARK VINA RESULT:     -12.5      5.084      9.784
REMARK SMILES COC(=O)c1cc(F)cc(-c2ccccc2C(=O)NCCCNC(=O)c2ccc(-c3c4nc(c(-c5cc(S(=O)(=O)[O-])ccc5F)c5ccc([nH]5)c(-c5cc(S(=O)(=O)[O-])ccc5F)c5nc(c(-c6cc(S(=O)(=O)[O-])ccc6F)c6ccc3[nH]6)C=C5)C=C4)cc2)c1
REMARK SMILES IDX 21 1 20 2 19 3 17 4 18 5 16 7 11 8 12 9 13 10 15 11 14 12
REMARK SMILES IDX 10 13 5 14 6 15 89 16 7 17 8 18 9 19 3 20 4 21 2 22 1 23
REMARK SMILES IDX 22 24 23 25 24 26 25 28 26 29 27 30 88 31 28 32 87 33 29 34
REMARK SMILES IDX 30 35 31 36 81 37 32 38 86 39 80 40 82 41 33 42 85 43 79 44
REMARK SMILES IDX 78 45 34 47 66 48 46 49 65 50 47 51 50 52 64 53 83 54 48 55
REMARK SMILES IDX 49 56 63 58 84 59 51 60 35 61 36 62 44 63 37 64 43 65 45 66
REMARK SMILES IDX 42 67 38 68 39 69 40 70 41 71 67 72 68 73 76 74 69 75 75 76
REMARK SMILES IDX 77 77 74 78 70 79 71 80 72 81 73 82 52 83 53 84 61 85 54 86
REMARK SMILES IDX 60 87 62 88 59 89 55 90 56 91 57 92 58 93
REMARK H PARENT 19 6 23 27 82 46 50 57
REMARK Flexibility Score: inf
ROOT
ATOM      1  C   UNL A   1      35.811  22.666  23.943  1.00  0.00     0.042 C 
ENDROOT
BRANCH   1   2
ATOM      2  C   UNL A   1      35.138  24.024  24.035  1.00  0.00     0.118 C 
BRANCH   2   3
ATOM      3  N   UNL A   1      34.164  24.346  23.020  1.00  0.00    -0.352 N 
ATOM      4  C   UNL A   1      32.805  24.527  23.143  1.00  0.00     0.251 C 
ATOM      5  O   UNL A   1      32.194  24.924  22.148  1.00  0.00    -0.269 OA
ATOM      6  H   UNL A   1      34.523  24.451  22.109  1.00  0.00     0.163 HD
BRANCH   4   7
ATOM      7  C   UNL A   1      32.005  24.184  24.364  1.00  0.00     0.047 A 
ATOM      8  C   UNL A   1      31.275  25.057  25.207  1.00  0.00    -0.005 A 
ATOM      9  C   UNL A   1      30.539  24.487  26.277  1.00  0.00     0.009 A 
ATOM     10  C   UNL A   1      30.511  23.113  26.511  1.00  0.00     0.001 A 
ATOM     11  C   UNL A   1      31.948  22.792  24.612  1.00  0.00     0.014 A 
ATOM     12  C   UNL A   1      31.215  22.261  25.675  1.00  0.00     0.001 A 
BRANCH   8  13
ATOM     13  C   UNL A   1      31.230  26.523  25.090  1.00  0.00    -0.014 A 
ATOM     14  C   UNL A   1      30.538  28.564  23.980  1.00  0.00     0.063 A 
ATOM     15  C   UNL A   1      31.435  29.324  24.736  1.00  0.00     0.055 A 
ATOM     16  C   UNL A   1      30.410  27.178  24.160  1.00  0.00     0.024 A 
ATOM     17  C   UNL A   1      32.196  28.682  25.697  1.00  0.00     0.124 A 
ATOM     18  F   UNL A   1      33.093  29.376  26.408  1.00  0.00    -0.207 F 
ATOM     19  C   UNL A   1      32.095  27.307  25.888  1.00  0.00     0.048 A 
BRANCH  14  20
ATOM     20  C   UNL A   1      29.798  29.220  22.899  1.00  0.00     0.337 C 
ATOM     21  O   UNL A   1      29.919  28.946  21.717  1.00  0.00    -0.246 OA
BRANCH  20  22
ATOM     22  O   UNL A   1      28.990  30.140  23.474  1.00  0.00    -0.465 OA
ATOM     23  C   UNL A   1      27.676  30.188  22.914  1.00  0.00     0.282 C 
ENDBRANCH  20  22
ENDBRANCH  14  20
ENDBRANCH   8  13
ENDBRANCH   4   7
ENDBRANCH   2   3
ENDBRANCH   1   2
BRANCH   1  24
ATOM     24  C   UNL A   1      36.040  21.954  25.275  1.00  0.00     0.118 C 
BRANCH  24  25
ATOM     25  N   UNL A   1      37.179  21.037  25.314  1.00  0.00    -0.352 N 
ATOM     26  C   UNL A   1      38.486  21.130  25.736  1.00  0.00     0.251 C 
ATOM     27  H   UNL A   1      36.961  20.147  24.954  1.00  0.00     0.163 HD
ATOM     28  O   UNL A   1      39.210  20.145  25.583  1.00  0.00    -0.269 OA
BRANCH  26  29
ATOM     29  C   UNL A   1      39.089  22.359  26.303  1.00  0.00     0.039 A 
ATOM     30  C   UNL A   1      40.205  22.213  27.143  1.00  0.00     0.014 A 
ATOM     31  C   UNL A   1      38.592  23.637  26.072  1.00  0.00     0.014 A 
ATOM     32  C   UNL A   1      40.873  23.336  27.641  1.00  0.00     0.010 A 
ATOM     33  C   UNL A   1      39.325  24.754  26.461  1.00  0.00     0.010 A 
ATOM     34  C   UNL A   1      40.483  24.618  27.237  1.00  0.00    -0.014 A 
BRANCH  34  35
ATOM     35  C   UNL A   1      41.254  25.834  27.606  1.00  0.00     0.031 A 
ATOM     36  C   UNL A   1      40.616  26.884  28.475  1.00  0.00     0.074 A 
ATOM     37  C   UNL A   1      42.483  26.029  27.085  1.00  0.00     0.049 A 
ATOM     38  N   UNL A   1      40.999  28.112  28.707  1.00  0.00    -0.248 NA
ATOM     39  C   UNL A   1      39.350  26.517  29.133  1.00  0.00     0.031 C 
ATOM     40  C   UNL A   1      43.197  25.088  26.215  1.00  0.00     0.029 A 
ATOM     41  N   UNL A   1      43.352  27.085  27.204  1.00  0.00    -0.354 N 
ATOM     42  C   UNL A   1      40.003  28.677  29.496  1.00  0.00     0.074 A 
ATOM     43  C   UNL A   1      38.978  27.670  29.670  1.00  0.00     0.031 C 
ATOM     44  C   UNL A   1      44.411  25.584  25.928  1.00  0.00     0.029 A 
ATOM     45  C   UNL A   1      44.537  26.906  26.528  1.00  0.00     0.049 A 
ATOM     46  H   UNL A   1      43.146  27.894  27.725  1.00  0.00     0.167 HD
ATOM     47  C   UNL A   1      39.960  29.916  30.041  1.00  0.00     0.034 A 
ATOM     48  C   UNL A   1      45.600  27.724  26.396  1.00  0.00     0.034 A 
ATOM     49  C   UNL A   1      41.022  30.880  29.907  1.00  0.00     0.049 A 
ATOM     50  C   UNL A   1      45.539  29.084  27.038  1.00  0.00     0.074 A 
ATOM     51  C   UNL A   1      41.095  32.164  30.417  1.00  0.00     0.029 A 
ATOM     52  N   UNL A   1      42.216  30.646  29.240  1.00  0.00    -0.354 N 
ATOM     53  N   UNL A   1      44.557  29.628  27.720  1.00  0.00    -0.248 NA
ATOM     54  C   UNL A   1      46.719  29.944  26.887  1.00  0.00     0.031 C 
ATOM     55  C   UNL A   1      42.326  32.713  30.043  1.00  0.00     0.029 A 
ATOM     56  C   UNL A   1      43.037  31.755  29.337  1.00  0.00     0.049 A 
ATOM     57  H   UNL A   1      42.446  29.813  28.767  1.00  0.00     0.167 HD
ATOM     58  C   UNL A   1      45.010  30.886  28.096  1.00  0.00     0.074 A 
ATOM     59  C   UNL A   1      46.355  31.019  27.573  1.00  0.00     0.031 C 
ATOM     60  C   UNL A   1      44.374  31.847  28.808  1.00  0.00     0.034 A 
BRANCH  47  61
ATOM     61  C   UNL A   1      38.731  30.292  30.826  1.00  0.00     0.023 A 
ATOM     62  C   UNL A   1      37.666  30.985  30.227  1.00  0.00     0.031 A 
ATOM     63  C   UNL A   1      38.622  29.959  32.187  1.00  0.00     0.131 A 
ATOM     64  C   UNL A   1      36.563  31.375  31.000  1.00  0.00     0.055 A 
ATOM     65  C   UNL A   1      37.490  30.289  32.936  1.00  0.00     0.041 A 
ATOM     66  F   UNL A   1      39.617  29.312  32.814  1.00  0.00    -0.206 F 
ATOM     67  C   UNL A   1      36.456  31.009  32.344  1.00  0.00     0.022 A 
BRANCH  64  68
ATOM     68  S   UNL A   1      35.300  32.434  30.246  1.00  0.00     0.124 S 
ATOM     69  O   UNL A   1      34.366  32.604  31.356  1.00  0.00    -0.237 OA
ATOM     70  O   UNL A   1      36.059  33.618  29.864  1.00  0.00    -0.237 OA
ATOM     71  O   UNL A   1      34.800  31.628  29.133  1.00  0.00    -0.744 OA
ENDBRANCH  64  68
ENDBRANCH  47  61
BRANCH  48  72
ATOM     72  C   UNL A   1      46.803  27.285  25.636  1.00  0.00     0.023 A 
ATOM     73  C   UNL A   1      47.004  27.712  24.313  1.00  0.00     0.031 A 
ATOM     74  C   UNL A   1      47.763  26.434  26.208  1.00  0.00     0.131 A 
ATOM     75  C   UNL A   1      48.123  27.263  23.595  1.00  0.00     0.055 A 
ATOM     76  C   UNL A   1      48.897  26.022  25.503  1.00  0.00     0.041 A 
ATOM     77  F   UNL A   1      47.623  26.006  27.473  1.00  0.00    -0.206 F 
ATOM     78  C   UNL A   1      49.077  26.431  24.185  1.00  0.00     0.022 A 
BRANCH  75  79
ATOM     79  S   UNL A   1      48.289  27.747  21.855  1.00  0.00     0.124 S 
ATOM     80  O   UNL A   1      48.534  26.462  21.212  1.00  0.00    -0.237 OA
ATOM     81  O   UNL A   1      46.995  28.365  21.587  1.00  0.00    -0.237 OA
ATOM     82  O   UNL A   1      49.425  28.667  21.864  1.00  0.00    -0.744 OA
ENDBRANCH  75  79
ENDBRANCH  48  72
BRANCH  60  83
ATOM     83  C   UNL A   1      45.145  33.103  29.096  1.00  0.00     0.023 A 
ATOM     84  C   UNL A   1      45.126  34.189  28.207  1.00  0.00     0.031 A 
ATOM     85  C   UNL A   1      45.874  33.223  30.291  1.00  0.00     0.131 A 
ATOM     86  C   UNL A   1      45.850  35.347  28.516  1.00  0.00     0.055 A 
ATOM     87  C   UNL A   1      46.560  34.392  30.611  1.00  0.00     0.041 A 
ATOM     88  F   UNL A   1      45.913  32.208  31.170  1.00  0.00    -0.206 F 
ATOM     89  C   UNL A   1      46.554  35.462  29.719  1.00  0.00     0.022 A 
BRANCH  86  90
ATOM     90  S   UNL A   1      45.876  36.703  27.314  1.00  0.00     0.124 S 
ATOM     91  O   UNL A   1      44.500  37.188  27.376  1.00  0.00    -0.237 OA
ATOM     92  O   UNL A   1      46.891  37.596  27.865  1.00  0.00    -0.237 OA
ATOM     93  O   UNL A   1      46.247  36.045  26.062  1.00  0.00    -0.744 OA
ENDBRANCH  86  90
ENDBRANCH  60  83
ENDBRANCH  34  35
ENDBRANCH  26  29
ENDBRANCH  24  25
ENDBRANCH   1  24
TORSDOF 16
ENDMDL
MODEL 3
REMARK VINA RESULT:     -12.4      2.268      3.895
REMARK SMILES COC(=O)c1cc(F)cc(-c2ccccc2C(=O)NCCCNC(=O)c2ccc(-c3c4nc(c(-c5cc(S(=O)(=O)[O-])ccc5F)c5ccc([nH]5)c(-c5cc(S(=O)(=O)[O-])ccc5F)c5nc(c(-c6cc(S(=O)(=O)[O-])ccc6F)c6ccc3[nH]6)C=C5)C=C4)cc2)c1
REMARK SMILES IDX 21 1 20 2 19 3 17 4 18 5 16 7 11 8 12 9 13 10 15 11 14 12
REMARK SMILES IDX 10 13 5 14 6 15 89 16 7 17 8 18 9 19 3 20 4 21 2 22 1 23
REMARK SMILES IDX 22 24 23 25 24 26 25 28 26 29 27 30 88 31 28 32 87 33 29 34
REMARK SMILES IDX 30 35 31 36 81 37 32 38 86 39 80 40 82 41 33 42 85 43 79 44
REMARK SMILES IDX 78 45 34 47 66 48 46 49 65 50 47 51 50 52 64 53 83 54 48 55
REMARK SMILES IDX 49 56 63 58 84 59 51 60 35 61 36 62 44 63 37 64 43 65 45 66
REMARK SMILES IDX 42 67 38 68 39 69 40 70 41 71 67 72 68 73 76 74 69 75 75 76
REMARK SMILES IDX 77 77 74 78 70 79 71 80 72 81 73 82 52 83 53 84 61 85 54 86
REMARK SMILES IDX 60 87 62 88 59 89 55 90 56 91 57 92 58 93
REMARK H PARENT 19 6 23 27 82 46 50 57
REMARK Flexibility Score: inf
ROOT
ATOM      1  C   UNL A   1      33.757  28.788  24.641  1.00  0.00     0.042 C 
ENDROOT
BRANCH   1   2
ATOM      2  C   UNL A   1      33.479  29.010  23.165  1.00  0.00     0.118 C 
BRANCH   2   3
ATOM      3  N   UNL A   1      33.742  27.907  22.273  1.00  0.00    -0.352 N 
ATOM      4  C   UNL A   1      33.020  26.751  22.079  1.00  0.00     0.251 C 
ATOM      5  O   UNL A   1      33.377  26.006  21.163  1.00  0.00    -0.269 OA
ATOM      6  H   UNL A   1      34.554  27.993  21.723  1.00  0.00     0.163 HD
BRANCH   4   7
ATOM      7  C   UNL A   1      31.898  26.287  22.961  1.00  0.00     0.047 A 
ATOM      8  C   UNL A   1      31.920  25.266  23.942  1.00  0.00    -0.005 A 
ATOM      9  C   UNL A   1      30.742  25.047  24.700  1.00  0.00     0.009 A 
ATOM     10  C   UNL A   1      29.585  25.803  24.511  1.00  0.00     0.001 A 
ATOM     11  C   UNL A   1      30.718  27.051  22.800  1.00  0.00     0.014 A 
ATOM     12  C   UNL A   1      29.573  26.810  23.561  1.00  0.00     0.001 A 
BRANCH   8  13
ATOM     13  C   UNL A   1      33.059  24.382  24.234  1.00  0.00    -0.014 A 
ATOM     14  C   UNL A   1      34.065  22.189  24.469  1.00  0.00     0.063 A 
ATOM     15  C   UNL A   1      35.186  22.730  25.105  1.00  0.00     0.055 A 
ATOM     16  C   UNL A   1      33.013  22.998  24.014  1.00  0.00     0.024 A 
ATOM     17  C   UNL A   1      35.256  24.103  25.264  1.00  0.00     0.124 A 
ATOM     18  F   UNL A   1      36.298  24.647  25.904  1.00  0.00    -0.207 F 
ATOM     19  C   UNL A   1      34.221  24.926  24.828  1.00  0.00     0.048 A 
BRANCH  14  20
ATOM     20  C   UNL A   1      33.941  20.732  24.382  1.00  0.00     0.337 C 
ATOM     21  O   UNL A   1      34.766  19.944  24.812  1.00  0.00    -0.246 OA
BRANCH  20  22
ATOM     22  O   UNL A   1      32.768  20.471  23.761  1.00  0.00    -0.465 OA
ATOM     23  C   UNL A   1      32.425  19.084  23.729  1.00  0.00     0.282 C 
ENDBRANCH  20  22
ENDBRANCH  14  20
ENDBRANCH   8  13
ENDBRANCH   4   7
ENDBRANCH   2   3
ENDBRANCH   1   2
BRANCH   1  24
ATOM     24  C   UNL A   1      32.543  28.892  25.563  1.00  0.00     0.118 C 
BRANCH  24  25
ATOM     25  N   UNL A   1      32.288  30.218  26.125  1.00  0.00    -0.352 N 
ATOM     26  C   UNL A   1      32.986  31.077  26.944  1.00  0.00     0.251 C 
ATOM     27  H   UNL A   1      31.413  30.580  25.855  1.00  0.00     0.163 HD
ATOM     28  O   UNL A   1      32.442  32.135  27.263  1.00  0.00    -0.269 OA
BRANCH  26  29
ATOM     29  C   UNL A   1      34.321  30.778  27.512  1.00  0.00     0.039 A 
ATOM     30  C   UNL A   1      35.211  31.850  27.693  1.00  0.00     0.014 A 
ATOM     31  C   UNL A   1      34.747  29.497  27.844  1.00  0.00     0.014 A 
ATOM     32  C   UNL A   1      36.452  31.650  28.304  1.00  0.00     0.010 A 
ATOM     33  C   UNL A   1      35.925  29.314  28.563  1.00  0.00     0.010 A 
ATOM     34  C   UNL A   1      36.785  30.390  28.815  1.00  0.00    -0.014 A 
BRANCH  34  35
ATOM     35  C   UNL A   1      38.018  30.159  29.613  1.00  0.00     0.031 A 
ATOM     36  C   UNL A   1      39.127  29.319  29.041  1.00  0.00     0.074 A 
ATOM     37  C   UNL A   1      38.093  30.627  30.876  1.00  0.00     0.049 A 
ATOM     38  N   UNL A   1      40.159  28.787  29.643  1.00  0.00    -0.248 NA
ATOM     39  C   UNL A   1      39.038  28.994  27.607  1.00  0.00     0.031 C 
ATOM     40  C   UNL A   1      37.072  31.440  31.545  1.00  0.00     0.029 A 
ATOM     41  N   UNL A   1      39.070  30.485  31.829  1.00  0.00    -0.354 N 
ATOM     42  C   UNL A   1      40.812  28.030  28.677  1.00  0.00     0.074 A 
ATOM     43  C   UNL A   1      40.039  28.138  27.459  1.00  0.00     0.031 C 
ATOM     44  C   UNL A   1      37.500  31.769  32.774  1.00  0.00     0.029 A 
ATOM     45  C   UNL A   1      38.790  31.133  33.011  1.00  0.00     0.049 A 
ATOM     46  H   UNL A   1      39.894  29.969  31.681  1.00  0.00     0.167 HD
ATOM     47  C   UNL A   1      41.963  27.326  28.794  1.00  0.00     0.034 A 
ATOM     48  C   UNL A   1      39.489  31.194  34.162  1.00  0.00     0.034 A 
ATOM     49  C   UNL A   1      42.750  27.285  29.999  1.00  0.00     0.049 A 
ATOM     50  C   UNL A   1      40.780  30.428  34.254  1.00  0.00     0.074 A 
ATOM     51  C   UNL A   1      43.935  26.611  30.237  1.00  0.00     0.029 A 
ATOM     52  N   UNL A   1      42.445  27.979  31.162  1.00  0.00    -0.354 N 
ATOM     53  N   UNL A   1      41.346  29.658  33.353  1.00  0.00    -0.248 NA
ATOM     54  C   UNL A   1      41.525  30.528  35.517  1.00  0.00     0.031 C 
ATOM     55  C   UNL A   1      44.337  26.884  31.549  1.00  0.00     0.029 A 
ATOM     56  C   UNL A   1      43.425  27.762  32.113  1.00  0.00     0.049 A 
ATOM     57  H   UNL A   1      41.648  28.544  31.290  1.00  0.00     0.167 HD
ATOM     58  C   UNL A   1      42.522  29.198  33.933  1.00  0.00     0.074 A 
ATOM     59  C   UNL A   1      42.590  29.782  35.257  1.00  0.00     0.031 C 
ATOM     60  C   UNL A   1      43.461  28.367  33.420  1.00  0.00     0.034 A 
BRANCH  47  61
ATOM     61  C   UNL A   1      42.433  26.551  27.592  1.00  0.00     0.023 A 
ATOM     62  C   UNL A   1      42.080  25.203  27.409  1.00  0.00     0.031 A 
ATOM     63  C   UNL A   1      43.244  27.161  26.619  1.00  0.00     0.131 A 
ATOM     64  C   UNL A   1      42.585  24.492  26.310  1.00  0.00     0.055 A 
ATOM     65  C   UNL A   1      43.687  26.467  25.491  1.00  0.00     0.041 A 
ATOM     66  F   UNL A   1      43.625  28.441  26.752  1.00  0.00    -0.206 F 
ATOM     67  C   UNL A   1      43.364  25.121  25.336  1.00  0.00     0.022 A 
BRANCH  64  68
ATOM     68  S   UNL A   1      42.272  22.709  26.208  1.00  0.00     0.124 S 
ATOM     69  O   UNL A   1      40.815  22.667  26.299  1.00  0.00    -0.237 OA
ATOM     70  O   UNL A   1      42.840  22.357  24.912  1.00  0.00    -0.237 OA
ATOM     71  O   UNL A   1      42.982  22.171  27.366  1.00  0.00    -0.744 OA
ENDBRANCH  64  68
ENDBRANCH  47  61
BRANCH  48  72
ATOM     72  C   UNL A   1      38.992  32.006  35.308  1.00  0.00     0.023 A 
ATOM     73  C   UNL A   1      38.386  31.382  36.411  1.00  0.00     0.031 A 
ATOM     74  C   UNL A   1      39.105  33.406  35.320  1.00  0.00     0.131 A 
ATOM     75  C   UNL A   1      37.889  32.160  37.468  1.00  0.00     0.055 A 
ATOM     76  C   UNL A   1      38.645  34.172  36.393  1.00  0.00     0.041 A 
ATOM     77  F   UNL A   1      39.685  34.049  34.294  1.00  0.00    -0.206 F 
ATOM     78  C   UNL A   1      38.026  33.550  37.473  1.00  0.00     0.022 A 
BRANCH  75  79
ATOM     79  S   UNL A   1      37.016  31.327  38.822  1.00  0.00     0.124 S 
ATOM     80  O   UNL A   1      37.950  31.500  39.928  1.00  0.00    -0.237 OA
ATOM     81  O   UNL A   1      35.776  32.094  38.900  1.00  0.00    -0.237 OA
ATOM     82  O   UNL A   1      36.867  29.956  38.340  1.00  0.00    -0.744 OA
ENDBRANCH  75  79
ENDBRANCH  48  72
BRANCH  60  83
ATOM     83  C   UNL A   1      44.659  28.082  34.280  1.00  0.00     0.023 A 
ATOM     84  C   UNL A   1      44.685  26.980  35.148  1.00  0.00     0.031 A 
ATOM     85  C   UNL A   1      45.796  28.902  34.197  1.00  0.00     0.131 A 
ATOM     86  C   UNL A   1      45.824  26.740  35.926  1.00  0.00     0.055 A 
ATOM     87  C   UNL A   1      46.941  28.636  34.945  1.00  0.00     0.041 A 
ATOM     88  F   UNL A   1      45.813  29.964  33.375  1.00  0.00    -0.206 F 
ATOM     89  C   UNL A   1      46.958  27.552  35.819  1.00  0.00     0.022 A 
BRANCH  86  90
ATOM     90  S   UNL A   1      45.802  25.359  37.100  1.00  0.00     0.124 S 
ATOM     91  O   UNL A   1      46.373  25.971  38.297  1.00  0.00    -0.237 OA
ATOM     92  O   UNL A   1      44.383  25.026  37.171  1.00  0.00    -0.237 OA
ATOM     93  O   UNL A   1      46.642  24.350  36.457  1.00  0.00    -0.744 OA
ENDBRANCH  86  90
ENDBRANCH  60  83
ENDBRANCH  34  35
ENDBRANCH  26  29
ENDBRANCH  24  25
ENDBRANCH   1  24
TORSDOF 16
ENDMDL
