MODEL 1
REMARK VINA RESULT:     -12.0      0.000      0.000
REMARK SMILES COc1ccc(/C=C(\Sc2nc(C)n[nH]2)C(=O)NCCCNC(=O)c2ccc(-c3c4nc(c(-c5cc(S(=O)(=O)[O-])ccc5F)c5ccc([nH]5)c(-c5cc(S(=O)(=O)[O-])ccc5F)c5nc(c(-c6cc(S(=O)(=O)[O-])ccc6F)c6ccc3[nH]6)C=C5)C=C4)cc2)c(OC)c1
REMARK SMILES IDX 20 1 19 2 18 3 16 4 17 5 8 7 7 8 6 9 3 10 4 11 91 12 5 13
REMARK SMILES IDX 88 14 2 15 1 16 89 17 90 18 9 19 10 20 11 21 15 22 12 23
REMARK SMILES IDX 14 24 13 26 21 27 22 28 23 29 24 31 25 32 26 33 87 34 27 35
REMARK SMILES IDX 86 36 28 37 29 38 30 39 80 40 31 41 85 42 79 43 81 44 32 45
REMARK SMILES IDX 84 46 78 47 77 48 33 50 65 51 45 52 64 53 46 54 49 55 63 56
REMARK SMILES IDX 82 57 47 58 48 59 62 61 83 62 50 63 34 64 35 65 43 66 36 67
REMARK SMILES IDX 42 68 44 69 41 70 37 71 38 72 39 73 40 74 66 75 67 76 75 77
REMARK SMILES IDX 68 78 74 79 76 80 73 81 69 82 70 83 71 84 72 85 51 86 52 87
REMARK SMILES IDX 60 88 53 89 59 90 61 91 58 92 54 93 55 94 56 95 57 96
REMARK H PARENT 18 6 15 25 22 30 81 49 49 60
REMARK Flexibility Score: inf
ROOT
ATOM      1  C   UNL A   1      37.171  20.200  24.991  1.00  0.00     0.042 C 
ENDROOT
BRANCH   1   2
ATOM      2  C   UNL A   1      36.138  21.334  25.090  1.00  0.00     0.118 C 
BRANCH   2   3
ATOM      3  N   UNL A   1      35.519  21.457  26.407  1.00  0.00    -0.352 N 
ATOM      4  C   UNL A   1      34.305  21.928  26.839  1.00  0.00     0.258 C 
ATOM      5  O   UNL A   1      34.017  21.657  28.010  1.00  0.00    -0.269 OA
ATOM      6  H   UNL A   1      36.093  21.134  27.138  1.00  0.00     0.163 HD
BRANCH   4   7
ATOM      7  C   UNL A   1      33.352  22.773  25.992  1.00  0.00     0.081 C 
ATOM      8  C   UNL A   1      33.841  23.980  25.581  1.00  0.00     0.033 C 
BRANCH   8   9
ATOM      9  C   UNL A   1      33.352  25.086  24.679  1.00  0.00     0.018 A 
ATOM     10  C   UNL A   1      32.778  27.432  23.178  1.00  0.00     0.122 A 
ATOM     11  C   UNL A   1      32.417  27.357  24.502  1.00  0.00     0.047 A 
ATOM     12  C   UNL A   1      33.359  26.332  22.563  1.00  0.00     0.093 A 
ATOM     13  C   UNL A   1      32.644  26.174  25.195  1.00  0.00     0.016 A 
ATOM     14  C   UNL A   1      33.645  25.154  23.291  1.00  0.00     0.129 A 
BRANCH  10  15
ATOM     15  O   UNL A   1      32.634  28.585  22.467  1.00  0.00    -0.497 OA
ATOM     16  C   UNL A   1      31.333  29.149  22.619  1.00  0.00     0.278 C 
ENDBRANCH  10  15
BRANCH  14  17
ATOM     17  O   UNL A   1      34.206  24.048  22.689  1.00  0.00    -0.496 OA
ATOM     18  C   UNL A   1      33.311  23.191  21.975  1.00  0.00     0.278 C 
ENDBRANCH  14  17
ENDBRANCH   8   9
BRANCH   7  19
ATOM     19  S   UNL A   1      31.962  21.936  25.373  1.00  0.00    -0.045 SA
BRANCH  19  20
ATOM     20  C   UNL A   1      32.588  20.391  24.915  1.00  0.00     0.188 A 
ATOM     21  N   UNL A   1      32.891  19.349  25.652  1.00  0.00    -0.206 NA
ATOM     22  N   UNL A   1      32.402  19.994  23.622  1.00  0.00    -0.254 N 
ATOM     23  C   UNL A   1      32.699  18.298  24.782  1.00  0.00     0.148 A 
ATOM     24  N   UNL A   1      32.430  18.653  23.517  1.00  0.00    -0.158 NA
ATOM     25  H   UNL A   1      32.267  20.609  22.865  1.00  0.00     0.192 HD
ATOM     26  C   UNL A   1      32.525  16.906  25.257  1.00  0.00     0.092 C 
ENDBRANCH  19  20
ENDBRANCH   7  19
ENDBRANCH   4   7
ENDBRANCH   2   3
ENDBRANCH   1   2
BRANCH   1  27
ATOM     27  C   UNL A   1      38.580  20.639  25.355  1.00  0.00     0.118 C 
BRANCH  27  28
ATOM     28  N   UNL A   1      39.505  19.523  25.558  1.00  0.00    -0.352 N 
ATOM     29  C   UNL A   1      40.847  19.581  25.891  1.00  0.00     0.251 C 
ATOM     30  H   UNL A   1      39.127  18.622  25.442  1.00  0.00     0.163 HD
ATOM     31  O   UNL A   1      41.577  18.610  25.677  1.00  0.00    -0.269 OA
BRANCH  29  32
ATOM     32  C   UNL A   1      41.388  20.814  26.494  1.00  0.00     0.039 A 
ATOM     33  C   UNL A   1      41.993  21.819  25.733  1.00  0.00     0.014 A 
ATOM     34  C   UNL A   1      41.256  20.967  27.870  1.00  0.00     0.014 A 
ATOM     35  C   UNL A   1      42.380  23.001  26.368  1.00  0.00     0.010 A 
ATOM     36  C   UNL A   1      41.446  22.191  28.451  1.00  0.00     0.010 A 
ATOM     37  C   UNL A   1      42.081  23.188  27.729  1.00  0.00    -0.014 A 
BRANCH  37  38
ATOM     38  C   UNL A   1      42.282  24.466  28.405  1.00  0.00     0.031 A 
ATOM     39  C   UNL A   1      41.186  25.433  28.151  1.00  0.00     0.074 A 
ATOM     40  C   UNL A   1      43.217  24.668  29.364  1.00  0.00     0.049 A 
ATOM     41  N   UNL A   1      41.206  26.438  27.341  1.00  0.00    -0.248 NA
ATOM     42  C   UNL A   1      39.843  25.120  28.667  1.00  0.00     0.031 C 
ATOM     43  C   UNL A   1      44.164  23.695  29.925  1.00  0.00     0.029 A 
ATOM     44  N   UNL A   1      43.455  25.772  30.124  1.00  0.00    -0.354 N 
ATOM     45  C   UNL A   1      39.977  27.067  27.502  1.00  0.00     0.074 A 
ATOM     46  C   UNL A   1      39.117  26.073  28.079  1.00  0.00     0.031 C 
ATOM     47  C   UNL A   1      44.700  24.180  31.069  1.00  0.00     0.029 A 
ATOM     48  C   UNL A   1      44.277  25.559  31.234  1.00  0.00     0.049 A 
ATOM     49  H   UNL A   1      43.075  26.655  29.908  1.00  0.00     0.167 HD
ATOM     50  C   UNL A   1      39.889  28.428  27.453  1.00  0.00     0.034 A 
ATOM     51  C   UNL A   1      44.594  26.449  32.217  1.00  0.00     0.034 A 
ATOM     52  C   UNL A   1      41.115  28.988  26.908  1.00  0.00     0.049 A 
ATOM     53  C   UNL A   1      44.372  27.796  31.640  1.00  0.00     0.074 A 
ATOM     54  C   UNL A   1      41.821  28.835  25.729  1.00  0.00     0.029 A 
ATOM     55  N   UNL A   1      42.012  29.545  27.800  1.00  0.00    -0.354 N 
ATOM     56  N   UNL A   1      45.071  28.265  30.643  1.00  0.00    -0.248 NA
ATOM     57  C   UNL A   1      43.067  28.411  31.822  1.00  0.00     0.031 C 
ATOM     58  C   UNL A   1      43.196  28.841  26.116  1.00  0.00     0.029 A 
ATOM     59  C   UNL A   1      43.270  29.099  27.487  1.00  0.00     0.049 A 
ATOM     60  H   UNL A   1      41.785  30.156  28.536  1.00  0.00     0.167 HD
ATOM     61  C   UNL A   1      44.143  28.878  29.815  1.00  0.00     0.074 A 
ATOM     62  C   UNL A   1      42.948  29.035  30.645  1.00  0.00     0.031 C 
ATOM     63  C   UNL A   1      44.334  28.927  28.461  1.00  0.00     0.034 A 
BRANCH  50  64
ATOM     64  C   UNL A   1      38.949  29.270  28.304  1.00  0.00     0.023 A 
ATOM     65  C   UNL A   1      39.206  29.268  29.689  1.00  0.00     0.031 A 
ATOM     66  C   UNL A   1      37.692  29.790  27.927  1.00  0.00     0.131 A 
ATOM     67  C   UNL A   1      38.193  29.555  30.616  1.00  0.00     0.055 A 
ATOM     68  C   UNL A   1      36.703  30.139  28.856  1.00  0.00     0.041 A 
ATOM     69  F   UNL A   1      37.309  29.940  26.657  1.00  0.00    -0.206 F 
ATOM     70  C   UNL A   1      36.933  29.975  30.209  1.00  0.00     0.022 A 
BRANCH  67  71
ATOM     71  S   UNL A   1      38.503  29.144  32.350  1.00  0.00     0.124 S 
ATOM     72  O   UNL A   1      38.299  27.699  32.336  1.00  0.00    -0.237 OA
ATOM     73  O   UNL A   1      39.876  29.603  32.523  1.00  0.00    -0.237 OA
ATOM     74  O   UNL A   1      37.489  29.915  33.064  1.00  0.00    -0.744 OA
ENDBRANCH  67  71
ENDBRANCH  50  64
BRANCH  51  75
ATOM     75  C   UNL A   1      44.753  26.204  33.684  1.00  0.00     0.023 A 
ATOM     76  C   UNL A   1      43.733  26.454  34.633  1.00  0.00     0.031 A 
ATOM     77  C   UNL A   1      45.858  25.448  34.135  1.00  0.00     0.131 A 
ATOM     78  C   UNL A   1      43.842  25.949  35.955  1.00  0.00     0.055 A 
ATOM     79  C   UNL A   1      45.955  24.946  35.436  1.00  0.00     0.041 A 
ATOM     80  F   UNL A   1      46.843  25.091  33.296  1.00  0.00    -0.206 F 
ATOM     81  C   UNL A   1      44.942  25.185  36.350  1.00  0.00     0.022 A 
BRANCH  78  82
ATOM     82  S   UNL A   1      42.507  26.204  37.178  1.00  0.00     0.124 S 
ATOM     83  O   UNL A   1      41.682  25.016  36.992  1.00  0.00    -0.237 OA
ATOM     84  O   UNL A   1      43.240  26.296  38.435  1.00  0.00    -0.237 OA
ATOM     85  O   UNL A   1      41.882  27.456  36.746  1.00  0.00    -0.744 OA
ENDBRANCH  78  82
ENDBRANCH  51  75
BRANCH  63  86
ATOM     86  C   UNL A   1      45.717  28.619  27.921  1.00  0.00     0.023 A 
ATOM     87  C   UNL A   1      46.197  27.335  27.568  1.00  0.00     0.031 A 
ATOM     88  C   UNL A   1      46.552  29.720  27.663  1.00  0.00     0.131 A 
ATOM     89  C   UNL A   1      47.477  27.198  26.989  1.00  0.00     0.055 A 
ATOM     90  C   UNL A   1      47.805  29.581  27.070  1.00  0.00     0.041 A 
ATOM     91  F   UNL A   1      46.145  30.966  27.955  1.00  0.00    -0.206 F 
ATOM     92  C   UNL A   1      48.275  28.318  26.735  1.00  0.00     0.022 A 
BRANCH  89  93
ATOM     93  S   UNL A   1      48.146  25.553  26.570  1.00  0.00     0.124 S 
ATOM     94  O   UNL A   1      49.337  25.444  27.405  1.00  0.00    -0.237 OA
ATOM     95  O   UNL A   1      47.040  24.662  26.916  1.00  0.00    -0.237 OA
ATOM     96  O   UNL A   1      48.416  25.651  25.134  1.00  0.00    -0.744 OA
ENDBRANCH  89  93
ENDBRANCH  63  86
ENDBRANCH  37  38
ENDBRANCH  29  32
ENDBRANCH  27  28
ENDBRANCH   1  27
TORSDOF 18
ENDMDL
MODEL 2
REMARK VINA RESULT:     -11.7      5.374     10.634
REMARK SMILES COc1ccc(/C=C(\Sc2nc(C)n[nH]2)C(=O)NCCCNC(=O)c2ccc(-c3c4nc(c(-c5cc(S(=O)(=O)[O-])ccc5F)c5ccc([nH]5)c(-c5cc(S(=O)(=O)[O-])ccc5F)c5nc(c(-c6cc(S(=O)(=O)[O-])ccc6F)c6ccc3[nH]6)C=C5)C=C4)cc2)c(OC)c1
REMARK SMILES IDX 20 1 19 2 18 3 16 4 17 5 8 7 7 8 6 9 3 10 4 11 91 12 5 13
REMARK SMILES IDX 88 14 2 15 1 16 89 17 90 18 9 19 10 20 11 21 15 22 12 23
REMARK SMILES IDX 14 24 13 26 21 27 22 28 23 29 24 31 25 32 26 33 87 34 27 35
REMARK SMILES IDX 86 36 28 37 29 38 30 39 80 40 31 41 85 42 79 43 81 44 32 45
REMARK SMILES IDX 84 46 78 47 77 48 33 50 65 51 45 52 64 53 46 54 49 55 63 56
REMARK SMILES IDX 82 57 47 58 48 59 62 61 83 62 50 63 34 64 35 65 43 66 36 67
REMARK SMILES IDX 42 68 44 69 41 70 37 71 38 72 39 73 40 74 66 75 67 76 75 77
REMARK SMILES IDX 68 78 74 79 76 80 73 81 69 82 70 83 71 84 72 85 51 86 52 87
REMARK SMILES IDX 60 88 53 89 59 90 61 91 58 92 54 93 55 94 56 95 57 96
REMARK H PARENT 18 6 15 25 22 30 81 49 49 60
REMARK Flexibility Score: inf
ROOT
ATOM      1  C   UNL A   1      37.283  29.845  32.834  1.00  0.00     0.042 C 
ENDROOT
BRANCH   1   2
ATOM      2  C   UNL A   1      38.348  30.338  33.827  1.00  0.00     0.118 C 
BRANCH   2   3
ATOM      3  N   UNL A   1      37.838  31.278  34.823  1.00  0.00    -0.352 N 
ATOM      4  C   UNL A   1      37.134  32.451  34.738  1.00  0.00     0.258 C 
ATOM      5  O   UNL A   1      36.656  32.862  35.801  1.00  0.00    -0.269 OA
ATOM      6  H   UNL A   1      38.043  31.012  35.748  1.00  0.00     0.163 HD
BRANCH   4   7
ATOM      7  C   UNL A   1      36.955  33.264  33.454  1.00  0.00     0.081 C 
ATOM      8  C   UNL A   1      35.763  33.094  32.810  1.00  0.00     0.033 C 
BRANCH   8   9
ATOM      9  C   UNL A   1      35.091  33.721  31.613  1.00  0.00     0.018 A 
ATOM     10  C   UNL A   1      33.526  34.527  29.380  1.00  0.00     0.122 A 
ATOM     11  C   UNL A   1      34.420  33.490  29.255  1.00  0.00     0.047 A 
ATOM     12  C   UNL A   1      33.443  35.220  30.579  1.00  0.00     0.093 A 
ATOM     13  C   UNL A   1      35.224  33.161  30.340  1.00  0.00     0.016 A 
ATOM     14  C   UNL A   1      34.220  34.839  31.698  1.00  0.00     0.129 A 
BRANCH  10  15
ATOM     15  O   UNL A   1      32.672  34.853  28.370  1.00  0.00    -0.497 OA
ATOM     16  C   UNL A   1      32.356  33.728  27.552  1.00  0.00     0.278 C 
ENDBRANCH  10  15
BRANCH  14  17
ATOM     17  O   UNL A   1      34.161  35.529  32.890  1.00  0.00    -0.496 OA
ATOM     18  C   UNL A   1      33.269  36.647  32.934  1.00  0.00     0.278 C 
ENDBRANCH  14  17
ENDBRANCH   8   9
BRANCH   7  19
ATOM     19  S   UNL A   1      38.111  34.536  33.210  1.00  0.00    -0.045 SA
BRANCH  19  20
ATOM     20  C   UNL A   1      38.844  34.134  31.696  1.00  0.00     0.188 A 
ATOM     21  N   UNL A   1      38.881  34.806  30.571  1.00  0.00    -0.206 NA
ATOM     22  N   UNL A   1      39.851  33.212  31.709  1.00  0.00    -0.254 N 
ATOM     23  C   UNL A   1      40.057  34.370  29.998  1.00  0.00     0.148 A 
ATOM     24  N   UNL A   1      40.666  33.368  30.650  1.00  0.00    -0.158 NA
ATOM     25  H   UNL A   1      39.966  32.522  32.403  1.00  0.00     0.192 HD
ATOM     26  C   UNL A   1      40.733  35.127  28.920  1.00  0.00     0.092 C 
ENDBRANCH  19  20
ENDBRANCH   7  19
ENDBRANCH   4   7
ENDBRANCH   2   3
ENDBRANCH   1   2
BRANCH   1  27
ATOM     27  C   UNL A   1      37.506  30.347  31.417  1.00  0.00     0.118 C 
BRANCH  27  28
ATOM     28  N   UNL A   1      36.467  29.923  30.477  1.00  0.00    -0.352 N 
ATOM     29  C   UNL A   1      36.628  29.459  29.183  1.00  0.00     0.251 C 
ATOM     30  H   UNL A   1      35.540  29.974  30.805  1.00  0.00     0.163 HD
ATOM     31  O   UNL A   1      35.677  29.484  28.398  1.00  0.00    -0.269 OA
BRANCH  29  32
ATOM     32  C   UNL A   1      37.945  28.948  28.759  1.00  0.00     0.039 A 
ATOM     33  C   UNL A   1      38.650  29.491  27.680  1.00  0.00     0.014 A 
ATOM     34  C   UNL A   1      38.495  27.903  29.494  1.00  0.00     0.014 A 
ATOM     35  C   UNL A   1      39.937  29.020  27.413  1.00  0.00     0.010 A 
ATOM     36  C   UNL A   1      39.820  27.587  29.363  1.00  0.00     0.010 A 
ATOM     37  C   UNL A   1      40.525  28.079  28.277  1.00  0.00    -0.014 A 
BRANCH  37  38
ATOM     38  C   UNL A   1      41.928  27.691  28.170  1.00  0.00     0.031 A 
ATOM     39  C   UNL A   1      42.120  26.412  27.443  1.00  0.00     0.074 A 
ATOM     40  C   UNL A   1      42.959  28.519  28.461  1.00  0.00     0.049 A 
ATOM     41  N   UNL A   1      42.367  25.253  27.956  1.00  0.00    -0.248 NA
ATOM     42  C   UNL A   1      41.768  26.359  26.014  1.00  0.00     0.031 C 
ATOM     43  C   UNL A   1      42.900  29.921  28.898  1.00  0.00     0.029 A 
ATOM     44  N   UNL A   1      44.299  28.316  28.329  1.00  0.00    -0.354 N 
ATOM     45  C   UNL A   1      42.521  24.395  26.874  1.00  0.00     0.074 A 
ATOM     46  C   UNL A   1      41.867  25.050  25.776  1.00  0.00     0.031 C 
ATOM     47  C   UNL A   1      44.119  30.494  28.773  1.00  0.00     0.029 A 
ATOM     48  C   UNL A   1      45.083  29.469  28.418  1.00  0.00     0.049 A 
ATOM     49  H   UNL A   1      44.686  27.422  28.181  1.00  0.00     0.167 HD
ATOM     50  C   UNL A   1      43.451  23.397  26.914  1.00  0.00     0.034 A 
ATOM     51  C   UNL A   1      46.428  29.577  28.220  1.00  0.00     0.034 A 
ATOM     52  C   UNL A   1      43.928  23.214  28.276  1.00  0.00     0.049 A 
ATOM     53  C   UNL A   1      46.985  28.219  28.428  1.00  0.00     0.074 A 
ATOM     54  C   UNL A   1      43.334  22.922  29.489  1.00  0.00     0.029 A 
ATOM     55  N   UNL A   1      45.164  23.744  28.594  1.00  0.00    -0.354 N 
ATOM     56  N   UNL A   1      46.950  27.606  29.579  1.00  0.00    -0.248 NA
ATOM     57  C   UNL A   1      47.118  27.351  27.269  1.00  0.00     0.031 C 
ATOM     58  C   UNL A   1      44.020  23.733  30.444  1.00  0.00     0.029 A 
ATOM     59  C   UNL A   1      45.061  24.400  29.793  1.00  0.00     0.049 A 
ATOM     60  H   UNL A   1      45.980  23.665  28.050  1.00  0.00     0.167 HD
ATOM     61  C   UNL A   1      46.592  26.302  29.276  1.00  0.00     0.074 A 
ATOM     62  C   UNL A   1      46.819  26.176  27.836  1.00  0.00     0.031 C 
ATOM     63  C   UNL A   1      45.872  25.547  30.161  1.00  0.00     0.034 A 
BRANCH  50  64
ATOM     64  C   UNL A   1      44.272  22.925  25.723  1.00  0.00     0.023 A 
ATOM     65  C   UNL A   1      44.290  21.534  25.501  1.00  0.00     0.031 A 
ATOM     66  C   UNL A   1      45.249  23.659  25.015  1.00  0.00     0.131 A 
ATOM     67  C   UNL A   1      45.344  20.923  24.806  1.00  0.00     0.055 A 
ATOM     68  C   UNL A   1      46.263  23.049  24.265  1.00  0.00     0.041 A 
ATOM     69  F   UNL A   1      45.331  24.991  25.042  1.00  0.00    -0.206 F 
ATOM     70  C   UNL A   1      46.344  21.671  24.199  1.00  0.00     0.022 A 
BRANCH  67  71
ATOM     71  S   UNL A   1      45.489  19.123  24.914  1.00  0.00     0.124 S 
ATOM     72  O   UNL A   1      46.733  18.987  25.665  1.00  0.00    -0.237 OA
ATOM     73  O   UNL A   1      44.264  18.769  25.623  1.00  0.00    -0.237 OA
ATOM     74  O   UNL A   1      45.548  18.706  23.517  1.00  0.00    -0.744 OA
ENDBRANCH  67  71
ENDBRANCH  50  64
BRANCH  51  75
ATOM     75  C   UNL A   1      47.188  30.682  27.558  1.00  0.00     0.023 A 
ATOM     76  C   UNL A   1      46.569  31.786  26.923  1.00  0.00     0.031 A 
ATOM     77  C   UNL A   1      48.578  30.789  27.787  1.00  0.00     0.131 A 
ATOM     78  C   UNL A   1      47.332  32.926  26.560  1.00  0.00     0.055 A 
ATOM     79  C   UNL A   1      49.321  31.919  27.435  1.00  0.00     0.041 A 
ATOM     80  F   UNL A   1      49.247  29.832  28.449  1.00  0.00    -0.206 F 
ATOM     81  C   UNL A   1      48.700  32.998  26.829  1.00  0.00     0.022 A 
BRANCH  78  82
ATOM     82  S   UNL A   1      46.541  34.389  25.800  1.00  0.00     0.124 S 
ATOM     83  O   UNL A   1      46.176  35.188  26.964  1.00  0.00    -0.237 OA
ATOM     84  O   UNL A   1      47.603  34.921  24.954  1.00  0.00    -0.237 OA
ATOM     85  O   UNL A   1      45.406  33.823  25.067  1.00  0.00    -0.744 OA
ENDBRANCH  78  82
ENDBRANCH  51  75
BRANCH  63  86
ATOM     86  C   UNL A   1      45.771  26.028  31.596  1.00  0.00     0.023 A 
ATOM     87  C   UNL A   1      44.669  26.713  32.161  1.00  0.00     0.031 A 
ATOM     88  C   UNL A   1      46.828  25.674  32.454  1.00  0.00     0.131 A 
ATOM     89  C   UNL A   1      44.666  27.025  33.538  1.00  0.00     0.055 A 
ATOM     90  C   UNL A   1      46.808  25.963  33.817  1.00  0.00     0.041 A 
ATOM     91  F   UNL A   1      47.891  25.003  31.983  1.00  0.00    -0.206 F 
ATOM     92  C   UNL A   1      45.729  26.645  34.363  1.00  0.00     0.022 A 
BRANCH  89  93
ATOM     93  S   UNL A   1      43.284  27.952  34.287  1.00  0.00     0.124 S 
ATOM     94  O   UNL A   1      42.129  27.546  33.495  1.00  0.00    -0.237 OA
ATOM     95  O   UNL A   1      43.304  27.488  35.672  1.00  0.00    -0.237 OA
ATOM     96  O   UNL A   1      43.680  29.352  34.112  1.00  0.00    -0.744 OA
ENDBRANCH  89  93
ENDBRANCH  63  86
ENDBRANCH  37  38
ENDBRANCH  29  32
ENDBRANCH  27  28
ENDBRANCH   1  27
TORSDOF 18
ENDMDL
MODEL 3
REMARK VINA RESULT:     -11.7      5.458     10.980
REMARK SMILES COc1ccc(/C=C(\Sc2nc(C)n[nH]2)C(=O)NCCCNC(=O)c2ccc(-c3c4nc(c(-c5cc(S(=O)(=O)[O-])ccc5F)c5ccc([nH]5)c(-c5cc(S(=O)(=O)[O-])ccc5F)c5nc(c(-c6cc(S(=O)(=O)[O-])ccc6F)c6ccc3[nH]6)C=C5)C=C4)cc2)c(OC)c1
REMARK SMILES IDX 20 1 19 2 18 3 16 4 17 5 8 7 7 8 6 9 3 10 4 11 91 12 5 13
REMARK SMILES IDX 88 14 2 15 1 16 89 17 90 18 9 19 10 20 11 21 15 22 12 23
REMARK SMILES IDX 14 24 13 26 21 27 22 28 23 29 24 31 25 32 26 33 87 34 27 35
REMARK SMILES IDX 86 36 28 37 29 38 30 39 80 40 31 41 85 42 79 43 81 44 32 45
REMARK SMILES IDX 84 46 78 47 77 48 33 50 65 51 45 52 64 53 46 54 49 55 63 56
REMARK SMILES IDX 82 57 47 58 48 59 62 61 83 62 50 63 34 64 35 65 43 66 36 67
REMARK SMILES IDX 42 68 44 69 41 70 37 71 38 72 39 73 40 74 66 75 67 76 75 77
REMARK SMILES IDX 68 78 74 79 76 80 73 81 69 82 70 83 71 84 72 85 51 86 52 87
REMARK SMILES IDX 60 88 53 89 59 90 61 91 58 92 54 93 55 94 56 95 57 96
REMARK H PARENT 18 6 15 25 22 30 81 49 49 60
REMARK Flexibility Score: inf
ROOT
ATOM      1  C   UNL A   1      37.015  30.228  32.812  1.00  0.00     0.042 C 
ENDROOT
BRANCH   1   2
ATOM      2  C   UNL A   1      38.209  30.394  33.767  1.00  0.00     0.118 C 
BRANCH   2   3
ATOM      3  N   UNL A   1      37.944  31.283  34.896  1.00  0.00    -0.352 N 
ATOM      4  C   UNL A   1      37.254  32.461  35.027  1.00  0.00     0.258 C 
ATOM      5  O   UNL A   1      37.028  32.818  36.189  1.00  0.00    -0.269 OA
ATOM      6  H   UNL A   1      38.343  30.970  35.739  1.00  0.00     0.163 HD
BRANCH   4   7
ATOM      7  C   UNL A   1      36.809  33.339  33.857  1.00  0.00     0.081 C 
ATOM      8  C   UNL A   1      35.505  33.742  33.884  1.00  0.00     0.033 C 
BRANCH   8   9
ATOM      9  C   UNL A   1      34.648  34.664  33.052  1.00  0.00     0.018 A 
ATOM     10  C   UNL A   1      33.444  36.628  31.385  1.00  0.00     0.122 A 
ATOM     11  C   UNL A   1      33.851  36.960  32.655  1.00  0.00     0.047 A 
ATOM     12  C   UNL A   1      33.561  35.316  30.949  1.00  0.00     0.093 A 
ATOM     13  C   UNL A   1      34.371  35.966  33.476  1.00  0.00     0.016 A 
ATOM     14  C   UNL A   1      34.150  34.324  31.766  1.00  0.00     0.129 A 
BRANCH  10  15
ATOM     15  O   UNL A   1      32.982  37.573  30.519  1.00  0.00    -0.497 OA
ATOM     16  C   UNL A   1      33.300  37.257  29.165  1.00  0.00     0.278 C 
ENDBRANCH  10  15
BRANCH  14  17
ATOM     17  O   UNL A   1      34.256  33.013  31.353  1.00  0.00    -0.496 OA
ATOM     18  C   UNL A   1      34.680  32.806  30.003  1.00  0.00     0.278 C 
ENDBRANCH  14  17
ENDBRANCH   8   9
BRANCH   7  19
ATOM     19  S   UNL A   1      38.091  33.991  32.883  1.00  0.00    -0.045 SA
BRANCH  19  20
ATOM     20  C   UNL A   1      39.200  34.630  34.046  1.00  0.00     0.188 A 
ATOM     21  N   UNL A   1      39.033  35.570  34.945  1.00  0.00    -0.206 NA
ATOM     22  N   UNL A   1      40.264  33.849  34.396  1.00  0.00    -0.254 N 
ATOM     23  C   UNL A   1      39.925  35.206  35.931  1.00  0.00     0.148 A 
ATOM     24  N   UNL A   1      40.722  34.174  35.619  1.00  0.00    -0.158 NA
ATOM     25  H   UNL A   1      40.647  33.142  33.829  1.00  0.00     0.192 HD
ATOM     26  C   UNL A   1      39.820  35.724  37.314  1.00  0.00     0.092 C 
ENDBRANCH  19  20
ENDBRANCH   7  19
ENDBRANCH   4   7
ENDBRANCH   2   3
ENDBRANCH   1   2
BRANCH   1  27
ATOM     27  C   UNL A   1      37.388  30.408  31.351  1.00  0.00     0.118 C 
BRANCH  27  28
ATOM     28  N   UNL A   1      36.346  29.961  30.424  1.00  0.00    -0.352 N 
ATOM     29  C   UNL A   1      36.504  29.470  29.139  1.00  0.00     0.251 C 
ATOM     30  H   UNL A   1      35.420  30.017  30.754  1.00  0.00     0.163 HD
ATOM     31  O   UNL A   1      35.550  29.476  28.357  1.00  0.00    -0.269 OA
BRANCH  29  32
ATOM     32  C   UNL A   1      37.820  28.952  28.721  1.00  0.00     0.039 A 
ATOM     33  C   UNL A   1      38.517  29.469  27.625  1.00  0.00     0.014 A 
ATOM     34  C   UNL A   1      38.377  27.928  29.480  1.00  0.00     0.014 A 
ATOM     35  C   UNL A   1      39.804  28.996  27.363  1.00  0.00     0.010 A 
ATOM     36  C   UNL A   1      39.702  27.614  29.349  1.00  0.00     0.010 A 
ATOM     37  C   UNL A   1      40.400  28.080  28.248  1.00  0.00    -0.014 A 
BRANCH  37  38
ATOM     38  C   UNL A   1      41.804  27.693  28.143  1.00  0.00     0.031 A 
ATOM     39  C   UNL A   1      41.999  26.418  27.411  1.00  0.00     0.074 A 
ATOM     40  C   UNL A   1      42.833  28.521  28.442  1.00  0.00     0.049 A 
ATOM     41  N   UNL A   1      42.246  25.257  27.918  1.00  0.00    -0.248 NA
ATOM     42  C   UNL A   1      41.651  26.372  25.980  1.00  0.00     0.031 C 
ATOM     43  C   UNL A   1      42.772  29.920  28.886  1.00  0.00     0.029 A 
ATOM     44  N   UNL A   1      44.174  28.319  28.313  1.00  0.00    -0.354 N 
ATOM     45  C   UNL A   1      42.404  24.404  26.833  1.00  0.00     0.074 A 
ATOM     46  C   UNL A   1      41.753  25.064  25.736  1.00  0.00     0.031 C 
ATOM     47  C   UNL A   1      43.990  30.495  28.767  1.00  0.00     0.029 A 
ATOM     48  C   UNL A   1      44.957  29.473  28.410  1.00  0.00     0.049 A 
ATOM     49  H   UNL A   1      44.562  27.427  28.161  1.00  0.00     0.167 HD
ATOM     50  C   UNL A   1      43.335  23.407  26.870  1.00  0.00     0.034 A 
ATOM     51  C   UNL A   1      46.301  29.583  28.217  1.00  0.00     0.034 A 
ATOM     52  C   UNL A   1      43.808  23.218  28.233  1.00  0.00     0.049 A 
ATOM     53  C   UNL A   1      46.860  28.225  28.419  1.00  0.00     0.074 A 
ATOM     54  C   UNL A   1      43.210  22.919  29.443  1.00  0.00     0.029 A 
ATOM     55  N   UNL A   1      45.042  23.747  28.557  1.00  0.00    -0.354 N 
ATOM     56  N   UNL A   1      46.822  27.606  29.568  1.00  0.00    -0.248 NA
ATOM     57  C   UNL A   1      46.997  27.362  27.257  1.00  0.00     0.031 C 
ATOM     58  C   UNL A   1      43.892  23.726  30.404  1.00  0.00     0.029 A 
ATOM     59  C   UNL A   1      44.935  24.397  29.760  1.00  0.00     0.049 A 
ATOM     60  H   UNL A   1      45.860  23.671  28.016  1.00  0.00     0.167 HD
ATOM     61  C   UNL A   1      46.466  26.303  29.257  1.00  0.00     0.074 A 
ATOM     62  C   UNL A   1      46.698  26.185  27.817  1.00  0.00     0.031 C 
ATOM     63  C   UNL A   1      45.743  25.543  30.136  1.00  0.00     0.034 A 
BRANCH  50  64
ATOM     64  C   UNL A   1      44.160  22.942  25.679  1.00  0.00     0.023 A 
ATOM     65  C   UNL A   1      44.175  21.553  25.447  1.00  0.00     0.031 A 
ATOM     66  C   UNL A   1      45.142  23.678  24.982  1.00  0.00     0.131 A 
ATOM     67  C   UNL A   1      45.231  20.944  24.752  1.00  0.00     0.055 A 
ATOM     68  C   UNL A   1      46.158  23.072  24.232  1.00  0.00     0.041 A 
ATOM     69  F   UNL A   1      45.228  25.010  25.020  1.00  0.00    -0.206 F 
ATOM     70  C   UNL A   1      46.236  21.694  24.155  1.00  0.00     0.022 A 
BRANCH  67  71
ATOM     71  S   UNL A   1      45.369  19.143  24.847  1.00  0.00     0.124 S 
ATOM     72  O   UNL A   1      45.138  18.771  23.455  1.00  0.00    -0.237 OA
ATOM     73  O   UNL A   1      46.731  18.976  25.343  1.00  0.00    -0.237 OA
ATOM     74  O   UNL A   1      44.311  18.773  25.782  1.00  0.00    -0.744 OA
ENDBRANCH  67  71
ENDBRANCH  50  64
BRANCH  51  75
ATOM     75  C   UNL A   1      47.063  30.692  27.563  1.00  0.00     0.023 A 
ATOM     76  C   UNL A   1      46.449  31.844  27.014  1.00  0.00     0.031 A 
ATOM     77  C   UNL A   1      48.466  30.742  27.717  1.00  0.00     0.131 A 
ATOM     78  C   UNL A   1      47.231  32.975  26.661  1.00  0.00     0.055 A 
ATOM     79  C   UNL A   1      49.229  31.862  27.374  1.00  0.00     0.041 A 
ATOM     80  F   UNL A   1      49.136  29.733  28.295  1.00  0.00    -0.206 F 
ATOM     81  C   UNL A   1      48.614  32.989  26.854  1.00  0.00     0.022 A 
BRANCH  78  82
ATOM     82  S   UNL A   1      46.452  34.497  26.014  1.00  0.00     0.124 S 
ATOM     83  O   UNL A   1      45.681  34.966  27.159  1.00  0.00    -0.237 OA
ATOM     84  O   UNL A   1      47.604  35.306  25.631  1.00  0.00    -0.237 OA
ATOM     85  O   UNL A   1      45.645  34.018  24.889  1.00  0.00    -0.744 OA
ENDBRANCH  78  82
ENDBRANCH  51  75
BRANCH  63  86
ATOM     86  C   UNL A   1      45.638  26.017  31.573  1.00  0.00     0.023 A 
ATOM     87  C   UNL A   1      46.628  25.852  32.570  1.00  0.00     0.031 A 
ATOM     88  C   UNL A   1      44.495  26.766  31.907  1.00  0.00     0.131 A 
ATOM     89  C   UNL A   1      46.442  26.423  33.848  1.00  0.00     0.055 A 
ATOM     90  C   UNL A   1      44.327  27.346  33.162  1.00  0.00     0.041 A 
ATOM     91  F   UNL A   1      43.530  26.976  30.997  1.00  0.00    -0.206 F 
ATOM     92  C   UNL A   1      45.297  27.172  34.140  1.00  0.00     0.022 A 
BRANCH  89  93
ATOM     93  S   UNL A   1      47.675  26.186  35.171  1.00  0.00     0.124 S 
ATOM     94  O   UNL A   1      47.832  24.737  35.240  1.00  0.00    -0.237 OA
ATOM     95  O   UNL A   1      48.828  26.929  34.668  1.00  0.00    -0.237 OA
ATOM     96  O   UNL A   1      47.035  26.785  36.345  1.00  0.00    -0.744 OA
ENDBRANCH  89  93
ENDBRANCH  63  86
ENDBRANCH  37  38
ENDBRANCH  29  32
ENDBRANCH  27  28
ENDBRANCH   1  27
TORSDOF 18
ENDMDL
