MODEL 1
REMARK VINA RESULT:     -11.6      0.000      0.000
REMARK SMILES CSCc1ccc(C(=O)N[C@H]2C=C[C@@H](C(=O)NCCCNC(=O)c3ccc(-c4c5nc(c(-c6cc(S(=O)(=O)[O-])ccc6F)c6ccc([nH]6)c(-c6cc(S(=O)(=O)[O-])ccc6F)c6nc(c(-c7cc(S(=O)(=O)[O-])ccc7F)c7ccc4[nH]7)C=C6)C=C5)cc3)C2)o1
REMARK SMILES IDX 18 1 17 2 15 3 16 4 14 6 11 7 12 8 87 9 13 10 10 11 8 12
REMARK SMILES IDX 9 13 7 15 4 16 5 17 88 18 6 19 3 20 2 21 1 22 19 23 20 24
REMARK SMILES IDX 21 25 22 26 23 28 24 29 25 30 86 31 26 32 85 33 27 34 28 35
REMARK SMILES IDX 29 36 79 37 30 38 84 39 78 40 80 41 31 42 83 43 77 44 76 45
REMARK SMILES IDX 32 47 64 48 44 49 63 50 45 51 48 52 62 53 81 54 46 55 47 56
REMARK SMILES IDX 61 58 82 59 49 60 33 61 34 62 42 63 35 64 41 65 43 66 40 67
REMARK SMILES IDX 36 68 37 69 38 70 39 71 65 72 66 73 74 74 67 75 73 76 75 77
REMARK SMILES IDX 72 78 68 79 69 80 70 81 71 82 50 83 51 84 59 85 52 86 58 87
REMARK SMILES IDX 60 88 57 89 53 90 54 91 55 92 56 93
REMARK H PARENT 17 5 10 14 21 27 80 46 48 57
REMARK Flexibility Score: inf
ROOT
ATOM      1  C   UNL A   1      31.823  30.677  26.395  1.00  0.00     0.117 C 
ENDROOT
BRANCH   1   2
ATOM      2  N   UNL A   1      31.060  30.301  25.215  1.00  0.00    -0.356 N 
ATOM      3  C   UNL A   1      31.050  29.161  24.474  1.00  0.00     0.227 C 
ATOM      4  O   UNL A   1      30.276  29.110  23.515  1.00  0.00    -0.274 OA
ATOM      5  H   UNL A   1      30.440  30.996  24.896  1.00  0.00     0.163 HD
BRANCH   3   6
ATOM      6  C   UNL A   1      31.919  27.952  24.816  1.00  0.00     0.103 C 
ATOM      7  C   UNL A   1      31.663  25.726  25.801  1.00  0.00     0.106 C 
ATOM      8  C   UNL A   1      31.605  25.693  24.305  1.00  0.00    -0.006 C 
ATOM      9  C   UNL A   1      31.565  27.226  26.119  1.00  0.00     0.047 C 
ATOM     10  C   UNL A   1      31.801  26.896  23.763  1.00  0.00    -0.016 C 
BRANCH   7  11
ATOM     11  N   UNL A   1      30.599  24.931  26.359  1.00  0.00    -0.343 N 
ATOM     12  C   UNL A   1      30.633  23.664  26.907  1.00  0.00     0.287 C 
ATOM     13  O   UNL A   1      29.569  23.257  27.379  1.00  0.00    -0.266 OA
ATOM     14  H   UNL A   1      29.710  25.356  26.346  1.00  0.00     0.164 HD
BRANCH  12  15
ATOM     15  C   UNL A   1      31.846  22.856  26.873  1.00  0.00     0.191 A 
ATOM     16  C   UNL A   1      33.333  21.573  25.837  1.00  0.00     0.114 A 
ATOM     17  C   UNL A   1      33.865  21.866  27.068  1.00  0.00     0.047 A 
ATOM     18  O   UNL A   1      32.126  22.191  25.697  1.00  0.00    -0.455 OA
ATOM     19  C   UNL A   1      32.872  22.582  27.762  1.00  0.00     0.056 A 
BRANCH  16  20
ATOM     20  C   UNL A   1      33.828  20.767  24.695  1.00  0.00     0.144 C 
BRANCH  20  21
ATOM     21  S   UNL A   1      32.651  19.467  24.173  1.00  0.00    -0.157 SA
ATOM     22  C   UNL A   1      32.781  18.306  25.557  1.00  0.00     0.085 C 
ENDBRANCH  20  21
ENDBRANCH  16  20
ENDBRANCH  12  15
ENDBRANCH   7  11
ENDBRANCH   3   6
ENDBRANCH   1   2
BRANCH   1  23
ATOM     23  C   UNL A   1      31.643  32.146  26.748  1.00  0.00     0.042 C 
BRANCH  23  24
ATOM     24  C   UNL A   1      32.935  32.827  27.164  1.00  0.00     0.118 C 
BRANCH  24  25
ATOM     25  N   UNL A   1      32.697  34.102  27.824  1.00  0.00    -0.352 N 
ATOM     26  C   UNL A   1      33.252  34.607  28.975  1.00  0.00     0.251 C 
ATOM     27  H   UNL A   1      32.044  34.690  27.379  1.00  0.00     0.163 HD
ATOM     28  O   UNL A   1      32.761  35.607  29.490  1.00  0.00    -0.269 OA
BRANCH  26  29
ATOM     29  C   UNL A   1      34.414  33.933  29.594  1.00  0.00     0.039 A 
ATOM     30  C   UNL A   1      35.701  34.289  29.189  1.00  0.00     0.014 A 
ATOM     31  C   UNL A   1      34.232  32.948  30.569  1.00  0.00     0.014 A 
ATOM     32  C   UNL A   1      36.807  33.700  29.807  1.00  0.00     0.010 A 
ATOM     33  C   UNL A   1      35.331  32.435  31.248  1.00  0.00     0.010 A 
ATOM     34  C   UNL A   1      36.631  32.793  30.864  1.00  0.00    -0.014 A 
BRANCH  34  35
ATOM     35  C   UNL A   1      37.790  32.184  31.566  1.00  0.00     0.031 A 
ATOM     36  C   UNL A   1      38.572  31.083  30.904  1.00  0.00     0.074 A 
ATOM     37  C   UNL A   1      38.092  32.571  32.820  1.00  0.00     0.049 A 
ATOM     38  N   UNL A   1      39.562  30.368  31.374  1.00  0.00    -0.248 NA
ATOM     39  C   UNL A   1      38.154  30.711  29.544  1.00  0.00     0.031 C 
ATOM     40  C   UNL A   1      37.382  33.601  33.582  1.00  0.00     0.029 A 
ATOM     41  N   UNL A   1      39.072  32.141  33.676  1.00  0.00    -0.354 N 
ATOM     42  C   UNL A   1      39.872  29.449  30.375  1.00  0.00     0.074 A 
ATOM     43  C   UNL A   1      38.911  29.651  29.312  1.00  0.00     0.031 C 
ATOM     44  C   UNL A   1      37.977  33.751  34.776  1.00  0.00     0.029 A 
ATOM     45  C   UNL A   1      39.078  32.799  34.884  1.00  0.00     0.049 A 
ATOM     46  H   UNL A   1      39.714  31.430  33.447  1.00  0.00     0.167 HD
ATOM     47  C   UNL A   1      40.881  28.543  30.337  1.00  0.00     0.034 A 
ATOM     48  C   UNL A   1      39.877  32.647  35.956  1.00  0.00     0.034 A 
ATOM     49  C   UNL A   1      41.836  28.367  31.404  1.00  0.00     0.049 A 
ATOM     50  C   UNL A   1      40.970  31.612  35.911  1.00  0.00     0.074 A 
ATOM     51  C   UNL A   1      42.937  27.530  31.451  1.00  0.00     0.029 A 
ATOM     52  N   UNL A   1      41.796  29.036  32.622  1.00  0.00    -0.354 N 
ATOM     53  N   UNL A   1      41.286  30.785  34.941  1.00  0.00    -0.248 NA
ATOM     54  C   UNL A   1      41.815  31.494  37.105  1.00  0.00     0.031 C 
ATOM     55  C   UNL A   1      43.520  27.641  32.719  1.00  0.00     0.029 A 
ATOM     56  C   UNL A   1      42.831  28.603  33.440  1.00  0.00     0.049 A 
ATOM     57  H   UNL A   1      41.132  29.718  32.869  1.00  0.00     0.167 HD
ATOM     58  C   UNL A   1      42.389  30.070  35.398  1.00  0.00     0.074 A 
ATOM     59  C   UNL A   1      42.686  30.571  36.726  1.00  0.00     0.031 C 
ATOM     60  C   UNL A   1      43.101  29.096  34.772  1.00  0.00     0.034 A 
BRANCH  47  61
ATOM     61  C   UNL A   1      40.966  27.661  29.110  1.00  0.00     0.023 A 
ATOM     62  C   UNL A   1      41.951  27.859  28.125  1.00  0.00     0.031 A 
ATOM     63  C   UNL A   1      40.007  26.659  28.881  1.00  0.00     0.131 A 
ATOM     64  C   UNL A   1      41.887  27.155  26.914  1.00  0.00     0.055 A 
ATOM     65  C   UNL A   1      40.009  25.889  27.715  1.00  0.00     0.041 A 
ATOM     66  F   UNL A   1      39.030  26.430  29.771  1.00  0.00    -0.206 F 
ATOM     67  C   UNL A   1      40.938  26.151  26.713  1.00  0.00     0.022 A 
BRANCH  64  68
ATOM     68  S   UNL A   1      42.930  27.710  25.537  1.00  0.00     0.124 S 
ATOM     69  O   UNL A   1      43.315  26.438  24.928  1.00  0.00    -0.237 OA
ATOM     70  O   UNL A   1      42.014  28.538  24.762  1.00  0.00    -0.237 OA
ATOM     71  O   UNL A   1      44.017  28.429  26.197  1.00  0.00    -0.744 OA
ENDBRANCH  64  68
ENDBRANCH  47  61
BRANCH  48  72
ATOM     72  C   UNL A   1      39.692  33.509  37.157  1.00  0.00     0.023 A 
ATOM     73  C   UNL A   1      40.513  34.629  37.366  1.00  0.00     0.031 A 
ATOM     74  C   UNL A   1      38.705  33.223  38.116  1.00  0.00     0.131 A 
ATOM     75  C   UNL A   1      40.355  35.404  38.524  1.00  0.00     0.055 A 
ATOM     76  C   UNL A   1      38.522  34.023  39.245  1.00  0.00     0.041 A 
ATOM     77  F   UNL A   1      37.889  32.168  37.957  1.00  0.00    -0.206 F 
ATOM     78  C   UNL A   1      39.356  35.117  39.458  1.00  0.00     0.022 A 
BRANCH  75  79
ATOM     79  S   UNL A   1      41.512  36.769  38.817  1.00  0.00     0.124 S 
ATOM     80  O   UNL A   1      42.139  36.914  37.509  1.00  0.00    -0.237 OA
ATOM     81  O   UNL A   1      40.615  37.846  39.223  1.00  0.00    -0.237 OA
ATOM     82  O   UNL A   1      42.383  36.256  39.873  1.00  0.00    -0.744 OA
ENDBRANCH  75  79
ENDBRANCH  48  72
BRANCH  60  83
ATOM     83  C   UNL A   1      44.294  28.542  35.511  1.00  0.00     0.023 A 
ATOM     84  C   UNL A   1      44.167  27.510  36.457  1.00  0.00     0.031 A 
ATOM     85  C   UNL A   1      45.575  29.072  35.278  1.00  0.00     0.131 A 
ATOM     86  C   UNL A   1      45.292  27.078  37.174  1.00  0.00     0.055 A 
ATOM     87  C   UNL A   1      46.702  28.598  35.953  1.00  0.00     0.041 A 
ATOM     88  F   UNL A   1      45.755  30.062  34.389  1.00  0.00    -0.206 F 
ATOM     89  C   UNL A   1      46.561  27.603  36.916  1.00  0.00     0.022 A 
BRANCH  86  90
ATOM     90  S   UNL A   1      45.062  25.881  38.518  1.00  0.00     0.124 S 
ATOM     91  O   UNL A   1      44.091  26.563  39.369  1.00  0.00    -0.237 OA
ATOM     92  O   UNL A   1      44.573  24.704  37.809  1.00  0.00    -0.237 OA
ATOM     93  O   UNL A   1      46.401  25.746  39.091  1.00  0.00    -0.744 OA
ENDBRANCH  86  90
ENDBRANCH  60  83
ENDBRANCH  34  35
ENDBRANCH  26  29
ENDBRANCH  24  25
ENDBRANCH  23  24
ENDBRANCH   1  23
TORSDOF 17
ENDMDL
MODEL 2
REMARK VINA RESULT:     -11.6      1.934      2.422
REMARK SMILES CSCc1ccc(C(=O)N[C@H]2C=C[C@@H](C(=O)NCCCNC(=O)c3ccc(-c4c5nc(c(-c6cc(S(=O)(=O)[O-])ccc6F)c6ccc([nH]6)c(-c6cc(S(=O)(=O)[O-])ccc6F)c6nc(c(-c7cc(S(=O)(=O)[O-])ccc7F)c7ccc4[nH]7)C=C6)C=C5)cc3)C2)o1
REMARK SMILES IDX 18 1 17 2 15 3 16 4 14 6 11 7 12 8 87 9 13 10 10 11 8 12
REMARK SMILES IDX 9 13 7 15 4 16 5 17 88 18 6 19 3 20 2 21 1 22 19 23 20 24
REMARK SMILES IDX 21 25 22 26 23 28 24 29 25 30 86 31 26 32 85 33 27 34 28 35
REMARK SMILES IDX 29 36 79 37 30 38 84 39 78 40 80 41 31 42 83 43 77 44 76 45
REMARK SMILES IDX 32 47 64 48 44 49 63 50 45 51 48 52 62 53 81 54 46 55 47 56
REMARK SMILES IDX 61 58 82 59 49 60 33 61 34 62 42 63 35 64 41 65 43 66 40 67
REMARK SMILES IDX 36 68 37 69 38 70 39 71 65 72 66 73 74 74 67 75 73 76 75 77
REMARK SMILES IDX 72 78 68 79 69 80 70 81 71 82 50 83 51 84 59 85 52 86 58 87
REMARK SMILES IDX 60 88 57 89 53 90 54 91 55 92 56 93
REMARK H PARENT 17 5 10 14 21 27 80 46 48 57
REMARK Flexibility Score: inf
ROOT
ATOM      1  C   UNL A   1      31.750  30.405  26.389  1.00  0.00     0.117 C 
ENDROOT
BRANCH   1   2
ATOM      2  N   UNL A   1      33.081  29.926  26.728  1.00  0.00    -0.356 N 
ATOM      3  C   UNL A   1      33.713  28.753  26.454  1.00  0.00     0.227 C 
ATOM      4  O   UNL A   1      34.870  28.620  26.861  1.00  0.00    -0.274 OA
ATOM      5  H   UNL A   1      33.620  30.564  27.250  1.00  0.00     0.163 HD
BRANCH   3   6
ATOM      6  C   UNL A   1      33.061  27.641  25.636  1.00  0.00     0.103 C 
ATOM      7  C   UNL A   1      33.726  25.625  24.417  1.00  0.00     0.106 C 
ATOM      8  C   UNL A   1      33.289  25.322  25.817  1.00  0.00    -0.006 C 
ATOM      9  C   UNL A   1      33.857  27.156  24.418  1.00  0.00     0.047 C 
ATOM     10  C   UNL A   1      32.871  26.410  26.465  1.00  0.00    -0.016 C 
BRANCH   7  11
ATOM     11  N   UNL A   1      34.949  24.927  24.114  1.00  0.00    -0.343 N 
ATOM     12  C   UNL A   1      35.142  23.655  23.610  1.00  0.00     0.287 C 
ATOM     13  O   UNL A   1      36.313  23.344  23.379  1.00  0.00    -0.266 OA
ATOM     14  H   UNL A   1      35.775  25.432  24.295  1.00  0.00     0.164 HD
BRANCH  12  15
ATOM     15  C   UNL A   1      34.025  22.738  23.420  1.00  0.00     0.191 A 
ATOM     16  C   UNL A   1      32.808  20.969  23.984  1.00  0.00     0.114 A 
ATOM     17  C   UNL A   1      32.101  21.632  23.012  1.00  0.00     0.047 A 
ATOM     18  O   UNL A   1      33.959  21.645  24.260  1.00  0.00    -0.455 OA
ATOM     19  C   UNL A   1      32.927  22.685  22.578  1.00  0.00     0.056 A 
BRANCH  16  20
ATOM     20  C   UNL A   1      32.538  19.731  24.754  1.00  0.00     0.144 C 
BRANCH  20  21
ATOM     21  S   UNL A   1      32.780  18.208  23.768  1.00  0.00    -0.157 SA
ATOM     22  C   UNL A   1      33.133  17.004  25.074  1.00  0.00     0.085 C 
ENDBRANCH  20  21
ENDBRANCH  16  20
ENDBRANCH  12  15
ENDBRANCH   7  11
ENDBRANCH   3   6
ENDBRANCH   1   2
BRANCH   1  23
ATOM     23  C   UNL A   1      31.558  31.868  26.760  1.00  0.00     0.042 C 
BRANCH  23  24
ATOM     24  C   UNL A   1      32.807  32.510  27.340  1.00  0.00     0.118 C 
BRANCH  24  25
ATOM     25  N   UNL A   1      32.613  33.921  27.637  1.00  0.00    -0.352 N 
ATOM     26  C   UNL A   1      33.188  34.695  28.616  1.00  0.00     0.251 C 
ATOM     27  H   UNL A   1      31.978  34.391  27.049  1.00  0.00     0.163 HD
ATOM     28  O   UNL A   1      32.732  35.810  28.846  1.00  0.00    -0.269 OA
BRANCH  26  29
ATOM     29  C   UNL A   1      34.329  34.171  29.398  1.00  0.00     0.039 A 
ATOM     30  C   UNL A   1      34.077  33.414  30.543  1.00  0.00     0.014 A 
ATOM     31  C   UNL A   1      35.644  34.429  29.004  1.00  0.00     0.014 A 
ATOM     32  C   UNL A   1      35.145  32.866  31.258  1.00  0.00     0.010 A 
ATOM     33  C   UNL A   1      36.699  33.805  29.659  1.00  0.00     0.010 A 
ATOM     34  C   UNL A   1      36.462  33.029  30.803  1.00  0.00    -0.014 A 
BRANCH  34  35
ATOM     35  C   UNL A   1      37.613  32.422  31.520  1.00  0.00     0.031 A 
ATOM     36  C   UNL A   1      38.379  31.293  30.887  1.00  0.00     0.074 A 
ATOM     37  C   UNL A   1      37.920  32.836  32.764  1.00  0.00     0.049 A 
ATOM     38  N   UNL A   1      39.359  30.576  31.375  1.00  0.00    -0.248 NA
ATOM     39  C   UNL A   1      37.955  30.892  29.537  1.00  0.00     0.031 C 
ATOM     40  C   UNL A   1      37.226  33.895  33.499  1.00  0.00     0.029 A 
ATOM     41  N   UNL A   1      38.895  32.415  33.631  1.00  0.00    -0.354 N 
ATOM     42  C   UNL A   1      39.656  29.628  30.400  1.00  0.00     0.074 A 
ATOM     43  C   UNL A   1      38.697  29.816  29.332  1.00  0.00     0.031 C 
ATOM     44  C   UNL A   1      37.824  34.068  34.689  1.00  0.00     0.029 A 
ATOM     45  C   UNL A   1      38.910  33.103  34.822  1.00  0.00     0.049 A 
ATOM     46  H   UNL A   1      39.526  31.688  33.420  1.00  0.00     0.167 HD
ATOM     47  C   UNL A   1      40.652  28.706  30.385  1.00  0.00     0.034 A 
ATOM     48  C   UNL A   1      39.708  32.968  35.897  1.00  0.00     0.034 A 
ATOM     49  C   UNL A   1      41.605  28.544  31.456  1.00  0.00     0.049 A 
ATOM     50  C   UNL A   1      40.786  31.916  35.879  1.00  0.00     0.074 A 
ATOM     51  C   UNL A   1      42.693  27.693  31.525  1.00  0.00     0.029 A 
ATOM     52  N   UNL A   1      41.575  29.245  32.657  1.00  0.00    -0.354 N 
ATOM     53  N   UNL A   1      41.090  31.060  34.930  1.00  0.00    -0.248 NA
ATOM     54  C   UNL A   1      41.630  31.817  37.075  1.00  0.00     0.031 C 
ATOM     55  C   UNL A   1      43.278  27.829  32.789  1.00  0.00     0.029 A 
ATOM     56  C   UNL A   1      42.603  28.819  33.486  1.00  0.00     0.049 A 
ATOM     57  H   UNL A   1      40.920  29.943  32.886  1.00  0.00     0.167 HD
ATOM     58  C   UNL A   1      42.183  30.341  35.405  1.00  0.00     0.074 A 
ATOM     59  C   UNL A   1      42.487  30.872  36.720  1.00  0.00     0.031 C 
ATOM     60  C   UNL A   1      42.881  29.342  34.804  1.00  0.00     0.034 A 
BRANCH  47  61
ATOM     61  C   UNL A   1      40.724  27.792  29.181  1.00  0.00     0.023 A 
ATOM     62  C   UNL A   1      41.681  27.981  28.167  1.00  0.00     0.031 A 
ATOM     63  C   UNL A   1      39.778  26.767  29.004  1.00  0.00     0.131 A 
ATOM     64  C   UNL A   1      41.601  27.242  26.978  1.00  0.00     0.055 A 
ATOM     65  C   UNL A   1      39.767  25.964  27.860  1.00  0.00     0.041 A 
ATOM     66  F   UNL A   1      38.827  26.545  29.923  1.00  0.00    -0.206 F 
ATOM     67  C   UNL A   1      40.666  26.216  26.828  1.00  0.00     0.022 A 
BRANCH  64  68
ATOM     68  S   UNL A   1      42.599  27.777  25.560  1.00  0.00     0.124 S 
ATOM     69  O   UNL A   1      42.582  26.581  24.720  1.00  0.00    -0.237 OA
ATOM     70  O   UNL A   1      41.847  28.921  25.059  1.00  0.00    -0.237 OA
ATOM     71  O   UNL A   1      43.897  28.092  26.154  1.00  0.00    -0.744 OA
ENDBRANCH  64  68
ENDBRANCH  47  61
BRANCH  48  72
ATOM     72  C   UNL A   1      39.536  33.862  37.076  1.00  0.00     0.023 A 
ATOM     73  C   UNL A   1      38.886  33.402  38.232  1.00  0.00     0.031 A 
ATOM     74  C   UNL A   1      40.004  35.187  37.061  1.00  0.00     0.131 A 
ATOM     75  C   UNL A   1      38.692  34.271  39.316  1.00  0.00     0.055 A 
ATOM     76  C   UNL A   1      39.848  36.035  38.159  1.00  0.00     0.041 A 
ATOM     77  F   UNL A   1      40.639  35.671  35.981  1.00  0.00    -0.206 F 
ATOM     78  C   UNL A   1      39.181  35.580  39.293  1.00  0.00     0.022 A 
BRANCH  75  79
ATOM     79  S   UNL A   1      37.743  33.678  40.743  1.00  0.00     0.124 S 
ATOM     80  O   UNL A   1      36.574  33.091  40.099  1.00  0.00    -0.237 OA
ATOM     81  O   UNL A   1      38.676  32.741  41.360  1.00  0.00    -0.237 OA
ATOM     82  O   UNL A   1      37.488  34.895  41.511  1.00  0.00    -0.744 OA
ENDBRANCH  75  79
ENDBRANCH  48  72
BRANCH  60  83
ATOM     83  C   UNL A   1      44.066  28.791  35.557  1.00  0.00     0.023 A 
ATOM     84  C   UNL A   1      43.941  27.714  36.452  1.00  0.00     0.031 A 
ATOM     85  C   UNL A   1      45.337  29.367  35.390  1.00  0.00     0.131 A 
ATOM     86  C   UNL A   1      45.055  27.283  37.187  1.00  0.00     0.055 A 
ATOM     87  C   UNL A   1      46.456  28.896  36.080  1.00  0.00     0.041 A 
ATOM     88  F   UNL A   1      45.515  30.401  34.551  1.00  0.00    -0.206 F 
ATOM     89  C   UNL A   1      46.315  27.856  36.994  1.00  0.00     0.022 A 
BRANCH  86  90
ATOM     90  S   UNL A   1      44.820  26.021  38.469  1.00  0.00     0.124 S 
ATOM     91  O   UNL A   1      44.437  24.854  37.678  1.00  0.00    -0.237 OA
ATOM     92  O   UNL A   1      46.135  25.962  39.096  1.00  0.00    -0.237 OA
ATOM     93  O   UNL A   1      43.758  26.576  39.307  1.00  0.00    -0.744 OA
ENDBRANCH  86  90
ENDBRANCH  60  83
ENDBRANCH  34  35
ENDBRANCH  26  29
ENDBRANCH  24  25
ENDBRANCH  23  24
ENDBRANCH   1  23
TORSDOF 17
ENDMDL
MODEL 3
REMARK VINA RESULT:     -11.4      6.011     11.748
REMARK SMILES CSCc1ccc(C(=O)N[C@H]2C=C[C@@H](C(=O)NCCCNC(=O)c3ccc(-c4c5nc(c(-c6cc(S(=O)(=O)[O-])ccc6F)c6ccc([nH]6)c(-c6cc(S(=O)(=O)[O-])ccc6F)c6nc(c(-c7cc(S(=O)(=O)[O-])ccc7F)c7ccc4[nH]7)C=C6)C=C5)cc3)C2)o1
REMARK SMILES IDX 18 1 17 2 15 3 16 4 14 6 11 7 12 8 87 9 13 10 10 11 8 12
REMARK SMILES IDX 9 13 7 15 4 16 5 17 88 18 6 19 3 20 2 21 1 22 19 23 20 24
REMARK SMILES IDX 21 25 22 26 23 28 24 29 25 30 86 31 26 32 85 33 27 34 28 35
REMARK SMILES IDX 29 36 79 37 30 38 84 39 78 40 80 41 31 42 83 43 77 44 76 45
REMARK SMILES IDX 32 47 64 48 44 49 63 50 45 51 48 52 62 53 81 54 46 55 47 56
REMARK SMILES IDX 61 58 82 59 49 60 33 61 34 62 42 63 35 64 41 65 43 66 40 67
REMARK SMILES IDX 36 68 37 69 38 70 39 71 65 72 66 73 74 74 67 75 73 76 75 77
REMARK SMILES IDX 72 78 68 79 69 80 70 81 71 82 50 83 51 84 59 85 52 86 58 87
REMARK SMILES IDX 60 88 57 89 53 90 54 91 55 92 56 93
REMARK H PARENT 17 5 10 14 21 27 80 46 48 57
REMARK Flexibility Score: inf
ROOT
ATOM      1  C   UNL A   1      36.968  20.984  24.987  1.00  0.00     0.117 C 
ENDROOT
BRANCH   1   2
ATOM      2  N   UNL A   1      35.656  20.418  25.256  1.00  0.00    -0.356 N 
ATOM      3  C   UNL A   1      34.410  20.961  25.188  1.00  0.00     0.227 C 
ATOM      4  O   UNL A   1      33.454  20.230  25.463  1.00  0.00    -0.274 OA
ATOM      5  H   UNL A   1      35.671  19.475  25.539  1.00  0.00     0.163 HD
BRANCH   3   6
ATOM      6  C   UNL A   1      34.165  22.401  24.745  1.00  0.00     0.103 C 
ATOM      7  C   UNL A   1      32.525  24.182  25.109  1.00  0.00     0.106 C 
ATOM      8  C   UNL A   1      33.703  24.301  26.027  1.00  0.00    -0.006 C 
ATOM      9  C   UNL A   1      32.700  22.783  24.499  1.00  0.00     0.047 C 
ATOM     10  C   UNL A   1      34.625  23.366  25.792  1.00  0.00    -0.016 C 
BRANCH   7  11
ATOM     11  N   UNL A   1      31.300  24.358  25.846  1.00  0.00    -0.343 N 
ATOM     12  C   UNL A   1      30.528  25.489  26.024  1.00  0.00     0.287 C 
ATOM     13  O   UNL A   1      29.478  25.326  26.650  1.00  0.00    -0.266 OA
ATOM     14  H   UNL A   1      30.960  23.547  26.291  1.00  0.00     0.164 HD
BRANCH  12  15
ATOM     15  C   UNL A   1      30.969  26.791  25.541  1.00  0.00     0.191 A 
ATOM     16  C   UNL A   1      30.823  28.548  24.191  1.00  0.00     0.114 A 
ATOM     17  C   UNL A   1      31.731  28.882  25.165  1.00  0.00     0.047 A 
ATOM     18  O   UNL A   1      30.335  27.297  24.426  1.00  0.00    -0.455 OA
ATOM     19  C   UNL A   1      31.905  27.727  25.949  1.00  0.00     0.056 A 
BRANCH  16  20
ATOM     20  C   UNL A   1      30.299  29.279  23.013  1.00  0.00     0.144 C 
BRANCH  20  21
ATOM     21  S   UNL A   1      28.518  28.983  22.719  1.00  0.00    -0.157 SA
ATOM     22  C   UNL A   1      28.148  30.276  21.506  1.00  0.00     0.085 C 
ENDBRANCH  20  21
ENDBRANCH  16  20
ENDBRANCH  12  15
ENDBRANCH   7  11
ENDBRANCH   3   6
ENDBRANCH   1   2
BRANCH   1  23
ATOM     23  C   UNL A   1      38.068  19.935  25.060  1.00  0.00     0.042 C 
BRANCH  23  24
ATOM     24  C   UNL A   1      39.294  20.403  25.825  1.00  0.00     0.118 C 
BRANCH  24  25
ATOM     25  N   UNL A   1      40.294  19.354  25.957  1.00  0.00    -0.352 N 
ATOM     26  C   UNL A   1      41.658  19.458  26.089  1.00  0.00     0.251 C 
ATOM     27  H   UNL A   1      39.942  18.434  25.951  1.00  0.00     0.163 HD
ATOM     28  O   UNL A   1      42.352  18.455  25.965  1.00  0.00    -0.269 OA
BRANCH  26  29
ATOM     29  C   UNL A   1      42.276  20.776  26.353  1.00  0.00     0.039 A 
ATOM     30  C   UNL A   1      42.559  21.621  25.280  1.00  0.00     0.014 A 
ATOM     31  C   UNL A   1      42.580  21.174  27.658  1.00  0.00     0.014 A 
ATOM     32  C   UNL A   1      43.091  22.890  25.521  1.00  0.00     0.010 A 
ATOM     33  C   UNL A   1      43.017  22.470  27.903  1.00  0.00     0.010 A 
ATOM     34  C   UNL A   1      43.293  23.337  26.836  1.00  0.00    -0.014 A 
BRANCH  34  35
ATOM     35  C   UNL A   1      43.817  24.698  27.122  1.00  0.00     0.031 A 
ATOM     36  C   UNL A   1      42.903  25.748  27.691  1.00  0.00     0.074 A 
ATOM     37  C   UNL A   1      45.089  25.005  26.805  1.00  0.00     0.049 A 
ATOM     38  N   UNL A   1      43.140  27.011  27.938  1.00  0.00    -0.248 NA
ATOM     39  C   UNL A   1      41.525  25.326  27.983  1.00  0.00     0.031 C 
ATOM     40  C   UNL A   1      46.060  24.083  26.212  1.00  0.00     0.029 A 
ATOM     41  N   UNL A   1      45.783  26.180  26.935  1.00  0.00    -0.354 N 
ATOM     42  C   UNL A   1      41.936  27.539  28.395  1.00  0.00     0.074 A 
ATOM     43  C   UNL A   1      40.958  26.475  28.313  1.00  0.00     0.031 C 
ATOM     44  C   UNL A   1      47.235  24.716  26.068  1.00  0.00     0.029 A 
ATOM     45  C   UNL A   1      47.090  26.099  26.512  1.00  0.00     0.049 A 
ATOM     46  H   UNL A   1      45.385  27.005  27.297  1.00  0.00     0.167 HD
ATOM     47  C   UNL A   1      41.678  28.786  28.866  1.00  0.00     0.034 A 
ATOM     48  C   UNL A   1      48.057  27.035  26.484  1.00  0.00     0.034 A 
ATOM     49  C   UNL A   1      42.672  29.828  28.950  1.00  0.00     0.049 A 
ATOM     50  C   UNL A   1      47.744  28.423  26.976  1.00  0.00     0.074 A 
ATOM     51  C   UNL A   1      42.546  31.105  29.468  1.00  0.00     0.029 A 
ATOM     52  N   UNL A   1      43.980  29.715  28.491  1.00  0.00    -0.354 N 
ATOM     53  N   UNL A   1      46.616  28.896  27.455  1.00  0.00    -0.248 NA
ATOM     54  C   UNL A   1      48.838  29.400  26.929  1.00  0.00     0.031 C 
ATOM     55  C   UNL A   1      43.752  31.785  29.261  1.00  0.00     0.029 A 
ATOM     56  C   UNL A   1      44.658  30.911  28.681  1.00  0.00     0.049 A 
ATOM     57  H   UNL A   1      44.369  28.905  28.090  1.00  0.00     0.167 HD
ATOM     58  C   UNL A   1      46.875  30.220  27.795  1.00  0.00     0.074 A 
ATOM     59  C   UNL A   1      48.268  30.465  27.473  1.00  0.00     0.031 C 
ATOM     60  C   UNL A   1      46.042  31.147  28.335  1.00  0.00     0.034 A 
BRANCH  47  61
ATOM     61  C   UNL A   1      40.255  29.080  29.288  1.00  0.00     0.023 A 
ATOM     62  C   UNL A   1      39.870  29.072  30.642  1.00  0.00     0.031 A 
ATOM     63  C   UNL A   1      39.252  29.293  28.326  1.00  0.00     0.131 A 
ATOM     64  C   UNL A   1      38.514  29.157  30.988  1.00  0.00     0.055 A 
ATOM     65  C   UNL A   1      37.915  29.480  28.684  1.00  0.00     0.041 A 
ATOM     66  F   UNL A   1      39.548  29.294  27.018  1.00  0.00    -0.206 F 
ATOM     67  C   UNL A   1      37.535  29.387  30.020  1.00  0.00     0.022 A 
BRANCH  64  68
ATOM     68  S   UNL A   1      38.032  28.760  32.692  1.00  0.00     0.124 S 
ATOM     69  O   UNL A   1      36.662  29.267  32.737  1.00  0.00    -0.237 OA
ATOM     70  O   UNL A   1      38.179  27.309  32.731  1.00  0.00    -0.237 OA
ATOM     71  O   UNL A   1      38.991  29.507  33.503  1.00  0.00    -0.744 OA
ENDBRANCH  64  68
ENDBRANCH  47  61
BRANCH  48  72
ATOM     72  C   UNL A   1      49.420  26.689  25.992  1.00  0.00     0.023 A 
ATOM     73  C   UNL A   1      49.921  27.264  24.813  1.00  0.00     0.031 A 
ATOM     74  C   UNL A   1      50.235  25.774  26.681  1.00  0.00     0.131 A 
ATOM     75  C   UNL A   1      51.188  26.894  24.339  1.00  0.00     0.055 A 
ATOM     76  C   UNL A   1      51.513  25.442  26.230  1.00  0.00     0.041 A 
ATOM     77  F   UNL A   1      49.804  25.203  27.818  1.00  0.00    -0.206 F 
ATOM     78  C   UNL A   1      51.993  25.998  25.047  1.00  0.00     0.022 A 
BRANCH  75  79
ATOM     79  S   UNL A   1      51.750  27.567  22.752  1.00  0.00     0.124 S 
ATOM     80  O   UNL A   1      53.197  27.431  22.867  1.00  0.00    -0.237 OA
ATOM     81  O   UNL A   1      51.095  26.679  21.797  1.00  0.00    -0.237 OA
ATOM     82  O   UNL A   1      51.248  28.940  22.767  1.00  0.00    -0.744 OA
ENDBRANCH  75  79
ENDBRANCH  48  72
BRANCH  60  83
ATOM     83  C   UNL A   1      46.636  32.499  28.646  1.00  0.00     0.023 A 
ATOM     84  C   UNL A   1      46.790  33.487  27.659  1.00  0.00     0.031 A 
ATOM     85  C   UNL A   1      47.074  32.793  29.950  1.00  0.00     0.131 A 
ATOM     86  C   UNL A   1      47.416  34.701  27.977  1.00  0.00     0.055 A 
ATOM     87  C   UNL A   1      47.643  34.026  30.275  1.00  0.00     0.041 A 
ATOM     88  F   UNL A   1      46.956  31.885  30.932  1.00  0.00    -0.206 F 
ATOM     89  C   UNL A   1      47.828  34.983  29.282  1.00  0.00     0.022 A 
BRANCH  86  90
ATOM     90  S   UNL A   1      47.769  35.876  26.640  1.00  0.00     0.124 S 
ATOM     91  O   UNL A   1      46.680  36.838  26.787  1.00  0.00    -0.237 OA
ATOM     92  O   UNL A   1      49.099  36.361  26.993  1.00  0.00    -0.237 OA
ATOM     93  O   UNL A   1      47.710  35.053  25.434  1.00  0.00    -0.744 OA
ENDBRANCH  86  90
ENDBRANCH  60  83
ENDBRANCH  34  35
ENDBRANCH  26  29
ENDBRANCH  24  25
ENDBRANCH  23  24
ENDBRANCH   1  23
TORSDOF 17
ENDMDL
