MODEL 1
REMARK VINA RESULT:     -13.8      0.000      0.000
REMARK SMILES O=C(NCCCNC(=O)c1cc(N2C(=O)[C@H]3[C@@H]4C=C[C@@H]([C@@H]5C[C@H]45)[C@@H]3C2=O)ccc1Cl)c1ccc(-c2c3nc(c(-c4cc(S(=O)(=O)[O-])ccc4F)c4ccc([nH]4)c(-c4cc(S(=O)(=O)[O-])ccc4F)c4nc(c(-c5cc(S(=O)(=O)[O-])ccc5F)c5ccc2[nH]5)C=C4)C=C3)cc1
REMARK SMILES IDX 4 1 3 2 1 3 2 4 31 6 32 7 93 8 33 9 92 10 34 11 35 12 36 13
REMARK SMILES IDX 86 14 37 15 91 16 85 17 87 18 38 19 90 20 84 21 83 22 39 24
REMARK SMILES IDX 71 25 51 26 70 27 52 28 55 29 69 30 88 31 53 32 54 33 68 35
REMARK SMILES IDX 89 36 56 37 40 38 41 39 49 40 42 41 48 42 50 43 47 44 43 45
REMARK SMILES IDX 44 46 45 47 46 48 72 49 73 50 81 51 74 52 80 53 82 54 79 55
REMARK SMILES IDX 75 56 76 57 77 58 78 59 57 60 58 61 66 62 59 63 65 64 67 65
REMARK SMILES IDX 64 66 60 67 61 68 62 69 63 70 5 71 6 72 7 73 8 74 9 76 10 77
REMARK SMILES IDX 11 78 29 79 12 80 28 81 30 82 27 83 13 84 14 85 25 86 15 87
REMARK SMILES IDX 16 88 24 89 26 90 17 91 20 92 18 93 23 94 19 95 21 96 22 97
REMARK H PARENT 3 5 87 23 55 34 7 75
REMARK Flexibility Score: inf
ROOT
ATOM      1  C   UNL A   1      32.562  32.134  26.891  1.00  0.00     0.118 C 
ENDROOT
BRANCH   1   2
ATOM      2  N   UNL A   1      32.466  33.509  27.364  1.00  0.00    -0.352 N 
ATOM      3  O   UNL A   1      32.839  35.285  28.693  1.00  0.00    -0.269 OA
ATOM      4  C   UNL A   1      33.197  34.170  28.321  1.00  0.00     0.251 C 
ATOM      5  H   UNL A   1      31.767  34.049  26.929  1.00  0.00     0.163 HD
BRANCH   4   6
ATOM      6  C   UNL A   1      34.393  33.539  28.916  1.00  0.00     0.039 A 
ATOM      7  C   UNL A   1      34.285  32.391  29.705  1.00  0.00     0.014 A 
ATOM      8  C   UNL A   1      35.649  34.093  28.657  1.00  0.00     0.014 A 
ATOM      9  C   UNL A   1      35.405  31.891  30.362  1.00  0.00     0.010 A 
ATOM     10  C   UNL A   1      36.787  33.530  29.239  1.00  0.00     0.010 A 
ATOM     11  C   UNL A   1      36.671  32.443  30.121  1.00  0.00    -0.014 A 
BRANCH  11  12
ATOM     12  C   UNL A   1      37.877  31.854  30.756  1.00  0.00     0.031 A 
ATOM     13  C   UNL A   1      38.690  30.816  30.038  1.00  0.00     0.074 A 
ATOM     14  C   UNL A   1      38.217  32.237  32.002  1.00  0.00     0.049 A 
ATOM     15  N   UNL A   1      39.696  30.103  30.474  1.00  0.00    -0.248 NA
ATOM     16  C   UNL A   1      38.308  30.534  28.647  1.00  0.00     0.031 C 
ATOM     17  C   UNL A   1      37.510  33.249  32.792  1.00  0.00     0.029 A 
ATOM     18  N   UNL A   1      39.228  31.815  32.828  1.00  0.00    -0.354 N 
ATOM     19  C   UNL A   1      40.054  29.266  29.422  1.00  0.00     0.074 A 
ATOM     20  C   UNL A   1      39.130  29.540  28.341  1.00  0.00     0.031 C 
ATOM     21  C   UNL A   1      38.112  33.373  33.982  1.00  0.00     0.029 A 
ATOM     22  C   UNL A   1      39.191  32.397  34.074  1.00  0.00     0.049 A 
ATOM     23  H   UNL A   1      39.910  31.162  32.556  1.00  0.00     0.167 HD
ATOM     24  C   UNL A   1      41.064  28.360  29.369  1.00  0.00     0.034 A 
ATOM     25  C   UNL A   1      39.906  32.139  35.186  1.00  0.00     0.034 A 
ATOM     26  C   UNL A   1      41.962  28.099  30.470  1.00  0.00     0.049 A 
ATOM     27  C   UNL A   1      40.967  31.074  35.137  1.00  0.00     0.074 A 
ATOM     28  C   UNL A   1      43.037  27.229  30.520  1.00  0.00     0.029 A 
ATOM     29  N   UNL A   1      41.876  28.690  31.727  1.00  0.00    -0.354 N 
ATOM     30  N   UNL A   1      41.304  30.294  34.136  1.00  0.00    -0.248 NA
ATOM     31  C   UNL A   1      41.746  30.855  36.361  1.00  0.00     0.031 C 
ATOM     32  C   UNL A   1      43.539  27.224  31.826  1.00  0.00     0.029 A 
ATOM     33  C   UNL A   1      42.850  28.170  32.568  1.00  0.00     0.049 A 
ATOM     34  H   UNL A   1      41.220  29.377  31.983  1.00  0.00     0.167 HD
ATOM     35  C   UNL A   1      42.360  29.516  34.600  1.00  0.00     0.074 A 
ATOM     36  C   UNL A   1      42.599  29.918  35.971  1.00  0.00     0.031 C 
ATOM     37  C   UNL A   1      43.077  28.571  33.939  1.00  0.00     0.034 A 
BRANCH  24  38
ATOM     38  C   UNL A   1      41.198  27.544  28.102  1.00  0.00     0.023 A 
ATOM     39  C   UNL A   1      40.860  26.179  28.057  1.00  0.00     0.031 A 
ATOM     40  C   UNL A   1      41.728  28.124  26.934  1.00  0.00     0.131 A 
ATOM     41  C   UNL A   1      41.157  25.419  26.914  1.00  0.00     0.055 A 
ATOM     42  C   UNL A   1      41.926  27.384  25.766  1.00  0.00     0.041 A 
ATOM     43  F   UNL A   1      42.091  29.416  26.915  1.00  0.00    -0.206 F 
ATOM     44  C   UNL A   1      41.662  26.018  25.758  1.00  0.00     0.022 A 
BRANCH  41  45
ATOM     45  S   UNL A   1      41.065  23.611  27.034  1.00  0.00     0.124 S 
ATOM     46  O   UNL A   1      41.901  23.197  25.907  1.00  0.00    -0.237 OA
ATOM     47  O   UNL A   1      41.610  23.353  28.361  1.00  0.00    -0.237 OA
ATOM     48  O   UNL A   1      39.640  23.328  26.875  1.00  0.00    -0.744 OA
ENDBRANCH  41  45
ENDBRANCH  24  38
BRANCH  25  49
ATOM     49  C   UNL A   1      39.591  32.872  36.444  1.00  0.00     0.023 A 
ATOM     50  C   UNL A   1      38.646  32.383  37.356  1.00  0.00     0.031 A 
ATOM     51  C   UNL A   1      40.262  34.068  36.761  1.00  0.00     0.131 A 
ATOM     52  C   UNL A   1      38.381  33.099  38.535  1.00  0.00     0.055 A 
ATOM     53  C   UNL A   1      40.035  34.747  37.957  1.00  0.00     0.041 A 
ATOM     54  F   UNL A   1      41.182  34.573  35.923  1.00  0.00    -0.206 F 
ATOM     55  C   UNL A   1      39.083  34.266  38.850  1.00  0.00     0.022 A 
BRANCH  52  56
ATOM     56  S   UNL A   1      37.065  32.510  39.633  1.00  0.00     0.124 S 
ATOM     57  O   UNL A   1      35.888  32.645  38.782  1.00  0.00    -0.237 OA
ATOM     58  O   UNL A   1      37.496  31.146  39.920  1.00  0.00    -0.237 OA
ATOM     59  O   UNL A   1      37.126  33.433  40.764  1.00  0.00    -0.744 OA
ENDBRANCH  52  56
ENDBRANCH  25  49
BRANCH  37  60
ATOM     60  C   UNL A   1      44.245  27.948  34.667  1.00  0.00     0.023 A 
ATOM     61  C   UNL A   1      44.140  26.730  35.359  1.00  0.00     0.031 A 
ATOM     62  C   UNL A   1      45.503  28.580  34.625  1.00  0.00     0.131 A 
ATOM     63  C   UNL A   1      45.267  26.197  36.005  1.00  0.00     0.055 A 
ATOM     64  C   UNL A   1      46.631  28.016  35.218  1.00  0.00     0.041 A 
ATOM     65  F   UNL A   1      45.658  29.749  33.984  1.00  0.00    -0.206 F 
ATOM     66  C   UNL A   1      46.516  26.820  35.920  1.00  0.00     0.022 A 
BRANCH  63  67
ATOM     67  S   UNL A   1      45.075  24.702  37.016  1.00  0.00     0.124 S 
ATOM     68  O   UNL A   1      44.310  23.833  36.128  1.00  0.00    -0.237 OA
ATOM     69  O   UNL A   1      46.459  24.308  37.259  1.00  0.00    -0.237 OA
ATOM     70  O   UNL A   1      44.350  25.175  38.194  1.00  0.00    -0.744 OA
ENDBRANCH  63  67
ENDBRANCH  37  60
ENDBRANCH  11  12
ENDBRANCH   4   6
ENDBRANCH   1   2
BRANCH   1  71
ATOM     71  C   UNL A   1      31.225  31.559  26.449  1.00  0.00     0.042 C 
BRANCH  71  72
ATOM     72  C   UNL A   1      31.332  30.332  25.559  1.00  0.00     0.118 C 
BRANCH  72  73
ATOM     73  N   UNL A   1      30.710  30.524  24.258  1.00  0.00    -0.352 N 
ATOM     74  C   UNL A   1      30.262  29.598  23.357  1.00  0.00     0.252 C 
ATOM     75  H   UNL A   1      30.593  31.463  23.985  1.00  0.00     0.163 HD
ATOM     76  O   UNL A   1      29.820  29.959  22.269  1.00  0.00    -0.269 OA
BRANCH  74  77
ATOM     77  C   UNL A   1      30.338  28.157  23.647  1.00  0.00     0.060 A 
ATOM     78  C   UNL A   1      31.628  27.610  23.757  1.00  0.00     0.042 A 
ATOM     79  C   UNL A   1      29.210  27.326  23.690  1.00  0.00     0.053 A 
ATOM     80  C   UNL A   1      31.784  26.231  23.876  1.00  0.00     0.053 A 
ATOM     81  C   UNL A   1      29.371  25.961  23.923  1.00  0.00     0.023 A 
ATOM     82  Cl  UNL A   1      27.601  27.878  23.384  1.00  0.00    -0.083 Cl
ATOM     83  C   UNL A   1      30.650  25.414  23.989  1.00  0.00     0.028 A 
BRANCH  80  84
ATOM     84  N   UNL A   1      33.057  25.636  23.938  1.00  0.00    -0.250 N 
ATOM     85  C   UNL A   1      33.738  25.431  25.150  1.00  0.00     0.238 C 
ATOM     86  C   UNL A   1      33.577  24.849  22.889  1.00  0.00     0.238 C 
ATOM     87  O   UNL A   1      33.463  25.809  26.272  1.00  0.00    -0.274 OA
ATOM     88  C   UNL A   1      34.929  24.615  24.753  1.00  0.00     0.100 C 
ATOM     89  C   UNL A   1      34.287  23.784  23.639  1.00  0.00     0.100 C 
ATOM     90  O   UNL A   1      33.351  24.879  21.696  1.00  0.00    -0.274 OA
ATOM     91  C   UNL A   1      35.822  23.701  25.609  1.00  0.00     0.028 C 
ATOM     92  C   UNL A   1      35.175  22.594  23.315  1.00  0.00     0.028 C 
ATOM     93  C   UNL A   1      37.010  23.503  24.633  1.00  0.00    -0.026 C 
ATOM     94  C   UNL A   1      35.285  22.277  25.843  1.00  0.00     0.001 C 
ATOM     95  C   UNL A   1      36.657  22.986  23.432  1.00  0.00    -0.026 C 
ATOM     96  C   UNL A   1      34.913  21.605  24.511  1.00  0.00     0.001 C 
ATOM     97  C   UNL A   1      33.888  21.769  25.638  1.00  0.00     0.009 C 
ENDBRANCH  80  84
ENDBRANCH  74  77
ENDBRANCH  72  73
ENDBRANCH  71  72
ENDBRANCH   1  71
TORSDOF 14
ENDMDL
MODEL 2
REMARK VINA RESULT:     -13.8      1.663      2.346
REMARK SMILES O=C(NCCCNC(=O)c1cc(N2C(=O)[C@H]3[C@@H]4C=C[C@@H]([C@@H]5C[C@H]45)[C@@H]3C2=O)ccc1Cl)c1ccc(-c2c3nc(c(-c4cc(S(=O)(=O)[O-])ccc4F)c4ccc([nH]4)c(-c4cc(S(=O)(=O)[O-])ccc4F)c4nc(c(-c5cc(S(=O)(=O)[O-])ccc5F)c5ccc2[nH]5)C=C4)C=C3)cc1
REMARK SMILES IDX 4 1 3 2 1 3 2 4 31 6 32 7 93 8 33 9 92 10 34 11 35 12 36 13
REMARK SMILES IDX 86 14 37 15 91 16 85 17 87 18 38 19 90 20 84 21 83 22 39 24
REMARK SMILES IDX 71 25 51 26 70 27 52 28 55 29 69 30 88 31 53 32 54 33 68 35
REMARK SMILES IDX 89 36 56 37 40 38 41 39 49 40 42 41 48 42 50 43 47 44 43 45
REMARK SMILES IDX 44 46 45 47 46 48 72 49 73 50 81 51 74 52 80 53 82 54 79 55
REMARK SMILES IDX 75 56 76 57 77 58 78 59 57 60 58 61 66 62 59 63 65 64 67 65
REMARK SMILES IDX 64 66 60 67 61 68 62 69 63 70 5 71 6 72 7 73 8 74 9 76 10 77
REMARK SMILES IDX 11 78 29 79 12 80 28 81 30 82 27 83 13 84 14 85 25 86 15 87
REMARK SMILES IDX 16 88 24 89 26 90 17 91 20 92 18 93 23 94 19 95 21 96 22 97
REMARK H PARENT 3 5 87 23 55 34 7 75
REMARK Flexibility Score: inf
ROOT
ATOM      1  C   UNL A   1      32.828  32.458  27.174  1.00  0.00     0.118 C 
ENDROOT
BRANCH   1   2
ATOM      2  N   UNL A   1      32.570  33.826  27.604  1.00  0.00    -0.352 N 
ATOM      3  O   UNL A   1      32.674  35.652  28.914  1.00  0.00    -0.269 OA
ATOM      4  C   UNL A   1      33.160  34.568  28.598  1.00  0.00     0.251 C 
ATOM      5  H   UNL A   1      31.862  34.292  27.104  1.00  0.00     0.163 HD
BRANCH   4   6
ATOM      6  C   UNL A   1      34.357  34.060  29.300  1.00  0.00     0.039 A 
ATOM      7  C   UNL A   1      35.638  34.490  28.943  1.00  0.00     0.014 A 
ATOM      8  C   UNL A   1      34.192  33.155  30.351  1.00  0.00     0.014 A 
ATOM      9  C   UNL A   1      36.756  33.902  29.526  1.00  0.00     0.010 A 
ATOM     10  C   UNL A   1      35.314  32.637  31.002  1.00  0.00     0.010 A 
ATOM     11  C   UNL A   1      36.607  32.983  30.574  1.00  0.00    -0.014 A 
BRANCH  11  12
ATOM     12  C   UNL A   1      37.802  32.421  31.252  1.00  0.00     0.031 A 
ATOM     13  C   UNL A   1      38.554  31.270  30.647  1.00  0.00     0.074 A 
ATOM     14  C   UNL A   1      38.188  32.935  32.437  1.00  0.00     0.049 A 
ATOM     15  N   UNL A   1      39.539  30.570  31.147  1.00  0.00    -0.248 NA
ATOM     16  C   UNL A   1      38.126  30.843  29.309  1.00  0.00     0.031 C 
ATOM     17  C   UNL A   1      37.543  34.063  33.113  1.00  0.00     0.029 A 
ATOM     18  N   UNL A   1      39.200  32.569  33.288  1.00  0.00    -0.354 N 
ATOM     19  C   UNL A   1      39.836  29.599  30.196  1.00  0.00     0.074 A 
ATOM     20  C   UNL A   1      38.898  29.784  29.108  1.00  0.00     0.031 C 
ATOM     21  C   UNL A   1      38.178  34.301  34.268  1.00  0.00     0.029 A 
ATOM     22  C   UNL A   1      39.218  33.296  34.455  1.00  0.00     0.049 A 
ATOM     23  H   UNL A   1      39.848  31.858  33.082  1.00  0.00     0.167 HD
ATOM     24  C   UNL A   1      40.806  28.650  30.232  1.00  0.00     0.034 A 
ATOM     25  C   UNL A   1      39.948  33.140  35.576  1.00  0.00     0.034 A 
ATOM     26  C   UNL A   1      41.718  28.482  31.340  1.00  0.00     0.049 A 
ATOM     27  C   UNL A   1      40.962  32.031  35.635  1.00  0.00     0.074 A 
ATOM     28  C   UNL A   1      42.757  27.577  31.473  1.00  0.00     0.029 A 
ATOM     29  N   UNL A   1      41.687  29.221  32.518  1.00  0.00    -0.354 N 
ATOM     30  N   UNL A   1      41.242  31.123  34.728  1.00  0.00    -0.248 NA
ATOM     31  C   UNL A   1      41.760  31.925  36.861  1.00  0.00     0.031 C 
ATOM     32  C   UNL A   1      43.290  27.705  32.760  1.00  0.00     0.029 A 
ATOM     33  C   UNL A   1      42.659  28.762  33.396  1.00  0.00     0.049 A 
ATOM     34  H   UNL A   1      41.067  29.962  32.702  1.00  0.00     0.167 HD
ATOM     35  C   UNL A   1      42.276  30.361  35.261  1.00  0.00     0.074 A 
ATOM     36  C   UNL A   1      42.564  30.911  36.570  1.00  0.00     0.031 C 
ATOM     37  C   UNL A   1      42.936  29.312  34.705  1.00  0.00     0.034 A 
BRANCH  24  38
ATOM     38  C   UNL A   1      40.874  27.684  29.070  1.00  0.00     0.023 A 
ATOM     39  C   UNL A   1      41.822  27.825  28.040  1.00  0.00     0.031 A 
ATOM     40  C   UNL A   1      39.938  26.639  28.956  1.00  0.00     0.131 A 
ATOM     41  C   UNL A   1      41.744  27.013  26.897  1.00  0.00     0.055 A 
ATOM     42  C   UNL A   1      39.931  25.769  27.864  1.00  0.00     0.041 A 
ATOM     43  F   UNL A   1      38.994  26.461  29.893  1.00  0.00    -0.206 F 
ATOM     44  C   UNL A   1      40.822  25.968  26.814  1.00  0.00     0.022 A 
BRANCH  41  45
ATOM     45  S   UNL A   1      42.726  27.476  25.443  1.00  0.00     0.124 S 
ATOM     46  O   UNL A   1      42.690  26.242  24.657  1.00  0.00    -0.237 OA
ATOM     47  O   UNL A   1      41.976  28.601  24.898  1.00  0.00    -0.237 OA
ATOM     48  O   UNL A   1      44.035  27.807  26.002  1.00  0.00    -0.744 OA
ENDBRANCH  41  45
ENDBRANCH  24  38
BRANCH  25  49
ATOM     49  C   UNL A   1      39.695  34.031  36.743  1.00  0.00     0.023 A 
ATOM     50  C   UNL A   1      39.127  33.539  37.926  1.00  0.00     0.031 A 
ATOM     51  C   UNL A   1      40.049  35.392  36.694  1.00  0.00     0.131 A 
ATOM     52  C   UNL A   1      38.911  34.408  39.008  1.00  0.00     0.055 A 
ATOM     53  C   UNL A   1      39.880  36.239  37.788  1.00  0.00     0.041 A 
ATOM     54  F   UNL A   1      40.602  35.910  35.585  1.00  0.00    -0.206 F 
ATOM     55  C   UNL A   1      39.301  35.750  38.953  1.00  0.00     0.022 A 
BRANCH  52  56
ATOM     56  S   UNL A   1      38.060  33.773  40.477  1.00  0.00     0.124 S 
ATOM     57  O   UNL A   1      39.075  32.896  41.050  1.00  0.00    -0.237 OA
ATOM     58  O   UNL A   1      37.777  34.997  41.218  1.00  0.00    -0.237 OA
ATOM     59  O   UNL A   1      36.890  33.094  39.926  1.00  0.00    -0.744 OA
ENDBRANCH  52  56
ENDBRANCH  25  49
BRANCH  37  60
ATOM     60  C   UNL A   1      44.095  28.729  35.479  1.00  0.00     0.023 A 
ATOM     61  C   UNL A   1      43.934  27.682  36.402  1.00  0.00     0.031 A 
ATOM     62  C   UNL A   1      45.396  29.216  35.249  1.00  0.00     0.131 A 
ATOM     63  C   UNL A   1      45.054  27.175  37.081  1.00  0.00     0.055 A 
ATOM     64  C   UNL A   1      46.510  28.669  35.883  1.00  0.00     0.041 A 
ATOM     65  F   UNL A   1      45.605  30.222  34.385  1.00  0.00    -0.206 F 
ATOM     66  C   UNL A   1      46.342  27.646  36.811  1.00  0.00     0.022 A 
BRANCH  63  67
ATOM     67  S   UNL A   1      44.805  25.926  38.374  1.00  0.00     0.124 S 
ATOM     68  O   UNL A   1      43.943  24.961  37.701  1.00  0.00    -0.237 OA
ATOM     69  O   UNL A   1      46.169  25.483  38.648  1.00  0.00    -0.237 OA
ATOM     70  O   UNL A   1      44.169  26.674  39.457  1.00  0.00    -0.744 OA
ENDBRANCH  63  67
ENDBRANCH  37  60
ENDBRANCH  11  12
ENDBRANCH   4   6
ENDBRANCH   1   2
BRANCH   1  71
ATOM     71  C   UNL A   1      31.569  31.722  26.738  1.00  0.00     0.042 C 
BRANCH  71  72
ATOM     72  C   UNL A   1      31.797  30.274  26.337  1.00  0.00     0.118 C 
BRANCH  72  73
ATOM     73  N   UNL A   1      32.625  30.143  25.148  1.00  0.00    -0.352 N 
ATOM     74  C   UNL A   1      32.604  29.190  24.167  1.00  0.00     0.252 C 
ATOM     75  H   UNL A   1      33.304  30.846  25.031  1.00  0.00     0.163 HD
ATOM     76  O   UNL A   1      33.437  29.213  23.265  1.00  0.00    -0.269 OA
BRANCH  74  77
ATOM     77  C   UNL A   1      31.618  28.097  24.190  1.00  0.00     0.060 A 
ATOM     78  C   UNL A   1      32.096  26.834  24.580  1.00  0.00     0.042 A 
ATOM     79  C   UNL A   1      30.301  28.247  23.735  1.00  0.00     0.053 A 
ATOM     80  C   UNL A   1      31.264  25.721  24.479  1.00  0.00     0.053 A 
ATOM     81  C   UNL A   1      29.442  27.149  23.745  1.00  0.00     0.023 A 
ATOM     82  Cl  UNL A   1      29.679  29.714  23.067  1.00  0.00    -0.083 Cl
ATOM     83  C   UNL A   1      29.927  25.890  24.090  1.00  0.00     0.028 A 
BRANCH  80  84
ATOM     84  N   UNL A   1      31.716  24.431  24.810  1.00  0.00    -0.250 N 
ATOM     85  C   UNL A   1      32.340  23.586  23.877  1.00  0.00     0.238 C 
ATOM     86  C   UNL A   1      31.954  24.030  26.141  1.00  0.00     0.238 C 
ATOM     87  O   UNL A   1      32.482  23.719  22.677  1.00  0.00    -0.274 OA
ATOM     88  C   UNL A   1      32.811  22.431  24.705  1.00  0.00     0.100 C 
ATOM     89  C   UNL A   1      33.165  23.188  25.988  1.00  0.00     0.100 C 
ATOM     90  O   UNL A   1      31.456  24.417  27.180  1.00  0.00    -0.274 OA
ATOM     91  C   UNL A   1      33.913  21.398  24.413  1.00  0.00     0.028 C 
ATOM     92  C   UNL A   1      34.033  22.310  26.875  1.00  0.00     0.028 C 
ATOM     93  C   UNL A   1      33.587  20.347  25.504  1.00  0.00    -0.026 C 
ATOM     94  C   UNL A   1      35.349  21.848  24.740  1.00  0.00     0.001 C 
ATOM     95  C   UNL A   1      33.594  20.841  26.765  1.00  0.00    -0.026 C 
ATOM     96  C   UNL A   1      35.444  22.373  26.182  1.00  0.00     0.001 C 
ATOM     97  C   UNL A   1      35.850  23.241  24.986  1.00  0.00     0.009 C 
ENDBRANCH  80  84
ENDBRANCH  74  77
ENDBRANCH  72  73
ENDBRANCH  71  72
ENDBRANCH   1  71
TORSDOF 14
ENDMDL
MODEL 3
REMARK VINA RESULT:     -13.8      0.833      1.622
REMARK SMILES O=C(NCCCNC(=O)c1cc(N2C(=O)[C@H]3[C@@H]4C=C[C@@H]([C@@H]5C[C@H]45)[C@@H]3C2=O)ccc1Cl)c1ccc(-c2c3nc(c(-c4cc(S(=O)(=O)[O-])ccc4F)c4ccc([nH]4)c(-c4cc(S(=O)(=O)[O-])ccc4F)c4nc(c(-c5cc(S(=O)(=O)[O-])ccc5F)c5ccc2[nH]5)C=C4)C=C3)cc1
REMARK SMILES IDX 4 1 3 2 1 3 2 4 31 6 32 7 93 8 33 9 92 10 34 11 35 12 36 13
REMARK SMILES IDX 86 14 37 15 91 16 85 17 87 18 38 19 90 20 84 21 83 22 39 24
REMARK SMILES IDX 71 25 51 26 70 27 52 28 55 29 69 30 88 31 53 32 54 33 68 35
REMARK SMILES IDX 89 36 56 37 40 38 41 39 49 40 42 41 48 42 50 43 47 44 43 45
REMARK SMILES IDX 44 46 45 47 46 48 72 49 73 50 81 51 74 52 80 53 82 54 79 55
REMARK SMILES IDX 75 56 76 57 77 58 78 59 57 60 58 61 66 62 59 63 65 64 67 65
REMARK SMILES IDX 64 66 60 67 61 68 62 69 63 70 5 71 6 72 7 73 8 74 9 76 10 77
REMARK SMILES IDX 11 78 29 79 12 80 28 81 30 82 27 83 13 84 14 85 25 86 15 87
REMARK SMILES IDX 16 88 24 89 26 90 17 91 20 92 18 93 23 94 19 95 21 96 22 97
REMARK H PARENT 3 5 87 23 55 34 7 75
REMARK Flexibility Score: inf
ROOT
ATOM      1  C   UNL A   1      32.737  32.195  26.890  1.00  0.00     0.118 C 
ENDROOT
BRANCH   1   2
ATOM      2  N   UNL A   1      32.525  33.552  27.377  1.00  0.00    -0.352 N 
ATOM      3  O   UNL A   1      32.710  35.325  28.749  1.00  0.00    -0.269 OA
ATOM      4  C   UNL A   1      33.160  34.243  28.380  1.00  0.00     0.251 C 
ATOM      5  H   UNL A   1      31.815  34.052  26.914  1.00  0.00     0.163 HD
BRANCH   4   6
ATOM      6  C   UNL A   1      34.364  33.681  29.028  1.00  0.00     0.039 A 
ATOM      7  C   UNL A   1      35.635  34.191  28.751  1.00  0.00     0.014 A 
ATOM      8  C   UNL A   1      34.214  32.641  29.948  1.00  0.00     0.014 A 
ATOM      9  C   UNL A   1      36.764  33.564  29.269  1.00  0.00     0.010 A 
ATOM     10  C   UNL A   1      35.343  32.075  30.543  1.00  0.00     0.010 A 
ATOM     11  C   UNL A   1      36.630  32.511  30.186  1.00  0.00    -0.014 A 
BRANCH  11  12
ATOM     12  C   UNL A   1      37.834  31.899  30.803  1.00  0.00     0.031 A 
ATOM     13  C   UNL A   1      38.618  30.848  30.071  1.00  0.00     0.074 A 
ATOM     14  C   UNL A   1      38.198  32.274  32.045  1.00  0.00     0.049 A 
ATOM     15  N   UNL A   1      39.616  30.116  30.492  1.00  0.00    -0.248 NA
ATOM     16  C   UNL A   1      38.211  30.577  28.686  1.00  0.00     0.031 C 
ATOM     17  C   UNL A   1      37.521  33.296  32.846  1.00  0.00     0.029 A 
ATOM     18  N   UNL A   1      39.212  31.832  32.856  1.00  0.00    -0.354 N 
ATOM     19  C   UNL A   1      39.945  29.275  29.434  1.00  0.00     0.074 A 
ATOM     20  C   UNL A   1      39.010  29.568  28.366  1.00  0.00     0.031 C 
ATOM     21  C   UNL A   1      38.140  33.407  34.028  1.00  0.00     0.029 A 
ATOM     22  C   UNL A   1      39.203  32.411  34.103  1.00  0.00     0.049 A 
ATOM     23  H   UNL A   1      39.879  31.166  32.573  1.00  0.00     0.167 HD
ATOM     24  C   UNL A   1      40.937  28.351  29.365  1.00  0.00     0.034 A 
ATOM     25  C   UNL A   1      39.928  32.138  35.205  1.00  0.00     0.034 A 
ATOM     26  C   UNL A   1      41.845  28.071  30.454  1.00  0.00     0.049 A 
ATOM     27  C   UNL A   1      40.969  31.054  35.139  1.00  0.00     0.074 A 
ATOM     28  C   UNL A   1      42.905  27.182  30.487  1.00  0.00     0.029 A 
ATOM     29  N   UNL A   1      41.787  28.661  31.712  1.00  0.00    -0.354 N 
ATOM     30  N   UNL A   1      41.278  30.270  34.132  1.00  0.00    -0.248 NA
ATOM     31  C   UNL A   1      41.760  30.819  36.352  1.00  0.00     0.031 C 
ATOM     32  C   UNL A   1      43.425  27.165  31.785  1.00  0.00     0.029 A 
ATOM     33  C   UNL A   1      42.763  28.122  32.539  1.00  0.00     0.049 A 
ATOM     34  H   UNL A   1      41.147  29.360  31.978  1.00  0.00     0.167 HD
ATOM     35  C   UNL A   1      42.326  29.473  34.579  1.00  0.00     0.074 A 
ATOM     36  C   UNL A   1      42.591  29.867  35.948  1.00  0.00     0.031 C 
ATOM     37  C   UNL A   1      43.017  28.516  33.908  1.00  0.00     0.034 A 
BRANCH  24  38
ATOM     38  C   UNL A   1      41.038  27.535  28.095  1.00  0.00     0.023 A 
ATOM     39  C   UNL A   1      40.627  26.191  28.039  1.00  0.00     0.031 A 
ATOM     40  C   UNL A   1      41.611  28.091  26.936  1.00  0.00     0.131 A 
ATOM     41  C   UNL A   1      40.893  25.422  26.895  1.00  0.00     0.055 A 
ATOM     42  C   UNL A   1      41.779  27.348  25.765  1.00  0.00     0.041 A 
ATOM     43  F   UNL A   1      42.044  29.362  26.927  1.00  0.00    -0.206 F 
ATOM     44  C   UNL A   1      41.442  25.998  25.747  1.00  0.00     0.022 A 
BRANCH  41  45
ATOM     45  S   UNL A   1      40.702  23.621  27.004  1.00  0.00     0.124 S 
ATOM     46  O   UNL A   1      39.275  23.458  26.729  1.00  0.00    -0.237 OA
ATOM     47  O   UNL A   1      41.610  23.143  25.968  1.00  0.00    -0.237 OA
ATOM     48  O   UNL A   1      41.100  23.315  28.376  1.00  0.00    -0.744 OA
ENDBRANCH  41  45
ENDBRANCH  24  38
BRANCH  25  49
ATOM     49  C   UNL A   1      39.644  32.874  36.468  1.00  0.00     0.023 A 
ATOM     50  C   UNL A   1      38.735  32.378  37.412  1.00  0.00     0.031 A 
ATOM     51  C   UNL A   1      40.310  34.080  36.758  1.00  0.00     0.131 A 
ATOM     52  C   UNL A   1      38.499  33.097  38.596  1.00  0.00     0.055 A 
ATOM     53  C   UNL A   1      40.111  34.763  37.957  1.00  0.00     0.041 A 
ATOM     54  F   UNL A   1      41.196  34.592  35.889  1.00  0.00    -0.206 F 
ATOM     55  C   UNL A   1      39.195  34.275  38.883  1.00  0.00     0.022 A 
BRANCH  52  56
ATOM     56  S   UNL A   1      37.226  32.498  39.738  1.00  0.00     0.124 S 
ATOM     57  O   UNL A   1      36.049  32.462  38.877  1.00  0.00    -0.237 OA
ATOM     58  O   UNL A   1      37.765  31.204  40.142  1.00  0.00    -0.237 OA
ATOM     59  O   UNL A   1      37.201  33.516  40.785  1.00  0.00    -0.744 OA
ENDBRANCH  52  56
ENDBRANCH  25  49
BRANCH  37  60
ATOM     60  C   UNL A   1      44.183  27.870  34.618  1.00  0.00     0.023 A 
ATOM     61  C   UNL A   1      44.049  26.693  35.373  1.00  0.00     0.031 A 
ATOM     62  C   UNL A   1      45.467  28.436  34.495  1.00  0.00     0.131 A 
ATOM     63  C   UNL A   1      45.175  26.135  35.999  1.00  0.00     0.055 A 
ATOM     64  C   UNL A   1      46.591  27.845  35.070  1.00  0.00     0.041 A 
ATOM     65  F   UNL A   1      45.650  29.565  33.792  1.00  0.00    -0.206 F 
ATOM     66  C   UNL A   1      46.448  26.691  35.833  1.00  0.00     0.022 A 
BRANCH  63  67
ATOM     67  S   UNL A   1      44.954  24.701  37.088  1.00  0.00     0.124 S 
ATOM     68  O   UNL A   1      44.414  23.704  36.170  1.00  0.00    -0.237 OA
ATOM     69  O   UNL A   1      46.311  24.459  37.567  1.00  0.00    -0.237 OA
ATOM     70  O   UNL A   1      44.017  25.181  38.102  1.00  0.00    -0.744 OA
ENDBRANCH  63  67
ENDBRANCH  37  60
ENDBRANCH  11  12
ENDBRANCH   4   6
ENDBRANCH   1   2
BRANCH   1  71
ATOM     71  C   UNL A   1      31.446  31.492  26.499  1.00  0.00     0.042 C 
BRANCH  71  72
ATOM     72  C   UNL A   1      31.631  30.064  26.015  1.00  0.00     0.118 C 
BRANCH  72  73
ATOM     73  N   UNL A   1      32.129  29.992  24.650  1.00  0.00    -0.352 N 
ATOM     74  C   UNL A   1      31.910  29.045  23.687  1.00  0.00     0.252 C 
ATOM     75  H   UNL A   1      32.711  30.738  24.377  1.00  0.00     0.163 HD
ATOM     76  O   UNL A   1      32.478  29.127  22.601  1.00  0.00    -0.269 OA
BRANCH  74  77
ATOM     77  C   UNL A   1      31.031  27.892  23.940  1.00  0.00     0.060 A 
ATOM     78  C   UNL A   1      31.659  26.713  24.376  1.00  0.00     0.042 A 
ATOM     79  C   UNL A   1      29.659  27.900  23.652  1.00  0.00     0.053 A 
ATOM     80  C   UNL A   1      30.918  25.538  24.489  1.00  0.00     0.053 A 
ATOM     81  C   UNL A   1      28.904  26.750  23.876  1.00  0.00     0.023 A 
ATOM     82  Cl  UNL A   1      28.837  29.243  22.942  1.00  0.00    -0.083 Cl
ATOM     83  C   UNL A   1      29.534  25.571  24.267  1.00  0.00     0.028 A 
BRANCH  80  84
ATOM     84  N   UNL A   1      31.515  24.324  24.873  1.00  0.00    -0.250 N 
ATOM     85  C   UNL A   1      32.164  23.478  23.958  1.00  0.00     0.238 C 
ATOM     86  C   UNL A   1      31.870  24.045  26.209  1.00  0.00     0.238 C 
ATOM     87  O   UNL A   1      32.220  23.538  22.745  1.00  0.00    -0.274 OA
ATOM     88  C   UNL A   1      32.796  22.436  24.827  1.00  0.00     0.100 C 
ATOM     89  C   UNL A   1      33.148  23.313  26.032  1.00  0.00     0.100 C 
ATOM     90  O   UNL A   1      31.399  24.456  27.251  1.00  0.00    -0.274 OA
ATOM     91  C   UNL A   1      33.976  21.494  24.531  1.00  0.00     0.028 C 
ATOM     92  C   UNL A   1      34.150  22.588  26.915  1.00  0.00     0.028 C 
ATOM     93  C   UNL A   1      33.822  20.498  25.708  1.00  0.00    -0.026 C 
ATOM     94  C   UNL A   1      35.377  22.101  24.733  1.00  0.00     0.001 C 
ATOM     95  C   UNL A   1      33.854  21.079  26.931  1.00  0.00    -0.026 C 
ATOM     96  C   UNL A   1      35.505  22.735  26.127  1.00  0.00     0.001 C 
ATOM     97  C   UNL A   1      35.750  23.550  24.853  1.00  0.00     0.009 C 
ENDBRANCH  80  84
ENDBRANCH  74  77
ENDBRANCH  72  73
ENDBRANCH  71  72
ENDBRANCH   1  71
TORSDOF 14
ENDMDL
