MODEL 1
REMARK VINA RESULT:     -11.0      0.000      0.000
REMARK SMILES CCC(CC)(NC(=O)N[C@H](C)C1CC1)C(=O)NCCCNC(=O)c1ccc(-c2c3nc(c(-c4cc(S(=O)(=O)[O-])ccc4F)c4ccc([nH]4)c(-c4cc(S(=O)(=O)[O-])ccc4F)c4nc(c(-c5cc(S(=O)(=O)[O-])ccc5F)c5ccc2[nH]5)C=C4)C=C3)cc1
REMARK SMILES IDX 19 1 18 2 17 3 15 4 16 5 3 7 2 8 1 9 4 10 5 11 6 12 7 13
REMARK SMILES IDX 8 15 9 16 10 18 11 19 12 20 13 21 14 22 20 23 21 24 22 25
REMARK SMILES IDX 23 27 24 28 25 29 86 30 26 31 85 32 27 33 28 34 29 35 79 36
REMARK SMILES IDX 30 37 84 38 78 39 80 40 31 41 83 42 77 43 76 44 32 46 64 47
REMARK SMILES IDX 44 48 63 49 45 50 48 51 62 52 81 53 46 54 47 55 61 57 82 58
REMARK SMILES IDX 49 59 33 60 34 61 42 62 35 63 41 64 43 65 40 66 36 67 37 68
REMARK SMILES IDX 38 69 39 70 65 71 66 72 74 73 67 74 73 75 75 76 72 77 68 78
REMARK SMILES IDX 69 79 70 80 71 81 50 82 51 83 59 84 52 85 58 86 60 87 57 88
REMARK SMILES IDX 53 89 54 90 55 91 56 92
REMARK H PARENT 17 6 6 14 9 17 21 26 80 45 48 56
REMARK Flexibility Score: inf
ROOT
ATOM      1  C   UNL A   1      34.413  21.918  24.673  1.00  0.00     0.042 C 
ENDROOT
BRANCH   1   2
ATOM      2  C   UNL A   1      32.856  21.814  24.847  1.00  0.00     0.117 C 
BRANCH   2   3
ATOM      3  N   UNL A   1      32.177  22.544  25.939  1.00  0.00    -0.354 N 
ATOM      4  C   UNL A   1      31.681  23.787  26.260  1.00  0.00     0.245 C 
ATOM      5  O   UNL A   1      30.926  23.705  27.250  1.00  0.00    -0.272 OA
ATOM      6  H   UNL A   1      32.029  21.931  26.695  1.00  0.00     0.163 HD
BRANCH   4   7
ATOM      7  C   UNL A   1      31.944  25.278  25.634  1.00  0.00     0.120 C 
BRANCH   7   8
ATOM      8  C   UNL A   1      31.625  25.225  24.089  1.00  0.00     0.035 C 
ATOM      9  C   UNL A   1      30.172  25.217  23.642  1.00  0.00     0.007 C 
ENDBRANCH   7   8
BRANCH   7  10
ATOM     10  C   UNL A   1      33.424  25.704  25.886  1.00  0.00     0.035 C 
ATOM     11  C   UNL A   1      34.402  25.468  24.721  1.00  0.00     0.007 C 
ENDBRANCH   7  10
BRANCH   7  12
ATOM     12  N   UNL A   1      31.097  26.433  26.103  1.00  0.00    -0.324 N 
ATOM     13  C   UNL A   1      31.470  27.612  26.666  1.00  0.00     0.315 C 
ATOM     14  H   UNL A   1      30.127  26.316  25.985  1.00  0.00     0.166 HD
ATOM     15  O   UNL A   1      31.352  27.794  27.873  1.00  0.00    -0.249 OA
ATOM     16  N   UNL A   1      31.687  28.642  25.819  1.00  0.00    -0.335 N 
ATOM     17  H   UNL A   1      31.873  29.528  26.208  1.00  0.00     0.165 HD
BRANCH  16  18
ATOM     18  C   UNL A   1      31.667  28.527  24.387  1.00  0.00     0.083 C 
ATOM     19  C   UNL A   1      33.009  28.801  23.750  1.00  0.00     0.031 C 
BRANCH  18  20
ATOM     20  C   UNL A   1      30.409  29.161  23.830  1.00  0.00     0.011 C 
ATOM     21  C   UNL A   1      30.330  29.524  22.371  1.00  0.00     0.006 C 
ATOM     22  C   UNL A   1      29.320  28.586  22.955  1.00  0.00     0.006 C 
ENDBRANCH  18  20
ENDBRANCH  16  18
ENDBRANCH   7  12
ENDBRANCH   4   7
ENDBRANCH   2   3
ENDBRANCH   1   2
BRANCH   1  23
ATOM     23  C   UNL A   1      35.432  21.958  25.835  1.00  0.00     0.118 C 
BRANCH  23  24
ATOM     24  N   UNL A   1      36.525  20.995  25.698  1.00  0.00    -0.352 N 
ATOM     25  C   UNL A   1      37.903  21.093  25.653  1.00  0.00     0.251 C 
ATOM     26  H   UNL A   1      36.206  20.067  25.620  1.00  0.00     0.163 HD
ATOM     27  O   UNL A   1      38.509  20.055  25.371  1.00  0.00    -0.269 OA
BRANCH  25  28
ATOM     28  C   UNL A   1      38.720  22.328  25.904  1.00  0.00     0.039 A 
ATOM     29  C   UNL A   1      39.923  22.179  26.624  1.00  0.00     0.014 A 
ATOM     30  C   UNL A   1      38.290  23.629  25.632  1.00  0.00     0.014 A 
ATOM     31  C   UNL A   1      40.692  23.290  27.030  1.00  0.00     0.010 A 
ATOM     32  C   UNL A   1      39.076  24.744  26.014  1.00  0.00     0.010 A 
ATOM     33  C   UNL A   1      40.285  24.596  26.722  1.00  0.00    -0.014 A 
BRANCH  33  34
ATOM     34  C   UNL A   1      41.081  25.793  27.166  1.00  0.00     0.031 A 
ATOM     35  C   UNL A   1      40.456  26.849  28.053  1.00  0.00     0.074 A 
ATOM     36  C   UNL A   1      42.357  25.972  26.761  1.00  0.00     0.049 A 
ATOM     37  N   UNL A   1      40.932  28.009  28.436  1.00  0.00    -0.248 NA
ATOM     38  C   UNL A   1      39.110  26.558  28.560  1.00  0.00     0.031 C 
ATOM     39  C   UNL A   1      43.113  25.043  25.922  1.00  0.00     0.029 A 
ATOM     40  N   UNL A   1      43.242  27.007  26.983  1.00  0.00    -0.354 N 
ATOM     41  C   UNL A   1      39.933  28.603  29.206  1.00  0.00     0.074 A 
ATOM     42  C   UNL A   1      38.815  27.680  29.204  1.00  0.00     0.031 C 
ATOM     43  C   UNL A   1      44.338  25.547  25.697  1.00  0.00     0.029 A 
ATOM     44  C   UNL A   1      44.450  26.857  26.335  1.00  0.00     0.049 A 
ATOM     45  H   UNL A   1      43.031  27.780  27.553  1.00  0.00     0.167 HD
ATOM     46  C   UNL A   1      39.943  29.795  29.859  1.00  0.00     0.034 A 
ATOM     47  C   UNL A   1      45.515  27.682  26.237  1.00  0.00     0.034 A 
ATOM     48  C   UNL A   1      41.065  30.707  29.882  1.00  0.00     0.049 A 
ATOM     49  C   UNL A   1      45.495  29.019  26.938  1.00  0.00     0.074 A 
ATOM     50  C   UNL A   1      41.181  31.920  30.543  1.00  0.00     0.029 A 
ATOM     51  N   UNL A   1      42.265  30.512  29.212  1.00  0.00    -0.354 N 
ATOM     52  N   UNL A   1      44.541  29.559  27.661  1.00  0.00    -0.248 NA
ATOM     53  C   UNL A   1      46.699  29.858  26.818  1.00  0.00     0.031 C 
ATOM     54  C   UNL A   1      42.422  32.482  30.227  1.00  0.00     0.029 A 
ATOM     55  C   UNL A   1      43.113  31.590  29.426  1.00  0.00     0.049 A 
ATOM     56  H   UNL A   1      42.483  29.724  28.665  1.00  0.00     0.167 HD
ATOM     57  C   UNL A   1      45.046  30.777  28.110  1.00  0.00     0.074 A 
ATOM     58  C   UNL A   1      46.385  30.897  27.579  1.00  0.00     0.031 C 
ATOM     59  C   UNL A   1      44.453  31.706  28.901  1.00  0.00     0.034 A 
BRANCH  46  60
ATOM     60  C   UNL A   1      38.677  30.206  30.579  1.00  0.00     0.023 A 
ATOM     61  C   UNL A   1      37.669  30.948  29.938  1.00  0.00     0.031 A 
ATOM     62  C   UNL A   1      38.484  29.869  31.932  1.00  0.00     0.131 A 
ATOM     63  C   UNL A   1      36.560  31.401  30.671  1.00  0.00     0.055 A 
ATOM     64  C   UNL A   1      37.337  30.250  32.632  1.00  0.00     0.041 A 
ATOM     65  F   UNL A   1      39.415  29.170  32.601  1.00  0.00    -0.206 F 
ATOM     66  C   UNL A   1      36.375  31.036  32.007  1.00  0.00     0.022 A 
BRANCH  63  67
ATOM     67  S   UNL A   1      35.439  32.592  29.886  1.00  0.00     0.124 S 
ATOM     68  O   UNL A   1      34.382  32.705  30.896  1.00  0.00    -0.237 OA
ATOM     69  O   UNL A   1      36.279  33.753  29.705  1.00  0.00    -0.237 OA
ATOM     70  O   UNL A   1      35.029  31.909  28.652  1.00  0.00    -0.744 OA
ENDBRANCH  63  67
ENDBRANCH  46  60
BRANCH  47  71
ATOM     71  C   UNL A   1      46.698  27.292  25.411  1.00  0.00     0.023 A 
ATOM     72  C   UNL A   1      46.882  27.802  24.115  1.00  0.00     0.031 A 
ATOM     73  C   UNL A   1      47.638  26.363  25.894  1.00  0.00     0.131 A 
ATOM     74  C   UNL A   1      47.957  27.352  23.332  1.00  0.00     0.055 A 
ATOM     75  C   UNL A   1      48.732  25.955  25.128  1.00  0.00     0.041 A 
ATOM     76  F   UNL A   1      47.510  25.844  27.124  1.00  0.00    -0.206 F 
ATOM     77  C   UNL A   1      48.891  26.442  23.834  1.00  0.00     0.022 A 
BRANCH  74  78
ATOM     78  S   UNL A   1      48.079  27.917  21.612  1.00  0.00     0.124 S 
ATOM     79  O   UNL A   1      46.789  28.569  21.420  1.00  0.00    -0.237 OA
ATOM     80  O   UNL A   1      49.242  28.797  21.666  1.00  0.00    -0.237 OA
ATOM     81  O   UNL A   1      48.272  26.680  20.859  1.00  0.00    -0.744 OA
ENDBRANCH  74  78
ENDBRANCH  47  71
BRANCH  59  82
ATOM     82  C   UNL A   1      45.276  32.905  29.306  1.00  0.00     0.023 A 
ATOM     83  C   UNL A   1      45.278  34.097  28.561  1.00  0.00     0.031 A 
ATOM     84  C   UNL A   1      46.064  32.850  30.471  1.00  0.00     0.131 A 
ATOM     85  C   UNL A   1      46.080  35.175  28.970  1.00  0.00     0.055 A 
ATOM     86  C   UNL A   1      46.825  33.941  30.897  1.00  0.00     0.041 A 
ATOM     87  F   UNL A   1      46.100  31.736  31.218  1.00  0.00    -0.206 F 
ATOM     88  C   UNL A   1      46.842  35.109  30.141  1.00  0.00     0.022 A 
BRANCH  85  89
ATOM     89  S   UNL A   1      46.162  36.655  27.923  1.00  0.00     0.124 S 
ATOM     90  O   UNL A   1      47.595  36.777  27.679  1.00  0.00    -0.237 OA
ATOM     91  O   UNL A   1      45.351  36.270  26.773  1.00  0.00    -0.237 OA
ATOM     92  O   UNL A   1      45.583  37.703  28.762  1.00  0.00    -0.744 OA
ENDBRANCH  85  89
ENDBRANCH  59  82
ENDBRANCH  33  34
ENDBRANCH  25  28
ENDBRANCH  23  24
ENDBRANCH   1  23
TORSDOF 18
ENDMDL
MODEL 2
REMARK VINA RESULT:     -10.9      5.145     10.229
REMARK SMILES CCC(CC)(NC(=O)N[C@H](C)C1CC1)C(=O)NCCCNC(=O)c1ccc(-c2c3nc(c(-c4cc(S(=O)(=O)[O-])ccc4F)c4ccc([nH]4)c(-c4cc(S(=O)(=O)[O-])ccc4F)c4nc(c(-c5cc(S(=O)(=O)[O-])ccc5F)c5ccc2[nH]5)C=C4)C=C3)cc1
REMARK SMILES IDX 19 1 18 2 17 3 15 4 16 5 3 7 2 8 1 9 4 10 5 11 6 12 7 13
REMARK SMILES IDX 8 15 9 16 10 18 11 19 12 20 13 21 14 22 20 23 21 24 22 25
REMARK SMILES IDX 23 27 24 28 25 29 86 30 26 31 85 32 27 33 28 34 29 35 79 36
REMARK SMILES IDX 30 37 84 38 78 39 80 40 31 41 83 42 77 43 76 44 32 46 64 47
REMARK SMILES IDX 44 48 63 49 45 50 48 51 62 52 81 53 46 54 47 55 61 57 82 58
REMARK SMILES IDX 49 59 33 60 34 61 42 62 35 63 41 64 43 65 40 66 36 67 37 68
REMARK SMILES IDX 38 69 39 70 65 71 66 72 74 73 67 74 73 75 75 76 72 77 68 78
REMARK SMILES IDX 69 79 70 80 71 81 50 82 51 83 59 84 52 85 58 86 60 87 57 88
REMARK SMILES IDX 53 89 54 90 55 91 56 92
REMARK H PARENT 17 6 6 14 9 17 21 26 80 45 48 56
REMARK Flexibility Score: inf
ROOT
ATOM      1  C   UNL A   1      31.071  29.278  24.361  1.00  0.00     0.042 C 
ENDROOT
BRANCH   1   2
ATOM      2  C   UNL A   1      31.239  28.700  22.910  1.00  0.00     0.117 C 
BRANCH   2   3
ATOM      3  N   UNL A   1      32.393  27.835  22.581  1.00  0.00    -0.354 N 
ATOM      4  C   UNL A   1      32.867  26.556  22.758  1.00  0.00     0.245 C 
ATOM      5  O   UNL A   1      33.799  26.329  21.959  1.00  0.00    -0.272 OA
ATOM      6  H   UNL A   1      33.045  28.353  22.055  1.00  0.00     0.163 HD
BRANCH   4   7
ATOM      7  C   UNL A   1      32.476  25.369  23.816  1.00  0.00     0.120 C 
BRANCH   7   8
ATOM      8  C   UNL A   1      33.413  24.130  23.533  1.00  0.00     0.035 C 
ATOM      9  C   UNL A   1      34.786  24.088  24.186  1.00  0.00     0.007 C 
ENDBRANCH   7   8
BRANCH   7  10
ATOM     10  C   UNL A   1      30.973  24.984  23.649  1.00  0.00     0.035 C 
ATOM     11  C   UNL A   1      30.696  23.597  23.043  1.00  0.00     0.007 C 
ENDBRANCH   7  10
BRANCH   7  12
ATOM     12  N   UNL A   1      32.680  25.602  25.292  1.00  0.00    -0.324 N 
ATOM     13  C   UNL A   1      31.766  25.691  26.292  1.00  0.00     0.315 C 
ATOM     14  H   UNL A   1      33.618  25.706  25.573  1.00  0.00     0.166 HD
ATOM     15  O   UNL A   1      31.452  26.782  26.757  1.00  0.00    -0.249 OA
ATOM     16  N   UNL A   1      31.454  24.541  26.930  1.00  0.00    -0.335 N 
ATOM     17  H   UNL A   1      30.861  24.595  27.714  1.00  0.00     0.165 HD
BRANCH  16  18
ATOM     18  C   UNL A   1      31.933  23.246  26.535  1.00  0.00     0.083 C 
ATOM     19  C   UNL A   1      30.828  22.309  26.108  1.00  0.00     0.031 C 
BRANCH  18  20
ATOM     20  C   UNL A   1      33.013  22.775  27.487  1.00  0.00     0.011 C 
ATOM     21  C   UNL A   1      33.725  21.472  27.236  1.00  0.00     0.006 C 
ATOM     22  C   UNL A   1      34.515  22.740  27.334  1.00  0.00     0.006 C 
ENDBRANCH  18  20
ENDBRANCH  16  18
ENDBRANCH   7  12
ENDBRANCH   4   7
ENDBRANCH   2   3
ENDBRANCH   1   2
BRANCH   1  23
ATOM     23  C   UNL A   1      32.230  29.794  25.246  1.00  0.00     0.118 C 
BRANCH  23  24
ATOM     24  N   UNL A   1      31.944  31.063  25.915  1.00  0.00    -0.352 N 
ATOM     25  C   UNL A   1      32.565  31.796  26.909  1.00  0.00     0.251 C 
ATOM     26  H   UNL A   1      31.122  31.492  25.582  1.00  0.00     0.163 HD
ATOM     27  O   UNL A   1      31.936  32.772  27.333  1.00  0.00    -0.269 OA
BRANCH  25  28
ATOM     28  C   UNL A   1      33.909  31.517  27.518  1.00  0.00     0.039 A 
ATOM     29  C   UNL A   1      34.181  30.194  27.920  1.00  0.00     0.014 A 
ATOM     30  C   UNL A   1      34.834  32.501  27.874  1.00  0.00     0.014 A 
ATOM     31  C   UNL A   1      35.355  29.855  28.624  1.00  0.00     0.010 A 
ATOM     32  C   UNL A   1      36.027  32.156  28.556  1.00  0.00     0.010 A 
ATOM     33  C   UNL A   1      36.307  30.831  28.946  1.00  0.00    -0.014 A 
BRANCH  33  34
ATOM     34  C   UNL A   1      37.555  30.492  29.716  1.00  0.00     0.031 A 
ATOM     35  C   UNL A   1      38.609  29.587  29.116  1.00  0.00     0.074 A 
ATOM     36  C   UNL A   1      37.750  30.958  30.969  1.00  0.00     0.049 A 
ATOM     37  N   UNL A   1      39.685  29.077  29.665  1.00  0.00    -0.248 NA
ATOM     38  C   UNL A   1      38.410  29.196  27.715  1.00  0.00     0.031 C 
ATOM     39  C   UNL A   1      36.844  31.855  31.685  1.00  0.00     0.029 A 
ATOM     40  N   UNL A   1      38.766  30.730  31.873  1.00  0.00    -0.354 N 
ATOM     41  C   UNL A   1      40.279  28.281  28.686  1.00  0.00     0.074 A 
ATOM     42  C   UNL A   1      39.418  28.356  27.522  1.00  0.00     0.031 C 
ATOM     43  C   UNL A   1      37.337  32.095  32.912  1.00  0.00     0.029 A 
ATOM     44  C   UNL A   1      38.574  31.339  33.095  1.00  0.00     0.049 A 
ATOM     45  H   UNL A   1      39.558  30.183  31.663  1.00  0.00     0.167 HD
ATOM     46  C   UNL A   1      41.432  27.562  28.743  1.00  0.00     0.034 A 
ATOM     47  C   UNL A   1      39.288  31.280  34.240  1.00  0.00     0.034 A 
ATOM     48  C   UNL A   1      42.303  27.503  29.895  1.00  0.00     0.049 A 
ATOM     49  C   UNL A   1      40.546  30.446  34.298  1.00  0.00     0.074 A 
ATOM     50  C   UNL A   1      43.508  26.831  30.034  1.00  0.00     0.029 A 
ATOM     51  N   UNL A   1      42.068  28.137  31.108  1.00  0.00    -0.354 N 
ATOM     52  N   UNL A   1      41.088  29.703  33.361  1.00  0.00    -0.248 NA
ATOM     53  C   UNL A   1      41.294  30.448  35.566  1.00  0.00     0.031 C 
ATOM     54  C   UNL A   1      43.968  27.009  31.344  1.00  0.00     0.029 A 
ATOM     55  C   UNL A   1      43.090  27.851  32.003  1.00  0.00     0.049 A 
ATOM     56  H   UNL A   1      41.289  28.705  31.304  1.00  0.00     0.167 HD
ATOM     57  C   UNL A   1      42.256  29.184  33.915  1.00  0.00     0.074 A 
ATOM     58  C   UNL A   1      42.343  29.695  35.265  1.00  0.00     0.031 C 
ATOM     59  C   UNL A   1      43.179  28.367  33.348  1.00  0.00     0.034 A 
BRANCH  46  60
ATOM     60  C   UNL A   1      41.800  26.740  27.528  1.00  0.00     0.023 A 
ATOM     61  C   UNL A   1      41.502  25.369  27.442  1.00  0.00     0.031 A 
ATOM     62  C   UNL A   1      42.481  27.332  26.446  1.00  0.00     0.131 A 
ATOM     63  C   UNL A   1      41.957  24.620  26.345  1.00  0.00     0.055 A 
ATOM     64  C   UNL A   1      42.855  26.598  25.318  1.00  0.00     0.041 A 
ATOM     65  F   UNL A   1      42.803  28.635  26.473  1.00  0.00    -0.206 F 
ATOM     66  C   UNL A   1      42.610  25.230  25.271  1.00  0.00     0.022 A 
BRANCH  63  67
ATOM     67  S   UNL A   1      41.805  22.814  26.415  1.00  0.00     0.124 S 
ATOM     68  O   UNL A   1      42.567  22.505  27.629  1.00  0.00    -0.237 OA
ATOM     69  O   UNL A   1      40.377  22.613  26.486  1.00  0.00    -0.237 OA
ATOM     70  O   UNL A   1      42.445  22.371  25.169  1.00  0.00    -0.744 OA
ENDBRANCH  63  67
ENDBRANCH  46  60
BRANCH  47  71
ATOM     71  C   UNL A   1      38.820  32.007  35.459  1.00  0.00     0.023 A 
ATOM     72  C   UNL A   1      38.231  31.322  36.535  1.00  0.00     0.031 A 
ATOM     73  C   UNL A   1      38.914  33.408  35.541  1.00  0.00     0.131 A 
ATOM     74  C   UNL A   1      37.724  32.041  37.629  1.00  0.00     0.055 A 
ATOM     75  C   UNL A   1      38.451  34.114  36.654  1.00  0.00     0.041 A 
ATOM     76  F   UNL A   1      39.466  34.112  34.541  1.00  0.00    -0.206 F 
ATOM     77  C   UNL A   1      37.842  33.432  37.702  1.00  0.00     0.022 A 
BRANCH  74  78
ATOM     78  S   UNL A   1      36.839  31.139  38.931  1.00  0.00     0.124 S 
ATOM     79  O   UNL A   1      37.773  31.234  40.047  1.00  0.00    -0.237 OA
ATOM     80  O   UNL A   1      35.610  31.916  39.054  1.00  0.00    -0.237 OA
ATOM     81  O   UNL A   1      36.673  29.802  38.366  1.00  0.00    -0.744 OA
ENDBRANCH  74  78
ENDBRANCH  47  71
BRANCH  59  82
ATOM     82  C   UNL A   1      44.406  28.030  34.161  1.00  0.00     0.023 A 
ATOM     83  C   UNL A   1      44.450  26.923  35.025  1.00  0.00     0.031 A 
ATOM     84  C   UNL A   1      45.556  28.834  34.053  1.00  0.00     0.131 A 
ATOM     85  C   UNL A   1      45.610  26.669  35.776  1.00  0.00     0.055 A 
ATOM     86  C   UNL A   1      46.722  28.550  34.768  1.00  0.00     0.041 A 
ATOM     87  F   UNL A   1      45.568  29.904  33.244  1.00  0.00    -0.206 F 
ATOM     88  C   UNL A   1      46.750  27.466  35.642  1.00  0.00     0.022 A 
BRANCH  85  89
ATOM     89  S   UNL A   1      45.597  25.309  36.977  1.00  0.00     0.124 S 
ATOM     90  O   UNL A   1      44.842  24.282  36.267  1.00  0.00    -0.237 OA
ATOM     91  O   UNL A   1      47.019  25.040  37.162  1.00  0.00    -0.237 OA
ATOM     92  O   UNL A   1      44.922  25.883  38.140  1.00  0.00    -0.744 OA
ENDBRANCH  85  89
ENDBRANCH  59  82
ENDBRANCH  33  34
ENDBRANCH  25  28
ENDBRANCH  23  24
ENDBRANCH   1  23
TORSDOF 18
ENDMDL
MODEL 3
REMARK VINA RESULT:     -10.7      1.363      2.032
REMARK SMILES CCC(CC)(NC(=O)N[C@H](C)C1CC1)C(=O)NCCCNC(=O)c1ccc(-c2c3nc(c(-c4cc(S(=O)(=O)[O-])ccc4F)c4ccc([nH]4)c(-c4cc(S(=O)(=O)[O-])ccc4F)c4nc(c(-c5cc(S(=O)(=O)[O-])ccc5F)c5ccc2[nH]5)C=C4)C=C3)cc1
REMARK SMILES IDX 19 1 18 2 17 3 15 4 16 5 3 7 2 8 1 9 4 10 5 11 6 12 7 13
REMARK SMILES IDX 8 15 9 16 10 18 11 19 12 20 13 21 14 22 20 23 21 24 22 25
REMARK SMILES IDX 23 27 24 28 25 29 86 30 26 31 85 32 27 33 28 34 29 35 79 36
REMARK SMILES IDX 30 37 84 38 78 39 80 40 31 41 83 42 77 43 76 44 32 46 64 47
REMARK SMILES IDX 44 48 63 49 45 50 48 51 62 52 81 53 46 54 47 55 61 57 82 58
REMARK SMILES IDX 49 59 33 60 34 61 42 62 35 63 41 64 43 65 40 66 36 67 37 68
REMARK SMILES IDX 38 69 39 70 65 71 66 72 74 73 67 74 73 75 75 76 72 77 68 78
REMARK SMILES IDX 69 79 70 80 71 81 50 82 51 83 59 84 52 85 58 86 60 87 57 88
REMARK SMILES IDX 53 89 54 90 55 91 56 92
REMARK H PARENT 17 6 6 14 9 17 21 26 80 45 48 56
REMARK Flexibility Score: inf
ROOT
ATOM      1  C   UNL A   1      35.553  22.534  24.018  1.00  0.00     0.042 C 
ENDROOT
BRANCH   1   2
ATOM      2  C   UNL A   1      34.162  22.575  23.290  1.00  0.00     0.117 C 
BRANCH   2   3
ATOM      3  N   UNL A   1      33.784  23.745  22.469  1.00  0.00    -0.354 N 
ATOM      4  C   UNL A   1      33.457  25.078  22.575  1.00  0.00     0.245 C 
ATOM      5  O   UNL A   1      33.533  25.629  21.458  1.00  0.00    -0.272 OA
ATOM      6  H   UNL A   1      33.758  23.480  21.521  1.00  0.00     0.163 HD
BRANCH   4   7
ATOM      7  C   UNL A   1      32.958  25.996  23.837  1.00  0.00     0.120 C 
BRANCH   7   8
ATOM      8  C   UNL A   1      34.023  25.861  24.994  1.00  0.00     0.035 C 
ATOM      9  C   UNL A   1      33.737  24.906  26.143  1.00  0.00     0.007 C 
ENDBRANCH   7   8
BRANCH   7  10
ATOM     10  C   UNL A   1      31.550  25.520  24.313  1.00  0.00     0.035 C 
ATOM     11  C   UNL A   1      30.642  24.912  23.229  1.00  0.00     0.007 C 
ENDBRANCH   7  10
BRANCH   7  12
ATOM     12  N   UNL A   1      32.852  27.490  23.663  1.00  0.00    -0.324 N 
ATOM     13  C   UNL A   1      31.794  28.316  23.872  1.00  0.00     0.315 C 
ATOM     14  H   UNL A   1      33.672  27.934  23.351  1.00  0.00     0.166 HD
ATOM     15  O   UNL A   1      31.140  28.746  22.927  1.00  0.00    -0.249 OA
ATOM     16  N   UNL A   1      31.686  28.858  25.105  1.00  0.00    -0.335 N 
ATOM     17  H   UNL A   1      30.979  29.528  25.254  1.00  0.00     0.165 HD
BRANCH  16  18
ATOM     18  C   UNL A   1      32.537  28.521  26.211  1.00  0.00     0.083 C 
ATOM     19  C   UNL A   1      31.776  28.013  27.413  1.00  0.00     0.031 C 
BRANCH  18  20
ATOM     20  C   UNL A   1      33.621  29.566  26.374  1.00  0.00     0.011 C 
ATOM     21  C   UNL A   1      33.710  30.368  27.646  1.00  0.00     0.006 C 
ATOM     22  C   UNL A   1      34.885  29.554  27.202  1.00  0.00     0.006 C 
ENDBRANCH  18  20
ENDBRANCH  16  18
ENDBRANCH   7  12
ENDBRANCH   4   7
ENDBRANCH   2   3
ENDBRANCH   1   2
BRANCH   1  23
ATOM     23  C   UNL A   1      35.821  21.838  25.373  1.00  0.00     0.118 C 
BRANCH  23  24
ATOM     24  N   UNL A   1      36.925  20.878  25.337  1.00  0.00    -0.352 N 
ATOM     25  C   UNL A   1      38.280  20.949  25.603  1.00  0.00     0.251 C 
ATOM     26  H   UNL A   1      36.637  19.978  25.061  1.00  0.00     0.163 HD
ATOM     27  O   UNL A   1      38.940  19.946  25.313  1.00  0.00    -0.269 OA
BRANCH  25  28
ATOM     28  C   UNL A   1      39.014  22.116  26.197  1.00  0.00     0.039 A 
ATOM     29  C   UNL A   1      38.574  23.409  25.847  1.00  0.00     0.014 A 
ATOM     30  C   UNL A   1      40.202  22.015  26.924  1.00  0.00     0.014 A 
ATOM     31  C   UNL A   1      39.278  24.568  26.240  1.00  0.00     0.010 A 
ATOM     32  C   UNL A   1      40.893  23.178  27.343  1.00  0.00     0.010 A 
ATOM     33  C   UNL A   1      40.448  24.472  27.006  1.00  0.00    -0.014 A 
BRANCH  33  34
ATOM     34  C   UNL A   1      41.223  25.695  27.415  1.00  0.00     0.031 A 
ATOM     35  C   UNL A   1      40.585  26.757  28.286  1.00  0.00     0.074 A 
ATOM     36  C   UNL A   1      42.491  25.891  26.993  1.00  0.00     0.049 A 
ATOM     37  N   UNL A   1      41.041  27.935  28.638  1.00  0.00    -0.248 NA
ATOM     38  C   UNL A   1      39.250  26.450  28.813  1.00  0.00     0.031 C 
ATOM     39  C   UNL A   1      43.257  24.959  26.167  1.00  0.00     0.029 A 
ATOM     40  N   UNL A   1      43.357  26.948  27.183  1.00  0.00    -0.354 N 
ATOM     41  C   UNL A   1      40.038  28.525  29.406  1.00  0.00     0.074 A 
ATOM     42  C   UNL A   1      38.939  27.579  29.436  1.00  0.00     0.031 C 
ATOM     43  C   UNL A   1      44.469  25.483  25.917  1.00  0.00     0.029 A 
ATOM     44  C   UNL A   1      44.560  26.809  26.525  1.00  0.00     0.049 A 
ATOM     45  H   UNL A   1      43.135  27.730  27.739  1.00  0.00     0.167 HD
ATOM     46  C   UNL A   1      40.030  29.731  30.034  1.00  0.00     0.034 A 
ATOM     47  C   UNL A   1      45.607  27.653  26.399  1.00  0.00     0.034 A 
ATOM     48  C   UNL A   1      41.133  30.666  30.024  1.00  0.00     0.049 A 
ATOM     49  C   UNL A   1      45.567  29.005  27.071  1.00  0.00     0.074 A 
ATOM     50  C   UNL A   1      41.231  31.895  30.658  1.00  0.00     0.029 A 
ATOM     51  N   UNL A   1      42.331  30.481  29.346  1.00  0.00    -0.354 N 
ATOM     52  N   UNL A   1      44.609  29.540  27.792  1.00  0.00    -0.248 NA
ATOM     53  C   UNL A   1      46.752  29.864  26.920  1.00  0.00     0.031 C 
ATOM     54  C   UNL A   1      42.457  32.476  30.317  1.00  0.00     0.029 A 
ATOM     55  C   UNL A   1      43.158  31.580  29.528  1.00  0.00     0.049 A 
ATOM     56  H   UNL A   1      42.559  29.685  28.814  1.00  0.00     0.167 HD
ATOM     57  C   UNL A   1      45.093  30.778  28.209  1.00  0.00     0.074 A 
ATOM     58  C   UNL A   1      46.425  30.914  27.661  1.00  0.00     0.031 C 
ATOM     59  C   UNL A   1      44.490  31.712  28.987  1.00  0.00     0.034 A 
BRANCH  46  60
ATOM     60  C   UNL A   1      38.763  30.131  30.757  1.00  0.00     0.023 A 
ATOM     61  C   UNL A   1      37.841  31.031  30.194  1.00  0.00     0.031 A 
ATOM     62  C   UNL A   1      38.483  29.622  32.039  1.00  0.00     0.131 A 
ATOM     63  C   UNL A   1      36.734  31.460  30.943  1.00  0.00     0.055 A 
ATOM     64  C   UNL A   1      37.334  29.987  32.744  1.00  0.00     0.041 A 
ATOM     65  F   UNL A   1      39.329  28.767  32.634  1.00  0.00    -0.206 F 
ATOM     66  C   UNL A   1      36.460  30.925  32.204  1.00  0.00     0.022 A 
BRANCH  63  67
ATOM     67  S   UNL A   1      35.738  32.832  30.298  1.00  0.00     0.124 S 
ATOM     68  O   UNL A   1      36.416  33.988  30.894  1.00  0.00    -0.237 OA
ATOM     69  O   UNL A   1      35.869  32.680  28.867  1.00  0.00    -0.237 OA
ATOM     70  O   UNL A   1      34.401  32.567  30.843  1.00  0.00    -0.744 OA
ENDBRANCH  63  67
ENDBRANCH  46  60
BRANCH  47  71
ATOM     71  C   UNL A   1      46.790  27.270  25.569  1.00  0.00     0.023 A 
ATOM     72  C   UNL A   1      46.947  27.750  24.258  1.00  0.00     0.031 A 
ATOM     73  C   UNL A   1      47.756  26.375  26.064  1.00  0.00     0.131 A 
ATOM     74  C   UNL A   1      48.023  27.304  23.474  1.00  0.00     0.055 A 
ATOM     75  C   UNL A   1      48.851  25.973  25.295  1.00  0.00     0.041 A 
ATOM     76  F   UNL A   1      47.654  25.884  27.309  1.00  0.00    -0.206 F 
ATOM     77  C   UNL A   1      48.983  26.429  23.988  1.00  0.00     0.022 A 
BRANCH  74  78
ATOM     78  S   UNL A   1      48.113  27.828  21.739  1.00  0.00     0.124 S 
ATOM     79  O   UNL A   1      46.818  28.476  21.556  1.00  0.00    -0.237 OA
ATOM     80  O   UNL A   1      49.276  28.709  21.749  1.00  0.00    -0.237 OA
ATOM     81  O   UNL A   1      48.292  26.573  21.013  1.00  0.00    -0.744 OA
ENDBRANCH  74  78
ENDBRANCH  47  71
BRANCH  59  82
ATOM     82  C   UNL A   1      45.293  32.936  29.356  1.00  0.00     0.023 A 
ATOM     83  C   UNL A   1      45.377  34.058  28.513  1.00  0.00     0.031 A 
ATOM     84  C   UNL A   1      45.974  32.978  30.587  1.00  0.00     0.131 A 
ATOM     85  C   UNL A   1      46.157  35.161  28.896  1.00  0.00     0.055 A 
ATOM     86  C   UNL A   1      46.711  34.097  30.982  1.00  0.00     0.041 A 
ATOM     87  F   UNL A   1      45.928  31.934  31.429  1.00  0.00    -0.206 F 
ATOM     88  C   UNL A   1      46.812  35.194  30.131  1.00  0.00     0.022 A 
BRANCH  85  89
ATOM     89  S   UNL A   1      46.352  36.542  27.735  1.00  0.00     0.124 S 
ATOM     90  O   UNL A   1      47.468  37.277  28.321  1.00  0.00    -0.237 OA
ATOM     91  O   UNL A   1      46.631  35.857  26.477  1.00  0.00    -0.237 OA
ATOM     92  O   UNL A   1      45.060  37.225  27.792  1.00  0.00    -0.744 OA
ENDBRANCH  85  89
ENDBRANCH  59  82
ENDBRANCH  33  34
ENDBRANCH  25  28
ENDBRANCH  23  24
ENDBRANCH   1  23
TORSDOF 18
ENDMDL
