MODEL 1
REMARK VINA RESULT:     -11.3      0.000      0.000
REMARK SMILES CN(CCO)C(=O)N[C@H]1C=C[C@@H](C(=O)NCCCNC(=O)c2ccc(-c3c4nc(c(-c5cc(S(=O)(=O)[O-])ccc5F)c5ccc([nH]5)c(-c5cc(S(=O)(=O)[O-])ccc5F)c5nc(c(-c6cc(S(=O)(=O)[O-])ccc6F)c6ccc3[nH]6)C=C5)C=C4)cc2)C1
REMARK SMILES IDX 16 1 15 2 13 3 14 4 12 6 9 7 10 8 85 9 11 10 8 11 6 12 7 13
REMARK SMILES IDX 2 15 1 16 3 17 4 18 5 19 17 21 18 22 19 23 20 24 21 26 22 27
REMARK SMILES IDX 23 28 84 29 24 30 83 31 25 32 26 33 27 34 77 35 28 36 82 37
REMARK SMILES IDX 76 38 78 39 29 40 81 41 75 42 74 43 30 45 62 46 42 47 61 48
REMARK SMILES IDX 43 49 46 50 60 51 79 52 44 53 45 54 59 56 80 57 47 58 31 59
REMARK SMILES IDX 32 60 40 61 33 62 39 63 41 64 38 65 34 66 35 67 36 68 37 69
REMARK SMILES IDX 63 70 64 71 72 72 65 73 71 74 73 75 70 76 66 77 67 78 68 79
REMARK SMILES IDX 69 80 48 81 49 82 57 83 50 84 56 85 58 86 55 87 51 88 52 89
REMARK SMILES IDX 53 90 54 91
REMARK H PARENT 15 5 8 14 5 20 19 25 78 44 46 55
REMARK Flexibility Score: inf
ROOT
ATOM      1  C   UNL A   1      35.624  20.169  25.044  1.00  0.00     0.117 C 
ENDROOT
BRANCH   1   2
ATOM      2  N   UNL A   1      34.344  20.388  25.730  1.00  0.00    -0.356 N 
ATOM      3  C   UNL A   1      33.130  19.948  25.279  1.00  0.00     0.227 C 
ATOM      4  O   UNL A   1      32.670  18.933  25.821  1.00  0.00    -0.274 OA
ATOM      5  H   UNL A   1      34.362  20.889  26.579  1.00  0.00     0.163 HD
BRANCH   3   6
ATOM      6  C   UNL A   1      32.216  20.829  24.398  1.00  0.00     0.103 C 
ATOM      7  C   UNL A   1      32.096  22.545  22.655  1.00  0.00     0.107 C 
ATOM      8  C   UNL A   1      32.014  21.191  22.062  1.00  0.00    -0.006 C 
ATOM      9  C   UNL A   1      32.507  22.309  24.120  1.00  0.00     0.047 C 
ATOM     10  C   UNL A   1      32.061  20.249  23.012  1.00  0.00    -0.016 C 
BRANCH   7  11
ATOM     11  N   UNL A   1      32.854  23.535  21.902  1.00  0.00    -0.332 N 
ATOM     12  C   UNL A   1      32.875  24.868  21.722  1.00  0.00     0.317 C 
ATOM     13  O   UNL A   1      33.185  25.239  20.587  1.00  0.00    -0.249 OA
ATOM     14  H   UNL A   1      33.559  23.101  21.369  1.00  0.00     0.165 HD
BRANCH  12  15
ATOM     15  N   UNL A   1      32.574  25.768  22.704  1.00  0.00    -0.326 N 
ATOM     16  C   UNL A   1      31.229  26.345  22.674  1.00  0.00     0.148 C 
BRANCH  15  17
ATOM     17  C   UNL A   1      33.580  26.564  23.421  1.00  0.00     0.149 C 
BRANCH  17  18
ATOM     18  C   UNL A   1      33.630  27.999  22.903  1.00  0.00     0.177 C 
BRANCH  18  19
ATOM     19  O   UNL A   1      34.025  27.987  21.545  1.00  0.00    -0.395 OA
ATOM     20  H   UNL A   1      34.974  28.177  21.482  1.00  0.00     0.210 HD
ENDBRANCH  18  19
ENDBRANCH  17  18
ENDBRANCH  15  17
ENDBRANCH  12  15
ENDBRANCH   7  11
ENDBRANCH   3   6
ENDBRANCH   1   2
BRANCH   1  21
ATOM     21  C   UNL A   1      36.285  21.455  24.565  1.00  0.00     0.042 C 
BRANCH  21  22
ATOM     22  C   UNL A   1      37.354  21.984  25.510  1.00  0.00     0.118 C 
BRANCH  22  23
ATOM     23  N   UNL A   1      38.477  21.089  25.743  1.00  0.00    -0.352 N 
ATOM     24  C   UNL A   1      39.693  21.382  26.336  1.00  0.00     0.251 C 
ATOM     25  H   UNL A   1      38.357  20.160  25.442  1.00  0.00     0.163 HD
ATOM     26  O   UNL A   1      40.561  20.510  26.380  1.00  0.00    -0.269 OA
BRANCH  24  27
ATOM     27  C   UNL A   1      39.981  22.751  26.850  1.00  0.00     0.039 A 
ATOM     28  C   UNL A   1      40.881  22.910  27.910  1.00  0.00     0.014 A 
ATOM     29  C   UNL A   1      39.407  23.886  26.278  1.00  0.00     0.014 A 
ATOM     30  C   UNL A   1      41.280  24.194  28.310  1.00  0.00     0.010 A 
ATOM     31  C   UNL A   1      39.888  25.155  26.595  1.00  0.00     0.010 A 
ATOM     32  C   UNL A   1      40.835  25.330  27.613  1.00  0.00    -0.014 A 
BRANCH  32  33
ATOM     33  C   UNL A   1      41.340  26.701  27.913  1.00  0.00     0.031 A 
ATOM     34  C   UNL A   1      42.753  27.088  27.546  1.00  0.00     0.074 A 
ATOM     35  C   UNL A   1      40.575  27.562  28.616  1.00  0.00     0.049 A 
ATOM     36  N   UNL A   1      43.425  28.171  27.846  1.00  0.00    -0.248 NA
ATOM     37  C   UNL A   1      43.527  26.097  26.784  1.00  0.00     0.031 C 
ATOM     38  C   UNL A   1      39.220  27.288  29.101  1.00  0.00     0.029 A 
ATOM     39  N   UNL A   1      40.829  28.836  29.061  1.00  0.00    -0.354 N 
ATOM     40  C   UNL A   1      44.708  27.973  27.344  1.00  0.00     0.074 A 
ATOM     41  C   UNL A   1      44.736  26.637  26.788  1.00  0.00     0.031 C 
ATOM     42  C   UNL A   1      38.751  28.371  29.742  1.00  0.00     0.029 A 
ATOM     43  C   UNL A   1      39.785  29.400  29.759  1.00  0.00     0.049 A 
ATOM     44  H   UNL A   1      41.679  29.305  28.895  1.00  0.00     0.167 HD
ATOM     45  C   UNL A   1      45.759  28.834  27.321  1.00  0.00     0.034 A 
ATOM     46  C   UNL A   1      39.674  30.605  30.355  1.00  0.00     0.034 A 
ATOM     47  C   UNL A   1      45.700  30.179  27.843  1.00  0.00     0.049 A 
ATOM     48  C   UNL A   1      40.836  31.561  30.288  1.00  0.00     0.074 A 
ATOM     49  C   UNL A   1      46.671  31.164  27.801  1.00  0.00     0.029 A 
ATOM     50  N   UNL A   1      44.608  30.729  28.501  1.00  0.00    -0.354 N 
ATOM     51  N   UNL A   1      42.024  31.381  29.756  1.00  0.00    -0.248 NA
ATOM     52  C   UNL A   1      40.641  32.886  30.889  1.00  0.00     0.031 C 
ATOM     53  C   UNL A   1      46.189  32.287  28.483  1.00  0.00     0.029 A 
ATOM     54  C   UNL A   1      44.889  32.031  28.888  1.00  0.00     0.049 A 
ATOM     55  H   UNL A   1      43.756  30.262  28.668  1.00  0.00     0.167 HD
ATOM     56  C   UNL A   1      42.704  32.582  29.933  1.00  0.00     0.074 A 
ATOM     57  C   UNL A   1      41.790  33.481  30.607  1.00  0.00     0.031 C 
ATOM     58  C   UNL A   1      43.969  32.914  29.567  1.00  0.00     0.034 A 
BRANCH  45  59
ATOM     59  C   UNL A   1      47.056  28.334  26.724  1.00  0.00     0.023 A 
ATOM     60  C   UNL A   1      47.280  28.341  25.334  1.00  0.00     0.031 A 
ATOM     61  C   UNL A   1      48.065  27.799  27.544  1.00  0.00     0.131 A 
ATOM     62  C   UNL A   1      48.426  27.732  24.804  1.00  0.00     0.055 A 
ATOM     63  C   UNL A   1      49.250  27.281  27.016  1.00  0.00     0.041 A 
ATOM     64  F   UNL A   1      47.908  27.748  28.877  1.00  0.00    -0.206 F 
ATOM     65  C   UNL A   1      49.427  27.226  25.636  1.00  0.00     0.022 A 
BRANCH  62  66
ATOM     66  S   UNL A   1      48.505  27.454  23.014  1.00  0.00     0.124 S 
ATOM     67  O   UNL A   1      48.434  25.996  22.940  1.00  0.00    -0.237 OA
ATOM     68  O   UNL A   1      47.333  28.176  22.530  1.00  0.00    -0.237 OA
ATOM     69  O   UNL A   1      49.794  28.027  22.633  1.00  0.00    -0.744 OA
ENDBRANCH  62  66
ENDBRANCH  45  59
BRANCH  46  70
ATOM     70  C   UNL A   1      38.413  30.985  31.057  1.00  0.00     0.023 A 
ATOM     71  C   UNL A   1      37.370  31.627  30.371  1.00  0.00     0.031 A 
ATOM     72  C   UNL A   1      38.241  30.734  32.430  1.00  0.00     0.131 A 
ATOM     73  C   UNL A   1      36.220  32.034  31.064  1.00  0.00     0.055 A 
ATOM     74  C   UNL A   1      37.074  31.096  33.106  1.00  0.00     0.041 A 
ATOM     75  F   UNL A   1      39.204  30.117  33.133  1.00  0.00    -0.206 F 
ATOM     76  C   UNL A   1      36.058  31.761  32.424  1.00  0.00     0.022 A 
BRANCH  73  77
ATOM     77  S   UNL A   1      34.961  32.992  30.174  1.00  0.00     0.124 S 
ATOM     78  O   UNL A   1      35.757  34.076  29.610  1.00  0.00    -0.237 OA
ATOM     79  O   UNL A   1      34.448  32.011  29.225  1.00  0.00    -0.237 OA
ATOM     80  O   UNL A   1      34.027  33.386  31.226  1.00  0.00    -0.744 OA
ENDBRANCH  73  77
ENDBRANCH  46  70
BRANCH  58  81
ATOM     81  C   UNL A   1      44.415  34.326  29.849  1.00  0.00     0.023 A 
ATOM     82  C   UNL A   1      44.169  35.376  28.946  1.00  0.00     0.031 A 
ATOM     83  C   UNL A   1      45.106  34.623  31.038  1.00  0.00     0.131 A 
ATOM     84  C   UNL A   1      44.656  36.663  29.223  1.00  0.00     0.055 A 
ATOM     85  C   UNL A   1      45.536  35.917  31.334  1.00  0.00     0.041 A 
ATOM     86  F   UNL A   1      45.370  33.659  31.934  1.00  0.00    -0.206 F 
ATOM     87  C   UNL A   1      45.323  36.943  30.418  1.00  0.00     0.022 A 
BRANCH  84  88
ATOM     88  S   UNL A   1      44.481  37.950  27.958  1.00  0.00     0.124 S 
ATOM     89  O   UNL A   1      43.472  37.373  27.075  1.00  0.00    -0.237 OA
ATOM     90  O   UNL A   1      44.055  39.104  28.742  1.00  0.00    -0.237 OA
ATOM     91  O   UNL A   1      45.821  38.052  27.383  1.00  0.00    -0.744 OA
ENDBRANCH  84  88
ENDBRANCH  58  81
ENDBRANCH  32  33
ENDBRANCH  24  27
ENDBRANCH  22  23
ENDBRANCH  21  22
ENDBRANCH   1  21
TORSDOF 18
ENDMDL
MODEL 2
REMARK VINA RESULT:     -11.1      1.228      7.746
REMARK SMILES CN(CCO)C(=O)N[C@H]1C=C[C@@H](C(=O)NCCCNC(=O)c2ccc(-c3c4nc(c(-c5cc(S(=O)(=O)[O-])ccc5F)c5ccc([nH]5)c(-c5cc(S(=O)(=O)[O-])ccc5F)c5nc(c(-c6cc(S(=O)(=O)[O-])ccc6F)c6ccc3[nH]6)C=C5)C=C4)cc2)C1
REMARK SMILES IDX 16 1 15 2 13 3 14 4 12 6 9 7 10 8 85 9 11 10 8 11 6 12 7 13
REMARK SMILES IDX 2 15 1 16 3 17 4 18 5 19 17 21 18 22 19 23 20 24 21 26 22 27
REMARK SMILES IDX 23 28 84 29 24 30 83 31 25 32 26 33 27 34 77 35 28 36 82 37
REMARK SMILES IDX 76 38 78 39 29 40 81 41 75 42 74 43 30 45 62 46 42 47 61 48
REMARK SMILES IDX 43 49 46 50 60 51 79 52 44 53 45 54 59 56 80 57 47 58 31 59
REMARK SMILES IDX 32 60 40 61 33 62 39 63 41 64 38 65 34 66 35 67 36 68 37 69
REMARK SMILES IDX 63 70 64 71 72 72 65 73 71 74 73 75 70 76 66 77 67 78 68 79
REMARK SMILES IDX 69 80 48 81 49 82 57 83 50 84 56 85 58 86 55 87 51 88 52 89
REMARK SMILES IDX 53 90 54 91
REMARK H PARENT 15 5 8 14 5 20 19 25 78 44 46 55
REMARK Flexibility Score: inf
ROOT
ATOM      1  C   UNL A   1      35.371  20.322  25.303  1.00  0.00     0.117 C 
ENDROOT
BRANCH   1   2
ATOM      2  N   UNL A   1      33.993  20.384  25.806  1.00  0.00    -0.356 N 
ATOM      3  C   UNL A   1      32.876  20.112  25.061  1.00  0.00     0.227 C 
ATOM      4  O   UNL A   1      32.353  19.002  25.230  1.00  0.00    -0.274 OA
ATOM      5  H   UNL A   1      33.862  20.639  26.748  1.00  0.00     0.163 HD
BRANCH   3   6
ATOM      6  C   UNL A   1      32.103  21.221  24.312  1.00  0.00     0.103 C 
ATOM      7  C   UNL A   1      32.241  23.327  23.072  1.00  0.00     0.107 C 
ATOM      8  C   UNL A   1      32.255  22.173  22.145  1.00  0.00    -0.006 C 
ATOM      9  C   UNL A   1      32.427  22.711  24.470  1.00  0.00     0.047 C 
ATOM     10  C   UNL A   1      32.162  21.019  22.817  1.00  0.00    -0.016 C 
BRANCH   7  11
ATOM     11  N   UNL A   1      33.101  24.450  22.720  1.00  0.00    -0.332 N 
ATOM     12  C   UNL A   1      32.990  25.767  22.470  1.00  0.00     0.317 C 
ATOM     13  O   UNL A   1      33.762  26.205  21.614  1.00  0.00    -0.249 OA
ATOM     14  H   UNL A   1      34.038  24.158  22.641  1.00  0.00     0.165 HD
BRANCH  12  15
ATOM     15  N   UNL A   1      32.095  26.583  23.101  1.00  0.00    -0.326 N 
ATOM     16  C   UNL A   1      30.994  27.100  22.288  1.00  0.00     0.148 C 
BRANCH  15  17
ATOM     17  C   UNL A   1      32.409  27.371  24.301  1.00  0.00     0.149 C 
BRANCH  17  18
ATOM     18  C   UNL A   1      31.722  28.734  24.271  1.00  0.00     0.177 C 
BRANCH  18  19
ATOM     19  O   UNL A   1      32.692  29.746  24.461  1.00  0.00    -0.395 OA
ATOM     20  H   UNL A   1      32.978  29.751  25.387  1.00  0.00     0.210 HD
ENDBRANCH  18  19
ENDBRANCH  17  18
ENDBRANCH  15  17
ENDBRANCH  12  15
ENDBRANCH   7  11
ENDBRANCH   3   6
ENDBRANCH   1   2
BRANCH   1  21
ATOM     21  C   UNL A   1      35.989  21.692  25.053  1.00  0.00     0.042 C 
BRANCH  21  22
ATOM     22  C   UNL A   1      37.437  21.635  24.586  1.00  0.00     0.118 C 
BRANCH  22  23
ATOM     23  N   UNL A   1      38.215  20.522  25.107  1.00  0.00    -0.352 N 
ATOM     24  C   UNL A   1      39.283  20.565  25.987  1.00  0.00     0.251 C 
ATOM     25  H   UNL A   1      37.949  19.628  24.796  1.00  0.00     0.163 HD
ATOM     26  O   UNL A   1      39.873  19.520  26.261  1.00  0.00    -0.269 OA
BRANCH  24  27
ATOM     27  C   UNL A   1      39.762  21.863  26.542  1.00  0.00     0.039 A 
ATOM     28  C   UNL A   1      40.819  21.867  27.459  1.00  0.00     0.014 A 
ATOM     29  C   UNL A   1      39.212  23.081  26.142  1.00  0.00     0.014 A 
ATOM     30  C   UNL A   1      41.384  23.081  27.878  1.00  0.00     0.010 A 
ATOM     31  C   UNL A   1      39.845  24.279  26.466  1.00  0.00     0.010 A 
ATOM     32  C   UNL A   1      40.943  24.300  27.336  1.00  0.00    -0.014 A 
BRANCH  32  33
ATOM     33  C   UNL A   1      41.605  25.600  27.646  1.00  0.00     0.031 A 
ATOM     34  C   UNL A   1      40.873  26.657  28.437  1.00  0.00     0.074 A 
ATOM     35  C   UNL A   1      42.818  25.879  27.122  1.00  0.00     0.049 A 
ATOM     36  N   UNL A   1      41.214  27.896  28.687  1.00  0.00    -0.248 NA
ATOM     37  C   UNL A   1      39.556  26.281  28.971  1.00  0.00     0.031 C 
ATOM     38  C   UNL A   1      43.602  24.977  26.276  1.00  0.00     0.029 A 
ATOM     39  N   UNL A   1      43.598  27.006  27.210  1.00  0.00    -0.354 N 
ATOM     40  C   UNL A   1      40.139  28.456  29.371  1.00  0.00     0.074 A 
ATOM     41  C   UNL A   1      39.109  27.440  29.430  1.00  0.00     0.031 C 
ATOM     42  C   UNL A   1      44.763  25.570  25.953  1.00  0.00     0.029 A 
ATOM     43  C   UNL A   1      44.789  26.912  26.525  1.00  0.00     0.049 A 
ATOM     44  H   UNL A   1      43.331  27.808  27.716  1.00  0.00     0.167 HD
ATOM     45  C   UNL A   1      40.029  29.690  29.927  1.00  0.00     0.034 A 
ATOM     46  C   UNL A   1      45.786  27.806  26.367  1.00  0.00     0.034 A 
ATOM     47  C   UNL A   1      41.083  30.676  29.896  1.00  0.00     0.049 A 
ATOM     48  C   UNL A   1      45.663  29.158  27.022  1.00  0.00     0.074 A 
ATOM     49  C   UNL A   1      41.115  31.924  30.494  1.00  0.00     0.029 A 
ATOM     50  N   UNL A   1      42.294  30.525  29.234  1.00  0.00    -0.354 N 
ATOM     51  N   UNL A   1      44.663  29.651  27.718  1.00  0.00    -0.248 NA
ATOM     52  C   UNL A   1      46.805  30.070  26.880  1.00  0.00     0.031 C 
ATOM     53  C   UNL A   1      42.318  32.549  30.144  1.00  0.00     0.029 A 
ATOM     54  C   UNL A   1      43.069  31.663  29.389  1.00  0.00     0.049 A 
ATOM     55  H   UNL A   1      42.563  29.724  28.726  1.00  0.00     0.167 HD
ATOM     56  C   UNL A   1      45.072  30.918  28.122  1.00  0.00     0.074 A 
ATOM     57  C   UNL A   1      46.411  31.107  27.604  1.00  0.00     0.031 C 
ATOM     58  C   UNL A   1      44.402  31.841  28.859  1.00  0.00     0.034 A 
BRANCH  45  59
ATOM     59  C   UNL A   1      38.718  30.037  30.599  1.00  0.00     0.023 A 
ATOM     60  C   UNL A   1      37.697  30.724  29.916  1.00  0.00     0.031 A 
ATOM     61  C   UNL A   1      38.499  29.721  31.952  1.00  0.00     0.131 A 
ATOM     62  C   UNL A   1      36.560  31.163  30.610  1.00  0.00     0.055 A 
ATOM     63  C   UNL A   1      37.321  30.076  32.612  1.00  0.00     0.041 A 
ATOM     64  F   UNL A   1      39.439  29.080  32.665  1.00  0.00    -0.206 F 
ATOM     65  C   UNL A   1      36.351  30.821  31.946  1.00  0.00     0.022 A 
BRANCH  62  66
ATOM     66  S   UNL A   1      35.448  32.336  29.786  1.00  0.00     0.124 S 
ATOM     67  O   UNL A   1      34.414  32.523  30.802  1.00  0.00    -0.237 OA
ATOM     68  O   UNL A   1      36.318  33.480  29.542  1.00  0.00    -0.237 OA
ATOM     69  O   UNL A   1      35.013  31.615  28.591  1.00  0.00    -0.744 OA
ENDBRANCH  62  66
ENDBRANCH  45  59
BRANCH  46  70
ATOM     70  C   UNL A   1      46.995  27.454  25.567  1.00  0.00     0.023 A 
ATOM     71  C   UNL A   1      47.104  27.833  24.220  1.00  0.00     0.031 A 
ATOM     72  C   UNL A   1      48.050  26.713  26.130  1.00  0.00     0.131 A 
ATOM     73  C   UNL A   1      48.221  27.437  23.467  1.00  0.00     0.055 A 
ATOM     74  C   UNL A   1      49.182  26.363  25.391  1.00  0.00     0.041 A 
ATOM     75  F   UNL A   1      48.000  26.331  27.416  1.00  0.00    -0.206 F 
ATOM     76  C   UNL A   1      49.267  26.715  24.048  1.00  0.00     0.022 A 
BRANCH  73  77
ATOM     77  S   UNL A   1      48.254  27.818  21.693  1.00  0.00     0.124 S 
ATOM     78  O   UNL A   1      49.348  28.780  21.617  1.00  0.00    -0.237 OA
ATOM     79  O   UNL A   1      48.510  26.507  21.107  1.00  0.00    -0.237 OA
ATOM     80  O   UNL A   1      46.924  28.364  21.438  1.00  0.00    -0.744 OA
ENDBRANCH  73  77
ENDBRANCH  46  70
BRANCH  58  81
ATOM     81  C   UNL A   1      45.133  33.118  29.186  1.00  0.00     0.023 A 
ATOM     82  C   UNL A   1      45.050  34.253  28.360  1.00  0.00     0.031 A 
ATOM     83  C   UNL A   1      45.933  33.196  30.341  1.00  0.00     0.131 A 
ATOM     84  C   UNL A   1      45.796  35.400  28.673  1.00  0.00     0.055 A 
ATOM     85  C   UNL A   1      46.626  34.360  30.678  1.00  0.00     0.041 A 
ATOM     86  F   UNL A   1      46.049  32.142  31.164  1.00  0.00    -0.206 F 
ATOM     87  C   UNL A   1      46.570  35.466  29.835  1.00  0.00     0.022 A 
BRANCH  84  88
ATOM     88  S   UNL A   1      45.810  36.777  27.494  1.00  0.00     0.124 S 
ATOM     89  O   UNL A   1      44.434  37.259  27.573  1.00  0.00    -0.237 OA
ATOM     90  O   UNL A   1      46.827  37.660  28.056  1.00  0.00    -0.237 OA
ATOM     91  O   UNL A   1      46.172  36.143  26.228  1.00  0.00    -0.744 OA
ENDBRANCH  84  88
ENDBRANCH  58  81
ENDBRANCH  32  33
ENDBRANCH  24  27
ENDBRANCH  22  23
ENDBRANCH  21  22
ENDBRANCH   1  21
TORSDOF 18
ENDMDL
MODEL 3
REMARK VINA RESULT:     -11.0      1.868      2.292
REMARK SMILES CN(CCO)C(=O)N[C@H]1C=C[C@@H](C(=O)NCCCNC(=O)c2ccc(-c3c4nc(c(-c5cc(S(=O)(=O)[O-])ccc5F)c5ccc([nH]5)c(-c5cc(S(=O)(=O)[O-])ccc5F)c5nc(c(-c6cc(S(=O)(=O)[O-])ccc6F)c6ccc3[nH]6)C=C5)C=C4)cc2)C1
REMARK SMILES IDX 16 1 15 2 13 3 14 4 12 6 9 7 10 8 85 9 11 10 8 11 6 12 7 13
REMARK SMILES IDX 2 15 1 16 3 17 4 18 5 19 17 21 18 22 19 23 20 24 21 26 22 27
REMARK SMILES IDX 23 28 84 29 24 30 83 31 25 32 26 33 27 34 77 35 28 36 82 37
REMARK SMILES IDX 76 38 78 39 29 40 81 41 75 42 74 43 30 45 62 46 42 47 61 48
REMARK SMILES IDX 43 49 46 50 60 51 79 52 44 53 45 54 59 56 80 57 47 58 31 59
REMARK SMILES IDX 32 60 40 61 33 62 39 63 41 64 38 65 34 66 35 67 36 68 37 69
REMARK SMILES IDX 63 70 64 71 72 72 65 73 71 74 73 75 70 76 66 77 67 78 68 79
REMARK SMILES IDX 69 80 48 81 49 82 57 83 50 84 56 85 58 86 55 87 51 88 52 89
REMARK SMILES IDX 53 90 54 91
REMARK H PARENT 15 5 8 14 5 20 19 25 78 44 46 55
REMARK Flexibility Score: inf
ROOT
ATOM      1  C   UNL A   1      35.076  20.446  25.108  1.00  0.00     0.117 C 
ENDROOT
BRANCH   1   2
ATOM      2  N   UNL A   1      33.839  20.519  25.895  1.00  0.00    -0.356 N 
ATOM      3  C   UNL A   1      32.686  21.133  25.484  1.00  0.00     0.227 C 
ATOM      4  O   UNL A   1      31.782  20.397  25.068  1.00  0.00    -0.274 OA
ATOM      5  H   UNL A   1      33.837  20.094  26.784  1.00  0.00     0.163 HD
BRANCH   3   6
ATOM      6  C   UNL A   1      32.379  22.609  25.827  1.00  0.00     0.103 C 
ATOM      7  C   UNL A   1      30.919  24.535  25.440  1.00  0.00     0.107 C 
ATOM      8  C   UNL A   1      30.464  23.763  26.618  1.00  0.00    -0.006 C 
ATOM      9  C   UNL A   1      31.976  23.641  24.768  1.00  0.00     0.047 C 
ATOM     10  C   UNL A   1      31.269  22.718  26.845  1.00  0.00    -0.016 C 
BRANCH   7  11
ATOM     11  N   UNL A   1      29.875  25.088  24.587  1.00  0.00    -0.332 N 
ATOM     12  C   UNL A   1      29.608  26.230  23.928  1.00  0.00     0.317 C 
ATOM     13  O   UNL A   1      28.416  26.543  23.881  1.00  0.00    -0.249 OA
ATOM     14  H   UNL A   1      29.152  24.433  24.453  1.00  0.00     0.165 HD
BRANCH  12  15
ATOM     15  N   UNL A   1      30.569  27.009  23.347  1.00  0.00    -0.326 N 
ATOM     16  C   UNL A   1      30.381  28.457  23.437  1.00  0.00     0.148 C 
BRANCH  15  17
ATOM     17  C   UNL A   1      31.434  26.558  22.248  1.00  0.00     0.149 C 
BRANCH  17  18
ATOM     18  C   UNL A   1      32.842  27.135  22.372  1.00  0.00     0.177 C 
BRANCH  18  19
ATOM     19  O   UNL A   1      33.645  26.625  21.325  1.00  0.00    -0.395 OA
ATOM     20  H   UNL A   1      34.425  27.189  21.211  1.00  0.00     0.210 HD
ENDBRANCH  18  19
ENDBRANCH  17  18
ENDBRANCH  15  17
ENDBRANCH  12  15
ENDBRANCH   7  11
ENDBRANCH   3   6
ENDBRANCH   1   2
BRANCH   1  21
ATOM     21  C   UNL A   1      36.031  21.604  25.367  1.00  0.00     0.042 C 
BRANCH  21  22
ATOM     22  C   UNL A   1      37.366  21.469  24.649  1.00  0.00     0.118 C 
BRANCH  22  23
ATOM     23  N   UNL A   1      38.252  20.440  25.171  1.00  0.00    -0.352 N 
ATOM     24  C   UNL A   1      39.341  20.596  26.012  1.00  0.00     0.251 C 
ATOM     25  H   UNL A   1      38.052  19.518  24.892  1.00  0.00     0.163 HD
ATOM     26  O   UNL A   1      40.025  19.612  26.291  1.00  0.00    -0.269 OA
BRANCH  24  27
ATOM     27  C   UNL A   1      39.727  21.945  26.517  1.00  0.00     0.039 A 
ATOM     28  C   UNL A   1      40.768  22.056  27.445  1.00  0.00     0.014 A 
ATOM     29  C   UNL A   1      39.106  23.106  26.058  1.00  0.00     0.014 A 
ATOM     30  C   UNL A   1      41.246  23.320  27.820  1.00  0.00     0.010 A 
ATOM     31  C   UNL A   1      39.654  24.356  26.339  1.00  0.00     0.010 A 
ATOM     32  C   UNL A   1      40.736  24.483  27.221  1.00  0.00    -0.014 A 
BRANCH  32  33
ATOM     33  C   UNL A   1      41.308  25.836  27.483  1.00  0.00     0.031 A 
ATOM     34  C   UNL A   1      42.702  26.175  27.014  1.00  0.00     0.074 A 
ATOM     35  C   UNL A   1      40.626  26.720  28.240  1.00  0.00     0.049 A 
ATOM     36  N   UNL A   1      43.431  27.234  27.264  1.00  0.00    -0.248 NA
ATOM     37  C   UNL A   1      43.385  25.161  26.197  1.00  0.00     0.031 C 
ATOM     38  C   UNL A   1      39.301  26.491  28.823  1.00  0.00     0.029 A 
ATOM     39  N   UNL A   1      40.956  27.984  28.666  1.00  0.00    -0.354 N 
ATOM     40  C   UNL A   1      44.667  26.994  26.670  1.00  0.00     0.074 A 
ATOM     41  C   UNL A   1      44.608  25.659  26.113  1.00  0.00     0.031 C 
ATOM     42  C   UNL A   1      38.918  27.588  29.496  1.00  0.00     0.029 A 
ATOM     43  C   UNL A   1      39.984  28.581  29.439  1.00  0.00     0.049 A 
ATOM     44  H   UNL A   1      41.807  28.424  28.438  1.00  0.00     0.167 HD
ATOM     45  C   UNL A   1      45.742  27.819  26.571  1.00  0.00     0.034 A 
ATOM     46  C   UNL A   1      39.958  29.788  30.041  1.00  0.00     0.034 A 
ATOM     47  C   UNL A   1      45.768  29.163  27.096  1.00  0.00     0.049 A 
ATOM     48  C   UNL A   1      41.145  30.704  29.889  1.00  0.00     0.074 A 
ATOM     49  C   UNL A   1      46.766  30.115  26.983  1.00  0.00     0.029 A 
ATOM     50  N   UNL A   1      44.746  29.749  27.832  1.00  0.00    -0.354 N 
ATOM     51  N   UNL A   1      42.284  30.485  29.272  1.00  0.00    -0.248 NA
ATOM     52  C   UNL A   1      41.039  32.033  30.504  1.00  0.00     0.031 C 
ATOM     53  C   UNL A   1      46.374  31.252  27.699  1.00  0.00     0.029 A 
ATOM     54  C   UNL A   1      45.099  31.039  28.198  1.00  0.00     0.049 A 
ATOM     55  H   UNL A   1      43.893  29.311  28.061  1.00  0.00     0.167 HD
ATOM     56  C   UNL A   1      43.016  31.662  29.399  1.00  0.00     0.074 A 
ATOM     57  C   UNL A   1      42.185  32.590  30.139  1.00  0.00     0.031 C 
ATOM     58  C   UNL A   1      44.261  31.951  28.943  1.00  0.00     0.034 A 
BRANCH  45  59
ATOM     59  C   UNL A   1      46.974  27.276  25.880  1.00  0.00     0.023 A 
ATOM     60  C   UNL A   1      47.952  26.545  26.581  1.00  0.00     0.031 A 
ATOM     61  C   UNL A   1      47.203  27.530  24.516  1.00  0.00     0.131 A 
ATOM     62  C   UNL A   1      49.151  26.189  25.948  1.00  0.00     0.055 A 
ATOM     63  C   UNL A   1      48.357  27.087  23.866  1.00  0.00     0.041 A 
ATOM     64  F   UNL A   1      46.317  28.234  23.794  1.00  0.00    -0.206 F 
ATOM     65  C   UNL A   1      49.350  26.430  24.587  1.00  0.00     0.022 A 
BRANCH  62  66
ATOM     66  S   UNL A   1      50.514  25.566  26.971  1.00  0.00     0.124 S 
ATOM     67  O   UNL A   1      49.890  24.414  27.619  1.00  0.00    -0.237 OA
ATOM     68  O   UNL A   1      51.540  25.263  25.980  1.00  0.00    -0.237 OA
ATOM     69  O   UNL A   1      50.814  26.685  27.861  1.00  0.00    -0.744 OA
ENDBRANCH  62  66
ENDBRANCH  45  59
BRANCH  46  70
ATOM     70  C   UNL A   1      38.767  30.209  30.834  1.00  0.00     0.023 A 
ATOM     71  C   UNL A   1      37.715  30.919  30.233  1.00  0.00     0.031 A 
ATOM     72  C   UNL A   1      38.670  29.928  32.209  1.00  0.00     0.131 A 
ATOM     73  C   UNL A   1      36.633  31.361  31.010  1.00  0.00     0.055 A 
ATOM     74  C   UNL A   1      37.569  30.327  32.968  1.00  0.00     0.041 A 
ATOM     75  F   UNL A   1      39.644  29.246  32.831  1.00  0.00    -0.206 F 
ATOM     76  C   UNL A   1      36.546  31.059  32.371  1.00  0.00     0.022 A 
BRANCH  73  77
ATOM     77  S   UNL A   1      35.370  32.404  30.229  1.00  0.00     0.124 S 
ATOM     78  O   UNL A   1      34.954  31.574  29.104  1.00  0.00    -0.237 OA
ATOM     79  O   UNL A   1      34.398  32.560  31.305  1.00  0.00    -0.237 OA
ATOM     80  O   UNL A   1      36.102  33.616  29.872  1.00  0.00    -0.744 OA
ENDBRANCH  73  77
ENDBRANCH  46  70
BRANCH  58  81
ATOM     81  C   UNL A   1      44.775  33.347  29.191  1.00  0.00     0.023 A 
ATOM     82  C   UNL A   1      44.384  34.435  28.392  1.00  0.00     0.031 A 
ATOM     83  C   UNL A   1      45.679  33.588  30.243  1.00  0.00     0.131 A 
ATOM     84  C   UNL A   1      44.934  35.704  28.623  1.00  0.00     0.055 A 
ATOM     85  C   UNL A   1      46.177  34.865  30.504  1.00  0.00     0.041 A 
ATOM     86  F   UNL A   1      46.087  32.585  31.036  1.00  0.00    -0.206 F 
ATOM     87  C   UNL A   1      45.815  35.929  29.684  1.00  0.00     0.022 A 
BRANCH  84  88
ATOM     88  S   UNL A   1      44.549  37.044  27.463  1.00  0.00     0.124 S 
ATOM     89  O   UNL A   1      43.875  38.009  28.326  1.00  0.00    -0.237 OA
ATOM     90  O   UNL A   1      45.872  37.433  26.984  1.00  0.00    -0.237 OA
ATOM     91  O   UNL A   1      43.695  36.401  26.466  1.00  0.00    -0.744 OA
ENDBRANCH  84  88
ENDBRANCH  58  81
ENDBRANCH  32  33
ENDBRANCH  24  27
ENDBRANCH  22  23
ENDBRANCH  21  22
ENDBRANCH   1  21
TORSDOF 18
ENDMDL
