MODEL 1
REMARK VINA RESULT:     -13.0      0.000      0.000
REMARK SMILES COc1ccccc1[C@@H]1C[N@@H+](Cc2cn3cc(C)ccc3n2)C[C@H]1C(=O)NCCCNC(=O)c1ccc(-c2c3nc(c(-c4cc(S(=O)(=O)[O-])ccc4F)c4ccc([nH]4)c(-c4cc(S(=O)(=O)[O-])ccc4F)c4nc(c(-c5cc(S(=O)(=O)[O-])ccc5F)c5ccc2[nH]5)C=C4)C=C3)cc1
REMARK SMILES IDX 29 1 28 2 27 3 25 4 26 5 24 7 9 8 10 9 11 10 23 11 8 13 3 14
REMARK SMILES IDX 4 15 5 16 7 17 6 18 2 19 1 20 12 21 13 22 14 23 22 24 15 25
REMARK SMILES IDX 21 26 16 27 20 28 17 29 19 30 18 31 30 32 31 33 32 34 33 36
REMARK SMILES IDX 34 37 35 38 96 39 36 40 95 41 37 42 38 43 39 44 89 45 40 46
REMARK SMILES IDX 94 47 88 48 90 49 41 50 93 51 87 52 86 53 42 55 74 56 54 57
REMARK SMILES IDX 73 58 55 59 58 60 72 61 91 62 56 63 57 64 71 66 92 67 59 68
REMARK SMILES IDX 43 69 44 70 52 71 45 72 51 73 53 74 50 75 46 76 47 77 48 78
REMARK SMILES IDX 49 79 75 80 76 81 84 82 77 83 83 84 85 85 82 86 78 87 79 88
REMARK SMILES IDX 80 89 81 90 60 91 61 92 69 93 62 94 68 95 70 96 67 97 63 98
REMARK SMILES IDX 64 99 65 100 66 101
REMARK H PARENT 27 6 11 12 31 35 90 54 58 65
REMARK Flexibility Score: inf
ROOT
ATOM      1  C   UNL A   1      37.007  22.907  25.025  1.00  0.00     0.042 C 
ENDROOT
BRANCH   1   2
ATOM      2  C   UNL A   1      35.723  23.706  24.685  1.00  0.00     0.117 C 
BRANCH   2   3
ATOM      3  N   UNL A   1      35.123  23.609  23.344  1.00  0.00    -0.356 N 
ATOM      4  C   UNL A   1      33.952  23.202  22.774  1.00  0.00     0.229 C 
ATOM      5  O   UNL A   1      33.916  23.365  21.540  1.00  0.00    -0.275 OA
ATOM      6  H   UNL A   1      35.751  23.932  22.658  1.00  0.00     0.163 HD
BRANCH   4   7
ATOM      7  C   UNL A   1      32.677  22.627  23.435  1.00  0.00     0.146 C 
ATOM      8  C   UNL A   1      32.903  21.502  24.497  1.00  0.00     0.096 C 
ATOM      9  C   UNL A   1      31.859  21.772  25.593  1.00  0.00     0.272 C 
ATOM     10  N   UNL A   1      31.650  23.227  25.579  1.00  0.00    -0.329 N 
ATOM     11  C   UNL A   1      31.712  23.571  24.147  1.00  0.00     0.276 C 
ATOM     12  H   UNL A   1      30.753  23.499  25.979  1.00  0.00     0.348 HD
BRANCH   8  13
ATOM     13  C   UNL A   1      33.182  20.032  24.229  1.00  0.00     0.004 A 
ATOM     14  C   UNL A   1      34.324  19.301  24.573  1.00  0.00     0.122 A 
ATOM     15  C   UNL A   1      34.508  17.999  24.066  1.00  0.00     0.047 A 
ATOM     16  C   UNL A   1      33.584  17.411  23.200  1.00  0.00     0.004 A 
ATOM     17  C   UNL A   1      32.257  19.397  23.351  1.00  0.00     0.008 A 
ATOM     18  C   UNL A   1      32.457  18.121  22.830  1.00  0.00     0.001 A 
BRANCH  14  19
ATOM     19  O   UNL A   1      35.414  19.800  25.232  1.00  0.00    -0.496 OA
ATOM     20  C   UNL A   1      36.651  19.245  24.817  1.00  0.00     0.278 C 
ENDBRANCH  14  19
ENDBRANCH   8  13
BRANCH  10  21
ATOM     21  C   UNL A   1      32.538  24.002  26.491  1.00  0.00     0.321 C 
BRANCH  21  22
ATOM     22  C   UNL A   1      32.450  25.510  26.450  1.00  0.00     0.114 A 
ATOM     23  C   UNL A   1      31.402  26.403  26.612  1.00  0.00     0.122 A 
ATOM     24  N   UNL A   1      33.577  26.225  26.163  1.00  0.00    -0.228 NA
ATOM     25  N   UNL A   1      31.950  27.674  26.510  1.00  0.00    -0.306 N 
ATOM     26  C   UNL A   1      33.304  27.493  26.322  1.00  0.00     0.137 A 
ATOM     27  C   UNL A   1      31.372  28.942  26.552  1.00  0.00     0.096 A 
ATOM     28  C   UNL A   1      34.155  28.628  26.324  1.00  0.00     0.048 A 
ATOM     29  C   UNL A   1      32.163  30.035  26.451  1.00  0.00    -0.034 A 
ATOM     30  C   UNL A   1      33.611  29.852  26.386  1.00  0.00     0.009 A 
ATOM     31  C   UNL A   1      31.653  31.439  26.406  1.00  0.00     0.046 C 
ENDBRANCH  21  22
ENDBRANCH  10  21
ENDBRANCH   4   7
ENDBRANCH   2   3
ENDBRANCH   1   2
BRANCH   1  32
ATOM     32  C   UNL A   1      37.914  23.577  26.035  1.00  0.00     0.118 C 
BRANCH  32  33
ATOM     33  N   UNL A   1      38.872  22.653  26.646  1.00  0.00    -0.352 N 
ATOM     34  C   UNL A   1      40.033  22.922  27.334  1.00  0.00     0.251 C 
ATOM     35  H   UNL A   1      38.654  21.698  26.549  1.00  0.00     0.163 HD
ATOM     36  O   UNL A   1      40.842  21.999  27.520  1.00  0.00    -0.269 OA
BRANCH  34  37
ATOM     37  C   UNL A   1      40.319  24.274  27.859  1.00  0.00     0.039 A 
ATOM     38  C   UNL A   1      41.613  24.653  28.233  1.00  0.00     0.014 A 
ATOM     39  C   UNL A   1      39.271  25.169  28.054  1.00  0.00     0.014 A 
ATOM     40  C   UNL A   1      41.812  25.910  28.809  1.00  0.00     0.010 A 
ATOM     41  C   UNL A   1      39.488  26.462  28.432  1.00  0.00     0.010 A 
ATOM     42  C   UNL A   1      40.729  26.798  28.923  1.00  0.00    -0.014 A 
BRANCH  42  43
ATOM     43  C   UNL A   1      40.867  28.148  29.444  1.00  0.00     0.031 A 
ATOM     44  C   UNL A   1      41.859  28.939  28.690  1.00  0.00     0.074 A 
ATOM     45  C   UNL A   1      40.014  28.713  30.329  1.00  0.00     0.049 A 
ATOM     46  N   UNL A   1      43.088  29.157  29.016  1.00  0.00    -0.248 NA
ATOM     47  C   UNL A   1      41.538  29.314  27.305  1.00  0.00     0.031 C 
ATOM     48  C   UNL A   1      38.785  28.156  30.910  1.00  0.00     0.029 A 
ATOM     49  N   UNL A   1      40.023  29.977  30.830  1.00  0.00    -0.354 N 
ATOM     50  C   UNL A   1      43.588  29.974  28.013  1.00  0.00     0.074 A 
ATOM     51  C   UNL A   1      42.719  29.773  26.888  1.00  0.00     0.031 C 
ATOM     52  C   UNL A   1      38.069  29.144  31.499  1.00  0.00     0.029 A 
ATOM     53  C   UNL A   1      38.856  30.365  31.487  1.00  0.00     0.049 A 
ATOM     54  H   UNL A   1      40.799  30.576  30.735  1.00  0.00     0.167 HD
ATOM     55  C   UNL A   1      44.458  30.978  28.312  1.00  0.00     0.034 A 
ATOM     56  C   UNL A   1      38.561  31.603  31.975  1.00  0.00     0.034 A 
ATOM     57  C   UNL A   1      44.964  30.821  29.666  1.00  0.00     0.049 A 
ATOM     58  C   UNL A   1      39.864  32.294  32.164  1.00  0.00     0.074 A 
ATOM     59  C   UNL A   1      45.605  29.800  30.344  1.00  0.00     0.029 A 
ATOM     60  N   UNL A   1      44.440  31.637  30.647  1.00  0.00    -0.354 N 
ATOM     61  N   UNL A   1      40.762  31.894  33.024  1.00  0.00    -0.248 NA
ATOM     62  C   UNL A   1      40.382  33.084  31.056  1.00  0.00     0.031 C 
ATOM     63  C   UNL A   1      44.988  29.773  31.631  1.00  0.00     0.029 A 
ATOM     64  C   UNL A   1      44.096  30.844  31.716  1.00  0.00     0.049 A 
ATOM     65  H   UNL A   1      44.330  32.614  30.592  1.00  0.00     0.167 HD
ATOM     66  C   UNL A   1      41.970  31.982  32.348  1.00  0.00     0.074 A 
ATOM     67  C   UNL A   1      41.686  32.814  31.177  1.00  0.00     0.031 C 
ATOM     68  C   UNL A   1      43.004  31.134  32.632  1.00  0.00     0.034 A 
BRANCH  55  69
ATOM     69  C   UNL A   1      44.535  32.304  27.583  1.00  0.00     0.023 A 
ATOM     70  C   UNL A   1      43.976  33.410  28.249  1.00  0.00     0.031 A 
ATOM     71  C   UNL A   1      44.841  32.505  26.218  1.00  0.00     0.131 A 
ATOM     72  C   UNL A   1      43.615  34.570  27.547  1.00  0.00     0.055 A 
ATOM     73  C   UNL A   1      44.542  33.689  25.538  1.00  0.00     0.041 A 
ATOM     74  F   UNL A   1      45.367  31.560  25.434  1.00  0.00    -0.206 F 
ATOM     75  C   UNL A   1      43.888  34.717  26.191  1.00  0.00     0.022 A 
BRANCH  72  76
ATOM     76  S   UNL A   1      42.602  35.795  28.407  1.00  0.00     0.124 S 
ATOM     77  O   UNL A   1      41.260  35.272  28.176  1.00  0.00    -0.237 OA
ATOM     78  O   UNL A   1      43.109  35.694  29.772  1.00  0.00    -0.237 OA
ATOM     79  O   UNL A   1      42.919  37.041  27.714  1.00  0.00    -0.744 OA
ENDBRANCH  72  76
ENDBRANCH  55  69
BRANCH  56  80
ATOM     80  C   UNL A   1      37.246  32.313  31.990  1.00  0.00     0.023 A 
ATOM     81  C   UNL A   1      36.597  32.776  30.821  1.00  0.00     0.031 A 
ATOM     82  C   UNL A   1      36.475  32.312  33.175  1.00  0.00     0.131 A 
ATOM     83  C   UNL A   1      35.244  33.200  30.869  1.00  0.00     0.055 A 
ATOM     84  C   UNL A   1      35.140  32.725  33.215  1.00  0.00     0.041 A 
ATOM     85  F   UNL A   1      36.968  31.819  34.321  1.00  0.00    -0.206 F 
ATOM     86  C   UNL A   1      34.515  33.161  32.059  1.00  0.00     0.022 A 
BRANCH  83  87
ATOM     87  S   UNL A   1      34.368  33.730  29.355  1.00  0.00     0.124 S 
ATOM     88  O   UNL A   1      34.061  32.458  28.710  1.00  0.00    -0.237 OA
ATOM     89  O   UNL A   1      33.236  34.477  29.890  1.00  0.00    -0.237 OA
ATOM     90  O   UNL A   1      35.360  34.547  28.653  1.00  0.00    -0.744 OA
ENDBRANCH  83  87
ENDBRANCH  56  80
BRANCH  68  91
ATOM     91  C   UNL A   1      42.932  30.295  33.897  1.00  0.00     0.023 A 
ATOM     92  C   UNL A   1      42.343  29.012  34.004  1.00  0.00     0.031 A 
ATOM     93  C   UNL A   1      43.611  30.791  35.025  1.00  0.00     0.131 A 
ATOM     94  C   UNL A   1      42.445  28.286  35.210  1.00  0.00     0.055 A 
ATOM     95  C   UNL A   1      43.730  30.060  36.206  1.00  0.00     0.041 A 
ATOM     96  F   UNL A   1      44.209  31.993  34.986  1.00  0.00    -0.206 F 
ATOM     97  C   UNL A   1      43.142  28.806  36.305  1.00  0.00     0.022 A 
BRANCH  94  98
ATOM     98  S   UNL A   1      41.651  26.654  35.395  1.00  0.00     0.124 S 
ATOM     99  O   UNL A   1      40.601  26.666  34.384  1.00  0.00    -0.237 OA
ATOM    100  O   UNL A   1      42.758  25.732  35.155  1.00  0.00    -0.237 OA
ATOM    101  O   UNL A   1      41.164  26.667  36.777  1.00  0.00    -0.744 OA
ENDBRANCH  94  98
ENDBRANCH  68  91
ENDBRANCH  42  43
ENDBRANCH  34  37
ENDBRANCH  32  33
ENDBRANCH   1  32
TORSDOF 17
ENDMDL
MODEL 2
REMARK VINA RESULT:     -13.0      3.802      7.528
REMARK SMILES COc1ccccc1[C@@H]1C[N@@H+](Cc2cn3cc(C)ccc3n2)C[C@H]1C(=O)NCCCNC(=O)c1ccc(-c2c3nc(c(-c4cc(S(=O)(=O)[O-])ccc4F)c4ccc([nH]4)c(-c4cc(S(=O)(=O)[O-])ccc4F)c4nc(c(-c5cc(S(=O)(=O)[O-])ccc5F)c5ccc2[nH]5)C=C4)C=C3)cc1
REMARK SMILES IDX 29 1 28 2 27 3 25 4 26 5 24 7 9 8 10 9 11 10 23 11 8 13 3 14
REMARK SMILES IDX 4 15 5 16 7 17 6 18 2 19 1 20 12 21 13 22 14 23 22 24 15 25
REMARK SMILES IDX 21 26 16 27 20 28 17 29 19 30 18 31 30 32 31 33 32 34 33 36
REMARK SMILES IDX 34 37 35 38 96 39 36 40 95 41 37 42 38 43 39 44 89 45 40 46
REMARK SMILES IDX 94 47 88 48 90 49 41 50 93 51 87 52 86 53 42 55 74 56 54 57
REMARK SMILES IDX 73 58 55 59 58 60 72 61 91 62 56 63 57 64 71 66 92 67 59 68
REMARK SMILES IDX 43 69 44 70 52 71 45 72 51 73 53 74 50 75 46 76 47 77 48 78
REMARK SMILES IDX 49 79 75 80 76 81 84 82 77 83 83 84 85 85 82 86 78 87 79 88
REMARK SMILES IDX 80 89 81 90 60 91 61 92 69 93 62 94 68 95 70 96 67 97 63 98
REMARK SMILES IDX 64 99 65 100 66 101
REMARK H PARENT 27 6 11 12 31 35 90 54 58 65
REMARK Flexibility Score: inf
ROOT
ATOM      1  C   UNL A   1      36.795  21.517  23.933  1.00  0.00     0.042 C 
ENDROOT
BRANCH   1   2
ATOM      2  C   UNL A   1      36.892  23.047  23.710  1.00  0.00     0.117 C 
BRANCH   2   3
ATOM      3  N   UNL A   1      35.909  23.951  24.332  1.00  0.00    -0.356 N 
ATOM      4  C   UNL A   1      34.590  24.277  24.197  1.00  0.00     0.229 C 
ATOM      5  O   UNL A   1      34.198  25.114  25.032  1.00  0.00    -0.275 OA
ATOM      6  H   UNL A   1      36.325  24.471  25.056  1.00  0.00     0.163 HD
BRANCH   4   7
ATOM      7  C   UNL A   1      33.532  23.732  23.210  1.00  0.00     0.146 C 
ATOM      8  C   UNL A   1      32.456  22.774  23.819  1.00  0.00     0.096 C 
ATOM      9  C   UNL A   1      31.147  23.135  23.098  1.00  0.00     0.272 C 
ATOM     10  N   UNL A   1      31.268  24.562  22.768  1.00  0.00    -0.329 N 
ATOM     11  C   UNL A   1      32.687  24.712  22.401  1.00  0.00     0.276 C 
ATOM     12  H   UNL A   1      30.662  24.839  21.996  1.00  0.00     0.348 HD
BRANCH   8  13
ATOM     13  C   UNL A   1      32.622  21.297  24.140  1.00  0.00     0.004 A 
ATOM     14  C   UNL A   1      33.301  20.728  25.222  1.00  0.00     0.122 A 
ATOM     15  C   UNL A   1      33.536  19.339  25.257  1.00  0.00     0.047 A 
ATOM     16  C   UNL A   1      33.125  18.499  24.220  1.00  0.00     0.004 A 
ATOM     17  C   UNL A   1      32.210  20.409  23.105  1.00  0.00     0.008 A 
ATOM     18  C   UNL A   1      32.469  19.041  23.130  1.00  0.00     0.001 A 
BRANCH  14  19
ATOM     19  O   UNL A   1      33.947  21.425  26.206  1.00  0.00    -0.496 OA
ATOM     20  C   UNL A   1      33.081  22.072  27.126  1.00  0.00     0.278 C 
ENDBRANCH  14  19
ENDBRANCH   8  13
BRANCH  10  21
ATOM     21  C   UNL A   1      30.742  25.498  23.801  1.00  0.00     0.321 C 
BRANCH  21  22
ATOM     22  C   UNL A   1      30.207  26.833  23.340  1.00  0.00     0.114 A 
ATOM     23  C   UNL A   1      30.746  27.856  22.575  1.00  0.00     0.122 A 
ATOM     24  N   UNL A   1      28.959  27.215  23.742  1.00  0.00    -0.228 NA
ATOM     25  N   UNL A   1      29.752  28.817  22.448  1.00  0.00    -0.306 N 
ATOM     26  C   UNL A   1      28.652  28.319  23.115  1.00  0.00     0.137 A 
ATOM     27  C   UNL A   1      29.738  30.065  21.827  1.00  0.00     0.096 A 
ATOM     28  C   UNL A   1      27.425  29.027  23.038  1.00  0.00     0.048 A 
ATOM     29  C   UNL A   1      28.601  30.798  21.836  1.00  0.00    -0.034 A 
ATOM     30  C   UNL A   1      27.395  30.219  22.424  1.00  0.00     0.009 A 
ATOM     31  C   UNL A   1      28.486  32.177  21.272  1.00  0.00     0.046 C 
ENDBRANCH  21  22
ENDBRANCH  10  21
ENDBRANCH   4   7
ENDBRANCH   2   3
ENDBRANCH   1   2
BRANCH   1  32
ATOM     32  C   UNL A   1      37.101  21.068  25.346  1.00  0.00     0.118 C 
BRANCH  32  33
ATOM     33  N   UNL A   1      38.037  19.943  25.400  1.00  0.00    -0.352 N 
ATOM     34  C   UNL A   1      39.373  19.928  25.729  1.00  0.00     0.251 C 
ATOM     35  H   UNL A   1      37.653  19.067  25.166  1.00  0.00     0.163 HD
ATOM     36  O   UNL A   1      40.047  18.927  25.438  1.00  0.00    -0.269 OA
BRANCH  34  37
ATOM     37  C   UNL A   1      40.005  21.069  26.426  1.00  0.00     0.039 A 
ATOM     38  C   UNL A   1      40.940  20.872  27.449  1.00  0.00     0.014 A 
ATOM     39  C   UNL A   1      39.611  22.366  26.112  1.00  0.00     0.014 A 
ATOM     40  C   UNL A   1      41.436  21.981  28.136  1.00  0.00     0.010 A 
ATOM     41  C   UNL A   1      40.236  23.457  26.643  1.00  0.00     0.010 A 
ATOM     42  C   UNL A   1      41.055  23.272  27.735  1.00  0.00    -0.014 A 
BRANCH  42  43
ATOM     43  C   UNL A   1      41.581  24.478  28.351  1.00  0.00     0.031 A 
ATOM     44  C   UNL A   1      40.600  25.581  28.351  1.00  0.00     0.074 A 
ATOM     45  C   UNL A   1      42.719  24.526  29.081  1.00  0.00     0.049 A 
ATOM     46  N   UNL A   1      40.533  26.561  27.515  1.00  0.00    -0.248 NA
ATOM     47  C   UNL A   1      39.408  25.449  29.204  1.00  0.00     0.031 C 
ATOM     48  C   UNL A   1      43.625  23.430  29.450  1.00  0.00     0.029 A 
ATOM     49  N   UNL A   1      43.262  25.583  29.741  1.00  0.00    -0.354 N 
ATOM     50  C   UNL A   1      39.472  27.339  27.953  1.00  0.00     0.074 A 
ATOM     51  C   UNL A   1      38.668  26.466  28.761  1.00  0.00     0.031 C 
ATOM     52  C   UNL A   1      44.464  23.840  30.431  1.00  0.00     0.029 A 
ATOM     53  C   UNL A   1      44.274  25.264  30.646  1.00  0.00     0.049 A 
ATOM     54  H   UNL A   1      42.962  26.509  29.590  1.00  0.00     0.167 HD
ATOM     55  C   UNL A   1      39.539  28.697  27.884  1.00  0.00     0.034 A 
ATOM     56  C   UNL A   1      44.899  26.111  31.512  1.00  0.00     0.034 A 
ATOM     57  C   UNL A   1      40.653  29.106  27.045  1.00  0.00     0.049 A 
ATOM     58  C   UNL A   1      44.707  27.479  30.962  1.00  0.00     0.074 A 
ATOM     59  C   UNL A   1      41.037  28.826  25.746  1.00  0.00     0.029 A 
ATOM     60  N   UNL A   1      41.795  29.565  27.671  1.00  0.00    -0.354 N 
ATOM     61  N   UNL A   1      45.217  27.865  29.824  1.00  0.00    -0.248 NA
ATOM     62  C   UNL A   1      43.540  28.231  31.399  1.00  0.00     0.031 C 
ATOM     63  C   UNL A   1      42.449  28.629  25.817  1.00  0.00     0.029 A 
ATOM     64  C   UNL A   1      42.871  28.914  27.118  1.00  0.00     0.049 A 
ATOM     65  H   UNL A   1      41.832  30.239  28.388  1.00  0.00     0.167 HD
ATOM     66  C   UNL A   1      44.202  28.572  29.197  1.00  0.00     0.074 A 
ATOM     67  C   UNL A   1      43.229  28.849  30.255  1.00  0.00     0.031 C 
ATOM     68  C   UNL A   1      44.098  28.606  27.834  1.00  0.00     0.034 A 
BRANCH  55  69
ATOM     69  C   UNL A   1      38.899  29.647  28.875  1.00  0.00     0.023 A 
ATOM     70  C   UNL A   1      39.202  29.426  30.230  1.00  0.00     0.031 A 
ATOM     71  C   UNL A   1      37.828  30.537  28.628  1.00  0.00     0.131 A 
ATOM     72  C   UNL A   1      38.387  29.943  31.248  1.00  0.00     0.055 A 
ATOM     73  C   UNL A   1      37.061  31.105  29.648  1.00  0.00     0.041 A 
ATOM     74  F   UNL A   1      37.401  30.853  27.402  1.00  0.00    -0.206 F 
ATOM     75  C   UNL A   1      37.311  30.778  30.968  1.00  0.00     0.022 A 
BRANCH  72  76
ATOM     76  S   UNL A   1      38.650  29.334  32.930  1.00  0.00     0.124 S 
ATOM     77  O   UNL A   1      37.452  28.526  33.133  1.00  0.00    -0.237 OA
ATOM     78  O   UNL A   1      39.906  28.605  32.789  1.00  0.00    -0.237 OA
ATOM     79  O   UNL A   1      38.724  30.558  33.724  1.00  0.00    -0.744 OA
ENDBRANCH  72  76
ENDBRANCH  55  69
BRANCH  56  80
ATOM     80  C   UNL A   1      45.367  25.845  32.906  1.00  0.00     0.023 A 
ATOM     81  C   UNL A   1      44.498  25.785  34.021  1.00  0.00     0.031 A 
ATOM     82  C   UNL A   1      46.685  25.380  33.114  1.00  0.00     0.131 A 
ATOM     83  C   UNL A   1      44.955  25.272  35.263  1.00  0.00     0.055 A 
ATOM     84  C   UNL A   1      47.128  24.870  34.338  1.00  0.00     0.041 A 
ATOM     85  F   UNL A   1      47.566  25.319  32.103  1.00  0.00    -0.206 F 
ATOM     86  C   UNL A   1      46.262  24.804  35.415  1.00  0.00     0.022 A 
BRANCH  83  87
ATOM     87  S   UNL A   1      43.826  25.117  36.692  1.00  0.00     0.124 S 
ATOM     88  O   UNL A   1      44.654  24.420  37.669  1.00  0.00    -0.237 OA
ATOM     89  O   UNL A   1      43.500  26.507  36.988  1.00  0.00    -0.237 OA
ATOM     90  O   UNL A   1      42.711  24.330  36.164  1.00  0.00    -0.744 OA
ENDBRANCH  83  87
ENDBRANCH  56  80
BRANCH  68  91
ATOM     91  C   UNL A   1      45.273  28.119  27.001  1.00  0.00     0.023 A 
ATOM     92  C   UNL A   1      45.439  26.805  26.501  1.00  0.00     0.031 A 
ATOM     93  C   UNL A   1      46.211  29.088  26.602  1.00  0.00     0.131 A 
ATOM     94  C   UNL A   1      46.519  26.509  25.641  1.00  0.00     0.055 A 
ATOM     95  C   UNL A   1      47.260  28.797  25.732  1.00  0.00     0.041 A 
ATOM     96  F   UNL A   1      46.100  30.358  27.024  1.00  0.00    -0.206 F 
ATOM     97  C   UNL A   1      47.422  27.504  25.252  1.00  0.00     0.022 A 
BRANCH  94  98
ATOM     98  S   UNL A   1      46.791  24.814  25.023  1.00  0.00     0.124 S 
ATOM     99  O   UNL A   1      47.314  24.105  26.183  1.00  0.00    -0.237 OA
ATOM    100  O   UNL A   1      45.457  24.419  24.580  1.00  0.00    -0.237 OA
ATOM    101  O   UNL A   1      47.757  24.999  23.937  1.00  0.00    -0.744 OA
ENDBRANCH  94  98
ENDBRANCH  68  91
ENDBRANCH  42  43
ENDBRANCH  34  37
ENDBRANCH  32  33
ENDBRANCH   1  32
TORSDOF 17
ENDMDL
MODEL 3
REMARK VINA RESULT:     -12.6      5.344     10.989
REMARK SMILES COc1ccccc1[C@@H]1C[N@@H+](Cc2cn3cc(C)ccc3n2)C[C@H]1C(=O)NCCCNC(=O)c1ccc(-c2c3nc(c(-c4cc(S(=O)(=O)[O-])ccc4F)c4ccc([nH]4)c(-c4cc(S(=O)(=O)[O-])ccc4F)c4nc(c(-c5cc(S(=O)(=O)[O-])ccc5F)c5ccc2[nH]5)C=C4)C=C3)cc1
REMARK SMILES IDX 29 1 28 2 27 3 25 4 26 5 24 7 9 8 10 9 11 10 23 11 8 13 3 14
REMARK SMILES IDX 4 15 5 16 7 17 6 18 2 19 1 20 12 21 13 22 14 23 22 24 15 25
REMARK SMILES IDX 21 26 16 27 20 28 17 29 19 30 18 31 30 32 31 33 32 34 33 36
REMARK SMILES IDX 34 37 35 38 96 39 36 40 95 41 37 42 38 43 39 44 89 45 40 46
REMARK SMILES IDX 94 47 88 48 90 49 41 50 93 51 87 52 86 53 42 55 74 56 54 57
REMARK SMILES IDX 73 58 55 59 58 60 72 61 91 62 56 63 57 64 71 66 92 67 59 68
REMARK SMILES IDX 43 69 44 70 52 71 45 72 51 73 53 74 50 75 46 76 47 77 48 78
REMARK SMILES IDX 49 79 75 80 76 81 84 82 77 83 83 84 85 85 82 86 78 87 79 88
REMARK SMILES IDX 80 89 81 90 60 91 61 92 69 93 62 94 68 95 70 96 67 97 63 98
REMARK SMILES IDX 64 99 65 100 66 101
REMARK H PARENT 27 6 11 12 31 35 90 54 58 65
REMARK Flexibility Score: inf
ROOT
ATOM      1  C   UNL A   1      37.619  30.908  30.779  1.00  0.00     0.042 C 
ENDROOT
BRANCH   1   2
ATOM      2  C   UNL A   1      38.945  30.660  31.543  1.00  0.00     0.117 C 
BRANCH   2   3
ATOM      3  N   UNL A   1      38.921  30.273  32.963  1.00  0.00    -0.356 N 
ATOM      4  C   UNL A   1      39.062  30.860  34.187  1.00  0.00     0.229 C 
ATOM      5  O   UNL A   1      38.908  30.071  35.138  1.00  0.00    -0.275 OA
ATOM      6  H   UNL A   1      38.753  29.307  33.057  1.00  0.00     0.163 HD
BRANCH   4   7
ATOM      7  C   UNL A   1      39.331  32.340  34.549  1.00  0.00     0.146 C 
ATOM      8  C   UNL A   1      39.031  33.386  33.426  1.00  0.00     0.096 C 
ATOM      9  C   UNL A   1      38.436  34.599  34.160  1.00  0.00     0.272 C 
ATOM     10  N   UNL A   1      37.754  34.043  35.337  1.00  0.00    -0.329 N 
ATOM     11  C   UNL A   1      38.643  32.949  35.767  1.00  0.00     0.276 C 
ATOM     12  H   UNL A   1      37.634  34.729  36.082  1.00  0.00     0.348 HD
BRANCH   8  13
ATOM     13  C   UNL A   1      39.911  33.729  32.236  1.00  0.00     0.004 A 
ATOM     14  C   UNL A   1      39.521  34.295  31.018  1.00  0.00     0.122 A 
ATOM     15  C   UNL A   1      40.429  34.356  29.942  1.00  0.00     0.047 A 
ATOM     16  C   UNL A   1      41.723  33.841  30.046  1.00  0.00     0.004 A 
ATOM     17  C   UNL A   1      41.241  33.223  32.307  1.00  0.00     0.008 A 
ATOM     18  C   UNL A   1      42.127  33.258  31.233  1.00  0.00     0.001 A 
BRANCH  14  19
ATOM     19  O   UNL A   1      38.242  34.651  30.685  1.00  0.00    -0.496 OA
ATOM     20  C   UNL A   1      37.800  34.139  29.437  1.00  0.00     0.278 C 
ENDBRANCH  14  19
ENDBRANCH   8  13
BRANCH  10  21
ATOM     21  C   UNL A   1      36.319  33.696  35.132  1.00  0.00     0.321 C 
BRANCH  21  22
ATOM     22  C   UNL A   1      35.626  34.251  33.910  1.00  0.00     0.114 A 
ATOM     23  C   UNL A   1      35.391  33.743  32.641  1.00  0.00     0.122 A 
ATOM     24  N   UNL A   1      35.131  35.523  33.957  1.00  0.00    -0.228 NA
ATOM     25  N   UNL A   1      34.657  34.706  31.962  1.00  0.00    -0.306 N 
ATOM     26  C   UNL A   1      34.457  35.736  32.858  1.00  0.00     0.137 A 
ATOM     27  C   UNL A   1      34.177  34.760  30.654  1.00  0.00     0.096 A 
ATOM     28  C   UNL A   1      33.610  36.812  32.488  1.00  0.00     0.048 A 
ATOM     29  C   UNL A   1      33.453  35.831  30.256  1.00  0.00    -0.034 A 
ATOM     30  C   UNL A   1      33.124  36.862  31.238  1.00  0.00     0.009 A 
ATOM     31  C   UNL A   1      32.952  36.035  28.863  1.00  0.00     0.046 C 
ENDBRANCH  21  22
ENDBRANCH  10  21
ENDBRANCH   4   7
ENDBRANCH   2   3
ENDBRANCH   1   2
BRANCH   1  32
ATOM     32  C   UNL A   1      36.592  29.807  30.932  1.00  0.00     0.118 C 
BRANCH  32  33
ATOM     33  N   UNL A   1      35.943  29.450  29.668  1.00  0.00    -0.352 N 
ATOM     34  C   UNL A   1      36.503  29.186  28.439  1.00  0.00     0.251 C 
ATOM     35  H   UNL A   1      34.962  29.390  29.702  1.00  0.00     0.163 HD
ATOM     36  O   UNL A   1      35.769  29.184  27.438  1.00  0.00    -0.269 OA
BRANCH  34  37
ATOM     37  C   UNL A   1      37.947  28.897  28.298  1.00  0.00     0.039 A 
ATOM     38  C   UNL A   1      38.729  29.537  27.330  1.00  0.00     0.014 A 
ATOM     39  C   UNL A   1      38.529  27.914  29.095  1.00  0.00     0.014 A 
ATOM     40  C   UNL A   1      40.064  29.158  27.180  1.00  0.00     0.010 A 
ATOM     41  C   UNL A   1      39.873  27.682  29.085  1.00  0.00     0.010 A 
ATOM     42  C   UNL A   1      40.618  28.208  28.054  1.00  0.00    -0.014 A 
BRANCH  42  43
ATOM     43  C   UNL A   1      42.016  27.814  28.008  1.00  0.00     0.031 A 
ATOM     44  C   UNL A   1      42.213  26.531  27.306  1.00  0.00     0.074 A 
ATOM     45  C   UNL A   1      43.048  28.632  28.321  1.00  0.00     0.049 A 
ATOM     46  N   UNL A   1      42.355  25.366  27.843  1.00  0.00    -0.248 NA
ATOM     47  C   UNL A   1      41.969  26.489  25.856  1.00  0.00     0.031 C 
ATOM     48  C   UNL A   1      43.017  30.047  28.712  1.00  0.00     0.029 A 
ATOM     49  N   UNL A   1      44.382  28.379  28.257  1.00  0.00    -0.354 N 
ATOM     50  C   UNL A   1      42.540  24.498  26.777  1.00  0.00     0.074 A 
ATOM     51  C   UNL A   1      41.994  25.174  25.634  1.00  0.00     0.031 C 
ATOM     52  C   UNL A   1      44.264  30.570  28.636  1.00  0.00     0.029 A 
ATOM     53  C   UNL A   1      45.206  29.500  28.355  1.00  0.00     0.049 A 
ATOM     54  H   UNL A   1      44.741  27.468  28.149  1.00  0.00     0.167 HD
ATOM     55  C   UNL A   1      43.418  23.461  26.878  1.00  0.00     0.034 A 
ATOM     56  C   UNL A   1      46.561  29.540  28.206  1.00  0.00     0.034 A 
ATOM     57  C   UNL A   1      43.810  23.265  28.264  1.00  0.00     0.049 A 
ATOM     58  C   UNL A   1      47.044  28.156  28.454  1.00  0.00     0.074 A 
ATOM     59  C   UNL A   1      43.117  23.047  29.441  1.00  0.00     0.029 A 
ATOM     60  N   UNL A   1      45.053  23.721  28.652  1.00  0.00    -0.354 N 
ATOM     61  N   UNL A   1      46.938  27.564  29.614  1.00  0.00    -0.248 NA
ATOM     62  C   UNL A   1      47.156  27.259  27.314  1.00  0.00     0.031 C 
ATOM     63  C   UNL A   1      43.773  23.869  30.408  1.00  0.00     0.029 A 
ATOM     64  C   UNL A   1      44.894  24.447  29.808  1.00  0.00     0.049 A 
ATOM     65  H   UNL A   1      45.903  23.558  28.183  1.00  0.00     0.167 HD
ATOM     66  C   UNL A   1      46.517  26.275  29.321  1.00  0.00     0.074 A 
ATOM     67  C   UNL A   1      46.765  26.116  27.887  1.00  0.00     0.031 C 
ATOM     68  C   UNL A   1      45.735  25.569  30.193  1.00  0.00     0.034 A 
BRANCH  55  69
ATOM     69  C   UNL A   1      44.241  22.909  25.733  1.00  0.00     0.023 A 
ATOM     70  C   UNL A   1      44.211  21.513  25.564  1.00  0.00     0.031 A 
ATOM     71  C   UNL A   1      45.243  23.590  25.003  1.00  0.00     0.131 A 
ATOM     72  C   UNL A   1      45.212  20.850  24.838  1.00  0.00     0.055 A 
ATOM     73  C   UNL A   1      46.197  22.929  24.224  1.00  0.00     0.041 A 
ATOM     74  F   UNL A   1      45.421  24.913  25.053  1.00  0.00    -0.206 F 
ATOM     75  C   UNL A   1      46.211  21.548  24.169  1.00  0.00     0.022 A 
BRANCH  72  76
ATOM     76  S   UNL A   1      45.285  19.048  24.956  1.00  0.00     0.124 S 
ATOM     77  O   UNL A   1      45.136  18.662  23.557  1.00  0.00    -0.237 OA
ATOM     78  O   UNL A   1      46.604  18.842  25.546  1.00  0.00    -0.237 OA
ATOM     79  O   UNL A   1      44.155  18.721  25.822  1.00  0.00    -0.744 OA
ENDBRANCH  72  76
ENDBRANCH  55  69
BRANCH  56  80
ATOM     80  C   UNL A   1      47.400  30.602  27.574  1.00  0.00     0.023 A 
ATOM     81  C   UNL A   1      46.862  31.761  26.966  1.00  0.00     0.031 A 
ATOM     82  C   UNL A   1      48.796  30.603  27.798  1.00  0.00     0.131 A 
ATOM     83  C   UNL A   1      47.705  32.850  26.623  1.00  0.00     0.055 A 
ATOM     84  C   UNL A   1      49.620  31.681  27.463  1.00  0.00     0.041 A 
ATOM     85  F   UNL A   1      49.394  29.587  28.439  1.00  0.00    -0.206 F 
ATOM     86  C   UNL A   1      49.076  32.814  26.883  1.00  0.00     0.022 A 
BRANCH  83  87
ATOM     87  S   UNL A   1      47.017  34.385  25.907  1.00  0.00     0.124 S 
ATOM     88  O   UNL A   1      45.841  33.897  25.196  1.00  0.00    -0.237 OA
ATOM     89  O   UNL A   1      46.771  35.202  27.089  1.00  0.00    -0.237 OA
ATOM     90  O   UNL A   1      48.094  34.873  25.044  1.00  0.00    -0.744 OA
ENDBRANCH  83  87
ENDBRANCH  56  80
BRANCH  68  91
ATOM     91  C   UNL A   1      45.581  26.085  31.614  1.00  0.00     0.023 A 
ATOM     92  C   UNL A   1      44.423  26.700  32.147  1.00  0.00     0.031 A 
ATOM     93  C   UNL A   1      46.641  25.821  32.502  1.00  0.00     0.131 A 
ATOM     94  C   UNL A   1      44.366  27.029  33.519  1.00  0.00     0.055 A 
ATOM     95  C   UNL A   1      46.570  26.126  33.860  1.00  0.00     0.041 A 
ATOM     96  F   UNL A   1      47.761  25.222  32.066  1.00  0.00    -0.206 F 
ATOM     97  C   UNL A   1      45.434  26.737  34.373  1.00  0.00     0.022 A 
BRANCH  94  98
ATOM     98  S   UNL A   1      42.908  27.871  34.223  1.00  0.00     0.124 S 
ATOM     99  O   UNL A   1      42.256  26.830  35.007  1.00  0.00    -0.237 OA
ATOM    100  O   UNL A   1      43.510  28.962  34.985  1.00  0.00    -0.237 OA
ATOM    101  O   UNL A   1      42.158  28.301  33.040  1.00  0.00    -0.744 OA
ENDBRANCH  94  98
ENDBRANCH  68  91
ENDBRANCH  42  43
ENDBRANCH  34  37
ENDBRANCH  32  33
ENDBRANCH   1  32
TORSDOF 17
ENDMDL
