MODEL 1
REMARK VINA RESULT:     -11.4      0.000      0.000
REMARK SMILES Cc1ccc(-c2nn(-c3ccccc3)cc2[C@@H]2[NH2+][C@H](C(=O)NCCCNC(=O)c3ccc(-c4c5nc(c(-c6cc(S(=O)(=O)[O-])ccc6F)c6ccc([nH]6)c(-c6cc(S(=O)(=O)[O-])ccc6F)c6nc(c(-c7cc(S(=O)(=O)[O-])ccc7F)c7ccc4[nH]7)C=C6)C=C5)cc3)CS2)cc1
REMARK SMILES IDX 24 1 23 2 22 3 20 4 21 5 19 7 17 8 18 9 93 10 92 13 16 14
REMARK SMILES IDX 6 15 7 16 8 17 15 18 5 19 1 20 2 21 3 22 95 23 4 24 94 25
REMARK SMILES IDX 9 26 10 27 14 28 11 29 13 30 12 31 25 32 26 33 27 34 28 36
REMARK SMILES IDX 29 37 30 38 91 39 31 40 90 41 32 42 33 43 34 44 84 45 35 46
REMARK SMILES IDX 89 47 83 48 85 49 36 50 88 51 82 52 81 53 37 55 69 56 49 57
REMARK SMILES IDX 68 58 50 59 53 60 67 61 86 62 51 63 52 64 66 66 87 67 54 68
REMARK SMILES IDX 38 69 39 70 47 71 40 72 46 73 48 74 45 75 41 76 42 77 43 78
REMARK SMILES IDX 44 79 70 80 71 81 79 82 72 83 78 84 80 85 77 86 73 87 74 88
REMARK SMILES IDX 75 89 76 90 55 91 56 92 64 93 57 94 63 95 65 96 62 97 58 98
REMARK SMILES IDX 59 99 60 100 61 101
REMARK H PARENT 22 6 18 11 18 12 26 35 85 54 53 65
REMARK Flexibility Score: inf
ROOT
ATOM      1  C   UNL A   1      38.797  30.640  35.569  1.00  0.00     0.042 C 
ENDROOT
BRANCH   1   2
ATOM      2  C   UNL A   1      38.379  32.088  35.280  1.00  0.00     0.118 C 
BRANCH   2   3
ATOM      3  N   UNL A   1      37.095  32.151  34.595  1.00  0.00    -0.351 N 
ATOM      4  C   UNL A   1      36.763  32.532  33.335  1.00  0.00     0.279 C 
ATOM      5  O   UNL A   1      35.564  32.508  33.029  1.00  0.00    -0.268 OA
ATOM      6  H   UNL A   1      36.330  31.864  35.145  1.00  0.00     0.163 HD
BRANCH   4   7
ATOM      7  C   UNL A   1      37.790  32.953  32.276  1.00  0.00     0.283 C 
ATOM      8  C   UNL A   1      38.466  32.406  30.010  1.00  0.00     0.278 C 
ATOM      9  N   UNL A   1      38.167  31.862  31.342  1.00  0.00    -0.320 N 
ATOM     10  S   UNL A   1      38.523  34.209  30.143  1.00  0.00    -0.087 SA
ATOM     11  H   UNL A   1      38.991  31.381  31.700  1.00  0.00     0.348 HD
ATOM     12  H   UNL A   1      37.385  31.210  31.264  1.00  0.00     0.348 HD
ATOM     13  C   UNL A   1      37.363  34.206  31.535  1.00  0.00     0.151 C 
BRANCH   8  14
ATOM     14  C   UNL A   1      37.404  31.904  29.073  1.00  0.00     0.067 A 
ATOM     15  C   UNL A   1      37.310  30.618  28.450  1.00  0.00     0.103 A 
ATOM     16  N   UNL A   1      36.099  30.444  27.892  1.00  0.00    -0.167 NA
ATOM     17  N   UNL A   1      35.445  31.619  28.044  1.00  0.00    -0.240 N 
ATOM     18  C   UNL A   1      36.249  32.551  28.648  1.00  0.00     0.126 A 
BRANCH  15  19
ATOM     19  C   UNL A   1      38.261  29.497  28.395  1.00  0.00     0.003 A 
ATOM     20  C   UNL A   1      41.017  26.184  27.984  1.00  0.00     0.044 C 
ATOM     21  C   UNL A   1      40.074  27.339  28.126  1.00  0.00    -0.051 A 
ATOM     22  C   UNL A   1      39.139  27.361  29.167  1.00  0.00     0.004 A 
ATOM     23  C   UNL A   1      40.079  28.387  27.204  1.00  0.00     0.004 A 
ATOM     24  C   UNL A   1      38.245  28.432  29.300  1.00  0.00     0.011 A 
ATOM     25  C   UNL A   1      39.181  29.451  27.337  1.00  0.00     0.011 A 
ENDBRANCH  15  19
BRANCH  17  26
ATOM     26  C   UNL A   1      34.100  31.774  27.614  1.00  0.00     0.065 A 
ATOM     27  C   UNL A   1      33.406  30.666  27.114  1.00  0.00     0.028 A 
ATOM     28  C   UNL A   1      33.444  33.005  27.704  1.00  0.00     0.028 A 
ATOM     29  C   UNL A   1      32.070  30.779  26.720  1.00  0.00     0.002 A 
ATOM     30  C   UNL A   1      32.125  33.127  27.251  1.00  0.00     0.002 A 
ATOM     31  C   UNL A   1      31.436  32.015  26.764  1.00  0.00     0.000 A 
ENDBRANCH  17  26
ENDBRANCH   8  14
ENDBRANCH   4   7
ENDBRANCH   2   3
ENDBRANCH   1   2
BRANCH   1  32
ATOM     32  C   UNL A   1      40.304  30.428  35.603  1.00  0.00     0.118 C 
BRANCH  32  33
ATOM     33  N   UNL A   1      40.831  29.087  35.884  1.00  0.00    -0.352 N 
ATOM     34  C   UNL A   1      41.558  28.284  35.001  1.00  0.00     0.251 C 
ATOM     35  H   UNL A   1      40.656  28.718  36.781  1.00  0.00     0.163 HD
ATOM     36  O   UNL A   1      42.019  27.197  35.284  1.00  0.00    -0.269 OA
BRANCH  34  37
ATOM     37  C   UNL A   1      41.848  28.895  33.685  1.00  0.00     0.039 A 
ATOM     38  C   UNL A   1      40.987  28.584  32.619  1.00  0.00     0.014 A 
ATOM     39  C   UNL A   1      43.168  29.261  33.480  1.00  0.00     0.014 A 
ATOM     40  C   UNL A   1      41.515  28.388  31.343  1.00  0.00     0.010 A 
ATOM     41  C   UNL A   1      43.704  28.942  32.256  1.00  0.00     0.010 A 
ATOM     42  C   UNL A   1      42.892  28.484  31.192  1.00  0.00    -0.014 A 
BRANCH  42  43
ATOM     43  C   UNL A   1      43.653  28.245  29.970  1.00  0.00     0.031 A 
ATOM     44  C   UNL A   1      44.015  26.831  29.696  1.00  0.00     0.074 A 
ATOM     45  C   UNL A   1      43.633  29.142  28.958  1.00  0.00     0.049 A 
ATOM     46  N   UNL A   1      44.572  26.402  28.621  1.00  0.00    -0.248 NA
ATOM     47  C   UNL A   1      43.760  25.764  30.661  1.00  0.00     0.031 C 
ATOM     48  C   UNL A   1      43.676  28.826  27.532  1.00  0.00     0.029 A 
ATOM     49  N   UNL A   1      43.791  30.527  29.005  1.00  0.00    -0.354 N 
ATOM     50  C   UNL A   1      44.410  25.036  28.584  1.00  0.00     0.074 A 
ATOM     51  C   UNL A   1      43.996  24.682  29.916  1.00  0.00     0.031 C 
ATOM     52  C   UNL A   1      44.079  29.903  26.849  1.00  0.00     0.029 A 
ATOM     53  C   UNL A   1      44.457  30.913  27.809  1.00  0.00     0.049 A 
ATOM     54  H   UNL A   1      43.497  31.124  29.731  1.00  0.00     0.167 HD
ATOM     55  C   UNL A   1      44.526  24.407  27.380  1.00  0.00     0.034 A 
ATOM     56  C   UNL A   1      45.695  31.493  27.855  1.00  0.00     0.034 A 
ATOM     57  C   UNL A   1      45.145  25.301  26.387  1.00  0.00     0.049 A 
ATOM     58  C   UNL A   1      46.823  30.589  27.410  1.00  0.00     0.074 A 
ATOM     59  C   UNL A   1      44.732  25.993  25.261  1.00  0.00     0.029 A 
ATOM     60  N   UNL A   1      46.401  25.800  26.687  1.00  0.00    -0.354 N 
ATOM     61  N   UNL A   1      46.671  29.486  26.729  1.00  0.00    -0.248 NA
ATOM     62  C   UNL A   1      48.216  30.822  27.792  1.00  0.00     0.031 C 
ATOM     63  C   UNL A   1      45.738  26.969  24.950  1.00  0.00     0.029 A 
ATOM     64  C   UNL A   1      46.771  26.841  25.862  1.00  0.00     0.049 A 
ATOM     65  H   UNL A   1      46.969  25.450  27.410  1.00  0.00     0.167 HD
ATOM     66  C   UNL A   1      47.867  28.814  26.686  1.00  0.00     0.074 A 
ATOM     67  C   UNL A   1      48.810  29.705  27.343  1.00  0.00     0.031 C 
ATOM     68  C   UNL A   1      48.004  27.549  26.182  1.00  0.00     0.034 A 
BRANCH  55  69
ATOM     69  C   UNL A   1      43.966  23.041  27.031  1.00  0.00     0.023 A 
ATOM     70  C   UNL A   1      44.704  22.224  26.149  1.00  0.00     0.031 A 
ATOM     71  C   UNL A   1      42.724  22.499  27.431  1.00  0.00     0.131 A 
ATOM     72  C   UNL A   1      44.205  20.992  25.684  1.00  0.00     0.055 A 
ATOM     73  C   UNL A   1      42.227  21.273  26.971  1.00  0.00     0.041 A 
ATOM     74  F   UNL A   1      41.906  23.106  28.292  1.00  0.00    -0.206 F 
ATOM     75  C   UNL A   1      42.964  20.513  26.086  1.00  0.00     0.022 A 
BRANCH  72  76
ATOM     76  S   UNL A   1      45.197  20.020  24.521  1.00  0.00     0.124 S 
ATOM     77  O   UNL A   1      46.545  20.517  24.781  1.00  0.00    -0.237 OA
ATOM     78  O   UNL A   1      44.916  18.653  24.945  1.00  0.00    -0.237 OA
ATOM     79  O   UNL A   1      44.646  20.386  23.217  1.00  0.00    -0.744 OA
ENDBRANCH  72  76
ENDBRANCH  55  69
BRANCH  56  80
ATOM     80  C   UNL A   1      45.749  32.550  28.898  1.00  0.00     0.023 A 
ATOM     81  C   UNL A   1      45.119  33.761  28.533  1.00  0.00     0.031 A 
ATOM     82  C   UNL A   1      45.802  32.186  30.252  1.00  0.00     0.131 A 
ATOM     83  C   UNL A   1      44.326  34.420  29.472  1.00  0.00     0.055 A 
ATOM     84  C   UNL A   1      45.042  32.876  31.192  1.00  0.00     0.041 A 
ATOM     85  F   UNL A   1      46.406  31.051  30.635  1.00  0.00    -0.206 F 
ATOM     86  C   UNL A   1      44.255  33.953  30.783  1.00  0.00     0.022 A 
BRANCH  83  87
ATOM     87  S   UNL A   1      43.145  35.698  28.944  1.00  0.00     0.124 S 
ATOM     88  O   UNL A   1      43.429  36.780  29.880  1.00  0.00    -0.237 OA
ATOM     89  O   UNL A   1      43.511  35.950  27.554  1.00  0.00    -0.237 OA
ATOM     90  O   UNL A   1      41.850  35.039  29.118  1.00  0.00    -0.744 OA
ENDBRANCH  83  87
ENDBRANCH  56  80
BRANCH  68  91
ATOM     91  C   UNL A   1      49.351  26.873  26.040  1.00  0.00     0.023 A 
ATOM     92  C   UNL A   1      50.129  27.051  24.885  1.00  0.00     0.031 A 
ATOM     93  C   UNL A   1      49.869  25.971  26.997  1.00  0.00     0.131 A 
ATOM     94  C   UNL A   1      51.391  26.447  24.759  1.00  0.00     0.055 A 
ATOM     95  C   UNL A   1      51.081  25.293  26.825  1.00  0.00     0.041 A 
ATOM     96  F   UNL A   1      49.251  25.730  28.161  1.00  0.00    -0.206 F 
ATOM     97  C   UNL A   1      51.860  25.543  25.708  1.00  0.00     0.022 A 
BRANCH  94  98
ATOM     98  S   UNL A   1      52.442  26.936  23.371  1.00  0.00     0.124 S 
ATOM     99  O   UNL A   1      53.021  28.193  23.833  1.00  0.00    -0.237 OA
ATOM    100  O   UNL A   1      53.362  25.805  23.288  1.00  0.00    -0.237 OA
ATOM    101  O   UNL A   1      51.506  27.056  22.255  1.00  0.00    -0.744 OA
ENDBRANCH  94  98
ENDBRANCH  68  91
ENDBRANCH  42  43
ENDBRANCH  34  37
ENDBRANCH  32  33
ENDBRANCH   1  32
TORSDOF 16
ENDMDL
MODEL 2
REMARK VINA RESULT:     -10.8      2.136      2.554
REMARK SMILES Cc1ccc(-c2nn(-c3ccccc3)cc2[C@@H]2[NH2+][C@H](C(=O)NCCCNC(=O)c3ccc(-c4c5nc(c(-c6cc(S(=O)(=O)[O-])ccc6F)c6ccc([nH]6)c(-c6cc(S(=O)(=O)[O-])ccc6F)c6nc(c(-c7cc(S(=O)(=O)[O-])ccc7F)c7ccc4[nH]7)C=C6)C=C5)cc3)CS2)cc1
REMARK SMILES IDX 24 1 23 2 22 3 20 4 21 5 19 7 17 8 18 9 93 10 92 13 16 14
REMARK SMILES IDX 6 15 7 16 8 17 15 18 5 19 1 20 2 21 3 22 95 23 4 24 94 25
REMARK SMILES IDX 9 26 10 27 14 28 11 29 13 30 12 31 25 32 26 33 27 34 28 36
REMARK SMILES IDX 29 37 30 38 91 39 31 40 90 41 32 42 33 43 34 44 84 45 35 46
REMARK SMILES IDX 89 47 83 48 85 49 36 50 88 51 82 52 81 53 37 55 69 56 49 57
REMARK SMILES IDX 68 58 50 59 53 60 67 61 86 62 51 63 52 64 66 66 87 67 54 68
REMARK SMILES IDX 38 69 39 70 47 71 40 72 46 73 48 74 45 75 41 76 42 77 43 78
REMARK SMILES IDX 44 79 70 80 71 81 79 82 72 83 78 84 80 85 77 86 73 87 74 88
REMARK SMILES IDX 75 89 76 90 55 91 56 92 64 93 57 94 63 95 65 96 62 97 58 98
REMARK SMILES IDX 59 99 60 100 61 101
REMARK H PARENT 22 6 18 11 18 12 26 35 85 54 53 65
REMARK Flexibility Score: inf
ROOT
ATOM      1  C   UNL A   1      41.192  31.299  36.443  1.00  0.00     0.042 C 
ENDROOT
BRANCH   1   2
ATOM      2  C   UNL A   1      39.871  30.805  35.841  1.00  0.00     0.118 C 
BRANCH   2   3
ATOM      3  N   UNL A   1      38.955  31.907  35.577  1.00  0.00    -0.351 N 
ATOM      4  C   UNL A   1      38.902  32.813  34.566  1.00  0.00     0.279 C 
ATOM      5  O   UNL A   1      38.012  33.671  34.616  1.00  0.00    -0.268 OA
ATOM      6  H   UNL A   1      38.246  32.014  36.251  1.00  0.00     0.163 HD
BRANCH   4   7
ATOM      7  C   UNL A   1      39.859  32.805  33.366  1.00  0.00     0.283 C 
ATOM      8  C   UNL A   1      39.910  32.167  31.025  1.00  0.00     0.278 C 
ATOM      9  N   UNL A   1      39.579  31.725  32.387  1.00  0.00    -0.320 N 
ATOM     10  S   UNL A   1      40.786  33.745  31.149  1.00  0.00    -0.087 SA
ATOM     11  H   UNL A   1      40.140  30.906  32.619  1.00  0.00     0.348 HD
ATOM     12  H   UNL A   1      38.586  31.493  32.427  1.00  0.00     0.348 HD
ATOM     13  C   UNL A   1      39.944  34.164  32.698  1.00  0.00     0.151 C 
BRANCH   8  14
ATOM     14  C   UNL A   1      38.622  32.251  30.257  1.00  0.00     0.067 A 
ATOM     15  C   UNL A   1      37.943  31.206  29.551  1.00  0.00     0.103 A 
ATOM     16  N   UNL A   1      36.700  31.588  29.209  1.00  0.00    -0.167 NA
ATOM     17  N   UNL A   1      36.593  32.886  29.580  1.00  0.00    -0.240 N 
ATOM     18  C   UNL A   1      37.773  33.342  30.106  1.00  0.00     0.126 A 
BRANCH  15  19
ATOM     19  C   UNL A   1      38.355  29.832  29.227  1.00  0.00     0.003 A 
ATOM     20  C   UNL A   1      39.663  25.768  28.507  1.00  0.00     0.044 C 
ATOM     21  C   UNL A   1      39.198  27.170  28.759  1.00  0.00    -0.051 A 
ATOM     22  C   UNL A   1      39.430  28.170  27.809  1.00  0.00     0.004 A 
ATOM     23  C   UNL A   1      38.566  27.512  29.956  1.00  0.00     0.004 A 
ATOM     24  C   UNL A   1      39.010  29.486  28.041  1.00  0.00     0.011 A 
ATOM     25  C   UNL A   1      38.153  28.828  30.187  1.00  0.00     0.011 A 
ENDBRANCH  15  19
BRANCH  17  26
ATOM     26  C   UNL A   1      35.376  33.600  29.416  1.00  0.00     0.065 A 
ATOM     27  C   UNL A   1      34.725  33.574  28.177  1.00  0.00     0.028 A 
ATOM     28  C   UNL A   1      34.799  34.309  30.474  1.00  0.00     0.028 A 
ATOM     29  C   UNL A   1      33.506  34.234  27.997  1.00  0.00     0.002 A 
ATOM     30  C   UNL A   1      33.610  35.019  30.271  1.00  0.00     0.002 A 
ATOM     31  C   UNL A   1      32.961  34.978  29.036  1.00  0.00     0.000 A 
ENDBRANCH  17  26
ENDBRANCH   8  14
ENDBRANCH   4   7
ENDBRANCH   2   3
ENDBRANCH   1   2
BRANCH   1  32
ATOM     32  C   UNL A   1      42.328  30.290  36.349  1.00  0.00     0.118 C 
BRANCH  32  33
ATOM     33  N   UNL A   1      42.014  28.855  36.370  1.00  0.00    -0.352 N 
ATOM     34  C   UNL A   1      41.775  28.047  35.255  1.00  0.00     0.251 C 
ATOM     35  H   UNL A   1      41.968  28.422  37.253  1.00  0.00     0.163 HD
ATOM     36  O   UNL A   1      41.564  26.852  35.307  1.00  0.00    -0.269 OA
BRANCH  34  37
ATOM     37  C   UNL A   1      41.909  28.721  33.945  1.00  0.00     0.039 A 
ATOM     38  C   UNL A   1      40.889  28.515  33.000  1.00  0.00     0.014 A 
ATOM     39  C   UNL A   1      43.203  29.038  33.570  1.00  0.00     0.014 A 
ATOM     40  C   UNL A   1      41.220  28.372  31.653  1.00  0.00     0.010 A 
ATOM     41  C   UNL A   1      43.543  28.769  32.267  1.00  0.00     0.010 A 
ATOM     42  C   UNL A   1      42.564  28.413  31.309  1.00  0.00    -0.014 A 
BRANCH  42  43
ATOM     43  C   UNL A   1      43.130  28.212  29.979  1.00  0.00     0.031 A 
ATOM     44  C   UNL A   1      43.601  26.838  29.673  1.00  0.00     0.074 A 
ATOM     45  C   UNL A   1      42.836  29.062  28.968  1.00  0.00     0.049 A 
ATOM     46  N   UNL A   1      44.013  26.431  28.527  1.00  0.00    -0.248 NA
ATOM     47  C   UNL A   1      43.637  25.786  30.687  1.00  0.00     0.031 C 
ATOM     48  C   UNL A   1      42.673  28.699  27.563  1.00  0.00     0.029 A 
ATOM     49  N   UNL A   1      42.839  30.457  28.962  1.00  0.00    -0.354 N 
ATOM     50  C   UNL A   1      44.006  25.055  28.544  1.00  0.00     0.074 A 
ATOM     51  C   UNL A   1      43.866  24.709  29.934  1.00  0.00     0.031 C 
ATOM     52  C   UNL A   1      42.828  29.786  26.800  1.00  0.00     0.029 A 
ATOM     53  C   UNL A   1      43.245  30.868  27.662  1.00  0.00     0.049 A 
ATOM     54  H   UNL A   1      42.605  31.045  29.716  1.00  0.00     0.167 HD
ATOM     55  C   UNL A   1      43.988  24.398  27.350  1.00  0.00     0.034 A 
ATOM     56  C   UNL A   1      44.398  31.582  27.483  1.00  0.00     0.034 A 
ATOM     57  C   UNL A   1      44.323  25.315  26.249  1.00  0.00     0.049 A 
ATOM     58  C   UNL A   1      45.531  30.791  26.867  1.00  0.00     0.074 A 
ATOM     59  C   UNL A   1      43.649  25.913  25.198  1.00  0.00     0.029 A 
ATOM     60  N   UNL A   1      45.545  25.961  26.318  1.00  0.00    -0.354 N 
ATOM     61  N   UNL A   1      45.393  29.652  26.243  1.00  0.00    -0.248 NA
ATOM     62  C   UNL A   1      46.932  31.190  26.998  1.00  0.00     0.031 C 
ATOM     63  C   UNL A   1      44.468  26.981  24.699  1.00  0.00     0.029 A 
ATOM     64  C   UNL A   1      45.648  27.004  25.422  1.00  0.00     0.049 A 
ATOM     65  H   UNL A   1      46.265  25.703  26.939  1.00  0.00     0.167 HD
ATOM     66  C   UNL A   1      46.634  29.115  26.008  1.00  0.00     0.074 A 
ATOM     67  C   UNL A   1      47.566  30.129  26.474  1.00  0.00     0.031 C 
ATOM     68  C   UNL A   1      46.828  27.855  25.511  1.00  0.00     0.034 A 
BRANCH  55  69
ATOM     69  C   UNL A   1      43.538  22.966  27.129  1.00  0.00     0.023 A 
ATOM     70  C   UNL A   1      44.323  22.142  26.295  1.00  0.00     0.031 A 
ATOM     71  C   UNL A   1      42.355  22.358  27.607  1.00  0.00     0.131 A 
ATOM     72  C   UNL A   1      43.920  20.838  25.946  1.00  0.00     0.055 A 
ATOM     73  C   UNL A   1      41.954  21.061  27.261  1.00  0.00     0.041 A 
ATOM     74  F   UNL A   1      41.507  22.964  28.438  1.00  0.00    -0.206 F 
ATOM     75  C   UNL A   1      42.733  20.293  26.420  1.00  0.00     0.022 A 
BRANCH  72  76
ATOM     76  S   UNL A   1      44.965  19.858  24.838  1.00  0.00     0.124 S 
ATOM     77  O   UNL A   1      46.307  20.267  25.244  1.00  0.00    -0.237 OA
ATOM     78  O   UNL A   1      44.572  18.494  25.172  1.00  0.00    -0.237 OA
ATOM     79  O   UNL A   1      44.561  20.307  23.506  1.00  0.00    -0.744 OA
ENDBRANCH  72  76
ENDBRANCH  55  69
BRANCH  56  80
ATOM     80  C   UNL A   1      44.505  32.678  28.481  1.00  0.00     0.023 A 
ATOM     81  C   UNL A   1      45.432  32.430  29.519  1.00  0.00     0.031 A 
ATOM     82  C   UNL A   1      44.254  34.000  28.087  1.00  0.00     0.131 A 
ATOM     83  C   UNL A   1      46.275  33.460  29.933  1.00  0.00     0.055 A 
ATOM     84  C   UNL A   1      45.072  35.032  28.539  1.00  0.00     0.041 A 
ATOM     85  F   UNL A   1      43.370  34.272  27.115  1.00  0.00    -0.206 F 
ATOM     86  C   UNL A   1      46.122  34.744  29.412  1.00  0.00     0.022 A 
BRANCH  83  87
ATOM     87  S   UNL A   1      47.764  33.095  30.911  1.00  0.00     0.124 S 
ATOM     88  O   UNL A   1      48.776  32.934  29.874  1.00  0.00    -0.237 OA
ATOM     89  O   UNL A   1      47.910  34.270  31.764  1.00  0.00    -0.237 OA
ATOM     90  O   UNL A   1      47.394  31.872  31.625  1.00  0.00    -0.744 OA
ENDBRANCH  83  87
ENDBRANCH  56  80
BRANCH  68  91
ATOM     91  C   UNL A   1      48.200  27.326  25.152  1.00  0.00     0.023 A 
ATOM     92  C   UNL A   1      49.044  26.783  26.135  1.00  0.00     0.031 A 
ATOM     93  C   UNL A   1      48.750  27.416  23.853  1.00  0.00     0.131 A 
ATOM     94  C   UNL A   1      50.307  26.267  25.804  1.00  0.00     0.055 A 
ATOM     95  C   UNL A   1      50.047  26.992  23.546  1.00  0.00     0.041 A 
ATOM     96  F   UNL A   1      48.048  27.881  22.811  1.00  0.00    -0.206 F 
ATOM     97  C   UNL A   1      50.829  26.396  24.520  1.00  0.00     0.022 A 
BRANCH  94  98
ATOM     98  S   UNL A   1      51.217  25.347  27.068  1.00  0.00     0.124 S 
ATOM     99  O   UNL A   1      51.638  26.396  27.990  1.00  0.00    -0.237 OA
ATOM    100  O   UNL A   1      50.187  24.439  27.567  1.00  0.00    -0.237 OA
ATOM    101  O   UNL A   1      52.297  24.707  26.319  1.00  0.00    -0.744 OA
ENDBRANCH  94  98
ENDBRANCH  68  91
ENDBRANCH  42  43
ENDBRANCH  34  37
ENDBRANCH  32  33
ENDBRANCH   1  32
TORSDOF 16
ENDMDL
MODEL 3
REMARK VINA RESULT:     -10.4      1.931      2.512
REMARK SMILES Cc1ccc(-c2nn(-c3ccccc3)cc2[C@@H]2[NH2+][C@H](C(=O)NCCCNC(=O)c3ccc(-c4c5nc(c(-c6cc(S(=O)(=O)[O-])ccc6F)c6ccc([nH]6)c(-c6cc(S(=O)(=O)[O-])ccc6F)c6nc(c(-c7cc(S(=O)(=O)[O-])ccc7F)c7ccc4[nH]7)C=C6)C=C5)cc3)CS2)cc1
REMARK SMILES IDX 24 1 23 2 22 3 20 4 21 5 19 7 17 8 18 9 93 10 92 13 16 14
REMARK SMILES IDX 6 15 7 16 8 17 15 18 5 19 1 20 2 21 3 22 95 23 4 24 94 25
REMARK SMILES IDX 9 26 10 27 14 28 11 29 13 30 12 31 25 32 26 33 27 34 28 36
REMARK SMILES IDX 29 37 30 38 91 39 31 40 90 41 32 42 33 43 34 44 84 45 35 46
REMARK SMILES IDX 89 47 83 48 85 49 36 50 88 51 82 52 81 53 37 55 69 56 49 57
REMARK SMILES IDX 68 58 50 59 53 60 67 61 86 62 51 63 52 64 66 66 87 67 54 68
REMARK SMILES IDX 38 69 39 70 47 71 40 72 46 73 48 74 45 75 41 76 42 77 43 78
REMARK SMILES IDX 44 79 70 80 71 81 79 82 72 83 78 84 80 85 77 86 73 87 74 88
REMARK SMILES IDX 75 89 76 90 55 91 56 92 64 93 57 94 63 95 65 96 62 97 58 98
REMARK SMILES IDX 59 99 60 100 61 101
REMARK H PARENT 22 6 18 11 18 12 26 35 85 54 53 65
REMARK Flexibility Score: inf
ROOT
ATOM      1  C   UNL A   1      41.511  30.752  36.772  1.00  0.00     0.042 C 
ENDROOT
BRANCH   1   2
ATOM      2  C   UNL A   1      40.123  30.306  36.293  1.00  0.00     0.118 C 
BRANCH   2   3
ATOM      3  N   UNL A   1      39.138  31.369  36.432  1.00  0.00    -0.351 N 
ATOM      4  C   UNL A   1      38.961  32.530  35.750  1.00  0.00     0.279 C 
ATOM      5  O   UNL A   1      38.037  33.269  36.112  1.00  0.00    -0.268 OA
ATOM      6  H   UNL A   1      38.480  31.218  37.149  1.00  0.00     0.163 HD
BRANCH   4   7
ATOM      7  C   UNL A   1      39.818  32.949  34.549  1.00  0.00     0.283 C 
ATOM      8  C   UNL A   1      39.744  32.980  32.123  1.00  0.00     0.278 C 
ATOM      9  N   UNL A   1      39.559  32.152  33.323  1.00  0.00    -0.320 N 
ATOM     10  S   UNL A   1      40.484  34.548  32.636  1.00  0.00    -0.087 SA
ATOM     11  H   UNL A   1      40.207  31.365  33.291  1.00  0.00     0.348 HD
ATOM     12  H   UNL A   1      38.596  31.814  33.347  1.00  0.00     0.348 HD
ATOM     13  C   UNL A   1      39.732  34.440  34.280  1.00  0.00     0.151 C 
BRANCH   8  14
ATOM     14  C   UNL A   1      38.397  33.132  31.474  1.00  0.00     0.067 A 
ATOM     15  C   UNL A   1      37.691  32.183  30.667  1.00  0.00     0.103 A 
ATOM     16  N   UNL A   1      36.417  32.567  30.481  1.00  0.00    -0.167 NA
ATOM     17  N   UNL A   1      36.306  33.787  31.055  1.00  0.00    -0.240 N 
ATOM     18  C   UNL A   1      37.512  34.201  31.558  1.00  0.00     0.126 A 
BRANCH  15  19
ATOM     19  C   UNL A   1      38.111  30.890  30.104  1.00  0.00     0.003 A 
ATOM     20  C   UNL A   1      39.191  27.130  28.250  1.00  0.00     0.044 C 
ATOM     21  C   UNL A   1      38.828  28.437  28.887  1.00  0.00    -0.051 A 
ATOM     22  C   UNL A   1      38.526  28.495  30.252  1.00  0.00     0.004 A 
ATOM     23  C   UNL A   1      38.743  29.605  28.128  1.00  0.00     0.004 A 
ATOM     24  C   UNL A   1      38.174  29.711  30.853  1.00  0.00     0.011 A 
ATOM     25  C   UNL A   1      38.386  30.816  28.730  1.00  0.00     0.011 A 
ENDBRANCH  15  19
BRANCH  17  26
ATOM     26  C   UNL A   1      35.063  34.473  31.094  1.00  0.00     0.065 A 
ATOM     27  C   UNL A   1      34.661  35.101  32.279  1.00  0.00     0.028 A 
ATOM     28  C   UNL A   1      34.241  34.558  29.967  1.00  0.00     0.028 A 
ATOM     29  C   UNL A   1      33.462  35.817  32.337  1.00  0.00     0.002 A 
ATOM     30  C   UNL A   1      33.013  35.224  30.047  1.00  0.00     0.002 A 
ATOM     31  C   UNL A   1      32.625  35.857  31.229  1.00  0.00     0.000 A 
ENDBRANCH  17  26
ENDBRANCH   8  14
ENDBRANCH   4   7
ENDBRANCH   2   3
ENDBRANCH   1   2
BRANCH   1  32
ATOM     32  C   UNL A   1      42.621  29.761  36.457  1.00  0.00     0.118 C 
BRANCH  32  33
ATOM     33  N   UNL A   1      42.308  28.326  36.412  1.00  0.00    -0.352 N 
ATOM     34  C   UNL A   1      42.072  27.570  35.261  1.00  0.00     0.251 C 
ATOM     35  H   UNL A   1      42.260  27.853  37.274  1.00  0.00     0.163 HD
ATOM     36  O   UNL A   1      41.861  26.374  35.258  1.00  0.00    -0.269 OA
BRANCH  34  37
ATOM     37  C   UNL A   1      42.208  28.303  33.983  1.00  0.00     0.039 A 
ATOM     38  C   UNL A   1      41.161  28.190  33.053  1.00  0.00     0.014 A 
ATOM     39  C   UNL A   1      43.508  28.581  33.595  1.00  0.00     0.014 A 
ATOM     40  C   UNL A   1      41.456  28.101  31.693  1.00  0.00     0.010 A 
ATOM     41  C   UNL A   1      43.807  28.364  32.271  1.00  0.00     0.010 A 
ATOM     42  C   UNL A   1      42.793  28.101  31.320  1.00  0.00    -0.014 A 
BRANCH  42  43
ATOM     43  C   UNL A   1      43.322  27.943  29.969  1.00  0.00     0.031 A 
ATOM     44  C   UNL A   1      43.795  26.582  29.611  1.00  0.00     0.074 A 
ATOM     45  C   UNL A   1      42.989  28.818  28.992  1.00  0.00     0.049 A 
ATOM     46  N   UNL A   1      44.177  26.213  28.441  1.00  0.00    -0.248 NA
ATOM     47  C   UNL A   1      43.870  25.503  30.593  1.00  0.00     0.031 C 
ATOM     48  C   UNL A   1      42.788  28.493  27.582  1.00  0.00     0.029 A 
ATOM     49  N   UNL A   1      42.980  30.213  29.025  1.00  0.00    -0.354 N 
ATOM     50  C   UNL A   1      44.182  24.836  28.420  1.00  0.00     0.074 A 
ATOM     51  C   UNL A   1      44.087  24.451  29.803  1.00  0.00     0.031 C 
ATOM     52  C   UNL A   1      42.911  29.603  26.846  1.00  0.00     0.029 A 
ATOM     53  C   UNL A   1      43.343  30.664  27.726  1.00  0.00     0.049 A 
ATOM     54  H   UNL A   1      42.763  30.777  29.802  1.00  0.00     0.167 HD
ATOM     55  C   UNL A   1      44.135  24.213  27.209  1.00  0.00     0.034 A 
ATOM     56  C   UNL A   1      44.484  31.394  27.534  1.00  0.00     0.034 A 
ATOM     57  C   UNL A   1      44.429  25.164  26.125  1.00  0.00     0.049 A 
ATOM     58  C   UNL A   1      45.605  30.632  26.863  1.00  0.00     0.074 A 
ATOM     59  C   UNL A   1      43.719  25.785  25.111  1.00  0.00     0.029 A 
ATOM     60  N   UNL A   1      45.647  25.820  26.176  1.00  0.00    -0.354 N 
ATOM     61  N   UNL A   1      45.459  29.510  26.211  1.00  0.00    -0.248 NA
ATOM     62  C   UNL A   1      47.006  31.041  26.964  1.00  0.00     0.031 C 
ATOM     63  C   UNL A   1      44.513  26.875  24.619  1.00  0.00     0.029 A 
ATOM     64  C   UNL A   1      45.714  26.888  25.308  1.00  0.00     0.049 A 
ATOM     65  H   UNL A   1      46.387  25.552  26.768  1.00  0.00     0.167 HD
ATOM     66  C   UNL A   1      46.697  28.992  25.924  1.00  0.00     0.074 A 
ATOM     67  C   UNL A   1      47.634  30.002  26.392  1.00  0.00     0.031 C 
ATOM     68  C   UNL A   1      46.889  27.748  25.387  1.00  0.00     0.034 A 
BRANCH  55  69
ATOM     69  C   UNL A   1      43.692  22.783  26.960  1.00  0.00     0.023 A 
ATOM     70  C   UNL A   1      44.511  21.962  26.157  1.00  0.00     0.031 A 
ATOM     71  C   UNL A   1      42.488  22.176  27.383  1.00  0.00     0.131 A 
ATOM     72  C   UNL A   1      44.120  20.661  25.783  1.00  0.00     0.055 A 
ATOM     73  C   UNL A   1      42.099  20.882  27.013  1.00  0.00     0.041 A 
ATOM     74  F   UNL A   1      41.606  22.780  28.180  1.00  0.00    -0.206 F 
ATOM     75  C   UNL A   1      42.912  20.117  26.202  1.00  0.00     0.022 A 
BRANCH  72  76
ATOM     76  S   UNL A   1      45.211  19.685  24.716  1.00  0.00     0.124 S 
ATOM     77  O   UNL A   1      45.105  18.355  25.308  1.00  0.00    -0.237 OA
ATOM     78  O   UNL A   1      44.598  19.863  23.405  1.00  0.00    -0.237 OA
ATOM     79  O   UNL A   1      46.512  20.331  24.881  1.00  0.00    -0.744 OA
ENDBRANCH  72  76
ENDBRANCH  55  69
BRANCH  56  80
ATOM     80  C   UNL A   1      44.611  32.462  28.559  1.00  0.00     0.023 A 
ATOM     81  C   UNL A   1      43.963  33.673  28.222  1.00  0.00     0.031 A 
ATOM     82  C   UNL A   1      44.751  32.113  29.910  1.00  0.00     0.131 A 
ATOM     83  C   UNL A   1      43.237  34.346  29.203  1.00  0.00     0.055 A 
ATOM     84  C   UNL A   1      44.059  32.817  30.890  1.00  0.00     0.041 A 
ATOM     85  F   UNL A   1      45.374  30.979  30.265  1.00  0.00    -0.206 F 
ATOM     86  C   UNL A   1      43.251  33.894  30.521  1.00  0.00     0.022 A 
BRANCH  83  87
ATOM     87  S   UNL A   1      42.029  35.624  28.739  1.00  0.00     0.124 S 
ATOM     88  O   UNL A   1      42.538  36.794  29.447  1.00  0.00    -0.237 OA
ATOM     89  O   UNL A   1      42.124  35.673  27.284  1.00  0.00    -0.237 OA
ATOM     90  O   UNL A   1      40.769  35.082  29.246  1.00  0.00    -0.744 OA
ENDBRANCH  83  87
ENDBRANCH  56  80
BRANCH  68  91
ATOM     91  C   UNL A   1      48.254  27.243  24.973  1.00  0.00     0.023 A 
ATOM     92  C   UNL A   1      49.134  26.688  25.916  1.00  0.00     0.031 A 
ATOM     93  C   UNL A   1      48.761  27.368  23.659  1.00  0.00     0.131 A 
ATOM     94  C   UNL A   1      50.392  26.195  25.533  1.00  0.00     0.055 A 
ATOM     95  C   UNL A   1      50.052  26.966  23.301  1.00  0.00     0.041 A 
ATOM     96  F   UNL A   1      48.022  27.849  22.650  1.00  0.00    -0.206 F 
ATOM     97  C   UNL A   1      50.871  26.358  24.237  1.00  0.00     0.022 A 
BRANCH  94  98
ATOM     98  S   UNL A   1      51.352  25.257  26.747  1.00  0.00     0.124 S 
ATOM     99  O   UNL A   1      50.338  24.422  27.383  1.00  0.00    -0.237 OA
ATOM    100  O   UNL A   1      52.304  24.556  25.888  1.00  0.00    -0.237 OA
ATOM    101  O   UNL A   1      51.932  26.291  27.601  1.00  0.00    -0.744 OA
ENDBRANCH  94  98
ENDBRANCH  68  91
ENDBRANCH  42  43
ENDBRANCH  34  37
ENDBRANCH  32  33
ENDBRANCH   1  32
TORSDOF 16
ENDMDL
