MODEL 1
REMARK VINA RESULT:     -12.0      0.000      0.000
REMARK SMILES O=C(CCc1ccc(S(=O)(=O)Nc2cccc(I)c2)cc1)NCCCNC(=O)c1ccc(-c2c3nc(c(-c4cc(S(=O)(=O)[O-])ccc4F)c4ccc([nH]4)c(-c4cc(S(=O)(=O)[O-])ccc4F)c4nc(c(-c5cc(S(=O)(=O)[O-])ccc5F)c5ccc2[nH]5)C=C4)C=C3)cc1
REMARK SMILES IDX 23 1 22 2 1 3 2 4 3 6 4 7 5 8 6 9 21 10 7 11 20 12 8 13 9 14
REMARK SMILES IDX 10 15 11 16 12 17 13 19 14 20 19 21 15 22 17 23 16 24 18 25
REMARK SMILES IDX 24 26 25 27 26 28 27 29 28 31 29 32 30 33 91 34 31 35 90 36
REMARK SMILES IDX 32 37 33 38 34 39 84 40 35 41 89 42 83 43 85 44 36 45 88 46
REMARK SMILES IDX 82 47 81 48 37 50 69 51 49 52 68 53 50 54 53 55 67 56 86 57
REMARK SMILES IDX 51 58 52 59 66 61 87 62 54 63 38 64 39 65 47 66 40 67 46 68
REMARK SMILES IDX 48 69 45 70 41 71 42 72 43 73 44 74 70 75 71 76 79 77 72 78
REMARK SMILES IDX 78 79 80 80 77 81 73 82 74 83 75 84 76 85 55 86 56 87 64 88
REMARK SMILES IDX 57 89 63 90 65 91 62 92 58 93 59 94 60 95 61 96
REMARK H PARENT 22 5 12 18 26 30 85 49 53 60
REMARK Flexibility Score: inf
ROOT
ATOM      1  C   UNL A   1      36.917  19.932  24.936  1.00  0.00     0.117 C 
ENDROOT
BRANCH   1   2
ATOM      2  N   UNL A   1      35.659  20.447  25.429  1.00  0.00    -0.356 N 
ATOM      3  O   UNL A   1      34.294  18.809  24.586  1.00  0.00    -0.275 OA
ATOM      4  C   UNL A   1      34.441  19.845  25.229  1.00  0.00     0.220 C 
ATOM      5  H   UNL A   1      35.676  21.286  25.945  1.00  0.00     0.163 HD
BRANCH   4   6
ATOM      6  C   UNL A   1      33.247  20.593  25.807  1.00  0.00     0.105 C 
BRANCH   6   7
ATOM      7  C   UNL A   1      32.115  20.862  24.807  1.00  0.00     0.045 C 
BRANCH   7   8
ATOM      8  C   UNL A   1      32.246  22.096  23.941  1.00  0.00    -0.047 A 
ATOM      9  C   UNL A   1      33.346  22.237  23.081  1.00  0.00     0.005 A 
ATOM     10  C   UNL A   1      31.298  23.125  23.981  1.00  0.00     0.005 A 
ATOM     11  C   UNL A   1      33.485  23.374  22.278  1.00  0.00     0.022 A 
ATOM     12  C   UNL A   1      31.385  24.209  23.110  1.00  0.00     0.022 A 
ATOM     13  C   UNL A   1      32.507  24.372  22.302  1.00  0.00     0.087 A 
BRANCH  13  14
ATOM     14  S   UNL A   1      32.827  25.866  21.377  1.00  0.00     0.261 S 
ATOM     15  O   UNL A   1      34.014  26.460  21.962  1.00  0.00    -0.201 OA
ATOM     16  O   UNL A   1      32.796  25.486  19.984  1.00  0.00    -0.201 OA
BRANCH  14  17
ATOM     17  N   UNL A   1      31.529  26.897  21.595  1.00  0.00    -0.280 N 
ATOM     18  H   UNL A   1      30.774  26.794  20.973  1.00  0.00     0.180 HD
BRANCH  17  19
ATOM     19  C   UNL A   1      31.405  27.910  22.590  1.00  0.00     0.050 A 
ATOM     20  C   UNL A   1      30.553  28.979  22.294  1.00  0.00     0.027 A 
ATOM     21  C   UNL A   1      31.946  27.807  23.875  1.00  0.00     0.041 A 
ATOM     22  C   UNL A   1      30.138  29.856  23.298  1.00  0.00     0.003 A 
ATOM     23  C   UNL A   1      31.504  28.667  24.884  1.00  0.00     0.015 A 
ATOM     24  C   UNL A   1      30.588  29.680  24.605  1.00  0.00     0.015 A 
ATOM     25  I   UNL A   1      32.128  28.353  26.844  1.00  0.00    -0.044 I 
ENDBRANCH  17  19
ENDBRANCH  14  17
ENDBRANCH  13  14
ENDBRANCH   7   8
ENDBRANCH   6   7
ENDBRANCH   4   6
ENDBRANCH   1   2
BRANCH   1  26
ATOM     26  C   UNL A   1      38.015  20.996  24.929  1.00  0.00     0.042 C 
BRANCH  26  27
ATOM     27  C   UNL A   1      39.000  20.948  26.099  1.00  0.00     0.118 C 
BRANCH  27  28
ATOM     28  N   UNL A   1      39.979  19.877  26.001  1.00  0.00    -0.352 N 
ATOM     29  C   UNL A   1      41.353  19.926  26.065  1.00  0.00     0.251 C 
ATOM     30  H   UNL A   1      39.601  18.977  25.867  1.00  0.00     0.163 HD
ATOM     31  O   UNL A   1      42.002  18.915  25.809  1.00  0.00    -0.269 OA
BRANCH  29  32
ATOM     32  C   UNL A   1      42.062  21.180  26.420  1.00  0.00     0.039 A 
ATOM     33  C   UNL A   1      42.362  22.098  25.405  1.00  0.00     0.014 A 
ATOM     34  C   UNL A   1      42.462  21.448  27.730  1.00  0.00     0.014 A 
ATOM     35  C   UNL A   1      42.979  23.315  25.716  1.00  0.00     0.010 A 
ATOM     36  C   UNL A   1      43.038  22.677  28.048  1.00  0.00     0.010 A 
ATOM     37  C   UNL A   1      43.286  23.630  27.048  1.00  0.00    -0.014 A 
BRANCH  37  38
ATOM     38  C   UNL A   1      43.809  24.964  27.441  1.00  0.00     0.031 A 
ATOM     39  C   UNL A   1      42.887  26.009  28.003  1.00  0.00     0.074 A 
ATOM     40  C   UNL A   1      45.092  25.272  27.170  1.00  0.00     0.049 A 
ATOM     41  N   UNL A   1      43.112  27.277  28.227  1.00  0.00    -0.248 NA
ATOM     42  C   UNL A   1      41.522  25.569  28.325  1.00  0.00     0.031 C 
ATOM     43  C   UNL A   1      46.078  24.353  26.597  1.00  0.00     0.029 A 
ATOM     44  N   UNL A   1      45.780  26.454  27.306  1.00  0.00    -0.354 N 
ATOM     45  C   UNL A   1      41.914  27.797  28.707  1.00  0.00     0.074 A 
ATOM     46  C   UNL A   1      40.956  26.709  28.696  1.00  0.00     0.031 C 
ATOM     47  C   UNL A   1      47.236  25.008  26.417  1.00  0.00     0.029 A 
ATOM     48  C   UNL A   1      47.066  26.400  26.821  1.00  0.00     0.049 A 
ATOM     49  H   UNL A   1      45.388  27.261  27.712  1.00  0.00     0.167 HD
ATOM     50  C   UNL A   1      41.646  29.060  29.128  1.00  0.00     0.034 A 
ATOM     51  C   UNL A   1      47.994  27.368  26.689  1.00  0.00     0.034 A 
ATOM     52  C   UNL A   1      42.615  30.130  29.143  1.00  0.00     0.049 A 
ATOM     53  C   UNL A   1      47.668  28.766  27.139  1.00  0.00     0.074 A 
ATOM     54  C   UNL A   1      42.460  31.429  29.596  1.00  0.00     0.029 A 
ATOM     55  N   UNL A   1      43.920  30.028  28.677  1.00  0.00    -0.354 N 
ATOM     56  N   UNL A   1      46.541  29.235  27.619  1.00  0.00    -0.248 NA
ATOM     57  C   UNL A   1      48.743  29.763  27.042  1.00  0.00     0.031 C 
ATOM     58  C   UNL A   1      43.650  32.127  29.355  1.00  0.00     0.029 A 
ATOM     59  C   UNL A   1      44.571  31.246  28.811  1.00  0.00     0.049 A 
ATOM     60  H   UNL A   1      44.326  29.211  28.307  1.00  0.00     0.167 HD
ATOM     61  C   UNL A   1      46.784  30.573  27.917  1.00  0.00     0.074 A 
ATOM     62  C   UNL A   1      48.163  30.837  27.559  1.00  0.00     0.031 C 
ATOM     63  C   UNL A   1      45.946  31.497  28.451  1.00  0.00     0.034 A 
BRANCH  50  64
ATOM     64  C   UNL A   1      40.237  29.354  29.580  1.00  0.00     0.023 A 
ATOM     65  C   UNL A   1      39.909  29.466  30.941  1.00  0.00     0.031 A 
ATOM     66  C   UNL A   1      39.203  29.507  28.638  1.00  0.00     0.131 A 
ATOM     67  C   UNL A   1      38.572  29.646  31.327  1.00  0.00     0.055 A 
ATOM     68  C   UNL A   1      37.887  29.767  29.027  1.00  0.00     0.041 A 
ATOM     69  F   UNL A   1      39.453  29.392  27.325  1.00  0.00    -0.206 F 
ATOM     70  C   UNL A   1      37.562  29.821  30.378  1.00  0.00     0.022 A 
BRANCH  67  71
ATOM     71  S   UNL A   1      38.155  29.502  33.085  1.00  0.00     0.124 S 
ATOM     72  O   UNL A   1      37.289  28.325  33.084  1.00  0.00    -0.237 OA
ATOM     73  O   UNL A   1      39.463  29.332  33.706  1.00  0.00    -0.237 OA
ATOM     74  O   UNL A   1      37.480  30.764  33.382  1.00  0.00    -0.744 OA
ENDBRANCH  67  71
ENDBRANCH  50  64
BRANCH  51  75
ATOM     75  C   UNL A   1      49.318  27.054  26.085  1.00  0.00     0.023 A 
ATOM     76  C   UNL A   1      49.608  27.411  24.760  1.00  0.00     0.031 A 
ATOM     77  C   UNL A   1      50.302  26.368  26.818  1.00  0.00     0.131 A 
ATOM     78  C   UNL A   1      50.837  27.047  24.193  1.00  0.00     0.055 A 
ATOM     79  C   UNL A   1      51.542  26.046  26.263  1.00  0.00     0.041 A 
ATOM     80  F   UNL A   1      50.076  26.013  28.093  1.00  0.00    -0.206 F 
ATOM     81  C   UNL A   1      51.811  26.376  24.938  1.00  0.00     0.022 A 
BRANCH  78  82
ATOM     82  S   UNL A   1      51.122  27.406  22.438  1.00  0.00     0.124 S 
ATOM     83  O   UNL A   1      52.427  26.794  22.218  1.00  0.00    -0.237 OA
ATOM     84  O   UNL A   1      49.986  26.742  21.807  1.00  0.00    -0.237 OA
ATOM     85  O   UNL A   1      51.098  28.866  22.383  1.00  0.00    -0.744 OA
ENDBRANCH  78  82
ENDBRANCH  51  75
BRANCH  63  86
ATOM     86  C   UNL A   1      46.522  32.859  28.740  1.00  0.00     0.023 A 
ATOM     87  C   UNL A   1      46.371  33.935  27.850  1.00  0.00     0.031 A 
ATOM     88  C   UNL A   1      47.240  33.075  29.931  1.00  0.00     0.131 A 
ATOM     89  C   UNL A   1      46.968  35.171  28.145  1.00  0.00     0.055 A 
ATOM     90  C   UNL A   1      47.791  34.319  30.240  1.00  0.00     0.041 A 
ATOM     91  F   UNL A   1      47.413  32.078  30.813  1.00  0.00    -0.206 F 
ATOM     92  C   UNL A   1      47.665  35.373  29.340  1.00  0.00     0.022 A 
BRANCH  89  93
ATOM     93  S   UNL A   1      46.874  36.501  26.915  1.00  0.00     0.124 S 
ATOM     94  O   UNL A   1      45.492  36.948  27.055  1.00  0.00    -0.237 OA
ATOM     95  O   UNL A   1      47.896  37.432  27.382  1.00  0.00    -0.237 OA
ATOM     96  O   UNL A   1      47.182  35.826  25.655  1.00  0.00    -0.744 OA
ENDBRANCH  89  93
ENDBRANCH  63  86
ENDBRANCH  37  38
ENDBRANCH  29  32
ENDBRANCH  27  28
ENDBRANCH  26  27
ENDBRANCH   1  26
TORSDOF 18
ENDMDL
MODEL 2
REMARK VINA RESULT:     -11.7      6.127     11.290
REMARK SMILES O=C(CCc1ccc(S(=O)(=O)Nc2cccc(I)c2)cc1)NCCCNC(=O)c1ccc(-c2c3nc(c(-c4cc(S(=O)(=O)[O-])ccc4F)c4ccc([nH]4)c(-c4cc(S(=O)(=O)[O-])ccc4F)c4nc(c(-c5cc(S(=O)(=O)[O-])ccc5F)c5ccc2[nH]5)C=C4)C=C3)cc1
REMARK SMILES IDX 23 1 22 2 1 3 2 4 3 6 4 7 5 8 6 9 21 10 7 11 20 12 8 13 9 14
REMARK SMILES IDX 10 15 11 16 12 17 13 19 14 20 19 21 15 22 17 23 16 24 18 25
REMARK SMILES IDX 24 26 25 27 26 28 27 29 28 31 29 32 30 33 91 34 31 35 90 36
REMARK SMILES IDX 32 37 33 38 34 39 84 40 35 41 89 42 83 43 85 44 36 45 88 46
REMARK SMILES IDX 82 47 81 48 37 50 69 51 49 52 68 53 50 54 53 55 67 56 86 57
REMARK SMILES IDX 51 58 52 59 66 61 87 62 54 63 38 64 39 65 47 66 40 67 46 68
REMARK SMILES IDX 48 69 45 70 41 71 42 72 43 73 44 74 70 75 71 76 79 77 72 78
REMARK SMILES IDX 78 79 80 80 77 81 73 82 74 83 75 84 76 85 55 86 56 87 64 88
REMARK SMILES IDX 57 89 63 90 65 91 62 92 58 93 59 94 60 95 61 96
REMARK H PARENT 22 5 12 18 26 30 85 49 53 60
REMARK Flexibility Score: inf
ROOT
ATOM      1  C   UNL A   1      33.100  36.050  29.786  1.00  0.00     0.117 C 
ENDROOT
BRANCH   1   2
ATOM      2  N   UNL A   1      33.750  35.827  31.059  1.00  0.00    -0.356 N 
ATOM      3  O   UNL A   1      32.903  37.643  32.171  1.00  0.00    -0.275 OA
ATOM      4  C   UNL A   1      33.598  36.631  32.161  1.00  0.00     0.220 C 
ATOM      5  H   UNL A   1      34.342  35.043  31.141  1.00  0.00     0.163 HD
BRANCH   4   6
ATOM      6  C   UNL A   1      34.415  36.220  33.379  1.00  0.00     0.105 C 
BRANCH   6   7
ATOM      7  C   UNL A   1      34.944  34.781  33.338  1.00  0.00     0.045 C 
BRANCH   7   8
ATOM      8  C   UNL A   1      36.354  34.584  32.825  1.00  0.00    -0.047 A 
ATOM      9  C   UNL A   1      37.446  34.781  33.684  1.00  0.00     0.005 A 
ATOM     10  C   UNL A   1      36.609  34.219  31.499  1.00  0.00     0.005 A 
ATOM     11  C   UNL A   1      38.757  34.608  33.225  1.00  0.00     0.022 A 
ATOM     12  C   UNL A   1      37.908  33.951  31.070  1.00  0.00     0.022 A 
ATOM     13  C   UNL A   1      38.990  34.205  31.907  1.00  0.00     0.087 A 
BRANCH  13  14
ATOM     14  S   UNL A   1      40.685  34.161  31.344  1.00  0.00     0.261 S 
ATOM     15  O   UNL A   1      40.676  34.674  29.988  1.00  0.00    -0.201 OA
ATOM     16  O   UNL A   1      41.463  34.805  32.376  1.00  0.00    -0.201 OA
BRANCH  14  17
ATOM     17  N   UNL A   1      41.182  32.565  31.328  1.00  0.00    -0.280 N 
ATOM     18  H   UNL A   1      40.487  31.884  31.476  1.00  0.00     0.180 HD
BRANCH  17  19
ATOM     19  C   UNL A   1      42.510  32.089  31.122  1.00  0.00     0.050 A 
ATOM     20  C   UNL A   1      43.243  31.761  32.266  1.00  0.00     0.027 A 
ATOM     21  C   UNL A   1      43.040  31.786  29.864  1.00  0.00     0.041 A 
ATOM     22  C   UNL A   1      44.423  31.022  32.167  1.00  0.00     0.003 A 
ATOM     23  C   UNL A   1      44.204  31.019  29.770  1.00  0.00     0.015 A 
ATOM     24  C   UNL A   1      44.888  30.620  30.916  1.00  0.00     0.015 A 
ATOM     25  I   UNL A   1      44.850  30.365  27.903  1.00  0.00    -0.044 I 
ENDBRANCH  17  19
ENDBRANCH  14  17
ENDBRANCH  13  14
ENDBRANCH   7   8
ENDBRANCH   6   7
ENDBRANCH   4   6
ENDBRANCH   1   2
BRANCH   1  26
ATOM     26  C   UNL A   1      33.791  35.305  28.644  1.00  0.00     0.042 C 
BRANCH  26  27
ATOM     27  C   UNL A   1      34.183  33.855  28.932  1.00  0.00     0.118 C 
BRANCH  27  28
ATOM     28  N   UNL A   1      33.649  32.898  27.975  1.00  0.00    -0.352 N 
ATOM     29  C   UNL A   1      34.132  31.668  27.590  1.00  0.00     0.251 C 
ATOM     30  H   UNL A   1      32.812  33.173  27.534  1.00  0.00     0.163 HD
ATOM     31  O   UNL A   1      33.601  31.084  26.650  1.00  0.00    -0.269 OA
BRANCH  29  32
ATOM     32  C   UNL A   1      35.292  31.049  28.277  1.00  0.00     0.039 A 
ATOM     33  C   UNL A   1      36.553  31.643  28.145  1.00  0.00     0.014 A 
ATOM     34  C   UNL A   1      35.157  29.875  29.021  1.00  0.00     0.014 A 
ATOM     35  C   UNL A   1      37.655  31.114  28.826  1.00  0.00     0.010 A 
ATOM     36  C   UNL A   1      36.245  29.372  29.734  1.00  0.00     0.010 A 
ATOM     37  C   UNL A   1      37.500  29.996  29.659  1.00  0.00    -0.014 A 
BRANCH  37  38
ATOM     38  C   UNL A   1      38.607  29.487  30.510  1.00  0.00     0.031 A 
ATOM     39  C   UNL A   1      38.795  30.010  31.906  1.00  0.00     0.074 A 
ATOM     40  C   UNL A   1      39.516  28.650  29.974  1.00  0.00     0.049 A 
ATOM     41  N   UNL A   1      39.797  29.833  32.728  1.00  0.00    -0.248 NA
ATOM     42  C   UNL A   1      37.725  30.869  32.431  1.00  0.00     0.031 C 
ATOM     43  C   UNL A   1      39.459  28.097  28.619  1.00  0.00     0.029 A 
ATOM     44  N   UNL A   1      40.684  28.145  30.490  1.00  0.00    -0.354 N 
ATOM     45  C   UNL A   1      39.489  30.568  33.868  1.00  0.00     0.074 A 
ATOM     46  C   UNL A   1      38.224  31.227  33.606  1.00  0.00     0.031 C 
ATOM     47  C   UNL A   1      40.549  27.344  28.407  1.00  0.00     0.029 A 
ATOM     48  C   UNL A   1      41.402  27.392  29.590  1.00  0.00     0.049 A 
ATOM     49  H   UNL A   1      40.979  28.307  31.415  1.00  0.00     0.167 HD
ATOM     50  C   UNL A   1      40.190  30.671  35.026  1.00  0.00     0.034 A 
ATOM     51  C   UNL A   1      42.621  26.828  29.694  1.00  0.00     0.034 A 
ATOM     52  C   UNL A   1      41.444  29.999  35.274  1.00  0.00     0.049 A 
ATOM     53  C   UNL A   1      43.393  26.975  30.978  1.00  0.00     0.074 A 
ATOM     54  C   UNL A   1      42.208  29.996  36.429  1.00  0.00     0.029 A 
ATOM     55  N   UNL A   1      42.123  29.214  34.351  1.00  0.00    -0.354 N 
ATOM     56  N   UNL A   1      43.074  27.648  32.058  1.00  0.00    -0.248 NA
ATOM     57  C   UNL A   1      44.682  26.276  31.061  1.00  0.00     0.031 C 
ATOM     58  C   UNL A   1      43.373  29.257  36.187  1.00  0.00     0.029 A 
ATOM     59  C   UNL A   1      43.306  28.744  34.902  1.00  0.00     0.049 A 
ATOM     60  H   UNL A   1      41.811  29.019  33.437  1.00  0.00     0.167 HD
ATOM     61  C   UNL A   1      44.106  27.421  32.963  1.00  0.00     0.074 A 
ATOM     62  C   UNL A   1      45.059  26.552  32.302  1.00  0.00     0.031 C 
ATOM     63  C   UNL A   1      44.247  27.879  34.233  1.00  0.00     0.034 A 
BRANCH  50  64
ATOM     64  C   UNL A   1      39.626  31.568  36.099  1.00  0.00     0.023 A 
ATOM     65  C   UNL A   1      38.744  31.080  37.078  1.00  0.00     0.031 A 
ATOM     66  C   UNL A   1      39.958  32.934  36.136  1.00  0.00     0.131 A 
ATOM     67  C   UNL A   1      38.165  31.963  38.002  1.00  0.00     0.055 A 
ATOM     68  C   UNL A   1      39.441  33.792  37.109  1.00  0.00     0.041 A 
ATOM     69  F   UNL A   1      40.781  33.462  35.215  1.00  0.00    -0.206 F 
ATOM     70  C   UNL A   1      38.526  33.311  38.040  1.00  0.00     0.022 A 
BRANCH  67  71
ATOM     71  S   UNL A   1      36.826  31.348  39.059  1.00  0.00     0.124 S 
ATOM     72  O   UNL A   1      37.475  31.324  40.368  1.00  0.00    -0.237 OA
ATOM     73  O   UNL A   1      35.792  32.361  38.878  1.00  0.00    -0.237 OA
ATOM     74  O   UNL A   1      36.521  30.034  38.497  1.00  0.00    -0.744 OA
ENDBRANCH  67  71
ENDBRANCH  50  64
BRANCH  51  75
ATOM     75  C   UNL A   1      43.201  26.086  28.540  1.00  0.00     0.023 A 
ATOM     76  C   UNL A   1      44.158  26.684  27.708  1.00  0.00     0.031 A 
ATOM     77  C   UNL A   1      42.784  24.778  28.240  1.00  0.00     0.131 A 
ATOM     78  C   UNL A   1      44.641  25.989  26.590  1.00  0.00     0.055 A 
ATOM     79  C   UNL A   1      43.300  24.073  27.151  1.00  0.00     0.041 A 
ATOM     80  F   UNL A   1      41.877  24.159  29.013  1.00  0.00    -0.206 F 
ATOM     81  C   UNL A   1      44.227  24.684  26.311  1.00  0.00     0.022 A 
BRANCH  78  82
ATOM     82  S   UNL A   1      45.774  26.845  25.462  1.00  0.00     0.124 S 
ATOM     83  O   UNL A   1      44.892  27.830  24.846  1.00  0.00    -0.237 OA
ATOM     84  O   UNL A   1      46.778  27.369  26.382  1.00  0.00    -0.237 OA
ATOM     85  O   UNL A   1      46.238  25.781  24.575  1.00  0.00    -0.744 OA
ENDBRANCH  78  82
ENDBRANCH  51  75
BRANCH  63  86
ATOM     86  C   UNL A   1      45.444  27.392  35.008  1.00  0.00     0.023 A 
ATOM     87  C   UNL A   1      45.437  26.166  35.695  1.00  0.00     0.031 A 
ATOM     88  C   UNL A   1      46.610  28.177  35.059  1.00  0.00     0.131 A 
ATOM     89  C   UNL A   1      46.561  25.780  36.441  1.00  0.00     0.055 A 
ATOM     90  C   UNL A   1      47.741  27.765  35.764  1.00  0.00     0.041 A 
ATOM     91  F   UNL A   1      46.667  29.355  34.420  1.00  0.00    -0.206 F 
ATOM     92  C   UNL A   1      47.718  26.565  36.469  1.00  0.00     0.022 A 
BRANCH  89  93
ATOM     93  S   UNL A   1      46.472  24.262  37.430  1.00  0.00     0.124 S 
ATOM     94  O   UNL A   1      46.245  23.245  36.408  1.00  0.00    -0.237 OA
ATOM     95  O   UNL A   1      47.780  24.233  38.078  1.00  0.00    -0.237 OA
ATOM     96  O   UNL A   1      45.344  24.502  38.328  1.00  0.00    -0.744 OA
ENDBRANCH  89  93
ENDBRANCH  63  86
ENDBRANCH  37  38
ENDBRANCH  29  32
ENDBRANCH  27  28
ENDBRANCH  26  27
ENDBRANCH   1  26
TORSDOF 18
ENDMDL
MODEL 3
REMARK VINA RESULT:     -11.7      6.474     11.275
REMARK SMILES O=C(CCc1ccc(S(=O)(=O)Nc2cccc(I)c2)cc1)NCCCNC(=O)c1ccc(-c2c3nc(c(-c4cc(S(=O)(=O)[O-])ccc4F)c4ccc([nH]4)c(-c4cc(S(=O)(=O)[O-])ccc4F)c4nc(c(-c5cc(S(=O)(=O)[O-])ccc5F)c5ccc2[nH]5)C=C4)C=C3)cc1
REMARK SMILES IDX 23 1 22 2 1 3 2 4 3 6 4 7 5 8 6 9 21 10 7 11 20 12 8 13 9 14
REMARK SMILES IDX 10 15 11 16 12 17 13 19 14 20 19 21 15 22 17 23 16 24 18 25
REMARK SMILES IDX 24 26 25 27 26 28 27 29 28 31 29 32 30 33 91 34 31 35 90 36
REMARK SMILES IDX 32 37 33 38 34 39 84 40 35 41 89 42 83 43 85 44 36 45 88 46
REMARK SMILES IDX 82 47 81 48 37 50 69 51 49 52 68 53 50 54 53 55 67 56 86 57
REMARK SMILES IDX 51 58 52 59 66 61 87 62 54 63 38 64 39 65 47 66 40 67 46 68
REMARK SMILES IDX 48 69 45 70 41 71 42 72 43 73 44 74 70 75 71 76 79 77 72 78
REMARK SMILES IDX 78 79 80 80 77 81 73 82 74 83 75 84 76 85 55 86 56 87 64 88
REMARK SMILES IDX 57 89 63 90 65 91 62 92 58 93 59 94 60 95 61 96
REMARK H PARENT 22 5 12 18 26 30 85 49 53 60
REMARK Flexibility Score: inf
ROOT
ATOM      1  C   UNL A   1      33.013  36.057  32.464  1.00  0.00     0.117 C 
ENDROOT
BRANCH   1   2
ATOM      2  N   UNL A   1      34.205  35.279  32.721  1.00  0.00    -0.356 N 
ATOM      3  O   UNL A   1      33.184  33.296  33.246  1.00  0.00    -0.275 OA
ATOM      4  C   UNL A   1      34.207  33.955  33.083  1.00  0.00     0.220 C 
ATOM      5  H   UNL A   1      35.077  35.730  32.628  1.00  0.00     0.163 HD
BRANCH   4   6
ATOM      6  C   UNL A   1      35.583  33.357  33.341  1.00  0.00     0.105 C 
BRANCH   6   7
ATOM      7  C   UNL A   1      35.741  31.899  32.887  1.00  0.00     0.045 C 
BRANCH   7   8
ATOM      8  C   UNL A   1      36.982  31.169  33.353  1.00  0.00    -0.047 A 
ATOM      9  C   UNL A   1      37.726  31.669  34.432  1.00  0.00     0.005 A 
ATOM     10  C   UNL A   1      37.425  29.999  32.725  1.00  0.00     0.005 A 
ATOM     11  C   UNL A   1      38.879  31.009  34.873  1.00  0.00     0.022 A 
ATOM     12  C   UNL A   1      38.514  29.289  33.227  1.00  0.00     0.022 A 
ATOM     13  C   UNL A   1      39.283  29.820  34.258  1.00  0.00     0.087 A 
BRANCH  13  14
ATOM     14  S   UNL A   1      40.847  29.120  34.763  1.00  0.00     0.261 S 
ATOM     15  O   UNL A   1      41.865  29.790  33.978  1.00  0.00    -0.201 OA
ATOM     16  O   UNL A   1      40.862  29.179  36.205  1.00  0.00    -0.201 OA
BRANCH  14  17
ATOM     17  N   UNL A   1      40.833  27.494  34.375  1.00  0.00    -0.280 N 
ATOM     18  H   UNL A   1      40.087  27.180  33.814  1.00  0.00     0.180 HD
BRANCH  17  19
ATOM     19  C   UNL A   1      41.790  26.515  34.773  1.00  0.00     0.050 A 
ATOM     20  C   UNL A   1      41.358  25.554  35.693  1.00  0.00     0.027 A 
ATOM     21  C   UNL A   1      43.048  26.374  34.182  1.00  0.00     0.041 A 
ATOM     22  C   UNL A   1      42.109  24.399  35.920  1.00  0.00     0.003 A 
ATOM     23  C   UNL A   1      43.782  25.202  34.387  1.00  0.00     0.015 A 
ATOM     24  C   UNL A   1      43.309  24.206  35.239  1.00  0.00     0.015 A 
ATOM     25  I   UNL A   1      45.538  24.893  33.313  1.00  0.00    -0.044 I 
ENDBRANCH  17  19
ENDBRANCH  14  17
ENDBRANCH  13  14
ENDBRANCH   7   8
ENDBRANCH   6   7
ENDBRANCH   4   6
ENDBRANCH   1   2
BRANCH   1  26
ATOM     26  C   UNL A   1      32.836  36.373  30.979  1.00  0.00     0.042 C 
BRANCH  26  27
ATOM     27  C   UNL A   1      33.803  35.668  30.026  1.00  0.00     0.118 C 
BRANCH  27  28
ATOM     28  N   UNL A   1      33.148  34.812  29.049  1.00  0.00    -0.352 N 
ATOM     29  C   UNL A   1      33.628  33.712  28.375  1.00  0.00     0.251 C 
ATOM     30  H   UNL A   1      32.219  35.057  28.836  1.00  0.00     0.163 HD
ATOM     31  O   UNL A   1      32.952  33.219  27.476  1.00  0.00    -0.269 OA
BRANCH  29  32
ATOM     32  C   UNL A   1      34.951  33.125  28.702  1.00  0.00     0.039 A 
ATOM     33  C   UNL A   1      36.109  33.830  28.350  1.00  0.00     0.014 A 
ATOM     34  C   UNL A   1      35.064  31.880  29.321  1.00  0.00     0.014 A 
ATOM     35  C   UNL A   1      37.369  33.330  28.696  1.00  0.00     0.010 A 
ATOM     36  C   UNL A   1      36.317  31.401  29.704  1.00  0.00     0.010 A 
ATOM     37  C   UNL A   1      37.480  32.129  29.412  1.00  0.00    -0.014 A 
BRANCH  37  38
ATOM     38  C   UNL A   1      38.785  31.634  29.923  1.00  0.00     0.031 A 
ATOM     39  C   UNL A   1      39.523  32.393  30.988  1.00  0.00     0.074 A 
ATOM     40  C   UNL A   1      39.360  30.569  29.330  1.00  0.00     0.049 A 
ATOM     41  N   UNL A   1      40.745  32.229  31.426  1.00  0.00    -0.248 NA
ATOM     42  C   UNL A   1      38.797  33.502  31.621  1.00  0.00     0.031 C 
ATOM     43  C   UNL A   1      38.757  29.768  28.264  1.00  0.00     0.029 A 
ATOM     44  N   UNL A   1      40.596  29.998  29.516  1.00  0.00    -0.354 N 
ATOM     45  C   UNL A   1      40.944  33.221  32.380  1.00  0.00     0.074 A 
ATOM     46  C   UNL A   1      39.726  34.008  32.420  1.00  0.00     0.031 C 
ATOM     47  C   UNL A   1      39.627  28.821  27.881  1.00  0.00     0.029 A 
ATOM     48  C   UNL A   1      40.863  28.971  28.641  1.00  0.00     0.049 A 
ATOM     49  H   UNL A   1      41.228  30.296  30.209  1.00  0.00     0.167 HD
ATOM     50  C   UNL A   1      42.035  33.444  33.157  1.00  0.00     0.034 A 
ATOM     51  C   UNL A   1      41.987  28.251  28.451  1.00  0.00     0.034 A 
ATOM     52  C   UNL A   1      43.235  32.644  33.112  1.00  0.00     0.049 A 
ATOM     53  C   UNL A   1      43.193  28.531  29.306  1.00  0.00     0.074 A 
ATOM     54  C   UNL A   1      44.375  32.754  33.891  1.00  0.00     0.029 A 
ATOM     55  N   UNL A   1      43.456  31.588  32.237  1.00  0.00    -0.354 N 
ATOM     56  N   UNL A   1      43.355  29.453  30.225  1.00  0.00    -0.248 NA
ATOM     57  C   UNL A   1      44.363  27.665  29.107  1.00  0.00     0.031 C 
ATOM     58  C   UNL A   1      45.305  31.803  33.451  1.00  0.00     0.029 A 
ATOM     59  C   UNL A   1      44.721  31.056  32.441  1.00  0.00     0.049 A 
ATOM     60  H   UNL A   1      42.810  31.263  31.569  1.00  0.00     0.167 HD
ATOM     61  C   UNL A   1      44.632  29.253  30.740  1.00  0.00     0.074 A 
ATOM     62  C   UNL A   1      45.198  28.125  30.028  1.00  0.00     0.031 C 
ATOM     63  C   UNL A   1      45.274  29.932  31.724  1.00  0.00     0.034 A 
BRANCH  50  64
ATOM     64  C   UNL A   1      41.984  34.621  34.100  1.00  0.00     0.023 A 
ATOM     65  C   UNL A   1      41.432  34.509  35.386  1.00  0.00     0.031 A 
ATOM     66  C   UNL A   1      42.478  35.876  33.701  1.00  0.00     0.131 A 
ATOM     67  C   UNL A   1      41.316  35.647  36.200  1.00  0.00     0.055 A 
ATOM     68  C   UNL A   1      42.433  36.987  34.547  1.00  0.00     0.041 A 
ATOM     69  F   UNL A   1      42.999  36.048  32.477  1.00  0.00    -0.206 F 
ATOM     70  C   UNL A   1      41.835  36.880  35.798  1.00  0.00     0.022 A 
BRANCH  67  71
ATOM     71  S   UNL A   1      40.348  35.520  37.727  1.00  0.00     0.124 S 
ATOM     72  O   UNL A   1      39.482  34.380  37.430  1.00  0.00    -0.237 OA
ATOM     73  O   UNL A   1      41.378  35.294  38.735  1.00  0.00    -0.237 OA
ATOM     74  O   UNL A   1      39.665  36.809  37.808  1.00  0.00    -0.744 OA
ENDBRANCH  67  71
ENDBRANCH  50  64
BRANCH  51  75
ATOM     75  C   UNL A   1      42.032  27.206  27.392  1.00  0.00     0.023 A 
ATOM     76  C   UNL A   1      41.827  25.855  27.704  1.00  0.00     0.031 A 
ATOM     77  C   UNL A   1      42.308  27.544  26.055  1.00  0.00     0.131 A 
ATOM     78  C   UNL A   1      41.938  24.882  26.701  1.00  0.00     0.055 A 
ATOM     79  C   UNL A   1      42.375  26.576  25.051  1.00  0.00     0.041 A 
ATOM     80  F   UNL A   1      42.503  28.825  25.704  1.00  0.00    -0.206 F 
ATOM     81  C   UNL A   1      42.201  25.234  25.374  1.00  0.00     0.022 A 
BRANCH  78  82
ATOM     82  S   UNL A   1      41.800  23.136  27.169  1.00  0.00     0.124 S 
ATOM     83  O   UNL A   1      41.600  23.230  28.611  1.00  0.00    -0.237 OA
ATOM     84  O   UNL A   1      40.647  22.704  26.388  1.00  0.00    -0.237 OA
ATOM     85  O   UNL A   1      43.082  22.570  26.752  1.00  0.00    -0.744 OA
ENDBRANCH  78  82
ENDBRANCH  51  75
BRANCH  63  86
ATOM     86  C   UNL A   1      46.635  29.427  32.130  1.00  0.00     0.023 A 
ATOM     87  C   UNL A   1      47.784  29.689  31.365  1.00  0.00     0.031 A 
ATOM     88  C   UNL A   1      46.776  28.665  33.304  1.00  0.00     0.131 A 
ATOM     89  C   UNL A   1      49.021  29.155  31.761  1.00  0.00     0.055 A 
ATOM     90  C   UNL A   1      48.016  28.178  33.717  1.00  0.00     0.041 A 
ATOM     91  F   UNL A   1      45.709  28.387  34.069  1.00  0.00    -0.206 F 
ATOM     92  C   UNL A   1      49.146  28.413  32.939  1.00  0.00     0.022 A 
BRANCH  89  93
ATOM     93  S   UNL A   1      50.459  29.392  30.682  1.00  0.00     0.124 S 
ATOM     94  O   UNL A   1      51.566  29.050  31.570  1.00  0.00    -0.237 OA
ATOM     95  O   UNL A   1      50.197  28.449  29.599  1.00  0.00    -0.237 OA
ATOM     96  O   UNL A   1      50.379  30.803  30.306  1.00  0.00    -0.744 OA
ENDBRANCH  89  93
ENDBRANCH  63  86
ENDBRANCH  37  38
ENDBRANCH  29  32
ENDBRANCH  27  28
ENDBRANCH  26  27
ENDBRANCH   1  26
TORSDOF 18
ENDMDL
