MODEL 1
REMARK VINA RESULT:     -10.6      0.000      0.000
REMARK SMILES CCCC[C@@](CC)(C[C@H]1CCOC1)C(=O)NCCCNC(=O)c1ccc(-c2c3nc(c(-c4cc(S(=O)(=O)[O-])ccc4F)c4ccc([nH]4)c(-c4cc(S(=O)(=O)[O-])ccc4F)c4nc(c(-c5cc(S(=O)(=O)[O-])ccc5F)c5ccc2[nH]5)C=C4)C=C3)cc1
REMARK SMILES IDX 18 1 17 2 16 3 14 4 15 5 5 7 4 8 3 9 2 10 1 11 6 12 7 13
REMARK SMILES IDX 8 14 9 15 10 16 13 17 11 18 12 19 19 20 20 21 21 22 22 24
REMARK SMILES IDX 23 25 24 26 85 27 25 28 84 29 26 30 27 31 28 32 78 33 29 34
REMARK SMILES IDX 83 35 77 36 79 37 30 38 82 39 76 40 75 41 31 43 63 44 43 45
REMARK SMILES IDX 62 46 44 47 47 48 61 49 80 50 45 51 46 52 60 54 81 55 48 56
REMARK SMILES IDX 32 57 33 58 41 59 34 60 40 61 42 62 39 63 35 64 36 65 37 66
REMARK SMILES IDX 38 67 64 68 65 69 73 70 66 71 72 72 74 73 71 74 67 75 68 76
REMARK SMILES IDX 69 77 70 78 49 79 50 80 58 81 51 82 57 83 59 84 56 85 52 86
REMARK SMILES IDX 53 87 54 88 55 89
REMARK H PARENT 16 6 20 23 79 42 47 53
REMARK Flexibility Score: inf
ROOT
ATOM      1  C   UNL A   1      35.404  21.979  25.370  1.00  0.00     0.042 C 
ENDROOT
BRANCH   1   2
ATOM      2  C   UNL A   1      34.545  23.236  25.414  1.00  0.00     0.117 C 
BRANCH   2   3
ATOM      3  N   UNL A   1      34.557  23.949  24.144  1.00  0.00    -0.356 N 
ATOM      4  C   UNL A   1      33.880  25.015  23.644  1.00  0.00     0.226 C 
ATOM      5  O   UNL A   1      34.003  25.163  22.426  1.00  0.00    -0.274 OA
ATOM      6  H   UNL A   1      35.202  23.572  23.502  1.00  0.00     0.163 HD
BRANCH   4   7
ATOM      7  C   UNL A   1      32.986  25.941  24.503  1.00  0.00     0.049 C 
BRANCH   7   8
ATOM      8  C   UNL A   1      33.664  26.383  25.854  1.00  0.00     0.017 C 
BRANCH   8   9
ATOM      9  C   UNL A   1      33.965  27.869  26.140  1.00  0.00     0.001 C 
BRANCH   9  10
ATOM     10  C   UNL A   1      33.342  28.502  27.388  1.00  0.00    -0.003 C 
ATOM     11  C   UNL A   1      31.817  28.479  27.411  1.00  0.00     0.004 C 
ENDBRANCH   9  10
ENDBRANCH   8   9
ENDBRANCH   7   8
BRANCH   7  12
ATOM     12  C   UNL A   1      31.679  25.144  24.839  1.00  0.00     0.013 C 
ATOM     13  C   UNL A   1      31.137  25.269  26.256  1.00  0.00     0.005 C 
ENDBRANCH   7  12
BRANCH   7  14
ATOM     14  C   UNL A   1      32.720  27.243  23.664  1.00  0.00     0.023 C 
BRANCH  14  15
ATOM     15  C   UNL A   1      31.275  27.801  23.587  1.00  0.00     0.018 C 
ATOM     16  C   UNL A   1      30.994  29.253  23.924  1.00  0.00     0.034 C 
ATOM     17  C   UNL A   1      30.694  27.749  22.175  1.00  0.00     0.163 C 
ATOM     18  C   UNL A   1      29.619  29.461  23.324  1.00  0.00     0.160 C 
ATOM     19  O   UNL A   1      29.550  28.617  22.169  1.00  0.00    -0.381 OA
ENDBRANCH  14  15
ENDBRANCH   7  14
ENDBRANCH   4   7
ENDBRANCH   2   3
ENDBRANCH   1   2
BRANCH   1  20
ATOM     20  C   UNL A   1      36.841  22.222  24.927  1.00  0.00     0.118 C 
BRANCH  20  21
ATOM     21  N   UNL A   1      37.719  21.105  25.250  1.00  0.00    -0.352 N 
ATOM     22  C   UNL A   1      38.959  21.104  25.839  1.00  0.00     0.251 C 
ATOM     23  H   UNL A   1      37.370  20.217  25.009  1.00  0.00     0.163 HD
ATOM     24  O   UNL A   1      39.638  20.079  25.816  1.00  0.00    -0.269 OA
BRANCH  22  25
ATOM     25  C   UNL A   1      39.485  22.334  26.467  1.00  0.00     0.039 A 
ATOM     26  C   UNL A   1      40.468  22.228  27.453  1.00  0.00     0.014 A 
ATOM     27  C   UNL A   1      39.017  23.592  26.076  1.00  0.00     0.014 A 
ATOM     28  C   UNL A   1      41.049  23.387  27.977  1.00  0.00     0.010 A 
ATOM     29  C   UNL A   1      39.656  24.740  26.534  1.00  0.00     0.010 A 
ATOM     30  C   UNL A   1      40.686  24.650  27.482  1.00  0.00    -0.014 A 
BRANCH  30  31
ATOM     31  C   UNL A   1      41.388  25.888  27.916  1.00  0.00     0.031 A 
ATOM     32  C   UNL A   1      40.636  26.963  28.652  1.00  0.00     0.074 A 
ATOM     33  C   UNL A   1      42.677  26.077  27.563  1.00  0.00     0.049 A 
ATOM     34  N   UNL A   1      41.039  28.155  29.008  1.00  0.00    -0.248 NA
ATOM     35  C   UNL A   1      39.240  26.669  29.014  1.00  0.00     0.031 C 
ATOM     36  C   UNL A   1      43.499  25.118  26.819  1.00  0.00     0.029 A 
ATOM     37  N   UNL A   1      43.519  27.143  27.763  1.00  0.00    -0.354 N 
ATOM     38  C   UNL A   1      39.942  28.763  29.611  1.00  0.00     0.074 A 
ATOM     39  C   UNL A   1      38.847  27.821  29.539  1.00  0.00     0.031 C 
ATOM     40  C   UNL A   1      44.726  25.633  26.639  1.00  0.00     0.029 A 
ATOM     41  C   UNL A   1      44.764  26.981  27.196  1.00  0.00     0.049 A 
ATOM     42  H   UNL A   1      43.258  27.949  28.265  1.00  0.00     0.167 HD
ATOM     43  C   UNL A   1      39.865  29.990  30.179  1.00  0.00     0.034 A 
ATOM     44  C   UNL A   1      45.807  27.832  27.103  1.00  0.00     0.034 A 
ATOM     45  C   UNL A   1      40.976  30.906  30.262  1.00  0.00     0.049 A 
ATOM     46  C   UNL A   1      45.674  29.209  27.709  1.00  0.00     0.074 A 
ATOM     47  C   UNL A   1      41.030  32.132  30.902  1.00  0.00     0.029 A 
ATOM     48  N   UNL A   1      42.216  30.711  29.669  1.00  0.00    -0.354 N 
ATOM     49  N   UNL A   1      44.656  29.733  28.353  1.00  0.00    -0.248 NA
ATOM     50  C   UNL A   1      46.828  30.110  27.578  1.00  0.00     0.031 C 
ATOM     51  C   UNL A   1      42.267  32.718  30.619  1.00  0.00     0.029 A 
ATOM     52  C   UNL A   1      43.021  31.820  29.879  1.00  0.00     0.049 A 
ATOM     53  H   UNL A   1      42.484  29.905  29.172  1.00  0.00     0.167 HD
ATOM     54  C   UNL A   1      45.062  31.012  28.726  1.00  0.00     0.074 A 
ATOM     55  C   UNL A   1      46.420  31.173  28.255  1.00  0.00     0.031 C 
ATOM     56  C   UNL A   1      44.373  31.969  29.398  1.00  0.00     0.034 A 
BRANCH  43  57
ATOM     57  C   UNL A   1      38.531  30.437  30.727  1.00  0.00     0.023 A 
ATOM     58  C   UNL A   1      37.590  31.119  29.937  1.00  0.00     0.031 A 
ATOM     59  C   UNL A   1      38.187  30.146  32.059  1.00  0.00     0.131 A 
ATOM     60  C   UNL A   1      36.372  31.530  30.501  1.00  0.00     0.055 A 
ATOM     61  C   UNL A   1      36.944  30.492  32.592  1.00  0.00     0.041 A 
ATOM     62  F   UNL A   1      39.055  29.516  32.867  1.00  0.00    -0.206 F 
ATOM     63  C   UNL A   1      36.032  31.197  31.815  1.00  0.00     0.022 A 
BRANCH  60  64
ATOM     64  S   UNL A   1      35.283  32.603  29.526  1.00  0.00     0.124 S 
ATOM     65  O   UNL A   1      34.260  32.958  30.508  1.00  0.00    -0.237 OA
ATOM     66  O   UNL A   1      36.179  33.680  29.121  1.00  0.00    -0.237 OA
ATOM     67  O   UNL A   1      34.823  31.733  28.444  1.00  0.00    -0.744 OA
ENDBRANCH  60  64
ENDBRANCH  43  57
BRANCH  44  68
ATOM     68  C   UNL A   1      47.053  27.444  26.375  1.00  0.00     0.023 A 
ATOM     69  C   UNL A   1      47.241  27.794  25.029  1.00  0.00     0.031 A 
ATOM     70  C   UNL A   1      48.036  26.647  26.988  1.00  0.00     0.131 A 
ATOM     71  C   UNL A   1      48.346  27.293  24.321  1.00  0.00     0.055 A 
ATOM     72  C   UNL A   1      49.171  26.210  26.301  1.00  0.00     0.041 A 
ATOM     73  F   UNL A   1      47.910  26.278  28.273  1.00  0.00    -0.206 F 
ATOM     74  C   UNL A   1      49.320  26.516  24.953  1.00  0.00     0.022 A 
BRANCH  71  75
ATOM     75  S   UNL A   1      48.419  27.559  22.529  1.00  0.00     0.124 S 
ATOM     76  O   UNL A   1      48.477  26.190  22.029  1.00  0.00    -0.237 OA
ATOM     77  O   UNL A   1      47.176  28.282  22.280  1.00  0.00    -0.237 OA
ATOM     78  O   UNL A   1      49.641  28.342  22.351  1.00  0.00    -0.744 OA
ENDBRANCH  71  75
ENDBRANCH  44  68
BRANCH  56  79
ATOM     79  C   UNL A   1      45.095  33.260  29.698  1.00  0.00     0.023 A 
ATOM     80  C   UNL A   1      45.067  34.346  28.807  1.00  0.00     0.031 A 
ATOM     81  C   UNL A   1      45.804  33.408  30.903  1.00  0.00     0.131 A 
ATOM     82  C   UNL A   1      45.772  35.519  29.116  1.00  0.00     0.055 A 
ATOM     83  C   UNL A   1      46.450  34.600  31.234  1.00  0.00     0.041 A 
ATOM     84  F   UNL A   1      45.866  32.400  31.788  1.00  0.00    -0.206 F 
ATOM     85  C   UNL A   1      46.444  35.661  30.333  1.00  0.00     0.022 A 
BRANCH  82  86
ATOM     86  S   UNL A   1      45.856  36.838  27.874  1.00  0.00     0.124 S 
ATOM     87  O   UNL A   1      47.293  37.076  27.782  1.00  0.00    -0.237 OA
ATOM     88  O   UNL A   1      45.238  36.213  26.709  1.00  0.00    -0.237 OA
ATOM     89  O   UNL A   1      45.084  37.925  28.475  1.00  0.00    -0.744 OA
ENDBRANCH  82  86
ENDBRANCH  56  79
ENDBRANCH  30  31
ENDBRANCH  22  25
ENDBRANCH  20  21
ENDBRANCH   1  20
TORSDOF 19
ENDMDL
MODEL 2
REMARK VINA RESULT:     -10.4      1.709      2.408
REMARK SMILES CCCC[C@@](CC)(C[C@H]1CCOC1)C(=O)NCCCNC(=O)c1ccc(-c2c3nc(c(-c4cc(S(=O)(=O)[O-])ccc4F)c4ccc([nH]4)c(-c4cc(S(=O)(=O)[O-])ccc4F)c4nc(c(-c5cc(S(=O)(=O)[O-])ccc5F)c5ccc2[nH]5)C=C4)C=C3)cc1
REMARK SMILES IDX 18 1 17 2 16 3 14 4 15 5 5 7 4 8 3 9 2 10 1 11 6 12 7 13
REMARK SMILES IDX 8 14 9 15 10 16 13 17 11 18 12 19 19 20 20 21 21 22 22 24
REMARK SMILES IDX 23 25 24 26 85 27 25 28 84 29 26 30 27 31 28 32 78 33 29 34
REMARK SMILES IDX 83 35 77 36 79 37 30 38 82 39 76 40 75 41 31 43 63 44 43 45
REMARK SMILES IDX 62 46 44 47 47 48 61 49 80 50 45 51 46 52 60 54 81 55 48 56
REMARK SMILES IDX 32 57 33 58 41 59 34 60 40 61 42 62 39 63 35 64 36 65 37 66
REMARK SMILES IDX 38 67 64 68 65 69 73 70 66 71 72 72 74 73 71 74 67 75 68 76
REMARK SMILES IDX 69 77 70 78 49 79 50 80 58 81 51 82 57 83 59 84 56 85 52 86
REMARK SMILES IDX 53 87 54 88 55 89
REMARK H PARENT 16 6 20 23 79 42 47 53
REMARK Flexibility Score: inf
ROOT
ATOM      1  C   UNL A   1      35.305  22.150  25.839  1.00  0.00     0.042 C 
ENDROOT
BRANCH   1   2
ATOM      2  C   UNL A   1      34.889  23.549  26.275  1.00  0.00     0.117 C 
BRANCH   2   3
ATOM      3  N   UNL A   1      33.485  23.607  26.653  1.00  0.00    -0.356 N 
ATOM      4  C   UNL A   1      32.464  24.466  26.398  1.00  0.00     0.226 C 
ATOM      5  O   UNL A   1      31.472  24.295  27.110  1.00  0.00    -0.274 OA
ATOM      6  H   UNL A   1      33.213  22.851  27.224  1.00  0.00     0.163 HD
BRANCH   4   7
ATOM      7  C   UNL A   1      32.542  25.599  25.347  1.00  0.00     0.049 C 
BRANCH   7   8
ATOM      8  C   UNL A   1      32.701  25.071  23.872  1.00  0.00     0.017 C 
BRANCH   8   9
ATOM      9  C   UNL A   1      31.878  23.867  23.368  1.00  0.00     0.001 C 
BRANCH   9  10
ATOM     10  C   UNL A   1      32.634  22.598  22.961  1.00  0.00    -0.003 C 
ATOM     11  C   UNL A   1      32.384  21.398  23.868  1.00  0.00     0.004 C 
ENDBRANCH   9  10
ENDBRANCH   8   9
ENDBRANCH   7   8
BRANCH   7  12
ATOM     12  C   UNL A   1      33.792  26.476  25.700  1.00  0.00     0.013 C 
ATOM     13  C   UNL A   1      33.553  27.704  26.567  1.00  0.00     0.005 C 
ENDBRANCH   7  12
BRANCH   7  14
ATOM     14  C   UNL A   1      31.187  26.394  25.416  1.00  0.00     0.023 C 
BRANCH  14  15
ATOM     15  C   UNL A   1      30.728  27.199  24.173  1.00  0.00     0.018 C 
ATOM     16  C   UNL A   1      29.288  27.126  23.701  1.00  0.00     0.034 C 
ATOM     17  C   UNL A   1      30.858  28.710  24.363  1.00  0.00     0.163 C 
ATOM     18  C   UNL A   1      29.188  28.331  22.790  1.00  0.00     0.160 C 
ATOM     19  O   UNL A   1      30.067  29.322  23.334  1.00  0.00    -0.381 OA
ENDBRANCH  14  15
ENDBRANCH   7  14
ENDBRANCH   4   7
ENDBRANCH   2   3
ENDBRANCH   1   2
BRANCH   1  20
ATOM     20  C   UNL A   1      36.535  22.117  24.942  1.00  0.00     0.118 C 
BRANCH  20  21
ATOM     21  N   UNL A   1      37.396  20.975  25.221  1.00  0.00    -0.352 N 
ATOM     22  C   UNL A   1      38.663  20.938  25.751  1.00  0.00     0.251 C 
ATOM     23  H   UNL A   1      37.012  20.098  24.994  1.00  0.00     0.163 HD
ATOM     24  O   UNL A   1      39.311  19.894  25.693  1.00  0.00    -0.269 OA
BRANCH  22  25
ATOM     25  C   UNL A   1      39.251  22.151  26.356  1.00  0.00     0.039 A 
ATOM     26  C   UNL A   1      40.288  22.015  27.282  1.00  0.00     0.014 A 
ATOM     27  C   UNL A   1      38.789  23.422  26.003  1.00  0.00     0.014 A 
ATOM     28  C   UNL A   1      40.923  23.156  27.780  1.00  0.00     0.010 A 
ATOM     29  C   UNL A   1      39.478  24.552  26.432  1.00  0.00     0.010 A 
ATOM     30  C   UNL A   1      40.560  24.431  27.317  1.00  0.00    -0.014 A 
BRANCH  30  31
ATOM     31  C   UNL A   1      41.313  25.649  27.719  1.00  0.00     0.031 A 
ATOM     32  C   UNL A   1      40.609  26.769  28.437  1.00  0.00     0.074 A 
ATOM     33  C   UNL A   1      42.606  25.780  27.352  1.00  0.00     0.049 A 
ATOM     34  N   UNL A   1      41.061  27.951  28.764  1.00  0.00    -0.248 NA
ATOM     35  C   UNL A   1      39.206  26.537  28.815  1.00  0.00     0.031 C 
ATOM     36  C   UNL A   1      43.383  24.774  26.624  1.00  0.00     0.029 A 
ATOM     37  N   UNL A   1      43.490  26.817  27.523  1.00  0.00    -0.354 N 
ATOM     38  C   UNL A   1      39.994  28.614  29.362  1.00  0.00     0.074 A 
ATOM     39  C   UNL A   1      38.862  27.714  29.318  1.00  0.00     0.031 C 
ATOM     40  C   UNL A   1      44.628  25.237  26.424  1.00  0.00     0.029 A 
ATOM     41  C   UNL A   1      44.723  26.595  26.950  1.00  0.00     0.049 A 
ATOM     42  H   UNL A   1      43.264  27.643  28.009  1.00  0.00     0.167 HD
ATOM     43  C   UNL A   1      39.969  29.856  29.904  1.00  0.00     0.034 A 
ATOM     44  C   UNL A   1      45.797  27.402  26.832  1.00  0.00     0.034 A 
ATOM     45  C   UNL A   1      41.115  30.729  29.958  1.00  0.00     0.049 A 
ATOM     46  C   UNL A   1      45.723  28.796  27.408  1.00  0.00     0.074 A 
ATOM     47  C   UNL A   1      41.223  31.966  30.571  1.00  0.00     0.029 A 
ATOM     48  N   UNL A   1      42.342  30.473  29.360  1.00  0.00    -0.354 N 
ATOM     49  N   UNL A   1      44.731  29.372  28.048  1.00  0.00    -0.248 NA
ATOM     50  C   UNL A   1      46.910  29.648  27.249  1.00  0.00     0.031 C 
ATOM     51  C   UNL A   1      42.479  32.496  30.266  1.00  0.00     0.029 A 
ATOM     52  C   UNL A   1      43.191  31.554  29.541  1.00  0.00     0.049 A 
ATOM     53  H   UNL A   1      42.575  29.647  28.879  1.00  0.00     0.167 HD
ATOM     54  C   UNL A   1      45.189  30.643  28.390  1.00  0.00     0.074 A 
ATOM     55  C   UNL A   1      46.549  30.740  27.906  1.00  0.00     0.031 C 
ATOM     56  C   UNL A   1      44.544  31.640  29.046  1.00  0.00     0.034 A 
BRANCH  43  57
ATOM     57  C   UNL A   1      38.658  30.366  30.451  1.00  0.00     0.023 A 
ATOM     58  C   UNL A   1      37.762  31.113  29.669  1.00  0.00     0.031 A 
ATOM     59  C   UNL A   1      38.289  30.071  31.776  1.00  0.00     0.131 A 
ATOM     60  C   UNL A   1      36.564  31.581  30.233  1.00  0.00     0.055 A 
ATOM     61  C   UNL A   1      37.064  30.476  32.308  1.00  0.00     0.041 A 
ATOM     62  F   UNL A   1      39.116  29.380  32.578  1.00  0.00    -0.206 F 
ATOM     63  C   UNL A   1      36.197  31.243  31.538  1.00  0.00     0.022 A 
BRANCH  60  64
ATOM     64  S   UNL A   1      35.543  32.729  29.271  1.00  0.00     0.124 S 
ATOM     65  O   UNL A   1      36.209  34.004  29.526  1.00  0.00    -0.237 OA
ATOM     66  O   UNL A   1      35.666  32.204  27.916  1.00  0.00    -0.237 OA
ATOM     67  O   UNL A   1      34.217  32.596  29.873  1.00  0.00    -0.744 OA
ENDBRANCH  60  64
ENDBRANCH  43  57
BRANCH  44  68
ATOM     68  C   UNL A   1      47.021  26.950  26.103  1.00  0.00     0.023 A 
ATOM     69  C   UNL A   1      48.053  26.274  26.774  1.00  0.00     0.031 A 
ATOM     70  C   UNL A   1      47.214  27.257  24.744  1.00  0.00     0.131 A 
ATOM     71  C   UNL A   1      49.256  25.992  26.107  1.00  0.00     0.055 A 
ATOM     72  C   UNL A   1      48.385  26.911  24.065  1.00  0.00     0.041 A 
ATOM     73  F   UNL A   1      46.264  27.904  24.050  1.00  0.00    -0.206 F 
ATOM     74  C   UNL A   1      49.422  26.292  24.753  1.00  0.00     0.022 A 
BRANCH  71  75
ATOM     75  S   UNL A   1      50.651  25.351  27.072  1.00  0.00     0.124 S 
ATOM     76  O   UNL A   1      51.053  26.531  27.831  1.00  0.00    -0.237 OA
ATOM     77  O   UNL A   1      50.021  24.279  27.837  1.00  0.00    -0.237 OA
ATOM     78  O   UNL A   1      51.599  24.912  26.050  1.00  0.00    -0.744 OA
ENDBRANCH  71  75
ENDBRANCH  44  68
BRANCH  56  79
ATOM     79  C   UNL A   1      45.318  32.907  29.313  1.00  0.00     0.023 A 
ATOM     80  C   UNL A   1      45.321  33.977  28.401  1.00  0.00     0.031 A 
ATOM     81  C   UNL A   1      46.046  33.052  30.507  1.00  0.00     0.131 A 
ATOM     82  C   UNL A   1      46.073  35.128  28.679  1.00  0.00     0.055 A 
ATOM     83  C   UNL A   1      46.741  34.224  30.807  1.00  0.00     0.041 A 
ATOM     84  F   UNL A   1      46.081  32.060  31.411  1.00  0.00    -0.206 F 
ATOM     85  C   UNL A   1      46.765  35.268  29.885  1.00  0.00     0.022 A 
BRANCH  82  86
ATOM     86  S   UNL A   1      46.193  36.418  27.410  1.00  0.00     0.124 S 
ATOM     87  O   UNL A   1      45.035  37.252  27.716  1.00  0.00    -0.237 OA
ATOM     88  O   UNL A   1      47.497  37.012  27.688  1.00  0.00    -0.237 OA
ATOM     89  O   UNL A   1      46.108  35.673  26.154  1.00  0.00    -0.744 OA
ENDBRANCH  82  86
ENDBRANCH  56  79
ENDBRANCH  30  31
ENDBRANCH  22  25
ENDBRANCH  20  21
ENDBRANCH   1  20
TORSDOF 19
ENDMDL
MODEL 3
REMARK VINA RESULT:     -10.4      5.173     10.006
REMARK SMILES CCCC[C@@](CC)(C[C@H]1CCOC1)C(=O)NCCCNC(=O)c1ccc(-c2c3nc(c(-c4cc(S(=O)(=O)[O-])ccc4F)c4ccc([nH]4)c(-c4cc(S(=O)(=O)[O-])ccc4F)c4nc(c(-c5cc(S(=O)(=O)[O-])ccc5F)c5ccc2[nH]5)C=C4)C=C3)cc1
REMARK SMILES IDX 18 1 17 2 16 3 14 4 15 5 5 7 4 8 3 9 2 10 1 11 6 12 7 13
REMARK SMILES IDX 8 14 9 15 10 16 13 17 11 18 12 19 19 20 20 21 21 22 22 24
REMARK SMILES IDX 23 25 24 26 85 27 25 28 84 29 26 30 27 31 28 32 78 33 29 34
REMARK SMILES IDX 83 35 77 36 79 37 30 38 82 39 76 40 75 41 31 43 63 44 43 45
REMARK SMILES IDX 62 46 44 47 47 48 61 49 80 50 45 51 46 52 60 54 81 55 48 56
REMARK SMILES IDX 32 57 33 58 41 59 34 60 40 61 42 62 39 63 35 64 36 65 37 66
REMARK SMILES IDX 38 67 64 68 65 69 73 70 66 71 72 72 74 73 71 74 67 75 68 76
REMARK SMILES IDX 69 77 70 78 49 79 50 80 58 81 51 82 57 83 59 84 56 85 52 86
REMARK SMILES IDX 53 87 54 88 55 89
REMARK H PARENT 16 6 20 23 79 42 47 53
REMARK Flexibility Score: inf
ROOT
ATOM      1  C   UNL A   1      32.895  28.882  24.731  1.00  0.00     0.042 C 
ENDROOT
BRANCH   1   2
ATOM      2  C   UNL A   1      31.892  27.940  24.076  1.00  0.00     0.117 C 
BRANCH   2   3
ATOM      3  N   UNL A   1      32.458  27.261  22.919  1.00  0.00    -0.356 N 
ATOM      4  C   UNL A   1      33.116  26.088  22.731  1.00  0.00     0.226 C 
ATOM      5  O   UNL A   1      33.653  25.983  21.626  1.00  0.00    -0.274 OA
ATOM      6  H   UNL A   1      32.335  27.767  22.083  1.00  0.00     0.163 HD
BRANCH   4   7
ATOM      7  C   UNL A   1      33.236  24.991  23.816  1.00  0.00     0.049 C 
BRANCH   7   8
ATOM      8  C   UNL A   1      31.897  24.747  24.607  1.00  0.00     0.017 C 
BRANCH   8   9
ATOM      9  C   UNL A   1      31.874  24.761  26.150  1.00  0.00     0.001 C 
BRANCH   9  10
ATOM     10  C   UNL A   1      31.644  23.433  26.878  1.00  0.00    -0.003 C 
ATOM     11  C   UNL A   1      30.196  22.955  26.875  1.00  0.00     0.004 C 
ENDBRANCH   9  10
ENDBRANCH   8   9
ENDBRANCH   7   8
BRANCH   7  12
ATOM     12  C   UNL A   1      34.336  25.458  24.830  1.00  0.00     0.013 C 
ATOM     13  C   UNL A   1      35.420  24.452  25.189  1.00  0.00     0.005 C 
ENDBRANCH   7  12
BRANCH   7  14
ATOM     14  C   UNL A   1      33.600  23.648  23.084  1.00  0.00     0.023 C 
BRANCH  14  15
ATOM     15  C   UNL A   1      32.902  22.339  23.533  1.00  0.00     0.018 C 
ATOM     16  C   UNL A   1      32.330  21.381  22.504  1.00  0.00     0.034 C 
ATOM     17  C   UNL A   1      33.844  21.387  24.271  1.00  0.00     0.163 C 
ATOM     18  C   UNL A   1      32.153  20.112  23.310  1.00  0.00     0.160 C 
ATOM     19  O   UNL A   1      33.202  20.103  24.285  1.00  0.00    -0.381 OA
ENDBRANCH  14  15
ENDBRANCH   7  14
ENDBRANCH   4   7
ENDBRANCH   2   3
ENDBRANCH   1   2
BRANCH   1  20
ATOM     20  C   UNL A   1      32.557  29.249  26.169  1.00  0.00     0.118 C 
BRANCH  20  21
ATOM     21  N   UNL A   1      32.352  30.681  26.345  1.00  0.00    -0.352 N 
ATOM     22  C   UNL A   1      33.079  31.591  27.073  1.00  0.00     0.251 C 
ATOM     23  H   UNL A   1      31.574  31.052  25.870  1.00  0.00     0.163 HD
ATOM     24  O   UNL A   1      32.612  32.709  27.281  1.00  0.00    -0.269 OA
BRANCH  22  25
ATOM     25  C   UNL A   1      34.397  31.216  27.626  1.00  0.00     0.039 A 
ATOM     26  C   UNL A   1      35.372  32.202  27.789  1.00  0.00     0.014 A 
ATOM     27  C   UNL A   1      34.668  29.895  27.995  1.00  0.00     0.014 A 
ATOM     28  C   UNL A   1      36.583  31.882  28.409  1.00  0.00     0.010 A 
ATOM     29  C   UNL A   1      35.837  29.598  28.689  1.00  0.00     0.010 A 
ATOM     30  C   UNL A   1      36.803  30.589  28.913  1.00  0.00    -0.014 A 
BRANCH  30  31
ATOM     31  C   UNL A   1      38.018  30.259  29.705  1.00  0.00     0.031 A 
ATOM     32  C   UNL A   1      39.013  29.261  29.176  1.00  0.00     0.074 A 
ATOM     33  C   UNL A   1      38.173  30.789  30.936  1.00  0.00     0.049 A 
ATOM     34  N   UNL A   1      40.066  28.756  29.764  1.00  0.00    -0.248 NA
ATOM     35  C   UNL A   1      38.779  28.744  27.818  1.00  0.00     0.031 C 
ATOM     36  C   UNL A   1      37.255  31.743  31.566  1.00  0.00     0.029 A 
ATOM     37  N   UNL A   1      39.144  30.591  31.887  1.00  0.00    -0.354 N 
ATOM     38  C   UNL A   1      40.606  27.845  28.862  1.00  0.00     0.074 A 
ATOM     39  C   UNL A   1      39.742  27.840  27.702  1.00  0.00     0.031 C 
ATOM     40  C   UNL A   1      37.714  32.055  32.789  1.00  0.00     0.029 A 
ATOM     41  C   UNL A   1      38.921  31.281  33.059  1.00  0.00     0.049 A 
ATOM     42  H   UNL A   1      39.926  30.011  31.745  1.00  0.00     0.167 HD
ATOM     43  C   UNL A   1      41.725  27.092  28.991  1.00  0.00     0.034 A 
ATOM     44  C   UNL A   1      39.591  31.266  34.230  1.00  0.00     0.034 A 
ATOM     45  C   UNL A   1      42.586  27.128  30.147  1.00  0.00     0.049 A 
ATOM     46  C   UNL A   1      40.809  30.382  34.357  1.00  0.00     0.074 A 
ATOM     47  C   UNL A   1      43.794  26.480  30.337  1.00  0.00     0.029 A 
ATOM     48  N   UNL A   1      42.323  27.830  31.316  1.00  0.00    -0.354 N 
ATOM     49  N   UNL A   1      41.353  29.594  33.458  1.00  0.00    -0.248 NA
ATOM     50  C   UNL A   1      41.505  30.387  35.651  1.00  0.00     0.031 C 
ATOM     51  C   UNL A   1      44.214  26.713  31.649  1.00  0.00     0.029 A 
ATOM     52  C   UNL A   1      43.317  27.582  32.250  1.00  0.00     0.049 A 
ATOM     53  H   UNL A   1      41.546  28.416  31.460  1.00  0.00     0.167 HD
ATOM     54  C   UNL A   1      42.470  29.033  34.074  1.00  0.00     0.074 A 
ATOM     55  C   UNL A   1      42.533  29.588  35.409  1.00  0.00     0.031 C 
ATOM     56  C   UNL A   1      43.363  28.139  33.581  1.00  0.00     0.034 A 
BRANCH  43  57
ATOM     57  C   UNL A   1      42.070  26.135  27.875  1.00  0.00     0.023 A 
ATOM     58  C   UNL A   1      41.637  24.799  27.876  1.00  0.00     0.031 A 
ATOM     59  C   UNL A   1      42.824  26.584  26.776  1.00  0.00     0.131 A 
ATOM     60  C   UNL A   1      42.003  23.946  26.823  1.00  0.00     0.055 A 
ATOM     61  C   UNL A   1      43.122  25.751  25.696  1.00  0.00     0.041 A 
ATOM     62  F   UNL A   1      43.283  27.845  26.731  1.00  0.00    -0.206 F 
ATOM     63  C   UNL A   1      42.718  24.420  25.720  1.00  0.00     0.022 A 
BRANCH  60  64
ATOM     64  S   UNL A   1      41.625  22.178  26.967  1.00  0.00     0.124 S 
ATOM     65  O   UNL A   1      40.512  22.036  26.031  1.00  0.00    -0.237 OA
ATOM     66  O   UNL A   1      42.879  21.552  26.567  1.00  0.00    -0.237 OA
ATOM     67  O   UNL A   1      41.269  22.017  28.376  1.00  0.00    -0.744 OA
ENDBRANCH  60  64
ENDBRANCH  43  57
BRANCH  44  68
ATOM     68  C   UNL A   1      39.114  32.068  35.397  1.00  0.00     0.023 A 
ATOM     69  C   UNL A   1      39.536  33.394  35.584  1.00  0.00     0.031 A 
ATOM     70  C   UNL A   1      38.295  31.496  36.387  1.00  0.00     0.131 A 
ATOM     71  C   UNL A   1      39.198  34.078  36.763  1.00  0.00     0.055 A 
ATOM     72  C   UNL A   1      37.901  32.205  37.524  1.00  0.00     0.041 A 
ATOM     73  F   UNL A   1      37.861  30.230  36.265  1.00  0.00    -0.206 F 
ATOM     74  C   UNL A   1      38.371  33.498  37.727  1.00  0.00     0.022 A 
BRANCH  71  75
ATOM     75  S   UNL A   1      39.969  35.689  37.079  1.00  0.00     0.124 S 
ATOM     76  O   UNL A   1      39.278  36.114  38.292  1.00  0.00    -0.237 OA
ATOM     77  O   UNL A   1      41.374  35.326  37.234  1.00  0.00    -0.237 OA
ATOM     78  O   UNL A   1      39.653  36.459  35.877  1.00  0.00    -0.744 OA
ENDBRANCH  71  75
ENDBRANCH  44  68
BRANCH  56  79
ATOM     79  C   UNL A   1      44.509  27.738  34.477  1.00  0.00     0.023 A 
ATOM     80  C   UNL A   1      44.427  26.618  35.324  1.00  0.00     0.031 A 
ATOM     81  C   UNL A   1      45.704  28.477  34.469  1.00  0.00     0.131 A 
ATOM     82  C   UNL A   1      45.508  26.295  36.158  1.00  0.00     0.055 A 
ATOM     83  C   UNL A   1      46.799  28.114  35.254  1.00  0.00     0.041 A 
ATOM     84  F   UNL A   1      45.834  29.558  33.683  1.00  0.00    -0.206 F 
ATOM     85  C   UNL A   1      46.701  27.022  36.112  1.00  0.00     0.022 A 
BRANCH  82  86
ATOM     86  S   UNL A   1      45.311  24.950  37.357  1.00  0.00     0.124 S 
ATOM     87  O   UNL A   1      46.641  24.879  37.955  1.00  0.00    -0.237 OA
ATOM     88  O   UNL A   1      44.249  25.452  38.222  1.00  0.00    -0.237 OA
ATOM     89  O   UNL A   1      44.942  23.802  36.528  1.00  0.00    -0.744 OA
ENDBRANCH  82  86
ENDBRANCH  56  79
ENDBRANCH  30  31
ENDBRANCH  22  25
ENDBRANCH  20  21
ENDBRANCH   1  20
TORSDOF 19
ENDMDL
