MODEL 1
REMARK VINA RESULT:     -14.0      0.000      0.000
REMARK SMILES CN1C(=O)C[C@@H](C(=O)NCCCNC(=O)c2ccc(-c3c4nc(c(-c5cc(S(=O)(=O)[O-])ccc5F)c5ccc([nH]5)c(-c5cc(S(=O)(=O)[O-])ccc5F)c5nc(c(-c6cc(S(=O)(=O)[O-])ccc6F)c6ccc3[nH]6)C=C5)C=C4)cc2)C12CCN(C(=O)c1cccc3ccccc13)CC2
REMARK SMILES IDX 12 1 11 2 10 3 9 4 7 5 8 6 6 8 1 9 2 10 3 11 79 12 4 13 5 14
REMARK SMILES IDX 80 15 96 16 81 17 95 18 82 19 83 20 84 21 85 22 86 23 94 24
REMARK SMILES IDX 87 25 89 26 93 27 88 28 90 29 92 30 91 31 13 32 14 33 15 35
REMARK SMILES IDX 16 36 17 37 78 38 18 39 77 40 19 41 20 42 21 43 71 44 22 45
REMARK SMILES IDX 76 46 70 47 72 48 23 49 75 50 69 51 68 52 24 54 56 55 36 56
REMARK SMILES IDX 55 57 37 58 40 59 54 60 73 61 38 62 39 63 53 65 74 66 41 67
REMARK SMILES IDX 25 68 26 69 34 70 27 71 33 72 35 73 32 74 28 75 29 76 30 77
REMARK SMILES IDX 31 78 57 79 58 80 66 81 59 82 65 83 67 84 64 85 60 86 61 87
REMARK SMILES IDX 62 88 63 89 42 90 43 91 51 92 44 93 50 94 52 95 49 96 45 97
REMARK SMILES IDX 46 98 47 99 48 100
REMARK H PARENT 9 7 13 34 72 53 40 64
REMARK Flexibility Score: inf
ROOT
ATOM      1  C   UNL A   1      32.245  31.966  26.866  1.00  0.00     0.118 C 
ENDROOT
BRANCH   1   2
ATOM      2  C   UNL A   1      30.966  31.618  26.114  1.00  0.00     0.042 C 
BRANCH   2   3
ATOM      3  C   UNL A   1      31.044  30.305  25.332  1.00  0.00     0.117 C 
BRANCH   3   4
ATOM      4  N   UNL A   1      32.374  29.961  24.845  1.00  0.00    -0.356 N 
ATOM      5  C   UNL A   1      32.842  29.357  23.724  1.00  0.00     0.226 C 
ATOM      6  O   UNL A   1      34.073  29.330  23.596  1.00  0.00    -0.275 OA
ATOM      7  H   UNL A   1      33.091  30.225  25.466  1.00  0.00     0.163 HD
BRANCH   5   8
ATOM      8  C   UNL A   1      31.985  28.670  22.660  1.00  0.00     0.113 C 
ATOM      9  C   UNL A   1      29.070  26.689  23.937  1.00  0.00     0.147 C 
ATOM     10  N   UNL A   1      30.022  27.602  23.333  1.00  0.00    -0.339 N 
ATOM     11  C   UNL A   1      29.603  28.813  22.794  1.00  0.00     0.223 C 
ATOM     12  C   UNL A   1      31.419  27.273  23.010  1.00  0.00     0.058 C 
ATOM     13  O   UNL A   1      28.471  29.260  22.802  1.00  0.00    -0.275 OA
ATOM     14  C   UNL A   1      30.797  29.518  22.216  1.00  0.00     0.116 C 
ATOM     15  C   UNL A   1      32.201  26.570  24.143  1.00  0.00     0.051 C 
ATOM     16  C   UNL A   1      31.402  26.329  21.768  1.00  0.00     0.051 C 
ATOM     17  C   UNL A   1      33.590  26.103  23.700  1.00  0.00     0.122 C 
ATOM     18  C   UNL A   1      32.763  25.718  21.435  1.00  0.00     0.122 C 
ATOM     19  N   UNL A   1      33.407  25.158  22.622  1.00  0.00    -0.338 N 
ATOM     20  C   UNL A   1      33.674  23.794  22.685  1.00  0.00     0.254 C 
ATOM     21  O   UNL A   1      33.270  23.014  21.821  1.00  0.00    -0.269 OA
BRANCH  20  22
ATOM     22  C   UNL A   1      34.601  23.221  23.700  1.00  0.00     0.047 A 
ATOM     23  C   UNL A   1      35.861  22.890  23.169  1.00  0.00     0.014 A 
ATOM     24  C   UNL A   1      34.234  22.790  25.010  1.00  0.00    -0.006 A 
ATOM     25  C   UNL A   1      36.738  22.078  23.877  1.00  0.00     0.001 A 
ATOM     26  C   UNL A   1      35.127  21.922  25.693  1.00  0.00    -0.018 A 
ATOM     27  C   UNL A   1      33.056  23.156  25.703  1.00  0.00     0.009 A 
ATOM     28  C   UNL A   1      36.350  21.563  25.110  1.00  0.00     0.009 A 
ATOM     29  C   UNL A   1      34.796  21.409  26.959  1.00  0.00     0.009 A 
ATOM     30  C   UNL A   1      32.795  22.732  27.010  1.00  0.00     0.001 A 
ATOM     31  C   UNL A   1      33.650  21.830  27.626  1.00  0.00     0.001 A 
ENDBRANCH  20  22
ENDBRANCH   5   8
ENDBRANCH   3   4
ENDBRANCH   2   3
ENDBRANCH   1   2
BRANCH   1  32
ATOM     32  N   UNL A   1      32.317  33.392  27.136  1.00  0.00    -0.352 N 
ATOM     33  C   UNL A   1      33.056  34.067  28.075  1.00  0.00     0.251 C 
ATOM     34  H   UNL A   1      31.752  33.957  26.560  1.00  0.00     0.163 HD
ATOM     35  O   UNL A   1      32.701  35.195  28.406  1.00  0.00    -0.269 OA
BRANCH  33  36
ATOM     36  C   UNL A   1      34.261  33.453  28.680  1.00  0.00     0.039 A 
ATOM     37  C   UNL A   1      34.096  32.531  29.716  1.00  0.00     0.014 A 
ATOM     38  C   UNL A   1      35.549  33.829  28.286  1.00  0.00     0.014 A 
ATOM     39  C   UNL A   1      35.217  31.962  30.325  1.00  0.00     0.010 A 
ATOM     40  C   UNL A   1      36.663  33.194  28.833  1.00  0.00     0.010 A 
ATOM     41  C   UNL A   1      36.512  32.264  29.869  1.00  0.00    -0.014 A 
BRANCH  41  42
ATOM     42  C   UNL A   1      37.701  31.613  30.483  1.00  0.00     0.031 A 
ATOM     43  C   UNL A   1      38.134  31.968  31.882  1.00  0.00     0.074 A 
ATOM     44  C   UNL A   1      38.396  30.705  29.768  1.00  0.00     0.049 A 
ATOM     45  N   UNL A   1      39.139  31.501  32.579  1.00  0.00    -0.248 NA
ATOM     46  C   UNL A   1      37.352  33.000  32.582  1.00  0.00     0.031 C 
ATOM     47  C   UNL A   1      38.101  30.316  28.386  1.00  0.00     0.029 A 
ATOM     48  N   UNL A   1      39.484  29.938  30.099  1.00  0.00    -0.354 N 
ATOM     49  C   UNL A   1      39.106  32.175  33.796  1.00  0.00     0.074 A 
ATOM     50  C   UNL A   1      38.028  33.136  33.712  1.00  0.00     0.031 C 
ATOM     51  C   UNL A   1      38.957  29.356  28.005  1.00  0.00     0.029 A 
ATOM     52  C   UNL A   1      39.894  29.094  29.091  1.00  0.00     0.049 A 
ATOM     53  H   UNL A   1      39.931  29.987  30.974  1.00  0.00     0.167 HD
ATOM     54  C   UNL A   1      39.880  31.986  34.894  1.00  0.00     0.034 A 
ATOM     55  C   UNL A   1      40.913  28.212  29.045  1.00  0.00     0.034 A 
ATOM     56  C   UNL A   1      40.949  31.018  34.964  1.00  0.00     0.049 A 
ATOM     57  C   UNL A   1      41.775  28.043  30.272  1.00  0.00     0.074 A 
ATOM     58  C   UNL A   1      41.776  30.723  36.035  1.00  0.00     0.029 A 
ATOM     59  N   UNL A   1      41.342  30.188  33.922  1.00  0.00    -0.354 N 
ATOM     60  N   UNL A   1      41.691  28.654  31.432  1.00  0.00    -0.248 NA
ATOM     61  C   UNL A   1      42.853  27.050  30.189  1.00  0.00     0.031 C 
ATOM     62  C   UNL A   1      42.711  29.770  35.618  1.00  0.00     0.029 A 
ATOM     63  C   UNL A   1      42.416  29.403  34.316  1.00  0.00     0.049 A 
ATOM     64  H   UNL A   1      40.919  30.160  33.033  1.00  0.00     0.167 HD
ATOM     65  C   UNL A   1      42.692  28.096  32.224  1.00  0.00     0.074 A 
ATOM     66  C   UNL A   1      43.334  27.075  31.422  1.00  0.00     0.031 C 
ATOM     67  C   UNL A   1      43.056  28.402  33.496  1.00  0.00     0.034 A 
BRANCH  54  68
ATOM     68  C   UNL A   1      39.605  32.848  36.103  1.00  0.00     0.023 A 
ATOM     69  C   UNL A   1      38.803  32.394  37.165  1.00  0.00     0.031 A 
ATOM     70  C   UNL A   1      40.159  34.138  36.204  1.00  0.00     0.131 A 
ATOM     71  C   UNL A   1      38.530  33.239  38.251  1.00  0.00     0.055 A 
ATOM     72  C   UNL A   1      39.947  34.945  37.325  1.00  0.00     0.041 A 
ATOM     73  F   UNL A   1      40.913  34.637  35.213  1.00  0.00    -0.206 F 
ATOM     74  C   UNL A   1      39.120  34.501  38.351  1.00  0.00     0.022 A 
BRANCH  71  75
ATOM     75  S   UNL A   1      37.297  32.712  39.473  1.00  0.00     0.124 S 
ATOM     76  O   UNL A   1      37.411  33.766  40.479  1.00  0.00    -0.237 OA
ATOM     77  O   UNL A   1      36.065  32.703  38.694  1.00  0.00    -0.237 OA
ATOM     78  O   UNL A   1      37.778  31.399  39.899  1.00  0.00    -0.744 OA
ENDBRANCH  71  75
ENDBRANCH  54  68
BRANCH  55  79
ATOM     79  C   UNL A   1      41.197  27.435  27.801  1.00  0.00     0.023 A 
ATOM     80  C   UNL A   1      40.944  26.055  27.732  1.00  0.00     0.031 A 
ATOM     81  C   UNL A   1      41.799  28.047  26.688  1.00  0.00     0.131 A 
ATOM     82  C   UNL A   1      41.358  25.322  26.610  1.00  0.00     0.055 A 
ATOM     83  C   UNL A   1      42.142  27.327  25.542  1.00  0.00     0.041 A 
ATOM     84  F   UNL A   1      42.062  29.364  26.694  1.00  0.00    -0.206 F 
ATOM     85  C   UNL A   1      41.942  25.950  25.508  1.00  0.00     0.022 A 
BRANCH  82  86
ATOM     86  S   UNL A   1      41.247  23.512  26.668  1.00  0.00     0.124 S 
ATOM     87  O   UNL A   1      42.190  23.125  25.624  1.00  0.00    -0.237 OA
ATOM     88  O   UNL A   1      41.656  23.229  28.039  1.00  0.00    -0.237 OA
ATOM     89  O   UNL A   1      39.841  23.249  26.370  1.00  0.00    -0.744 OA
ENDBRANCH  82  86
ENDBRANCH  55  79
BRANCH  67  90
ATOM     90  C   UNL A   1      44.181  27.589  34.094  1.00  0.00     0.023 A 
ATOM     91  C   UNL A   1      43.944  26.347  34.710  1.00  0.00     0.031 A 
ATOM     92  C   UNL A   1      45.497  28.085  34.095  1.00  0.00     0.131 A 
ATOM     93  C   UNL A   1      44.985  25.689  35.380  1.00  0.00     0.055 A 
ATOM     94  C   UNL A   1      46.546  27.384  34.692  1.00  0.00     0.041 A 
ATOM     95  F   UNL A   1      45.785  29.265  33.524  1.00  0.00    -0.206 F 
ATOM     96  C   UNL A   1      46.289  26.190  35.359  1.00  0.00     0.022 A 
BRANCH  93  97
ATOM     97  S   UNL A   1      44.579  24.247  36.401  1.00  0.00     0.124 S 
ATOM     98  O   UNL A   1      43.727  23.472  35.505  1.00  0.00    -0.237 OA
ATOM     99  O   UNL A   1      45.896  23.680  36.677  1.00  0.00    -0.237 OA
ATOM    100  O   UNL A   1      43.900  24.827  37.559  1.00  0.00    -0.744 OA
ENDBRANCH  93  97
ENDBRANCH  67  90
ENDBRANCH  41  42
ENDBRANCH  33  36
ENDBRANCH   1  32
TORSDOF 14
ENDMDL
MODEL 2
REMARK VINA RESULT:     -13.8      1.852      7.514
REMARK SMILES CN1C(=O)C[C@@H](C(=O)NCCCNC(=O)c2ccc(-c3c4nc(c(-c5cc(S(=O)(=O)[O-])ccc5F)c5ccc([nH]5)c(-c5cc(S(=O)(=O)[O-])ccc5F)c5nc(c(-c6cc(S(=O)(=O)[O-])ccc6F)c6ccc3[nH]6)C=C5)C=C4)cc2)C12CCN(C(=O)c1cccc3ccccc13)CC2
REMARK SMILES IDX 12 1 11 2 10 3 9 4 7 5 8 6 6 8 1 9 2 10 3 11 79 12 4 13 5 14
REMARK SMILES IDX 80 15 96 16 81 17 95 18 82 19 83 20 84 21 85 22 86 23 94 24
REMARK SMILES IDX 87 25 89 26 93 27 88 28 90 29 92 30 91 31 13 32 14 33 15 35
REMARK SMILES IDX 16 36 17 37 78 38 18 39 77 40 19 41 20 42 21 43 71 44 22 45
REMARK SMILES IDX 76 46 70 47 72 48 23 49 75 50 69 51 68 52 24 54 56 55 36 56
REMARK SMILES IDX 55 57 37 58 40 59 54 60 73 61 38 62 39 63 53 65 74 66 41 67
REMARK SMILES IDX 25 68 26 69 34 70 27 71 33 72 35 73 32 74 28 75 29 76 30 77
REMARK SMILES IDX 31 78 57 79 58 80 66 81 59 82 65 83 67 84 64 85 60 86 61 87
REMARK SMILES IDX 62 88 63 89 42 90 43 91 51 92 44 93 50 94 52 95 49 96 45 97
REMARK SMILES IDX 46 98 47 99 48 100
REMARK H PARENT 9 7 13 34 72 53 40 64
REMARK Flexibility Score: inf
ROOT
ATOM      1  C   UNL A   1      32.375  31.909  26.946  1.00  0.00     0.118 C 
ENDROOT
BRANCH   1   2
ATOM      2  C   UNL A   1      31.112  31.518  26.188  1.00  0.00     0.042 C 
BRANCH   2   3
ATOM      3  C   UNL A   1      31.225  30.189  25.437  1.00  0.00     0.117 C 
BRANCH   3   4
ATOM      4  N   UNL A   1      32.548  29.903  24.895  1.00  0.00    -0.356 N 
ATOM      5  C   UNL A   1      32.995  29.348  23.741  1.00  0.00     0.226 C 
ATOM      6  O   UNL A   1      34.221  29.366  23.570  1.00  0.00    -0.275 OA
ATOM      7  H   UNL A   1      33.277  30.173  25.499  1.00  0.00     0.163 HD
BRANCH   5   8
ATOM      8  C   UNL A   1      32.123  28.665  22.687  1.00  0.00     0.113 C 
ATOM      9  C   UNL A   1      29.166  26.766  23.991  1.00  0.00     0.147 C 
ATOM     10  N   UNL A   1      30.137  27.649  23.375  1.00  0.00    -0.339 N 
ATOM     11  C   UNL A   1      29.745  28.861  22.818  1.00  0.00     0.223 C 
ATOM     12  C   UNL A   1      31.528  27.285  23.056  1.00  0.00     0.058 C 
ATOM     13  O   UNL A   1      28.622  29.332  22.819  1.00  0.00    -0.275 OA
ATOM     14  C   UNL A   1      30.954  29.532  22.230  1.00  0.00     0.116 C 
ATOM     15  C   UNL A   1      32.294  26.582  24.200  1.00  0.00     0.051 C 
ATOM     16  C   UNL A   1      31.490  26.324  21.829  1.00  0.00     0.051 C 
ATOM     17  C   UNL A   1      33.673  26.079  23.764  1.00  0.00     0.122 C 
ATOM     18  C   UNL A   1      32.838  25.679  21.505  1.00  0.00     0.122 C 
ATOM     19  N   UNL A   1      33.469  25.123  22.700  1.00  0.00    -0.338 N 
ATOM     20  C   UNL A   1      33.707  23.755  22.783  1.00  0.00     0.254 C 
ATOM     21  O   UNL A   1      33.286  22.971  21.930  1.00  0.00    -0.269 OA
BRANCH  20  22
ATOM     22  C   UNL A   1      34.622  23.176  23.806  1.00  0.00     0.047 A 
ATOM     23  C   UNL A   1      35.861  22.777  23.274  1.00  0.00     0.014 A 
ATOM     24  C   UNL A   1      34.252  22.802  25.132  1.00  0.00    -0.006 A 
ATOM     25  C   UNL A   1      36.712  21.953  23.998  1.00  0.00     0.001 A 
ATOM     26  C   UNL A   1      35.117  21.920  25.834  1.00  0.00    -0.018 A 
ATOM     27  C   UNL A   1      33.097  23.237  25.825  1.00  0.00     0.009 A 
ATOM     28  C   UNL A   1      36.318  21.493  25.251  1.00  0.00     0.009 A 
ATOM     29  C   UNL A   1      34.780  21.461  27.119  1.00  0.00     0.009 A 
ATOM     30  C   UNL A   1      32.835  22.865  27.148  1.00  0.00     0.001 A 
ATOM     31  C   UNL A   1      33.659  21.950  27.784  1.00  0.00     0.001 A 
ENDBRANCH  20  22
ENDBRANCH   5   8
ENDBRANCH   3   4
ENDBRANCH   2   3
ENDBRANCH   1   2
BRANCH   1  32
ATOM     32  N   UNL A   1      32.442  33.348  27.135  1.00  0.00    -0.352 N 
ATOM     33  C   UNL A   1      33.100  34.073  28.096  1.00  0.00     0.251 C 
ATOM     34  H   UNL A   1      31.942  33.882  26.475  1.00  0.00     0.163 HD
ATOM     35  O   UNL A   1      32.732  35.222  28.324  1.00  0.00    -0.269 OA
BRANCH  33  36
ATOM     36  C   UNL A   1      34.234  33.487  28.848  1.00  0.00     0.039 A 
ATOM     37  C   UNL A   1      33.961  32.707  29.974  1.00  0.00     0.014 A 
ATOM     38  C   UNL A   1      35.561  33.755  28.497  1.00  0.00     0.014 A 
ATOM     39  C   UNL A   1      35.014  32.169  30.719  1.00  0.00     0.010 A 
ATOM     40  C   UNL A   1      36.607  33.144  29.188  1.00  0.00     0.010 A 
ATOM     41  C   UNL A   1      36.347  32.357  30.316  1.00  0.00    -0.014 A 
BRANCH  41  42
ATOM     42  C   UNL A   1      37.463  31.735  31.080  1.00  0.00     0.031 A 
ATOM     43  C   UNL A   1      38.318  30.664  30.454  1.00  0.00     0.074 A 
ATOM     44  C   UNL A   1      37.694  32.133  32.347  1.00  0.00     0.049 A 
ATOM     45  N   UNL A   1      39.334  30.014  30.966  1.00  0.00    -0.248 NA
ATOM     46  C   UNL A   1      37.975  30.250  29.084  1.00  0.00     0.031 C 
ATOM     47  C   UNL A   1      36.900  33.127  33.077  1.00  0.00     0.029 A 
ATOM     48  N   UNL A   1      38.662  31.765  33.246  1.00  0.00    -0.354 N 
ATOM     49  C   UNL A   1      39.752  29.124  29.982  1.00  0.00     0.074 A 
ATOM     50  C   UNL A   1      38.834  29.264  28.874  1.00  0.00     0.031 C 
ATOM     51  C   UNL A   1      37.440  33.319  34.290  1.00  0.00     0.029 A 
ATOM     52  C   UNL A   1      38.584  32.429  34.450  1.00  0.00     0.049 A 
ATOM     53  H   UNL A   1      39.349  31.088  33.050  1.00  0.00     0.167 HD
ATOM     54  C   UNL A   1      40.823  28.291  29.989  1.00  0.00     0.034 A 
ATOM     55  C   UNL A   1      39.344  32.329  35.559  1.00  0.00     0.034 A 
ATOM     56  C   UNL A   1      41.734  28.166  31.102  1.00  0.00     0.049 A 
ATOM     57  C   UNL A   1      40.512  31.375  35.547  1.00  0.00     0.074 A 
ATOM     58  C   UNL A   1      42.867  27.377  31.204  1.00  0.00     0.029 A 
ATOM     59  N   UNL A   1      41.618  28.847  32.307  1.00  0.00    -0.354 N 
ATOM     60  N   UNL A   1      40.922  30.580  34.584  1.00  0.00    -0.248 NA
ATOM     61  C   UNL A   1      41.332  31.321  36.764  1.00  0.00     0.031 C 
ATOM     62  C   UNL A   1      43.392  27.526  32.491  1.00  0.00     0.029 A 
ATOM     63  C   UNL A   1      42.641  28.474  33.166  1.00  0.00     0.049 A 
ATOM     64  H   UNL A   1      40.913  29.500  32.520  1.00  0.00     0.167 HD
ATOM     65  C   UNL A   1      42.065  29.953  35.074  1.00  0.00     0.074 A 
ATOM     66  C   UNL A   1      42.298  30.493  36.398  1.00  0.00     0.031 C 
ATOM     67  C   UNL A   1      42.849  29.010  34.491  1.00  0.00     0.034 A 
BRANCH  54  68
ATOM     68  C   UNL A   1      41.062  27.445  28.761  1.00  0.00     0.023 A 
ATOM     69  C   UNL A   1      42.084  27.749  27.844  1.00  0.00     0.031 A 
ATOM     70  C   UNL A   1      40.266  26.313  28.505  1.00  0.00     0.131 A 
ATOM     71  C   UNL A   1      42.247  26.968  26.689  1.00  0.00     0.055 A 
ATOM     72  C   UNL A   1      40.485  25.495  27.394  1.00  0.00     0.041 A 
ATOM     73  F   UNL A   1      39.260  25.985  29.329  1.00  0.00    -0.206 F 
ATOM     74  C   UNL A   1      41.473  25.827  26.473  1.00  0.00     0.022 A 
BRANCH  71  75
ATOM     75  S   UNL A   1      43.406  27.536  25.415  1.00  0.00     0.124 S 
ATOM     76  O   UNL A   1      42.496  27.897  24.330  1.00  0.00    -0.237 OA
ATOM     77  O   UNL A   1      44.084  28.645  26.075  1.00  0.00    -0.237 OA
ATOM     78  O   UNL A   1      44.236  26.361  25.158  1.00  0.00    -0.744 OA
ENDBRANCH  71  75
ENDBRANCH  54  68
BRANCH  55  79
ATOM     79  C   UNL A   1      39.026  33.130  36.779  1.00  0.00     0.023 A 
ATOM     80  C   UNL A   1      39.532  34.429  36.950  1.00  0.00     0.031 A 
ATOM     81  C   UNL A   1      38.273  32.577  37.830  1.00  0.00     0.131 A 
ATOM     82  C   UNL A   1      39.344  35.100  38.167  1.00  0.00     0.055 A 
ATOM     83  C   UNL A   1      38.026  33.277  39.012  1.00  0.00     0.041 A 
ATOM     84  F   UNL A   1      37.762  31.340  37.724  1.00  0.00    -0.206 F 
ATOM     85  C   UNL A   1      38.582  34.540  39.194  1.00  0.00     0.022 A 
BRANCH  82  86
ATOM     86  S   UNL A   1      40.226  36.662  38.441  1.00  0.00     0.124 S 
ATOM     87  O   UNL A   1      41.238  36.263  39.413  1.00  0.00    -0.237 OA
ATOM     88  O   UNL A   1      40.710  36.973  37.101  1.00  0.00    -0.237 OA
ATOM     89  O   UNL A   1      39.186  37.554  38.951  1.00  0.00    -0.744 OA
ENDBRANCH  82  86
ENDBRANCH  55  79
BRANCH  67  90
ATOM     90  C   UNL A   1      44.047  28.538  35.282  1.00  0.00     0.023 A 
ATOM     91  C   UNL A   1      43.952  27.470  36.192  1.00  0.00     0.031 A 
ATOM     92  C   UNL A   1      45.284  29.196  35.163  1.00  0.00     0.131 A 
ATOM     93  C   UNL A   1      45.044  27.153  37.013  1.00  0.00     0.055 A 
ATOM     94  C   UNL A   1      46.391  28.821  35.925  1.00  0.00     0.041 A 
ATOM     95  F   UNL A   1      45.435  30.223  34.312  1.00  0.00    -0.206 F 
ATOM     96  C   UNL A   1      46.269  27.808  36.873  1.00  0.00     0.022 A 
BRANCH  93  97
ATOM     97  S   UNL A   1      44.792  25.971  38.365  1.00  0.00     0.124 S 
ATOM     98  O   UNL A   1      44.183  24.842  37.670  1.00  0.00    -0.237 OA
ATOM     99  O   UNL A   1      46.152  25.761  38.852  1.00  0.00    -0.237 OA
ATOM    100  O   UNL A   1      43.909  26.686  39.285  1.00  0.00    -0.744 OA
ENDBRANCH  93  97
ENDBRANCH  67  90
ENDBRANCH  41  42
ENDBRANCH  33  36
ENDBRANCH   1  32
TORSDOF 14
ENDMDL
MODEL 3
REMARK VINA RESULT:     -13.7      1.806      2.726
REMARK SMILES CN1C(=O)C[C@@H](C(=O)NCCCNC(=O)c2ccc(-c3c4nc(c(-c5cc(S(=O)(=O)[O-])ccc5F)c5ccc([nH]5)c(-c5cc(S(=O)(=O)[O-])ccc5F)c5nc(c(-c6cc(S(=O)(=O)[O-])ccc6F)c6ccc3[nH]6)C=C5)C=C4)cc2)C12CCN(C(=O)c1cccc3ccccc13)CC2
REMARK SMILES IDX 12 1 11 2 10 3 9 4 7 5 8 6 6 8 1 9 2 10 3 11 79 12 4 13 5 14
REMARK SMILES IDX 80 15 96 16 81 17 95 18 82 19 83 20 84 21 85 22 86 23 94 24
REMARK SMILES IDX 87 25 89 26 93 27 88 28 90 29 92 30 91 31 13 32 14 33 15 35
REMARK SMILES IDX 16 36 17 37 78 38 18 39 77 40 19 41 20 42 21 43 71 44 22 45
REMARK SMILES IDX 76 46 70 47 72 48 23 49 75 50 69 51 68 52 24 54 56 55 36 56
REMARK SMILES IDX 55 57 37 58 40 59 54 60 73 61 38 62 39 63 53 65 74 66 41 67
REMARK SMILES IDX 25 68 26 69 34 70 27 71 33 72 35 73 32 74 28 75 29 76 30 77
REMARK SMILES IDX 31 78 57 79 58 80 66 81 59 82 65 83 67 84 64 85 60 86 61 87
REMARK SMILES IDX 62 88 63 89 42 90 43 91 51 92 44 93 50 94 52 95 49 96 45 97
REMARK SMILES IDX 46 98 47 99 48 100
REMARK H PARENT 9 7 13 34 72 53 40 64
REMARK Flexibility Score: inf
ROOT
ATOM      1  C   UNL A   1      33.374  28.800  25.126  1.00  0.00     0.118 C 
ENDROOT
BRANCH   1   2
ATOM      2  C   UNL A   1      33.661  28.799  23.629  1.00  0.00     0.042 C 
BRANCH   2   3
ATOM      3  C   UNL A   1      32.584  28.107  22.791  1.00  0.00     0.117 C 
BRANCH   3   4
ATOM      4  N   UNL A   1      33.062  26.996  21.977  1.00  0.00    -0.356 N 
ATOM      5  C   UNL A   1      32.711  25.691  21.861  1.00  0.00     0.226 C 
ATOM      6  O   UNL A   1      33.278  25.054  20.964  1.00  0.00    -0.275 OA
ATOM      7  H   UNL A   1      33.801  27.249  21.378  1.00  0.00     0.163 HD
BRANCH   5   8
ATOM      8  C   UNL A   1      31.735  24.949  22.774  1.00  0.00     0.113 C 
ATOM      9  C   UNL A   1      31.714  26.022  26.366  1.00  0.00     0.147 C 
ATOM     10  N   UNL A   1      31.483  25.691  24.972  1.00  0.00    -0.339 N 
ATOM     11  C   UNL A   1      30.373  26.187  24.298  1.00  0.00     0.223 C 
ATOM     12  C   UNL A   1      32.208  24.656  24.218  1.00  0.00     0.058 C 
ATOM     13  O   UNL A   1      29.534  26.951  24.741  1.00  0.00    -0.275 OA
ATOM     14  C   UNL A   1      30.385  25.650  22.895  1.00  0.00     0.116 C 
ATOM     15  C   UNL A   1      33.745  24.697  24.370  1.00  0.00     0.051 C 
ATOM     16  C   UNL A   1      31.702  23.270  24.723  1.00  0.00     0.051 C 
ATOM     17  C   UNL A   1      34.436  23.505  23.703  1.00  0.00     0.122 C 
ATOM     18  C   UNL A   1      32.512  22.085  24.195  1.00  0.00     0.122 C 
ATOM     19  N   UNL A   1      33.949  22.305  24.345  1.00  0.00    -0.338 N 
ATOM     20  C   UNL A   1      34.696  21.461  25.160  1.00  0.00     0.254 C 
ATOM     21  O   UNL A   1      34.163  20.602  25.864  1.00  0.00    -0.269 OA
BRANCH  20  22
ATOM     22  C   UNL A   1      36.184  21.427  25.103  1.00  0.00     0.047 A 
ATOM     23  C   UNL A   1      36.689  20.204  24.625  1.00  0.00     0.014 A 
ATOM     24  C   UNL A   1      37.058  22.388  25.691  1.00  0.00    -0.006 A 
ATOM     25  C   UNL A   1      38.029  19.879  24.785  1.00  0.00     0.001 A 
ATOM     26  C   UNL A   1      38.415  22.013  25.887  1.00  0.00    -0.018 A 
ATOM     27  C   UNL A   1      36.701  23.696  26.096  1.00  0.00     0.009 A 
ATOM     28  C   UNL A   1      38.873  20.762  25.453  1.00  0.00     0.009 A 
ATOM     29  C   UNL A   1      39.313  22.888  26.520  1.00  0.00     0.009 A 
ATOM     30  C   UNL A   1      37.634  24.599  26.617  1.00  0.00     0.001 A 
ATOM     31  C   UNL A   1      38.934  24.183  26.861  1.00  0.00     0.001 A 
ENDBRANCH  20  22
ENDBRANCH   5   8
ENDBRANCH   3   4
ENDBRANCH   2   3
ENDBRANCH   1   2
BRANCH   1  32
ATOM     32  N   UNL A   1      32.865  30.091  25.555  1.00  0.00    -0.352 N 
ATOM     33  C   UNL A   1      33.174  30.824  26.674  1.00  0.00     0.251 C 
ATOM     34  H   UNL A   1      32.201  30.502  24.955  1.00  0.00     0.163 HD
ATOM     35  O   UNL A   1      32.380  31.678  27.058  1.00  0.00    -0.269 OA
BRANCH  33  36
ATOM     36  C   UNL A   1      34.440  30.594  27.408  1.00  0.00     0.039 A 
ATOM     37  C   UNL A   1      34.679  29.331  27.954  1.00  0.00     0.014 A 
ATOM     38  C   UNL A   1      35.357  31.627  27.625  1.00  0.00     0.014 A 
ATOM     39  C   UNL A   1      35.851  29.097  28.679  1.00  0.00     0.010 A 
ATOM     40  C   UNL A   1      36.567  31.368  28.270  1.00  0.00     0.010 A 
ATOM     41  C   UNL A   1      36.821  30.105  28.818  1.00  0.00    -0.014 A 
BRANCH  41  42
ATOM     42  C   UNL A   1      38.093  29.835  29.542  1.00  0.00     0.031 A 
ATOM     43  C   UNL A   1      38.336  30.417  30.910  1.00  0.00     0.074 A 
ATOM     44  C   UNL A   1      39.035  29.069  28.954  1.00  0.00     0.049 A 
ATOM     45  N   UNL A   1      39.379  30.286  31.691  1.00  0.00    -0.248 NA
ATOM     46  C   UNL A   1      37.280  31.280  31.466  1.00  0.00     0.031 C 
ATOM     47  C   UNL A   1      38.933  28.491  27.611  1.00  0.00     0.029 A 
ATOM     48  N   UNL A   1      40.256  28.636  29.405  1.00  0.00    -0.354 N 
ATOM     49  C   UNL A   1      39.103  31.041  32.827  1.00  0.00     0.074 A 
ATOM     50  C   UNL A   1      37.830  31.687  32.601  1.00  0.00     0.031 C 
ATOM     51  C   UNL A   1      40.022  27.746  27.367  1.00  0.00     0.029 A 
ATOM     52  C   UNL A   1      40.924  27.832  28.509  1.00  0.00     0.049 A 
ATOM     53  H   UNL A   1      40.620  28.878  30.287  1.00  0.00     0.167 HD
ATOM     54  C   UNL A   1      39.830  31.156  33.967  1.00  0.00     0.034 A 
ATOM     55  C   UNL A   1      42.130  27.236  28.596  1.00  0.00     0.034 A 
ATOM     56  C   UNL A   1      41.099  30.501  34.180  1.00  0.00     0.049 A 
ATOM     57  C   UNL A   1      42.928  27.404  29.865  1.00  0.00     0.074 A 
ATOM     58  C   UNL A   1      41.903  30.526  35.306  1.00  0.00     0.029 A 
ATOM     59  N   UNL A   1      41.749  29.703  33.247  1.00  0.00    -0.354 N 
ATOM     60  N   UNL A   1      42.623  28.080  30.950  1.00  0.00    -0.248 NA
ATOM     61  C   UNL A   1      44.221  26.713  29.929  1.00  0.00     0.031 C 
ATOM     62  C   UNL A   1      43.069  29.804  35.029  1.00  0.00     0.029 A 
ATOM     63  C   UNL A   1      42.956  29.255  33.762  1.00  0.00     0.049 A 
ATOM     64  H   UNL A   1      41.403  29.486  32.352  1.00  0.00     0.167 HD
ATOM     65  C   UNL A   1      43.678  27.870  31.834  1.00  0.00     0.074 A 
ATOM     66  C   UNL A   1      44.602  26.973  31.169  1.00  0.00     0.031 C 
ATOM     67  C   UNL A   1      43.875  28.375  33.079  1.00  0.00     0.034 A 
BRANCH  54  68
ATOM     68  C   UNL A   1      39.275  32.031  35.066  1.00  0.00     0.023 A 
ATOM     69  C   UNL A   1      38.695  31.481  36.224  1.00  0.00     0.031 A 
ATOM     70  C   UNL A   1      39.333  33.433  34.965  1.00  0.00     0.131 A 
ATOM     71  C   UNL A   1      38.147  32.323  37.203  1.00  0.00     0.055 A 
ATOM     72  C   UNL A   1      38.857  34.266  35.981  1.00  0.00     0.041 A 
ATOM     73  F   UNL A   1      39.853  34.018  33.875  1.00  0.00    -0.206 F 
ATOM     74  C   UNL A   1      38.250  33.712  37.102  1.00  0.00     0.022 A 
BRANCH  71  75
ATOM     75  S   UNL A   1      37.192  31.576  38.552  1.00  0.00     0.124 S 
ATOM     76  O   UNL A   1      38.089  31.771  39.690  1.00  0.00    -0.237 OA
ATOM     77  O   UNL A   1      35.973  32.376  38.557  1.00  0.00    -0.237 OA
ATOM     78  O   UNL A   1      37.027  30.188  38.128  1.00  0.00    -0.744 OA
ENDBRANCH  71  75
ENDBRANCH  54  68
BRANCH  55  79
ATOM     79  C   UNL A   1      42.675  26.442  27.453  1.00  0.00     0.023 A 
ATOM     80  C   UNL A   1      42.531  25.046  27.403  1.00  0.00     0.031 A 
ATOM     81  C   UNL A   1      43.417  27.061  26.432  1.00  0.00     0.131 A 
ATOM     82  C   UNL A   1      43.180  24.310  26.400  1.00  0.00     0.055 A 
ATOM     83  C   UNL A   1      44.000  26.332  25.394  1.00  0.00     0.041 A 
ATOM     84  F   UNL A   1      43.587  28.393  26.425  1.00  0.00    -0.206 F 
ATOM     85  C   UNL A   1      43.901  24.944  25.386  1.00  0.00     0.022 A 
BRANCH  82  86
ATOM     86  S   UNL A   1      43.182  22.499  26.518  1.00  0.00     0.124 S 
ATOM     87  O   UNL A   1      44.605  22.198  26.416  1.00  0.00    -0.237 OA
ATOM     88  O   UNL A   1      42.572  22.281  27.825  1.00  0.00    -0.237 OA
ATOM     89  O   UNL A   1      42.371  22.084  25.375  1.00  0.00    -0.744 OA
ENDBRANCH  82  86
ENDBRANCH  55  79
BRANCH  67  90
ATOM     90  C   UNL A   1      45.126  27.933  33.802  1.00  0.00     0.023 A 
ATOM     91  C   UNL A   1      45.135  26.790  34.622  1.00  0.00     0.031 A 
ATOM     92  C   UNL A   1      46.308  28.689  33.711  1.00  0.00     0.131 A 
ATOM     93  C   UNL A   1      46.269  26.490  35.390  1.00  0.00     0.055 A 
ATOM     94  C   UNL A   1      47.460  28.337  34.415  1.00  0.00     0.041 A 
ATOM     95  F   UNL A   1      46.359  29.790  32.946  1.00  0.00    -0.206 F 
ATOM     96  C   UNL A   1      47.439  27.245  35.278  1.00  0.00     0.022 A 
BRANCH  93  97
ATOM     97  S   UNL A   1      46.143  25.187  36.644  1.00  0.00     0.124 S 
ATOM     98  O   UNL A   1      46.603  25.878  37.845  1.00  0.00    -0.237 OA
ATOM     99  O   UNL A   1      44.723  24.854  36.606  1.00  0.00    -0.237 OA
ATOM    100  O   UNL A   1      47.038  24.143  36.146  1.00  0.00    -0.744 OA
ENDBRANCH  93  97
ENDBRANCH  67  90
ENDBRANCH  41  42
ENDBRANCH  33  36
ENDBRANCH   1  32
TORSDOF 14
ENDMDL
