MODEL 1
REMARK VINA RESULT:     -13.1      0.000      0.000
REMARK SMILES NC(=O)[C@@H]1CCC[N@@H+]1[C@@H](C(=O)NCCCNC(=O)c1ccc(-c2c3nc(c(-c4cc(S(=O)(=O)[O-])ccc4F)c4ccc([nH]4)c(-c4cc(S(=O)(=O)[O-])ccc4F)c4nc(c(-c5cc(S(=O)(=O)[O-])ccc5F)c5ccc2[nH]5)C=C4)C=C3)cc1)c1c[nH]c2cc(OCc3ccccc3)ccc12
REMARK SMILES IDX 13 1 12 2 10 3 11 4 9 6 8 7 4 8 5 9 6 10 7 11 2 13 1 14 3 17
REMARK SMILES IDX 82 18 83 19 98 20 84 21 85 22 97 23 86 25 96 26 87 27 88 28
REMARK SMILES IDX 89 29 90 30 91 31 95 32 92 33 94 34 93 35 14 36 15 37 16 38
REMARK SMILES IDX 17 39 18 41 19 42 20 43 81 44 21 45 80 46 22 47 23 48 24 49
REMARK SMILES IDX 74 50 25 51 79 52 73 53 75 54 26 55 78 56 72 57 71 58 27 60
REMARK SMILES IDX 59 61 39 62 58 63 40 64 43 65 57 66 76 67 41 68 42 69 56 71
REMARK SMILES IDX 77 72 44 73 28 74 29 75 37 76 30 77 36 78 38 79 35 80 31 81
REMARK SMILES IDX 32 82 33 83 34 84 60 85 61 86 69 87 62 88 68 89 70 90 67 91
REMARK SMILES IDX 63 92 64 93 65 94 66 95 45 96 46 97 54 98 47 99 53 100
REMARK SMILES IDX 55 101 52 102 48 103 49 104 50 105 51 106
REMARK H PARENT 12 5 8 12 1 15 1 16 84 24 16 40 75 59 43 70
REMARK Flexibility Score: inf
ROOT
ATOM      1  C   UNL A   1      32.590  26.217  25.960  1.00  0.00     0.118 C 
ENDROOT
BRANCH   1   2
ATOM      2  N   UNL A   1      31.683  25.301  26.634  1.00  0.00    -0.351 N 
ATOM      3  C   UNL A   1      31.246  24.019  26.480  1.00  0.00     0.283 C 
ATOM      4  O   UNL A   1      30.400  23.732  27.332  1.00  0.00    -0.268 OA
ATOM      5  H   UNL A   1      31.270  25.725  27.419  1.00  0.00     0.163 HD
BRANCH   3   6
ATOM      6  C   UNL A   1      31.775  23.008  25.418  1.00  0.00     0.308 C 
BRANCH   6   7
ATOM      7  N   UNL A   1      33.271  22.705  25.421  1.00  0.00    -0.311 N 
ATOM      8  C   UNL A   1      33.797  21.385  25.847  1.00  0.00     0.275 C 
ATOM      9  C   UNL A   1      33.854  21.444  27.370  1.00  0.00     0.081 C 
ATOM     10  C   UNL A   1      34.105  22.913  27.671  1.00  0.00     0.068 C 
ATOM     11  C   UNL A   1      34.088  23.568  26.306  1.00  0.00     0.264 C 
ATOM     12  H   UNL A   1      33.356  22.831  24.412  1.00  0.00     0.349 HD
BRANCH   8  13
ATOM     13  C   UNL A   1      33.319  20.154  25.087  1.00  0.00     0.275 C 
ATOM     14  N   UNL A   1      34.289  19.287  24.675  1.00  0.00    -0.365 N 
ATOM     15  H   UNL A   1      34.042  18.473  24.179  1.00  0.00     0.159 HD
ATOM     16  H   UNL A   1      35.234  19.476  24.874  1.00  0.00     0.159 HD
ATOM     17  O   UNL A   1      32.141  19.844  24.943  1.00  0.00    -0.268 OA
ENDBRANCH   8  13
ENDBRANCH   6   7
BRANCH   6  18
ATOM     18  C   UNL A   1      31.455  23.402  23.917  1.00  0.00     0.044 A 
ATOM     19  C   UNL A   1      32.239  22.995  22.835  1.00  0.00     0.094 A 
ATOM     20  C   UNL A   1      30.766  24.566  23.392  1.00  0.00     0.009 A 
ATOM     21  N   UNL A   1      32.598  24.178  22.216  1.00  0.00    -0.361 N 
ATOM     22  C   UNL A   1      31.749  25.180  22.615  1.00  0.00     0.050 A 
ATOM     23  C   UNL A   1      29.622  25.335  23.703  1.00  0.00     0.015 A 
ATOM     24  H   UNL A   1      33.347  24.285  21.586  1.00  0.00     0.166 HD
ATOM     25  C   UNL A   1      31.839  26.573  22.514  1.00  0.00     0.073 A 
ATOM     26  C   UNL A   1      29.619  26.722  23.470  1.00  0.00     0.047 A 
ATOM     27  C   UNL A   1      30.769  27.338  22.997  1.00  0.00     0.121 A 
BRANCH  27  28
ATOM     28  O   UNL A   1      31.017  28.677  23.155  1.00  0.00    -0.489 OA
BRANCH  28  29
ATOM     29  C   UNL A   1      30.086  29.415  23.951  1.00  0.00     0.265 C 
BRANCH  29  30
ATOM     30  C   UNL A   1      29.348  30.463  23.144  1.00  0.00    -0.011 A 
ATOM     31  C   UNL A   1      28.916  30.162  21.846  1.00  0.00     0.007 A 
ATOM     32  C   UNL A   1      29.065  31.738  23.656  1.00  0.00     0.007 A 
ATOM     33  C   UNL A   1      28.273  31.131  21.071  1.00  0.00     0.000 A 
ATOM     34  C   UNL A   1      28.454  32.716  22.876  1.00  0.00     0.000 A 
ATOM     35  C   UNL A   1      28.062  32.413  21.579  1.00  0.00     0.000 A 
ENDBRANCH  29  30
ENDBRANCH  28  29
ENDBRANCH  27  28
ENDBRANCH   6  18
ENDBRANCH   3   6
ENDBRANCH   1   2
BRANCH   1  36
ATOM     36  C   UNL A   1      32.350  27.704  26.288  1.00  0.00     0.042 C 
BRANCH  36  37
ATOM     37  C   UNL A   1      33.345  28.705  25.695  1.00  0.00     0.118 C 
BRANCH  37  38
ATOM     38  N   UNL A   1      32.878  30.068  25.867  1.00  0.00    -0.352 N 
ATOM     39  C   UNL A   1      33.246  31.001  26.806  1.00  0.00     0.251 C 
ATOM     40  H   UNL A   1      32.199  30.366  25.218  1.00  0.00     0.163 HD
ATOM     41  O   UNL A   1      32.535  31.989  26.972  1.00  0.00    -0.269 OA
BRANCH  39  42
ATOM     42  C   UNL A   1      34.483  30.832  27.609  1.00  0.00     0.039 A 
ATOM     43  C   UNL A   1      35.416  31.876  27.646  1.00  0.00     0.014 A 
ATOM     44  C   UNL A   1      34.772  29.623  28.249  1.00  0.00     0.014 A 
ATOM     45  C   UNL A   1      36.625  31.716  28.336  1.00  0.00     0.010 A 
ATOM     46  C   UNL A   1      35.954  29.484  28.978  1.00  0.00     0.010 A 
ATOM     47  C   UNL A   1      36.902  30.521  29.015  1.00  0.00    -0.014 A 
BRANCH  47  48
ATOM     48  C   UNL A   1      38.193  30.293  29.721  1.00  0.00     0.031 A 
ATOM     49  C   UNL A   1      39.215  29.366  29.115  1.00  0.00     0.074 A 
ATOM     50  C   UNL A   1      38.418  30.843  30.930  1.00  0.00     0.049 A 
ATOM     51  N   UNL A   1      40.316  28.885  29.634  1.00  0.00    -0.248 NA
ATOM     52  C   UNL A   1      38.938  28.894  27.750  1.00  0.00     0.031 C 
ATOM     53  C   UNL A   1      37.512  31.763  31.620  1.00  0.00     0.029 A 
ATOM     54  N   UNL A   1      39.467  30.692  31.803  1.00  0.00    -0.354 N 
ATOM     55  C   UNL A   1      40.845  28.028  28.674  1.00  0.00     0.074 A 
ATOM     56  C   UNL A   1      39.922  28.029  27.559  1.00  0.00     0.031 C 
ATOM     57  C   UNL A   1      38.048  32.096  32.807  1.00  0.00     0.029 A 
ATOM     58  C   UNL A   1      39.303  31.373  32.988  1.00  0.00     0.049 A 
ATOM     59  H   UNL A   1      40.262  30.148  31.600  1.00  0.00     0.167 HD
ATOM     60  C   UNL A   1      42.000  27.315  28.717  1.00  0.00     0.034 A 
ATOM     61  C   UNL A   1      40.062  31.388  34.103  1.00  0.00     0.034 A 
ATOM     62  C   UNL A   1      42.920  27.347  29.828  1.00  0.00     0.049 A 
ATOM     63  C   UNL A   1      41.319  30.554  34.147  1.00  0.00     0.074 A 
ATOM     64  C   UNL A   1      44.143  26.709  29.953  1.00  0.00     0.029 A 
ATOM     65  N   UNL A   1      42.717  28.047  31.011  1.00  0.00    -0.354 N 
ATOM     66  N   UNL A   1      41.818  29.761  33.225  1.00  0.00    -0.248 NA
ATOM     67  C   UNL A   1      42.118  30.618  35.378  1.00  0.00     0.031 C 
ATOM     68  C   UNL A   1      44.644  26.968  31.233  1.00  0.00     0.029 A 
ATOM     69  C   UNL A   1      43.776  27.832  31.879  1.00  0.00     0.049 A 
ATOM     70  H   UNL A   1      41.936  28.614  31.203  1.00  0.00     0.167 HD
ATOM     71  C   UNL A   1      43.009  29.269  33.752  1.00  0.00     0.074 A 
ATOM     72  C   UNL A   1      43.154  29.851  35.070  1.00  0.00     0.031 C 
ATOM     73  C   UNL A   1      43.910  28.423  33.190  1.00  0.00     0.034 A 
BRANCH  60  74
ATOM     74  C   UNL A   1      42.307  26.412  27.544  1.00  0.00     0.023 A 
ATOM     75  C   UNL A   1      41.828  25.092  27.477  1.00  0.00     0.031 A 
ATOM     76  C   UNL A   1      43.117  26.871  26.489  1.00  0.00     0.131 A 
ATOM     77  C   UNL A   1      42.227  24.254  26.423  1.00  0.00     0.055 A 
ATOM     78  C   UNL A   1      43.441  26.059  25.401  1.00  0.00     0.041 A 
ATOM     79  F   UNL A   1      43.622  28.114  26.505  1.00  0.00    -0.206 F 
ATOM     80  C   UNL A   1      43.009  24.736  25.371  1.00  0.00     0.022 A 
BRANCH  77  81
ATOM     81  S   UNL A   1      41.834  22.487  26.528  1.00  0.00     0.124 S 
ATOM     82  O   UNL A   1      42.418  22.130  27.818  1.00  0.00    -0.237 OA
ATOM     83  O   UNL A   1      40.378  22.482  26.461  1.00  0.00    -0.237 OA
ATOM     84  O   UNL A   1      42.514  21.915  25.365  1.00  0.00    -0.744 OA
ENDBRANCH  77  81
ENDBRANCH  60  74
BRANCH  61  85
ATOM     85  C   UNL A   1      39.654  32.202  35.284  1.00  0.00     0.023 A 
ATOM     86  C   UNL A   1      38.896  31.635  36.321  1.00  0.00     0.031 A 
ATOM     87  C   UNL A   1      39.978  33.567  35.377  1.00  0.00     0.131 A 
ATOM     88  C   UNL A   1      38.449  32.436  37.382  1.00  0.00     0.055 A 
ATOM     89  C   UNL A   1      39.576  34.349  36.462  1.00  0.00     0.041 A 
ATOM     90  F   UNL A   1      40.702  34.161  34.414  1.00  0.00    -0.206 F 
ATOM     91  C   UNL A   1      38.796  33.787  37.467  1.00  0.00     0.022 A 
BRANCH  88  92
ATOM     92  S   UNL A   1      37.334  31.706  38.612  1.00  0.00     0.124 S 
ATOM     93  O   UNL A   1      36.199  32.621  38.563  1.00  0.00    -0.237 OA
ATOM     94  O   UNL A   1      37.109  30.373  38.064  1.00  0.00    -0.237 OA
ATOM     95  O   UNL A   1      38.114  31.747  39.846  1.00  0.00    -0.744 OA
ENDBRANCH  88  92
ENDBRANCH  61  85
BRANCH  73  96
ATOM     96  C   UNL A   1      45.169  28.134  33.970  1.00  0.00     0.023 A 
ATOM     97  C   UNL A   1      45.281  27.025  34.826  1.00  0.00     0.031 A 
ATOM     98  C   UNL A   1      46.284  28.981  33.832  1.00  0.00     0.131 A 
ATOM     99  C   UNL A   1      46.470  26.815  35.542  1.00  0.00     0.055 A 
ATOM    100  C   UNL A   1      47.480  28.737  34.506  1.00  0.00     0.041 A 
ATOM    101  F   UNL A   1      46.231  30.055  33.029  1.00  0.00    -0.206 F 
ATOM    102  C   UNL A   1      47.575  27.654  35.374  1.00  0.00     0.022 A 
BRANCH  99 103
ATOM    103  S   UNL A   1      46.535  25.463  36.751  1.00  0.00     0.124 S 
ATOM    104  O   UNL A   1      46.053  26.116  37.964  1.00  0.00    -0.237 OA
ATOM    105  O   UNL A   1      45.641  24.472  36.162  1.00  0.00    -0.237 OA
ATOM    106  O   UNL A   1      47.948  25.088  36.770  1.00  0.00    -0.744 OA
ENDBRANCH  99 103
ENDBRANCH  73  96
ENDBRANCH  47  48
ENDBRANCH  39  42
ENDBRANCH  37  38
ENDBRANCH  36  37
ENDBRANCH   1  36
TORSDOF 19
ENDMDL
MODEL 2
REMARK VINA RESULT:     -13.0      2.031      4.807
REMARK SMILES NC(=O)[C@@H]1CCC[N@@H+]1[C@@H](C(=O)NCCCNC(=O)c1ccc(-c2c3nc(c(-c4cc(S(=O)(=O)[O-])ccc4F)c4ccc([nH]4)c(-c4cc(S(=O)(=O)[O-])ccc4F)c4nc(c(-c5cc(S(=O)(=O)[O-])ccc5F)c5ccc2[nH]5)C=C4)C=C3)cc1)c1c[nH]c2cc(OCc3ccccc3)ccc12
REMARK SMILES IDX 13 1 12 2 10 3 11 4 9 6 8 7 4 8 5 9 6 10 7 11 2 13 1 14 3 17
REMARK SMILES IDX 82 18 83 19 98 20 84 21 85 22 97 23 86 25 96 26 87 27 88 28
REMARK SMILES IDX 89 29 90 30 91 31 95 32 92 33 94 34 93 35 14 36 15 37 16 38
REMARK SMILES IDX 17 39 18 41 19 42 20 43 81 44 21 45 80 46 22 47 23 48 24 49
REMARK SMILES IDX 74 50 25 51 79 52 73 53 75 54 26 55 78 56 72 57 71 58 27 60
REMARK SMILES IDX 59 61 39 62 58 63 40 64 43 65 57 66 76 67 41 68 42 69 56 71
REMARK SMILES IDX 77 72 44 73 28 74 29 75 37 76 30 77 36 78 38 79 35 80 31 81
REMARK SMILES IDX 32 82 33 83 34 84 60 85 61 86 69 87 62 88 68 89 70 90 67 91
REMARK SMILES IDX 63 92 64 93 65 94 66 95 45 96 46 97 54 98 47 99 53 100
REMARK SMILES IDX 55 101 52 102 48 103 49 104 50 105 51 106
REMARK H PARENT 12 5 8 12 1 15 1 16 84 24 16 40 75 59 43 70
REMARK Flexibility Score: inf
ROOT
ATOM      1  C   UNL A   1      31.028  30.380  25.403  1.00  0.00     0.118 C 
ENDROOT
BRANCH   1   2
ATOM      2  N   UNL A   1      32.163  30.043  24.558  1.00  0.00    -0.351 N 
ATOM      3  C   UNL A   1      32.776  28.918  24.094  1.00  0.00     0.283 C 
ATOM      4  O   UNL A   1      33.775  29.199  23.425  1.00  0.00    -0.268 OA
ATOM      5  H   UNL A   1      32.614  30.854  24.230  1.00  0.00     0.163 HD
BRANCH   3   6
ATOM      6  C   UNL A   1      32.267  27.460  24.308  1.00  0.00     0.308 C 
BRANCH   6   7
ATOM      7  N   UNL A   1      32.671  26.758  25.602  1.00  0.00    -0.311 N 
ATOM      8  C   UNL A   1      31.658  26.240  26.554  1.00  0.00     0.275 C 
ATOM      9  C   UNL A   1      31.237  27.442  27.393  1.00  0.00     0.081 C 
ATOM     10  C   UNL A   1      32.479  28.318  27.428  1.00  0.00     0.068 C 
ATOM     11  C   UNL A   1      33.464  27.581  26.545  1.00  0.00     0.264 C 
ATOM     12  H   UNL A   1      33.142  25.999  25.110  1.00  0.00     0.349 HD
BRANCH   8  13
ATOM     13  C   UNL A   1      30.664  25.207  26.037  1.00  0.00     0.275 C 
ATOM     14  N   UNL A   1      29.549  25.697  25.425  1.00  0.00    -0.365 N 
ATOM     15  H   UNL A   1      28.869  25.078  25.071  1.00  0.00     0.159 HD
ATOM     16  H   UNL A   1      29.422  26.670  25.338  1.00  0.00     0.159 HD
ATOM     17  O   UNL A   1      30.868  23.997  26.026  1.00  0.00    -0.268 OA
ENDBRANCH   8  13
ENDBRANCH   6   7
BRANCH   6  18
ATOM     18  C   UNL A   1      32.679  26.445  23.163  1.00  0.00     0.044 A 
ATOM     19  C   UNL A   1      31.937  26.270  21.993  1.00  0.00     0.094 A 
ATOM     20  C   UNL A   1      33.436  25.210  23.249  1.00  0.00     0.009 A 
ATOM     21  N   UNL A   1      31.654  24.917  21.972  1.00  0.00    -0.361 N 
ATOM     22  C   UNL A   1      32.518  24.255  22.811  1.00  0.00     0.050 A 
ATOM     23  C   UNL A   1      34.589  24.732  23.911  1.00  0.00     0.015 A 
ATOM     24  H   UNL A   1      30.942  24.493  21.440  1.00  0.00     0.166 HD
ATOM     25  C   UNL A   1      32.484  22.966  23.354  1.00  0.00     0.073 A 
ATOM     26  C   UNL A   1      34.655  23.393  24.338  1.00  0.00     0.047 A 
ATOM     27  C   UNL A   1      33.554  22.567  24.165  1.00  0.00     0.121 A 
BRANCH  27  28
ATOM     28  O   UNL A   1      33.348  21.435  24.910  1.00  0.00    -0.489 OA
BRANCH  28  29
ATOM     29  C   UNL A   1      32.212  20.637  24.569  1.00  0.00     0.265 C 
BRANCH  29  30
ATOM     30  C   UNL A   1      32.575  19.179  24.368  1.00  0.00    -0.011 A 
ATOM     31  C   UNL A   1      32.820  18.367  25.481  1.00  0.00     0.007 A 
ATOM     32  C   UNL A   1      32.665  18.601  23.094  1.00  0.00     0.007 A 
ATOM     33  C   UNL A   1      33.201  17.032  25.314  1.00  0.00     0.000 A 
ATOM     34  C   UNL A   1      33.074  17.282  22.921  1.00  0.00     0.000 A 
ATOM     35  C   UNL A   1      33.348  16.497  24.034  1.00  0.00     0.000 A 
ENDBRANCH  29  30
ENDBRANCH  28  29
ENDBRANCH  27  28
ENDBRANCH   6  18
ENDBRANCH   3   6
ENDBRANCH   1   2
BRANCH   1  36
ATOM     36  C   UNL A   1      31.088  31.794  26.013  1.00  0.00     0.042 C 
BRANCH  36  37
ATOM     37  C   UNL A   1      32.354  32.147  26.798  1.00  0.00     0.118 C 
BRANCH  37  38
ATOM     38  N   UNL A   1      32.349  33.543  27.193  1.00  0.00    -0.352 N 
ATOM     39  C   UNL A   1      33.084  34.174  28.167  1.00  0.00     0.251 C 
ATOM     40  H   UNL A   1      31.729  34.121  26.690  1.00  0.00     0.163 HD
ATOM     41  O   UNL A   1      32.733  35.288  28.549  1.00  0.00    -0.269 OA
BRANCH  39  42
ATOM     42  C   UNL A   1      34.288  33.534  28.753  1.00  0.00     0.039 A 
ATOM     43  C   UNL A   1      34.130  32.638  29.818  1.00  0.00     0.014 A 
ATOM     44  C   UNL A   1      35.573  33.877  28.324  1.00  0.00     0.014 A 
ATOM     45  C   UNL A   1      35.253  32.074  30.438  1.00  0.00     0.010 A 
ATOM     46  C   UNL A   1      36.689  33.277  28.909  1.00  0.00     0.010 A 
ATOM     47  C   UNL A   1      36.543  32.383  29.984  1.00  0.00    -0.014 A 
BRANCH  47  48
ATOM     48  C   UNL A   1      37.765  31.843  30.643  1.00  0.00     0.031 A 
ATOM     49  C   UNL A   1      38.589  30.799  29.933  1.00  0.00     0.074 A 
ATOM     50  C   UNL A   1      38.089  32.219  31.895  1.00  0.00     0.049 A 
ATOM     51  N   UNL A   1      39.575  30.067  30.385  1.00  0.00    -0.248 NA
ATOM     52  C   UNL A   1      38.229  30.525  28.534  1.00  0.00     0.031 C 
ATOM     53  C   UNL A   1      37.378  33.225  32.686  1.00  0.00     0.029 A 
ATOM     54  N   UNL A   1      39.088  31.784  32.732  1.00  0.00    -0.354 N 
ATOM     55  C   UNL A   1      39.930  29.222  29.338  1.00  0.00     0.074 A 
ATOM     56  C   UNL A   1      39.027  29.509  28.244  1.00  0.00     0.031 C 
ATOM     57  C   UNL A   1      37.966  33.331  33.889  1.00  0.00     0.029 A 
ATOM     58  C   UNL A   1      39.057  32.365  33.978  1.00  0.00     0.049 A 
ATOM     59  H   UNL A   1      39.763  31.119  32.463  1.00  0.00     0.167 HD
ATOM     60  C   UNL A   1      40.924  28.299  29.293  1.00  0.00     0.034 A 
ATOM     61  C   UNL A   1      39.803  32.125  35.077  1.00  0.00     0.034 A 
ATOM     62  C   UNL A   1      41.831  28.044  30.386  1.00  0.00     0.049 A 
ATOM     63  C   UNL A   1      40.875  31.064  35.019  1.00  0.00     0.074 A 
ATOM     64  C   UNL A   1      42.907  27.173  30.428  1.00  0.00     0.029 A 
ATOM     65  N   UNL A   1      41.766  28.652  31.634  1.00  0.00    -0.354 N 
ATOM     66  N   UNL A   1      41.212  30.284  34.017  1.00  0.00    -0.248 NA
ATOM     67  C   UNL A   1      41.669  30.853  36.237  1.00  0.00     0.031 C 
ATOM     68  C   UNL A   1      43.447  27.205  31.719  1.00  0.00     0.029 A 
ATOM     69  C   UNL A   1      42.761  28.153  32.460  1.00  0.00     0.049 A 
ATOM     70  H   UNL A   1      41.109  29.338  31.892  1.00  0.00     0.167 HD
ATOM     71  C   UNL A   1      42.284  29.522  34.474  1.00  0.00     0.074 A 
ATOM     72  C   UNL A   1      42.536  29.934  35.839  1.00  0.00     0.031 C 
ATOM     73  C   UNL A   1      43.005  28.576  33.819  1.00  0.00     0.034 A 
BRANCH  60  74
ATOM     74  C   UNL A   1      41.053  27.471  28.034  1.00  0.00     0.023 A 
ATOM     75  C   UNL A   1      40.633  26.131  27.979  1.00  0.00     0.031 A 
ATOM     76  C   UNL A   1      41.632  28.026  26.878  1.00  0.00     0.131 A 
ATOM     77  C   UNL A   1      40.871  25.369  26.824  1.00  0.00     0.055 A 
ATOM     78  C   UNL A   1      41.787  27.287  25.703  1.00  0.00     0.041 A 
ATOM     79  F   UNL A   1      42.070  29.294  26.872  1.00  0.00    -0.206 F 
ATOM     80  C   UNL A   1      41.421  25.945  25.677  1.00  0.00     0.022 A 
BRANCH  77  81
ATOM     81  S   UNL A   1      40.589  23.579  26.897  1.00  0.00     0.124 S 
ATOM     82  O   UNL A   1      39.195  23.481  26.473  1.00  0.00    -0.237 OA
ATOM     83  O   UNL A   1      41.581  23.064  25.963  1.00  0.00    -0.237 OA
ATOM     84  O   UNL A   1      40.828  23.252  28.305  1.00  0.00    -0.744 OA
ENDBRANCH  77  81
ENDBRANCH  60  74
BRANCH  61  85
ATOM     85  C   UNL A   1      39.558  32.884  36.337  1.00  0.00     0.023 A 
ATOM     86  C   UNL A   1      38.684  32.387  37.317  1.00  0.00     0.031 A 
ATOM     87  C   UNL A   1      40.160  34.134  36.565  1.00  0.00     0.131 A 
ATOM     88  C   UNL A   1      38.399  33.154  38.457  1.00  0.00     0.055 A 
ATOM     89  C   UNL A   1      39.916  34.870  37.727  1.00  0.00     0.041 A 
ATOM     90  F   UNL A   1      41.006  34.656  35.662  1.00  0.00    -0.206 F 
ATOM     91  C   UNL A   1      39.021  34.386  38.676  1.00  0.00     0.022 A 
BRANCH  88  92
ATOM     92  S   UNL A   1      37.138  32.555  39.615  1.00  0.00     0.124 S 
ATOM     93  O   UNL A   1      35.941  32.570  38.783  1.00  0.00    -0.237 OA
ATOM     94  O   UNL A   1      37.657  31.239  39.973  1.00  0.00    -0.237 OA
ATOM     95  O   UNL A   1      37.164  33.545  40.689  1.00  0.00    -0.744 OA
ENDBRANCH  88  92
ENDBRANCH  61  85
BRANCH  73  96
ATOM     96  C   UNL A   1      44.183  27.975  34.545  1.00  0.00     0.023 A 
ATOM     97  C   UNL A   1      44.087  26.766  35.254  1.00  0.00     0.031 A 
ATOM     98  C   UNL A   1      45.431  28.624  34.506  1.00  0.00     0.131 A 
ATOM     99  C   UNL A   1      45.210  26.263  35.929  1.00  0.00     0.055 A 
ATOM    100  C   UNL A   1      46.557  28.092  35.134  1.00  0.00     0.041 A 
ATOM    101  F   UNL A   1      45.578  29.782  33.844  1.00  0.00    -0.206 F 
ATOM    102  C   UNL A   1      46.448  26.908  35.858  1.00  0.00     0.022 A 
BRANCH  99 103
ATOM    103  S   UNL A   1      45.021  24.780  36.958  1.00  0.00     0.124 S 
ATOM    104  O   UNL A   1      44.521  25.340  38.209  1.00  0.00    -0.237 OA
ATOM    105  O   UNL A   1      44.068  23.985  36.190  1.00  0.00    -0.237 OA
ATOM    106  O   UNL A   1      46.374  24.231  37.022  1.00  0.00    -0.744 OA
ENDBRANCH  99 103
ENDBRANCH  73  96
ENDBRANCH  47  48
ENDBRANCH  39  42
ENDBRANCH  37  38
ENDBRANCH  36  37
ENDBRANCH   1  36
TORSDOF 19
ENDMDL
MODEL 3
REMARK VINA RESULT:     -13.0      2.618      5.214
REMARK SMILES NC(=O)[C@@H]1CCC[N@@H+]1[C@@H](C(=O)NCCCNC(=O)c1ccc(-c2c3nc(c(-c4cc(S(=O)(=O)[O-])ccc4F)c4ccc([nH]4)c(-c4cc(S(=O)(=O)[O-])ccc4F)c4nc(c(-c5cc(S(=O)(=O)[O-])ccc5F)c5ccc2[nH]5)C=C4)C=C3)cc1)c1c[nH]c2cc(OCc3ccccc3)ccc12
REMARK SMILES IDX 13 1 12 2 10 3 11 4 9 6 8 7 4 8 5 9 6 10 7 11 2 13 1 14 3 17
REMARK SMILES IDX 82 18 83 19 98 20 84 21 85 22 97 23 86 25 96 26 87 27 88 28
REMARK SMILES IDX 89 29 90 30 91 31 95 32 92 33 94 34 93 35 14 36 15 37 16 38
REMARK SMILES IDX 17 39 18 41 19 42 20 43 81 44 21 45 80 46 22 47 23 48 24 49
REMARK SMILES IDX 74 50 25 51 79 52 73 53 75 54 26 55 78 56 72 57 71 58 27 60
REMARK SMILES IDX 59 61 39 62 58 63 40 64 43 65 57 66 76 67 41 68 42 69 56 71
REMARK SMILES IDX 77 72 44 73 28 74 29 75 37 76 30 77 36 78 38 79 35 80 31 81
REMARK SMILES IDX 32 82 33 83 34 84 60 85 61 86 69 87 62 88 68 89 70 90 67 91
REMARK SMILES IDX 63 92 64 93 65 94 66 95 45 96 46 97 54 98 47 99 53 100
REMARK SMILES IDX 55 101 52 102 48 103 49 104 50 105 51 106
REMARK H PARENT 12 5 8 12 1 15 1 16 84 24 16 40 75 59 43 70
REMARK Flexibility Score: inf
ROOT
ATOM      1  C   UNL A   1      31.962  27.278  26.566  1.00  0.00     0.118 C 
ENDROOT
BRANCH   1   2
ATOM      2  N   UNL A   1      31.517  25.894  26.551  1.00  0.00    -0.351 N 
ATOM      3  C   UNL A   1      31.398  24.882  25.647  1.00  0.00     0.283 C 
ATOM      4  O   UNL A   1      30.893  23.880  26.163  1.00  0.00    -0.268 OA
ATOM      5  H   UNL A   1      31.218  25.609  27.445  1.00  0.00     0.163 HD
BRANCH   3   6
ATOM      6  C   UNL A   1      31.887  24.933  24.167  1.00  0.00     0.308 C 
BRANCH   6   7
ATOM      7  N   UNL A   1      30.917  25.482  23.125  1.00  0.00    -0.311 N 
ATOM      8  C   UNL A   1      31.356  26.444  22.085  1.00  0.00     0.275 C 
ATOM      9  C   UNL A   1      31.332  27.812  22.759  1.00  0.00     0.081 C 
ATOM     10  C   UNL A   1      30.223  27.691  23.793  1.00  0.00     0.068 C 
ATOM     11  C   UNL A   1      29.773  26.250  23.671  1.00  0.00     0.264 C 
ATOM     12  H   UNL A   1      30.734  24.561  22.727  1.00  0.00     0.349 HD
BRANCH   8  13
ATOM     13  C   UNL A   1      32.474  26.008  21.145  1.00  0.00     0.275 C 
ATOM     14  N   UNL A   1      32.089  25.591  19.905  1.00  0.00    -0.365 N 
ATOM     15  H   UNL A   1      32.766  25.297  19.253  1.00  0.00     0.159 HD
ATOM     16  H   UNL A   1      31.135  25.583  19.663  1.00  0.00     0.159 HD
ATOM     17  O   UNL A   1      33.670  26.132  21.389  1.00  0.00    -0.268 OA
ENDBRANCH   8  13
ENDBRANCH   6   7
BRANCH   6  18
ATOM     18  C   UNL A   1      32.349  23.536  23.579  1.00  0.00     0.044 A 
ATOM     19  C   UNL A   1      31.518  22.415  23.529  1.00  0.00     0.094 A 
ATOM     20  C   UNL A   1      33.676  22.954  23.510  1.00  0.00     0.009 A 
ATOM     21  N   UNL A   1      32.223  21.442  24.214  1.00  0.00    -0.361 N 
ATOM     22  C   UNL A   1      33.547  21.801  24.286  1.00  0.00     0.050 A 
ATOM     23  C   UNL A   1      34.990  23.373  23.202  1.00  0.00     0.015 A 
ATOM     24  H   UNL A   1      31.836  20.620  24.592  1.00  0.00     0.166 HD
ATOM     25  C   UNL A   1      34.596  21.332  25.083  1.00  0.00     0.073 A 
ATOM     26  C   UNL A   1      36.088  22.810  23.877  1.00  0.00     0.047 A 
ATOM     27  C   UNL A   1      35.867  21.890  24.892  1.00  0.00     0.121 A 
BRANCH  27  28
ATOM     28  O   UNL A   1      36.787  21.630  25.875  1.00  0.00    -0.489 OA
BRANCH  28  29
ATOM     29  C   UNL A   1      38.165  21.730  25.510  1.00  0.00     0.265 C 
BRANCH  29  30
ATOM     30  C   UNL A   1      38.899  22.777  26.324  1.00  0.00    -0.011 A 
ATOM     31  C   UNL A   1      40.067  22.427  27.012  1.00  0.00     0.007 A 
ATOM     32  C   UNL A   1      38.454  24.105  26.408  1.00  0.00     0.007 A 
ATOM     33  C   UNL A   1      40.731  23.368  27.804  1.00  0.00     0.000 A 
ATOM     34  C   UNL A   1      39.094  25.036  27.220  1.00  0.00     0.000 A 
ATOM     35  C   UNL A   1      40.233  24.666  27.924  1.00  0.00     0.000 A 
ENDBRANCH  29  30
ENDBRANCH  28  29
ENDBRANCH  27  28
ENDBRANCH   6  18
ENDBRANCH   3   6
ENDBRANCH   1   2
BRANCH   1  36
ATOM     36  C   UNL A   1      33.486  27.458  26.425  1.00  0.00     0.042 C 
BRANCH  36  37
ATOM     37  C   UNL A   1      33.961  28.664  25.612  1.00  0.00     0.118 C 
BRANCH  37  38
ATOM     38  N   UNL A   1      33.322  29.884  26.068  1.00  0.00    -0.352 N 
ATOM     39  C   UNL A   1      33.665  30.706  27.115  1.00  0.00     0.251 C 
ATOM     40  H   UNL A   1      32.529  30.162  25.554  1.00  0.00     0.163 HD
ATOM     41  O   UNL A   1      32.842  31.521  27.524  1.00  0.00    -0.269 OA
BRANCH  39  42
ATOM     42  C   UNL A   1      35.006  30.623  27.746  1.00  0.00     0.039 A 
ATOM     43  C   UNL A   1      35.372  29.447  28.411  1.00  0.00     0.014 A 
ATOM     44  C   UNL A   1      35.867  31.725  27.765  1.00  0.00     0.014 A 
ATOM     45  C   UNL A   1      36.602  29.368  29.077  1.00  0.00     0.010 A 
ATOM     46  C   UNL A   1      37.113  31.627  28.386  1.00  0.00     0.010 A 
ATOM     47  C   UNL A   1      37.487  30.455  29.064  1.00  0.00    -0.014 A 
BRANCH  47  48
ATOM     48  C   UNL A   1      38.784  30.429  29.798  1.00  0.00     0.031 A 
ATOM     49  C   UNL A   1      39.952  29.681  29.209  1.00  0.00     0.074 A 
ATOM     50  C   UNL A   1      38.893  30.999  31.014  1.00  0.00     0.049 A 
ATOM     51  N   UNL A   1      41.104  29.377  29.750  1.00  0.00    -0.248 NA
ATOM     52  C   UNL A   1      39.782  29.182  27.837  1.00  0.00     0.031 C 
ATOM     53  C   UNL A   1      37.839  31.758  31.688  1.00  0.00     0.029 A 
ATOM     54  N   UNL A   1      39.935  31.009  31.909  1.00  0.00    -0.354 N 
ATOM     55  C   UNL A   1      41.783  28.622  28.798  1.00  0.00     0.074 A 
ATOM     56  C   UNL A   1      40.894  28.485  27.663  1.00  0.00     0.031 C 
ATOM     57  C   UNL A   1      38.290  32.162  32.888  1.00  0.00     0.029 A 
ATOM     58  C   UNL A   1      39.640  31.645  33.092  1.00  0.00     0.049 A 
ATOM     59  H   UNL A   1      40.810  30.599  31.720  1.00  0.00     0.167 HD
ATOM     60  C   UNL A   1      43.034  28.101  28.862  1.00  0.00     0.034 A 
ATOM     61  C   UNL A   1      40.364  31.772  34.224  1.00  0.00     0.034 A 
ATOM     62  C   UNL A   1      43.915  28.269  29.993  1.00  0.00     0.049 A 
ATOM     63  C   UNL A   1      41.737  31.147  34.291  1.00  0.00     0.074 A 
ATOM     64  C   UNL A   1      45.221  27.832  30.142  1.00  0.00     0.029 A 
ATOM     65  N   UNL A   1      43.579  28.919  31.174  1.00  0.00    -0.354 N 
ATOM     66  N   UNL A   1      42.374  30.451  33.376  1.00  0.00    -0.248 NA
ATOM     67  C   UNL A   1      42.490  31.328  35.540  1.00  0.00     0.031 C 
ATOM     68  C   UNL A   1      45.648  28.157  31.434  1.00  0.00     0.029 A 
ATOM     69  C   UNL A   1      44.640  28.868  32.065  1.00  0.00     0.049 A 
ATOM     70  H   UNL A   1      42.714  29.354  31.352  1.00  0.00     0.167 HD
ATOM     71  C   UNL A   1      43.617  30.150  33.927  1.00  0.00     0.074 A 
ATOM     72  C   UNL A   1      43.640  30.737  35.250  1.00  0.00     0.031 C 
ATOM     73  C   UNL A   1      44.652  29.462  33.381  1.00  0.00     0.034 A 
BRANCH  60  74
ATOM     74  C   UNL A   1      43.505  27.267  27.693  1.00  0.00     0.023 A 
ATOM     75  C   UNL A   1      43.587  25.866  27.764  1.00  0.00     0.031 A 
ATOM     76  C   UNL A   1      43.906  27.888  26.495  1.00  0.00     0.131 A 
ATOM     77  C   UNL A   1      44.132  25.140  26.692  1.00  0.00     0.055 A 
ATOM     78  C   UNL A   1      44.367  27.153  25.401  1.00  0.00     0.041 A 
ATOM     79  F   UNL A   1      43.870  29.223  26.371  1.00  0.00    -0.206 F 
ATOM     80  C   UNL A   1      44.498  25.771  25.502  1.00  0.00     0.022 A 
BRANCH  77  81
ATOM     81  S   UNL A   1      44.495  23.380  26.937  1.00  0.00     0.124 S 
ATOM     82  O   UNL A   1      44.130  23.195  28.339  1.00  0.00    -0.237 OA
ATOM     83  O   UNL A   1      43.626  22.738  25.959  1.00  0.00    -0.237 OA
ATOM     84  O   UNL A   1      45.929  23.283  26.656  1.00  0.00    -0.744 OA
ENDBRANCH  77  81
ENDBRANCH  60  74
BRANCH  61  85
ATOM     85  C   UNL A   1      39.808  32.502  35.400  1.00  0.00     0.023 A 
ATOM     86  C   UNL A   1      40.094  33.861  35.604  1.00  0.00     0.031 A 
ATOM     87  C   UNL A   1      39.017  31.845  36.358  1.00  0.00     0.131 A 
ATOM     88  C   UNL A   1      39.633  34.509  36.760  1.00  0.00     0.055 A 
ATOM     89  C   UNL A   1      38.514  32.507  37.480  1.00  0.00     0.041 A 
ATOM     90  F   UNL A   1      38.710  30.545  36.212  1.00  0.00    -0.206 F 
ATOM     91  C   UNL A   1      38.832  33.845  37.692  1.00  0.00     0.022 A 
BRANCH  88  92
ATOM     92  S   UNL A   1      40.165  36.215  37.070  1.00  0.00     0.124 S 
ATOM     93  O   UNL A   1      41.543  36.021  37.504  1.00  0.00    -0.237 OA
ATOM     94  O   UNL A   1      39.983  36.831  35.760  1.00  0.00    -0.237 OA
ATOM     95  O   UNL A   1      39.243  36.676  38.106  1.00  0.00    -0.744 OA
ENDBRANCH  88  92
ENDBRANCH  61  85
BRANCH  73  96
ATOM     96  C   UNL A   1      45.924  29.369  34.186  1.00  0.00     0.023 A 
ATOM     97  C   UNL A   1      46.928  30.351  34.115  1.00  0.00     0.031 A 
ATOM     98  C   UNL A   1      46.122  28.282  35.057  1.00  0.00     0.131 A 
ATOM     99  C   UNL A   1      48.101  30.204  34.871  1.00  0.00     0.055 A 
ATOM    100  C   UNL A   1      47.266  28.169  35.846  1.00  0.00     0.041 A 
ATOM    101  F   UNL A   1      45.195  27.315  35.163  1.00  0.00    -0.206 F 
ATOM    102  C   UNL A   1      48.268  29.129  35.749  1.00  0.00     0.022 A 
BRANCH  99 103
ATOM    103  S   UNL A   1      49.442  31.406  34.648  1.00  0.00     0.124 S 
ATOM    104  O   UNL A   1      49.239  32.302  35.782  1.00  0.00    -0.237 OA
ATOM    105  O   UNL A   1      50.632  30.563  34.708  1.00  0.00    -0.237 OA
ATOM    106  O   UNL A   1      49.164  31.991  33.338  1.00  0.00    -0.744 OA
ENDBRANCH  99 103
ENDBRANCH  73  96
ENDBRANCH  47  48
ENDBRANCH  39  42
ENDBRANCH  37  38
ENDBRANCH  36  37
ENDBRANCH   1  36
TORSDOF 19
ENDMDL
