MODEL 1
REMARK VINA RESULT:     -12.4      0.000      0.000
REMARK SMILES O=C(NCCCNC(=O)[C@@H]1C[N@@H+](CCOc2ccc(F)cc2)C[C@H]1C1CC1)c1ccc(-c2c3nc(c(-c4cc(S(=O)(=O)[O-])ccc4F)c4ccc([nH]4)c(-c4cc(S(=O)(=O)[O-])ccc4F)c4nc(c(-c5cc(S(=O)(=O)[O-])ccc5F)c5ccc2[nH]5)C=C4)C=C3)cc1
REMARK SMILES IDX 5 1 4 2 3 3 1 4 2 5 28 7 29 8 90 9 30 10 89 11 31 12 32 13
REMARK SMILES IDX 33 14 83 15 34 16 88 17 82 18 84 19 35 20 87 21 81 22 80 23
REMARK SMILES IDX 36 25 68 26 48 27 67 28 49 29 52 30 66 31 85 32 50 33 51 34
REMARK SMILES IDX 65 36 86 37 53 38 37 39 38 40 46 41 39 42 45 43 47 44 44 45
REMARK SMILES IDX 40 46 41 47 42 48 43 49 69 50 70 51 78 52 71 53 77 54 79 55
REMARK SMILES IDX 76 56 72 57 73 58 74 59 75 60 54 61 55 62 63 63 56 64 62 65
REMARK SMILES IDX 64 66 61 67 57 68 58 69 59 70 60 71 6 72 7 73 8 74 9 76
REMARK SMILES IDX 10 77 11 78 24 79 12 80 23 81 25 83 26 84 27 85 13 86 14 87
REMARK SMILES IDX 15 88 16 89 17 90 22 91 18 92 21 93 19 94 20 95
REMARK H PARENT 3 6 84 24 52 35 7 75 12 82
REMARK Flexibility Score: inf
ROOT
ATOM      1  C   UNL A   1      34.964  22.147  26.345  1.00  0.00     0.042 C 
ENDROOT
BRANCH   1   2
ATOM      2  C   UNL A   1      36.326  22.525  25.812  1.00  0.00     0.118 C 
BRANCH   2   3
ATOM      3  N   UNL A   1      37.230  21.378  25.770  1.00  0.00    -0.352 N 
ATOM      4  O   UNL A   1      39.263  20.385  25.694  1.00  0.00    -0.269 OA
ATOM      5  C   UNL A   1      38.592  21.359  25.984  1.00  0.00     0.251 C 
ATOM      6  H   UNL A   1      36.815  20.511  25.562  1.00  0.00     0.163 HD
BRANCH   5   7
ATOM      7  C   UNL A   1      39.199  22.579  26.549  1.00  0.00     0.039 A 
ATOM      8  C   UNL A   1      38.761  23.815  26.077  1.00  0.00     0.014 A 
ATOM      9  C   UNL A   1      40.282  22.488  27.422  1.00  0.00     0.014 A 
ATOM     10  C   UNL A   1      39.569  24.919  26.253  1.00  0.00     0.010 A 
ATOM     11  C   UNL A   1      40.978  23.651  27.759  1.00  0.00     0.010 A 
ATOM     12  C   UNL A   1      40.649  24.871  27.146  1.00  0.00    -0.014 A 
BRANCH  12  13
ATOM     13  C   UNL A   1      41.339  26.143  27.472  1.00  0.00     0.031 A 
ATOM     14  C   UNL A   1      40.715  27.170  28.373  1.00  0.00     0.074 A 
ATOM     15  C   UNL A   1      42.581  26.323  26.974  1.00  0.00     0.049 A 
ATOM     16  N   UNL A   1      41.176  28.348  28.704  1.00  0.00    -0.248 NA
ATOM     17  C   UNL A   1      39.410  26.851  28.975  1.00  0.00     0.031 C 
ATOM     18  C   UNL A   1      43.285  25.371  26.101  1.00  0.00     0.029 A 
ATOM     19  N   UNL A   1      43.491  27.330  27.152  1.00  0.00    -0.354 N 
ATOM     20  C   UNL A   1      40.211  28.925  29.520  1.00  0.00     0.074 A 
ATOM     21  C   UNL A   1      39.129  27.971  29.632  1.00  0.00     0.031 C 
ATOM     22  C   UNL A   1      44.538  25.794  25.901  1.00  0.00     0.029 A 
ATOM     23  C   UNL A   1      44.688  27.105  26.510  1.00  0.00     0.049 A 
ATOM     24  H   UNL A   1      43.308  28.135  27.686  1.00  0.00     0.167 HD
ATOM     25  C   UNL A   1      40.236  30.141  30.116  1.00  0.00     0.034 A 
ATOM     26  C   UNL A   1      45.774  27.887  26.375  1.00  0.00     0.034 A 
ATOM     27  C   UNL A   1      41.344  31.059  30.013  1.00  0.00     0.049 A 
ATOM     28  C   UNL A   1      45.745  29.247  27.003  1.00  0.00     0.074 A 
ATOM     29  C   UNL A   1      41.479  32.307  30.594  1.00  0.00     0.029 A 
ATOM     30  N   UNL A   1      42.505  30.828  29.289  1.00  0.00    -0.354 N 
ATOM     31  N   UNL A   1      44.799  29.792  27.731  1.00  0.00    -0.248 NA
ATOM     32  C   UNL A   1      46.912  30.105  26.776  1.00  0.00     0.031 C 
ATOM     33  C   UNL A   1      42.693  32.857  30.173  1.00  0.00     0.029 A 
ATOM     34  C   UNL A   1      43.347  31.923  29.385  1.00  0.00     0.049 A 
ATOM     35  H   UNL A   1      42.703  30.007  28.783  1.00  0.00     0.167 HD
ATOM     36  C   UNL A   1      45.260  31.061  28.052  1.00  0.00     0.074 A 
ATOM     37  C   UNL A   1      46.575  31.191  27.457  1.00  0.00     0.031 C 
ATOM     38  C   UNL A   1      44.647  32.034  28.771  1.00  0.00     0.034 A 
BRANCH  25  39
ATOM     39  C   UNL A   1      39.030  30.580  30.902  1.00  0.00     0.023 A 
ATOM     40  C   UNL A   1      37.941  31.222  30.291  1.00  0.00     0.031 A 
ATOM     41  C   UNL A   1      38.940  30.277  32.273  1.00  0.00     0.131 A 
ATOM     42  C   UNL A   1      36.811  31.555  31.055  1.00  0.00     0.055 A 
ATOM     43  C   UNL A   1      37.793  30.563  33.015  1.00  0.00     0.041 A 
ATOM     44  F   UNL A   1      39.961  29.679  32.907  1.00  0.00    -0.206 F 
ATOM     45  C   UNL A   1      36.720  31.206  32.406  1.00  0.00     0.022 A 
BRANCH  42  46
ATOM     46  S   UNL A   1      35.467  32.484  30.270  1.00  0.00     0.124 S 
ATOM     47  O   UNL A   1      34.467  32.511  31.336  1.00  0.00    -0.237 OA
ATOM     48  O   UNL A   1      36.100  33.760  29.958  1.00  0.00    -0.237 OA
ATOM     49  O   UNL A   1      35.113  31.666  29.112  1.00  0.00    -0.744 OA
ENDBRANCH  42  46
ENDBRANCH  25  39
BRANCH  26  50
ATOM     50  C   UNL A   1      46.925  27.424  25.556  1.00  0.00     0.023 A 
ATOM     51  C   UNL A   1      47.072  27.832  24.222  1.00  0.00     0.031 A 
ATOM     52  C   UNL A   1      47.909  26.577  26.102  1.00  0.00     0.131 A 
ATOM     53  C   UNL A   1      48.164  27.371  23.471  1.00  0.00     0.055 A 
ATOM     54  C   UNL A   1      49.020  26.166  25.368  1.00  0.00     0.041 A 
ATOM     55  F   UNL A   1      47.820  26.168  27.378  1.00  0.00    -0.206 F 
ATOM     56  C   UNL A   1      49.147  26.556  24.040  1.00  0.00     0.022 A 
BRANCH  53  57
ATOM     57  S   UNL A   1      48.256  27.813  21.716  1.00  0.00     0.124 S 
ATOM     58  O   UNL A   1      48.604  26.535  21.106  1.00  0.00    -0.237 OA
ATOM     59  O   UNL A   1      46.907  28.304  21.456  1.00  0.00    -0.237 OA
ATOM     60  O   UNL A   1      49.304  28.831  21.677  1.00  0.00    -0.744 OA
ENDBRANCH  53  57
ENDBRANCH  26  50
BRANCH  38  61
ATOM     61  C   UNL A   1      45.408  33.314  28.967  1.00  0.00     0.023 A 
ATOM     62  C   UNL A   1      45.276  34.382  28.066  1.00  0.00     0.031 A 
ATOM     63  C   UNL A   1      46.243  33.475  30.085  1.00  0.00     0.131 A 
ATOM     64  C   UNL A   1      45.996  35.564  28.285  1.00  0.00     0.055 A 
ATOM     65  C   UNL A   1      46.919  34.671  30.323  1.00  0.00     0.041 A 
ATOM     66  F   UNL A   1      46.398  32.478  30.971  1.00  0.00    -0.206 F 
ATOM     67  C   UNL A   1      46.802  35.722  29.417  1.00  0.00     0.022 A 
BRANCH  64  68
ATOM     68  S   UNL A   1      45.891  36.886  27.049  1.00  0.00     0.124 S 
ATOM     69  O   UNL A   1      44.447  37.054  26.909  1.00  0.00    -0.237 OA
ATOM     70  O   UNL A   1      46.600  37.983  27.699  1.00  0.00    -0.237 OA
ATOM     71  O   UNL A   1      46.566  36.319  25.883  1.00  0.00    -0.744 OA
ENDBRANCH  64  68
ENDBRANCH  38  61
ENDBRANCH  12  13
ENDBRANCH   5   7
ENDBRANCH   2   3
ENDBRANCH   1   2
BRANCH   1  72
ATOM     72  C   UNL A   1      34.159  23.388  26.617  1.00  0.00     0.117 C 
BRANCH  72  73
ATOM     73  N   UNL A   1      32.800  23.020  26.969  1.00  0.00    -0.356 N 
ATOM     74  C   UNL A   1      31.652  23.687  26.687  1.00  0.00     0.229 C 
ATOM     75  H   UNL A   1      32.698  22.182  27.475  1.00  0.00     0.163 HD
ATOM     76  O   UNL A   1      30.631  23.401  27.307  1.00  0.00    -0.275 OA
BRANCH  74  77
ATOM     77  C   UNL A   1      31.665  24.603  25.496  1.00  0.00     0.142 C 
ATOM     78  C   UNL A   1      30.674  25.750  25.618  1.00  0.00     0.276 C 
ATOM     79  C   UNL A   1      31.180  23.790  24.298  1.00  0.00     0.065 C 
ATOM     80  N   UNL A   1      30.395  26.100  24.212  1.00  0.00    -0.331 N 
ATOM     81  C   UNL A   1      30.235  24.780  23.597  1.00  0.00     0.267 C 
ATOM     82  H   UNL A   1      29.564  26.674  24.067  1.00  0.00     0.348 HD
BRANCH  79  83
ATOM     83  C   UNL A   1      32.220  23.180  23.381  1.00  0.00    -0.001 C 
ATOM     84  C   UNL A   1      32.944  21.862  23.577  1.00  0.00     0.004 C 
ATOM     85  C   UNL A   1      31.909  21.988  22.503  1.00  0.00     0.004 C 
ENDBRANCH  79  83
BRANCH  80  86
ATOM     86  C   UNL A   1      31.404  27.014  23.613  1.00  0.00     0.304 C 
BRANCH  86  87
ATOM     87  C   UNL A   1      31.087  28.451  23.109  1.00  0.00     0.290 C 
BRANCH  87  88
ATOM     88  O   UNL A   1      30.206  29.187  23.981  1.00  0.00    -0.488 OA
BRANCH  88  89
ATOM     89  C   UNL A   1      29.395  30.084  23.337  1.00  0.00     0.119 A 
ATOM     90  C   UNL A   1      28.889  29.678  22.098  1.00  0.00     0.049 A 
ATOM     91  C   UNL A   1      29.119  31.364  23.820  1.00  0.00     0.049 A 
ATOM     92  C   UNL A   1      28.284  30.610  21.255  1.00  0.00     0.043 A 
ATOM     93  C   UNL A   1      28.469  32.287  22.990  1.00  0.00     0.043 A 
ATOM     94  C   UNL A   1      28.098  31.913  21.701  1.00  0.00     0.123 A 
ATOM     95  F   UNL A   1      27.604  32.833  20.862  1.00  0.00    -0.207 F 
ENDBRANCH  88  89
ENDBRANCH  87  88
ENDBRANCH  86  87
ENDBRANCH  80  86
ENDBRANCH  74  77
ENDBRANCH  72  73
ENDBRANCH   1  72
TORSDOF 18
ENDMDL
MODEL 2
REMARK VINA RESULT:     -12.2      0.523      7.495
REMARK SMILES O=C(NCCCNC(=O)[C@@H]1C[N@@H+](CCOc2ccc(F)cc2)C[C@H]1C1CC1)c1ccc(-c2c3nc(c(-c4cc(S(=O)(=O)[O-])ccc4F)c4ccc([nH]4)c(-c4cc(S(=O)(=O)[O-])ccc4F)c4nc(c(-c5cc(S(=O)(=O)[O-])ccc5F)c5ccc2[nH]5)C=C4)C=C3)cc1
REMARK SMILES IDX 5 1 4 2 3 3 1 4 2 5 28 7 29 8 90 9 30 10 89 11 31 12 32 13
REMARK SMILES IDX 33 14 83 15 34 16 88 17 82 18 84 19 35 20 87 21 81 22 80 23
REMARK SMILES IDX 36 25 68 26 48 27 67 28 49 29 52 30 66 31 85 32 50 33 51 34
REMARK SMILES IDX 65 36 86 37 53 38 37 39 38 40 46 41 39 42 45 43 47 44 44 45
REMARK SMILES IDX 40 46 41 47 42 48 43 49 69 50 70 51 78 52 71 53 77 54 79 55
REMARK SMILES IDX 76 56 72 57 73 58 74 59 75 60 54 61 55 62 63 63 56 64 62 65
REMARK SMILES IDX 64 66 61 67 57 68 58 69 59 70 60 71 6 72 7 73 8 74 9 76
REMARK SMILES IDX 10 77 11 78 24 79 12 80 23 81 25 83 26 84 27 85 13 86 14 87
REMARK SMILES IDX 15 88 16 89 17 90 22 91 18 92 21 93 19 94 20 95
REMARK H PARENT 3 6 84 24 52 35 7 75 12 82
REMARK Flexibility Score: inf
ROOT
ATOM      1  C   UNL A   1      34.657  22.069  26.491  1.00  0.00     0.042 C 
ENDROOT
BRANCH   1   2
ATOM      2  C   UNL A   1      35.987  22.511  25.929  1.00  0.00     0.118 C 
BRANCH   2   3
ATOM      3  N   UNL A   1      36.893  21.383  25.723  1.00  0.00    -0.352 N 
ATOM      4  O   UNL A   1      38.915  20.427  25.378  1.00  0.00    -0.269 OA
ATOM      5  C   UNL A   1      38.269  21.371  25.794  1.00  0.00     0.251 C 
ATOM      6  H   UNL A   1      36.465  20.524  25.506  1.00  0.00     0.163 HD
BRANCH   5   7
ATOM      7  C   UNL A   1      38.921  22.564  26.368  1.00  0.00     0.039 A 
ATOM      8  C   UNL A   1      38.489  23.820  25.947  1.00  0.00     0.014 A 
ATOM      9  C   UNL A   1      40.035  22.429  27.195  1.00  0.00     0.014 A 
ATOM     10  C   UNL A   1      39.324  24.904  26.121  1.00  0.00     0.010 A 
ATOM     11  C   UNL A   1      40.765  23.570  27.537  1.00  0.00     0.010 A 
ATOM     12  C   UNL A   1      40.437  24.812  26.970  1.00  0.00    -0.014 A 
BRANCH  12  13
ATOM     13  C   UNL A   1      41.163  26.062  27.304  1.00  0.00     0.031 A 
ATOM     14  C   UNL A   1      42.528  26.353  26.749  1.00  0.00     0.074 A 
ATOM     15  C   UNL A   1      40.527  26.961  28.084  1.00  0.00     0.049 A 
ATOM     16  N   UNL A   1      43.304  27.377  26.994  1.00  0.00    -0.248 NA
ATOM     17  C   UNL A   1      43.108  25.379  25.808  1.00  0.00     0.031 C 
ATOM     18  C   UNL A   1      39.186  26.779  28.660  1.00  0.00     0.029 A 
ATOM     19  N   UNL A   1      40.886  28.216  28.498  1.00  0.00    -0.354 N 
ATOM     20  C   UNL A   1      44.470  27.159  26.272  1.00  0.00     0.074 A 
ATOM     21  C   UNL A   1      44.309  25.898  25.581  1.00  0.00     0.031 C 
ATOM     22  C   UNL A   1      38.804  27.908  29.265  1.00  0.00     0.029 A 
ATOM     23  C   UNL A   1      39.916  28.844  29.245  1.00  0.00     0.049 A 
ATOM     24  H   UNL A   1      41.753  28.627  28.283  1.00  0.00     0.167 HD
ATOM     25  C   UNL A   1      45.570  27.946  26.201  1.00  0.00     0.034 A 
ATOM     26  C   UNL A   1      39.930  30.023  29.892  1.00  0.00     0.034 A 
ATOM     27  C   UNL A   1      45.690  29.215  26.876  1.00  0.00     0.049 A 
ATOM     28  C   UNL A   1      41.183  30.843  29.835  1.00  0.00     0.074 A 
ATOM     29  C   UNL A   1      46.753  30.100  26.853  1.00  0.00     0.029 A 
ATOM     30  N   UNL A   1      44.716  29.782  27.687  1.00  0.00    -0.354 N 
ATOM     31  N   UNL A   1      42.296  30.593  29.185  1.00  0.00    -0.248 NA
ATOM     32  C   UNL A   1      41.195  32.086  30.611  1.00  0.00     0.031 C 
ATOM     33  C   UNL A   1      46.448  31.172  27.698  1.00  0.00     0.029 A 
ATOM     34  C   UNL A   1      45.167  30.989  28.193  1.00  0.00     0.049 A 
ATOM     35  H   UNL A   1      43.835  29.385  27.875  1.00  0.00     0.167 HD
ATOM     36  C   UNL A   1      43.142  31.653  29.474  1.00  0.00     0.074 A 
ATOM     37  C   UNL A   1      42.405  32.554  30.338  1.00  0.00     0.031 C 
ATOM     38  C   UNL A   1      44.418  31.861  29.064  1.00  0.00     0.034 A 
BRANCH  25  39
ATOM     39  C   UNL A   1      46.751  27.460  25.403  1.00  0.00     0.023 A 
ATOM     40  C   UNL A   1      46.941  27.830  24.062  1.00  0.00     0.031 A 
ATOM     41  C   UNL A   1      47.741  26.679  26.025  1.00  0.00     0.131 A 
ATOM     42  C   UNL A   1      48.091  27.404  23.379  1.00  0.00     0.055 A 
ATOM     43  C   UNL A   1      48.907  26.303  25.357  1.00  0.00     0.041 A 
ATOM     44  F   UNL A   1      47.598  26.286  27.301  1.00  0.00    -0.206 F 
ATOM     45  C   UNL A   1      49.087  26.665  24.026  1.00  0.00     0.022 A 
BRANCH  42  46
ATOM     46  S   UNL A   1      48.259  27.797  21.617  1.00  0.00     0.124 S 
ATOM     47  O   UNL A   1      49.305  28.817  21.643  1.00  0.00    -0.237 OA
ATOM     48  O   UNL A   1      48.635  26.512  21.038  1.00  0.00    -0.237 OA
ATOM     49  O   UNL A   1      46.932  28.283  21.245  1.00  0.00    -0.744 OA
ENDBRANCH  42  46
ENDBRANCH  25  39
BRANCH  26  50
ATOM     50  C   UNL A   1      38.754  30.442  30.700  1.00  0.00     0.023 A 
ATOM     51  C   UNL A   1      37.698  31.158  30.119  1.00  0.00     0.031 A 
ATOM     52  C   UNL A   1      38.661  30.115  32.067  1.00  0.00     0.131 A 
ATOM     53  C   UNL A   1      36.606  31.548  30.910  1.00  0.00     0.055 A 
ATOM     54  C   UNL A   1      37.549  30.458  32.834  1.00  0.00     0.041 A 
ATOM     55  F   UNL A   1      39.641  29.419  32.666  1.00  0.00    -0.206 F 
ATOM     56  C   UNL A   1      36.517  31.188  32.257  1.00  0.00     0.022 A 
BRANCH  53  57
ATOM     57  S   UNL A   1      35.320  32.582  30.159  1.00  0.00     0.124 S 
ATOM     58  O   UNL A   1      36.093  33.733  29.706  1.00  0.00    -0.237 OA
ATOM     59  O   UNL A   1      34.797  31.706  29.116  1.00  0.00    -0.237 OA
ATOM     60  O   UNL A   1      34.404  32.842  31.268  1.00  0.00    -0.744 OA
ENDBRANCH  53  57
ENDBRANCH  26  50
BRANCH  38  61
ATOM     61  C   UNL A   1      45.085  33.123  29.533  1.00  0.00     0.023 A 
ATOM     62  C   UNL A   1      44.929  34.329  28.833  1.00  0.00     0.031 A 
ATOM     63  C   UNL A   1      45.853  33.121  30.709  1.00  0.00     0.131 A 
ATOM     64  C   UNL A   1      45.560  35.488  29.304  1.00  0.00     0.055 A 
ATOM     65  C   UNL A   1      46.439  34.287  31.198  1.00  0.00     0.041 A 
ATOM     66  F   UNL A   1      46.028  31.988  31.409  1.00  0.00    -0.206 F 
ATOM     67  C   UNL A   1      46.298  35.479  30.492  1.00  0.00     0.022 A 
BRANCH  64  68
ATOM     68  S   UNL A   1      45.431  37.007  28.323  1.00  0.00     0.124 S 
ATOM     69  O   UNL A   1      46.834  37.370  28.143  1.00  0.00    -0.237 OA
ATOM     70  O   UNL A   1      44.732  36.552  27.126  1.00  0.00    -0.237 OA
ATOM     71  O   UNL A   1      44.663  37.906  29.183  1.00  0.00    -0.744 OA
ENDBRANCH  64  68
ENDBRANCH  38  61
ENDBRANCH  12  13
ENDBRANCH   5   7
ENDBRANCH   2   3
ENDBRANCH   1   2
BRANCH   1  72
ATOM     72  C   UNL A   1      33.903  23.260  27.017  1.00  0.00     0.117 C 
BRANCH  72  73
ATOM     73  N   UNL A   1      32.500  22.919  27.168  1.00  0.00    -0.356 N 
ATOM     74  C   UNL A   1      31.418  23.644  26.787  1.00  0.00     0.229 C 
ATOM     75  H   UNL A   1      32.310  22.056  27.601  1.00  0.00     0.163 HD
ATOM     76  O   UNL A   1      30.317  23.358  27.252  1.00  0.00    -0.275 OA
BRANCH  74  77
ATOM     77  C   UNL A   1      31.610  24.630  25.670  1.00  0.00     0.142 C 
ATOM     78  C   UNL A   1      30.523  25.694  25.624  1.00  0.00     0.276 C 
ATOM     79  C   UNL A   1      31.463  23.861  24.360  1.00  0.00     0.065 C 
ATOM     80  N   UNL A   1      30.525  26.110  24.208  1.00  0.00    -0.331 N 
ATOM     81  C   UNL A   1      30.612  24.822  23.514  1.00  0.00     0.267 C 
ATOM     82  H   UNL A   1      29.700  26.630  23.910  1.00  0.00     0.348 HD
BRANCH  79  83
ATOM     83  C   UNL A   1      32.723  23.385  23.667  1.00  0.00    -0.001 C 
ATOM     84  C   UNL A   1      32.865  22.168  22.773  1.00  0.00     0.004 C 
ATOM     85  C   UNL A   1      32.918  23.539  22.175  1.00  0.00     0.004 C 
ENDBRANCH  79  83
BRANCH  80  86
ATOM     86  C   UNL A   1      31.559  27.129  23.887  1.00  0.00     0.304 C 
BRANCH  86  87
ATOM     87  C   UNL A   1      31.240  28.558  23.361  1.00  0.00     0.290 C 
BRANCH  87  88
ATOM     88  O   UNL A   1      30.286  29.272  24.172  1.00  0.00    -0.488 OA
BRANCH  88  89
ATOM     89  C   UNL A   1      29.468  30.118  23.469  1.00  0.00     0.119 A 
ATOM     90  C   UNL A   1      28.974  29.630  22.255  1.00  0.00     0.049 A 
ATOM     91  C   UNL A   1      29.176  31.421  23.870  1.00  0.00     0.049 A 
ATOM     92  C   UNL A   1      28.364  30.500  21.353  1.00  0.00     0.043 A 
ATOM     93  C   UNL A   1      28.521  32.284  22.981  1.00  0.00     0.043 A 
ATOM     94  C   UNL A   1      28.161  31.826  21.716  1.00  0.00     0.123 A 
ATOM     95  F   UNL A   1      27.662  32.686  20.818  1.00  0.00    -0.207 F 
ENDBRANCH  88  89
ENDBRANCH  87  88
ENDBRANCH  86  87
ENDBRANCH  80  86
ENDBRANCH  74  77
ENDBRANCH  72  73
ENDBRANCH   1  72
TORSDOF 18
ENDMDL
MODEL 3
REMARK VINA RESULT:     -12.2      5.498      8.353
REMARK SMILES O=C(NCCCNC(=O)[C@@H]1C[N@@H+](CCOc2ccc(F)cc2)C[C@H]1C1CC1)c1ccc(-c2c3nc(c(-c4cc(S(=O)(=O)[O-])ccc4F)c4ccc([nH]4)c(-c4cc(S(=O)(=O)[O-])ccc4F)c4nc(c(-c5cc(S(=O)(=O)[O-])ccc5F)c5ccc2[nH]5)C=C4)C=C3)cc1
REMARK SMILES IDX 5 1 4 2 3 3 1 4 2 5 28 7 29 8 90 9 30 10 89 11 31 12 32 13
REMARK SMILES IDX 33 14 83 15 34 16 88 17 82 18 84 19 35 20 87 21 81 22 80 23
REMARK SMILES IDX 36 25 68 26 48 27 67 28 49 29 52 30 66 31 85 32 50 33 51 34
REMARK SMILES IDX 65 36 86 37 53 38 37 39 38 40 46 41 39 42 45 43 47 44 44 45
REMARK SMILES IDX 40 46 41 47 42 48 43 49 69 50 70 51 78 52 71 53 77 54 79 55
REMARK SMILES IDX 76 56 72 57 73 58 74 59 75 60 54 61 55 62 63 63 56 64 62 65
REMARK SMILES IDX 64 66 61 67 57 68 58 69 59 70 60 71 6 72 7 73 8 74 9 76
REMARK SMILES IDX 10 77 11 78 24 79 12 80 23 81 25 83 26 84 27 85 13 86 14 87
REMARK SMILES IDX 15 88 16 89 17 90 22 91 18 92 21 93 19 94 20 95
REMARK H PARENT 3 6 84 24 52 35 7 75 12 82
REMARK Flexibility Score: inf
ROOT
ATOM      1  C   UNL A   1      31.811  31.773  26.780  1.00  0.00     0.042 C 
ENDROOT
BRANCH   1   2
ATOM      2  C   UNL A   1      32.887  32.535  27.517  1.00  0.00     0.118 C 
BRANCH   2   3
ATOM      3  N   UNL A   1      32.564  33.955  27.633  1.00  0.00    -0.352 N 
ATOM      4  O   UNL A   1      32.500  35.952  28.697  1.00  0.00    -0.269 OA
ATOM      5  C   UNL A   1      33.019  34.858  28.571  1.00  0.00     0.251 C 
ATOM      6  H   UNL A   1      31.944  34.312  26.957  1.00  0.00     0.163 HD
BRANCH   5   7
ATOM      7  C   UNL A   1      34.139  34.427  29.429  1.00  0.00     0.039 A 
ATOM      8  C   UNL A   1      35.432  34.502  28.915  1.00  0.00     0.014 A 
ATOM      9  C   UNL A   1      33.891  33.822  30.660  1.00  0.00     0.014 A 
ATOM     10  C   UNL A   1      36.424  33.737  29.493  1.00  0.00     0.010 A 
ATOM     11  C   UNL A   1      34.951  33.220  31.343  1.00  0.00     0.010 A 
ATOM     12  C   UNL A   1      36.219  33.140  30.745  1.00  0.00    -0.014 A 
BRANCH  12  13
ATOM     13  C   UNL A   1      37.387  32.528  31.424  1.00  0.00     0.031 A 
ATOM     14  C   UNL A   1      37.834  32.979  32.785  1.00  0.00     0.074 A 
ATOM     15  C   UNL A   1      38.006  31.506  30.796  1.00  0.00     0.049 A 
ATOM     16  N   UNL A   1      38.868  32.575  33.477  1.00  0.00    -0.248 NA
ATOM     17  C   UNL A   1      37.037  34.018  33.459  1.00  0.00     0.031 C 
ATOM     18  C   UNL A   1      37.634  30.978  29.475  1.00  0.00     0.029 A 
ATOM     19  N   UNL A   1      39.040  30.697  31.185  1.00  0.00    -0.354 N 
ATOM     20  C   UNL A   1      38.868  33.325  34.645  1.00  0.00     0.074 A 
ATOM     21  C   UNL A   1      37.734  34.222  34.571  1.00  0.00     0.031 C 
ATOM     22  C   UNL A   1      38.360  29.887  29.210  1.00  0.00     0.029 A 
ATOM     23  C   UNL A   1      39.340  29.714  30.269  1.00  0.00     0.049 A 
ATOM     24  H   UNL A   1      39.522  30.808  32.035  1.00  0.00     0.167 HD
ATOM     25  C   UNL A   1      39.740  33.264  35.679  1.00  0.00     0.034 A 
ATOM     26  C   UNL A   1      40.328  28.802  30.250  1.00  0.00     0.034 A 
ATOM     27  C   UNL A   1      40.843  32.338  35.741  1.00  0.00     0.049 A 
ATOM     28  C   UNL A   1      41.306  28.799  31.384  1.00  0.00     0.074 A 
ATOM     29  C   UNL A   1      41.774  32.180  36.753  1.00  0.00     0.029 A 
ATOM     30  N   UNL A   1      41.161  31.410  34.758  1.00  0.00    -0.354 N 
ATOM     31  N   UNL A   1      41.316  29.553  32.458  1.00  0.00    -0.248 NA
ATOM     32  C   UNL A   1      42.415  27.844  31.299  1.00  0.00     0.031 C 
ATOM     33  C   UNL A   1      42.690  31.201  36.356  1.00  0.00     0.029 A 
ATOM     34  C   UNL A   1      42.291  30.700  35.127  1.00  0.00     0.049 A 
ATOM     35  H   UNL A   1      40.658  31.277  33.923  1.00  0.00     0.167 HD
ATOM     36  C   UNL A   1      42.434  29.161  33.180  1.00  0.00     0.074 A 
ATOM     37  C   UNL A   1      43.061  28.090  32.430  1.00  0.00     0.031 C 
ATOM     38  C   UNL A   1      42.904  29.647  34.355  1.00  0.00     0.034 A 
BRANCH  25  39
ATOM     39  C   UNL A   1      39.577  34.239  36.815  1.00  0.00     0.023 A 
ATOM     40  C   UNL A   1      39.090  33.839  38.070  1.00  0.00     0.031 A 
ATOM     41  C   UNL A   1      39.993  35.573  36.658  1.00  0.00     0.131 A 
ATOM     42  C   UNL A   1      39.016  34.771  39.117  1.00  0.00     0.055 A 
ATOM     43  C   UNL A   1      39.967  36.482  37.717  1.00  0.00     0.041 A 
ATOM     44  F   UNL A   1      40.451  36.009  35.473  1.00  0.00    -0.206 F 
ATOM     45  C   UNL A   1      39.476  36.082  38.956  1.00  0.00     0.022 A 
BRANCH  42  46
ATOM     46  S   UNL A   1      38.278  34.261  40.693  1.00  0.00     0.124 S 
ATOM     47  O   UNL A   1      37.238  33.337  40.243  1.00  0.00    -0.237 OA
ATOM     48  O   UNL A   1      39.406  33.659  41.394  1.00  0.00    -0.237 OA
ATOM     49  O   UNL A   1      37.786  35.513  41.264  1.00  0.00    -0.744 OA
ENDBRANCH  42  46
ENDBRANCH  25  39
BRANCH  26  50
ATOM     50  C   UNL A   1      40.471  27.886  29.087  1.00  0.00     0.023 A 
ATOM     51  C   UNL A   1      41.386  28.161  28.061  1.00  0.00     0.031 A 
ATOM     52  C   UNL A   1      39.703  26.710  28.992  1.00  0.00     0.131 A 
ATOM     53  C   UNL A   1      41.492  27.283  26.971  1.00  0.00     0.055 A 
ATOM     54  C   UNL A   1      39.851  25.814  27.935  1.00  0.00     0.041 A 
ATOM     55  F   UNL A   1      38.821  26.396  29.956  1.00  0.00    -0.206 F 
ATOM     56  C   UNL A   1      40.744  26.104  26.910  1.00  0.00     0.022 A 
BRANCH  53  57
ATOM     57  S   UNL A   1      42.592  27.733  25.602  1.00  0.00     0.124 S 
ATOM     58  O   UNL A   1      43.849  27.976  26.300  1.00  0.00    -0.237 OA
ATOM     59  O   UNL A   1      42.540  26.538  24.766  1.00  0.00    -0.237 OA
ATOM     60  O   UNL A   1      41.955  28.917  25.030  1.00  0.00    -0.744 OA
ENDBRANCH  53  57
ENDBRANCH  26  50
BRANCH  38  61
ATOM     61  C   UNL A   1      44.144  29.005  34.908  1.00  0.00     0.023 A 
ATOM     62  C   UNL A   1      44.070  27.867  35.725  1.00  0.00     0.031 A 
ATOM     63  C   UNL A   1      45.411  29.520  34.583  1.00  0.00     0.131 A 
ATOM     64  C   UNL A   1      45.249  27.291  36.217  1.00  0.00     0.055 A 
ATOM     65  C   UNL A   1      46.581  28.914  35.037  1.00  0.00     0.041 A 
ATOM     66  F   UNL A   1      45.526  30.608  33.805  1.00  0.00    -0.206 F 
ATOM     67  C   UNL A   1      46.504  27.796  35.863  1.00  0.00     0.022 A 
BRANCH  64  68
ATOM     68  S   UNL A   1      45.120  25.887  37.357  1.00  0.00     0.124 S 
ATOM     69  O   UNL A   1      43.786  26.077  37.918  1.00  0.00    -0.237 OA
ATOM     70  O   UNL A   1      45.281  24.742  36.469  1.00  0.00    -0.237 OA
ATOM     71  O   UNL A   1      46.223  26.104  38.292  1.00  0.00    -0.744 OA
ENDBRANCH  64  68
ENDBRANCH  38  61
ENDBRANCH  12  13
ENDBRANCH   5   7
ENDBRANCH   2   3
ENDBRANCH   1   2
BRANCH   1  72
ATOM     72  C   UNL A   1      32.389  30.516  26.189  1.00  0.00     0.117 C 
BRANCH  72  73
ATOM     73  N   UNL A   1      32.406  29.469  27.194  1.00  0.00    -0.356 N 
ATOM     74  C   UNL A   1      31.920  28.205  27.094  1.00  0.00     0.229 C 
ATOM     75  H   UNL A   1      32.820  29.704  28.056  1.00  0.00     0.163 HD
ATOM     76  O   UNL A   1      31.744  27.553  28.121  1.00  0.00    -0.275 OA
BRANCH  74  77
ATOM     77  C   UNL A   1      31.810  27.619  25.716  1.00  0.00     0.142 C 
ATOM     78  C   UNL A   1      30.371  27.388  25.282  1.00  0.00     0.276 C 
ATOM     79  C   UNL A   1      32.432  26.226  25.768  1.00  0.00     0.065 C 
ATOM     80  N   UNL A   1      30.492  26.303  24.288  1.00  0.00    -0.331 N 
ATOM     81  C   UNL A   1      31.434  25.394  24.947  1.00  0.00     0.267 C 
ATOM     82  H   UNL A   1      29.619  25.825  24.063  1.00  0.00     0.348 HD
BRANCH  79  83
ATOM     83  C   UNL A   1      33.872  26.071  25.321  1.00  0.00    -0.001 C 
ATOM     84  C   UNL A   1      34.817  24.938  25.675  1.00  0.00     0.004 C 
ATOM     85  C   UNL A   1      34.279  25.050  24.283  1.00  0.00     0.004 C 
ENDBRANCH  79  83
BRANCH  80  86
ATOM     86  C   UNL A   1      30.844  26.780  22.924  1.00  0.00     0.304 C 
BRANCH  86  87
ATOM     87  C   UNL A   1      30.920  28.279  22.519  1.00  0.00     0.290 C 
BRANCH  87  88
ATOM     88  O   UNL A   1      29.743  28.754  21.835  1.00  0.00    -0.488 OA
BRANCH  88  89
ATOM     89  C   UNL A   1      29.291  29.973  22.268  1.00  0.00     0.119 A 
ATOM     90  C   UNL A   1      28.785  30.827  21.283  1.00  0.00     0.049 A 
ATOM     91  C   UNL A   1      29.375  30.405  23.592  1.00  0.00     0.049 A 
ATOM     92  C   UNL A   1      28.556  32.171  21.578  1.00  0.00     0.043 A 
ATOM     93  C   UNL A   1      29.100  31.744  23.898  1.00  0.00     0.043 A 
ATOM     94  C   UNL A   1      28.735  32.622  22.880  1.00  0.00     0.123 A 
ATOM     95  F   UNL A   1      28.608  33.928  23.148  1.00  0.00    -0.207 F 
ENDBRANCH  88  89
ENDBRANCH  87  88
ENDBRANCH  86  87
ENDBRANCH  80  86
ENDBRANCH  74  77
ENDBRANCH  72  73
ENDBRANCH   1  72
TORSDOF 18
ENDMDL
