MODEL 1
REMARK VINA RESULT:     -11.8      0.000      0.000
REMARK SMILES Cc1cc2nc(SCC(=O)NCCCNC(=O)c3ccc(-c4c5nc(c(-c6cc(S(=O)(=O)[O-])ccc6F)c6ccc([nH]6)c(-c6cc(S(=O)(=O)[O-])ccc6F)c6nc(c(-c7cc(S(=O)(=O)[O-])ccc7F)c7ccc4[nH]7)C=C6)C=C5)cc3)n(CC(C)C)c(=O)c2[nH]1
REMARK SMILES IDX 12 1 11 2 9 3 10 4 8 6 7 7 6 8 1 9 2 10 3 11 89 12 4 13
REMARK SMILES IDX 88 14 5 16 86 17 81 18 87 19 82 20 83 21 84 22 85 23 13 24
REMARK SMILES IDX 14 25 15 26 16 27 17 29 18 30 19 31 80 32 20 33 79 34 21 35
REMARK SMILES IDX 22 36 23 37 73 38 24 39 78 40 72 41 74 42 25 43 77 44 71 45
REMARK SMILES IDX 70 46 26 48 58 49 38 50 57 51 39 52 42 53 56 54 75 55 40 56
REMARK SMILES IDX 41 57 55 59 76 60 43 61 27 62 28 63 36 64 29 65 35 66 37 67
REMARK SMILES IDX 34 68 30 69 31 70 32 71 33 72 59 73 60 74 68 75 61 76 67 77
REMARK SMILES IDX 69 78 66 79 62 80 63 81 64 82 65 83 44 84 45 85 53 86 46 87
REMARK SMILES IDX 52 88 54 89 51 90 47 91 48 92 49 93 50 94
REMARK H PARENT 11 5 89 15 15 28 74 47 42 58
REMARK Flexibility Score: inf
ROOT
ATOM      1  C   UNL A   1      32.020  30.036  25.862  1.00  0.00     0.117 C 
ENDROOT
BRANCH   1   2
ATOM      2  N   UNL A   1      32.945  29.961  24.745  1.00  0.00    -0.355 N 
ATOM      3  C   UNL A   1      33.461  28.843  24.166  1.00  0.00     0.230 C 
ATOM      4  O   UNL A   1      33.737  28.900  22.967  1.00  0.00    -0.274 OA
ATOM      5  H   UNL A   1      33.234  30.821  24.363  1.00  0.00     0.163 HD
BRANCH   3   6
ATOM      6  C   UNL A   1      33.580  27.533  24.906  1.00  0.00     0.178 C 
BRANCH   6   7
ATOM      7  S   UNL A   1      33.716  26.081  23.908  1.00  0.00    -0.078 SA
BRANCH   7   8
ATOM      8  C   UNL A   1      34.041  24.548  24.693  1.00  0.00     0.172 A 
ATOM      9  C   UNL A   1      37.406  19.664  24.901  1.00  0.00     0.064 C 
ATOM     10  C   UNL A   1      36.616  20.919  24.974  1.00  0.00     0.014 A 
ATOM     11  C   UNL A   1      36.558  22.008  24.116  1.00  0.00     0.052 A 
ATOM     12  N   UNL A   1      35.710  21.140  25.995  1.00  0.00    -0.353 N 
ATOM     13  C   UNL A   1      35.558  22.848  24.620  1.00  0.00     0.097 A 
ATOM     14  C   UNL A   1      35.077  22.332  25.771  1.00  0.00     0.131 A 
ATOM     15  H   UNL A   1      35.547  20.539  26.757  1.00  0.00     0.166 HD
ATOM     16  N   UNL A   1      35.089  24.037  24.099  1.00  0.00    -0.222 NA
ATOM     17  C   UNL A   1      34.052  22.962  26.528  1.00  0.00     0.278 A 
ATOM     18  N   UNL A   1      33.401  23.997  25.814  1.00  0.00    -0.286 N 
ATOM     19  O   UNL A   1      33.806  22.649  27.678  1.00  0.00    -0.267 OA
BRANCH  18  20
ATOM     20  C   UNL A   1      32.114  24.364  26.421  1.00  0.00     0.131 C 
BRANCH  20  21
ATOM     21  C   UNL A   1      30.868  23.781  25.691  1.00  0.00     0.003 C 
ATOM     22  C   UNL A   1      31.151  23.256  24.279  1.00  0.00     0.009 C 
ATOM     23  C   UNL A   1      30.283  22.610  26.495  1.00  0.00     0.009 C 
ENDBRANCH  20  21
ENDBRANCH  18  20
ENDBRANCH   7   8
ENDBRANCH   6   7
ENDBRANCH   3   6
ENDBRANCH   1   2
BRANCH   1  24
ATOM     24  C   UNL A   1      32.686  30.058  27.234  1.00  0.00     0.042 C 
BRANCH  24  25
ATOM     25  C   UNL A   1      34.033  30.752  27.219  1.00  0.00     0.118 C 
BRANCH  25  26
ATOM     26  N   UNL A   1      34.091  31.941  28.073  1.00  0.00    -0.352 N 
ATOM     27  C   UNL A   1      34.956  32.194  29.119  1.00  0.00     0.251 C 
ATOM     28  H   UNL A   1      33.432  32.647  27.877  1.00  0.00     0.163 HD
ATOM     29  O   UNL A   1      34.745  33.116  29.898  1.00  0.00    -0.269 OA
BRANCH  27  30
ATOM     30  C   UNL A   1      36.143  31.335  29.272  1.00  0.00     0.039 A 
ATOM     31  C   UNL A   1      36.055  29.940  29.211  1.00  0.00     0.014 A 
ATOM     32  C   UNL A   1      37.370  31.962  29.469  1.00  0.00     0.014 A 
ATOM     33  C   UNL A   1      37.225  29.194  29.313  1.00  0.00     0.010 A 
ATOM     34  C   UNL A   1      38.527  31.248  29.371  1.00  0.00     0.010 A 
ATOM     35  C   UNL A   1      38.453  29.863  29.398  1.00  0.00    -0.014 A 
BRANCH  35  36
ATOM     36  C   UNL A   1      39.708  29.152  29.543  1.00  0.00     0.031 A 
ATOM     37  C   UNL A   1      40.087  28.799  30.931  1.00  0.00     0.074 A 
ATOM     38  C   UNL A   1      40.337  28.636  28.467  1.00  0.00     0.049 A 
ATOM     39  N   UNL A   1      41.039  29.299  31.645  1.00  0.00    -0.248 NA
ATOM     40  C   UNL A   1      39.210  27.874  31.666  1.00  0.00     0.031 C 
ATOM     41  C   UNL A   1      39.882  28.586  27.068  1.00  0.00     0.029 A 
ATOM     42  N   UNL A   1      41.492  27.928  28.426  1.00  0.00    -0.354 N 
ATOM     43  C   UNL A   1      41.016  28.605  32.851  1.00  0.00     0.074 A 
ATOM     44  C   UNL A   1      39.762  27.894  32.881  1.00  0.00     0.031 C 
ATOM     45  C   UNL A   1      40.629  27.695  26.380  1.00  0.00     0.029 A 
ATOM     46  C   UNL A   1      41.722  27.269  27.230  1.00  0.00     0.049 A 
ATOM     47  H   UNL A   1      42.117  27.887  29.185  1.00  0.00     0.167 HD
ATOM     48  C   UNL A   1      42.126  28.481  33.634  1.00  0.00     0.034 A 
ATOM     49  C   UNL A   1      42.722  26.393  26.977  1.00  0.00     0.034 A 
ATOM     50  C   UNL A   1      43.189  29.331  33.171  1.00  0.00     0.049 A 
ATOM     51  C   UNL A   1      43.771  26.623  28.001  1.00  0.00     0.074 A 
ATOM     52  C   UNL A   1      43.376  30.693  33.074  1.00  0.00     0.029 A 
ATOM     53  N   UNL A   1      44.118  28.752  32.338  1.00  0.00    -0.354 N 
ATOM     54  N   UNL A   1      44.469  27.723  28.092  1.00  0.00    -0.248 NA
ATOM     55  C   UNL A   1      43.729  25.810  29.208  1.00  0.00     0.031 C 
ATOM     56  C   UNL A   1      44.099  30.880  31.862  1.00  0.00     0.029 A 
ATOM     57  C   UNL A   1      44.365  29.623  31.309  1.00  0.00     0.049 A 
ATOM     58  H   UNL A   1      44.533  27.868  32.460  1.00  0.00     0.167 HD
ATOM     59  C   UNL A   1      44.583  27.956  29.456  1.00  0.00     0.074 A 
ATOM     60  C   UNL A   1      44.210  26.693  30.088  1.00  0.00     0.031 C 
ATOM     61  C   UNL A   1      44.692  29.224  29.952  1.00  0.00     0.034 A 
BRANCH  48  62
ATOM     62  C   UNL A   1      42.376  27.343  34.590  1.00  0.00     0.023 A 
ATOM     63  C   UNL A   1      43.137  26.214  34.237  1.00  0.00     0.031 A 
ATOM     64  C   UNL A   1      42.044  27.466  35.954  1.00  0.00     0.131 A 
ATOM     65  C   UNL A   1      43.508  25.254  35.185  1.00  0.00     0.055 A 
ATOM     66  C   UNL A   1      42.473  26.541  36.915  1.00  0.00     0.041 A 
ATOM     67  F   UNL A   1      41.337  28.515  36.401  1.00  0.00    -0.206 F 
ATOM     68  C   UNL A   1      43.207  25.425  36.533  1.00  0.00     0.022 A 
BRANCH  65  69
ATOM     69  S   UNL A   1      44.415  23.770  34.673  1.00  0.00     0.124 S 
ATOM     70  O   UNL A   1      45.411  24.325  33.763  1.00  0.00    -0.237 OA
ATOM     71  O   UNL A   1      44.926  23.279  35.950  1.00  0.00    -0.237 OA
ATOM     72  O   UNL A   1      43.385  22.936  34.058  1.00  0.00    -0.744 OA
ENDBRANCH  65  69
ENDBRANCH  48  62
BRANCH  49  73
ATOM     73  C   UNL A   1      42.575  25.110  26.256  1.00  0.00     0.023 A 
ATOM     74  C   UNL A   1      41.600  24.181  26.670  1.00  0.00     0.031 A 
ATOM     75  C   UNL A   1      43.565  24.659  25.369  1.00  0.00     0.131 A 
ATOM     76  C   UNL A   1      41.663  22.846  26.249  1.00  0.00     0.055 A 
ATOM     77  C   UNL A   1      43.618  23.328  24.938  1.00  0.00     0.041 A 
ATOM     78  F   UNL A   1      44.537  25.487  24.958  1.00  0.00    -0.206 F 
ATOM     79  C   UNL A   1      42.672  22.410  25.390  1.00  0.00     0.022 A 
BRANCH  76  80
ATOM     80  S   UNL A   1      40.462  21.636  26.871  1.00  0.00     0.124 S 
ATOM     81  O   UNL A   1      40.843  21.514  28.275  1.00  0.00    -0.237 OA
ATOM     82  O   UNL A   1      39.197  22.316  26.619  1.00  0.00    -0.237 OA
ATOM     83  O   UNL A   1      40.720  20.450  26.058  1.00  0.00    -0.744 OA
ENDBRANCH  76  80
ENDBRANCH  49  73
BRANCH  61  84
ATOM     84  C   UNL A   1      44.940  30.362  28.988  1.00  0.00     0.023 A 
ATOM     85  C   UNL A   1      46.279  30.702  28.738  1.00  0.00     0.031 A 
ATOM     86  C   UNL A   1      43.947  31.256  28.543  1.00  0.00     0.131 A 
ATOM     87  C   UNL A   1      46.595  31.922  28.128  1.00  0.00     0.055 A 
ATOM     88  C   UNL A   1      44.264  32.444  27.876  1.00  0.00     0.041 A 
ATOM     89  F   UNL A   1      42.655  31.057  28.820  1.00  0.00    -0.206 F 
ATOM     90  C   UNL A   1      45.596  32.792  27.683  1.00  0.00     0.022 A 
BRANCH  87  91
ATOM     91  S   UNL A   1      48.316  32.469  28.033  1.00  0.00     0.124 S 
ATOM     92  O   UNL A   1      48.205  33.898  28.314  1.00  0.00    -0.237 OA
ATOM     93  O   UNL A   1      48.949  31.673  29.083  1.00  0.00    -0.237 OA
ATOM     94  O   UNL A   1      48.720  32.134  26.670  1.00  0.00    -0.744 OA
ENDBRANCH  87  91
ENDBRANCH  61  84
ENDBRANCH  35  36
ENDBRANCH  27  30
ENDBRANCH  25  26
ENDBRANCH  24  25
ENDBRANCH   1  24
TORSDOF 17
ENDMDL
MODEL 2
REMARK VINA RESULT:     -11.3      1.549      1.816
REMARK SMILES Cc1cc2nc(SCC(=O)NCCCNC(=O)c3ccc(-c4c5nc(c(-c6cc(S(=O)(=O)[O-])ccc6F)c6ccc([nH]6)c(-c6cc(S(=O)(=O)[O-])ccc6F)c6nc(c(-c7cc(S(=O)(=O)[O-])ccc7F)c7ccc4[nH]7)C=C6)C=C5)cc3)n(CC(C)C)c(=O)c2[nH]1
REMARK SMILES IDX 12 1 11 2 9 3 10 4 8 6 7 7 6 8 1 9 2 10 3 11 89 12 4 13
REMARK SMILES IDX 88 14 5 16 86 17 81 18 87 19 82 20 83 21 84 22 85 23 13 24
REMARK SMILES IDX 14 25 15 26 16 27 17 29 18 30 19 31 80 32 20 33 79 34 21 35
REMARK SMILES IDX 22 36 23 37 73 38 24 39 78 40 72 41 74 42 25 43 77 44 71 45
REMARK SMILES IDX 70 46 26 48 58 49 38 50 57 51 39 52 42 53 56 54 75 55 40 56
REMARK SMILES IDX 41 57 55 59 76 60 43 61 27 62 28 63 36 64 29 65 35 66 37 67
REMARK SMILES IDX 34 68 30 69 31 70 32 71 33 72 59 73 60 74 68 75 61 76 67 77
REMARK SMILES IDX 69 78 66 79 62 80 63 81 64 82 65 83 44 84 45 85 53 86 46 87
REMARK SMILES IDX 52 88 54 89 51 90 47 91 48 92 49 93 50 94
REMARK H PARENT 11 5 89 15 15 28 74 47 42 58
REMARK Flexibility Score: inf
ROOT
ATOM      1  C   UNL A   1      33.770  27.954  24.501  1.00  0.00     0.117 C 
ENDROOT
BRANCH   1   2
ATOM      2  N   UNL A   1      33.054  27.723  23.260  1.00  0.00    -0.355 N 
ATOM      3  C   UNL A   1      32.749  26.528  22.686  1.00  0.00     0.230 C 
ATOM      4  O   UNL A   1      31.720  26.469  22.010  1.00  0.00    -0.274 OA
ATOM      5  H   UNL A   1      32.754  28.527  22.776  1.00  0.00     0.163 HD
BRANCH   3   6
ATOM      6  C   UNL A   1      33.548  25.276  22.955  1.00  0.00     0.178 C 
BRANCH   6   7
ATOM      7  S   UNL A   1      32.692  23.744  22.754  1.00  0.00    -0.078 SA
BRANCH   7   8
ATOM      8  C   UNL A   1      32.764  22.563  24.047  1.00  0.00     0.172 A 
ATOM      9  C   UNL A   1      32.569  16.836  25.591  1.00  0.00     0.064 C 
ATOM     10  C   UNL A   1      32.751  18.270  25.248  1.00  0.00     0.014 A 
ATOM     11  C   UNL A   1      32.574  18.946  24.049  1.00  0.00     0.052 A 
ATOM     12  N   UNL A   1      33.107  19.200  26.206  1.00  0.00    -0.353 N 
ATOM     13  C   UNL A   1      32.774  20.302  24.333  1.00  0.00     0.097 A 
ATOM     14  C   UNL A   1      33.128  20.440  25.630  1.00  0.00     0.131 A 
ATOM     15  H   UNL A   1      33.309  19.003  27.149  1.00  0.00     0.166 HD
ATOM     16  N   UNL A   1      32.667  21.385  23.485  1.00  0.00    -0.222 NA
ATOM     17  C   UNL A   1      33.408  21.702  26.221  1.00  0.00     0.278 A 
ATOM     18  N   UNL A   1      32.995  22.789  25.412  1.00  0.00    -0.286 N 
ATOM     19  O   UNL A   1      33.973  21.808  27.293  1.00  0.00    -0.267 OA
BRANCH  18  20
ATOM     20  C   UNL A   1      32.911  24.044  26.172  1.00  0.00     0.131 C 
BRANCH  20  21
ATOM     21  C   UNL A   1      31.462  24.479  26.540  1.00  0.00     0.003 C 
ATOM     22  C   UNL A   1      30.743  25.271  25.441  1.00  0.00     0.009 C 
ATOM     23  C   UNL A   1      30.598  23.246  26.839  1.00  0.00     0.009 C 
ENDBRANCH  20  21
ENDBRANCH  18  20
ENDBRANCH   7   8
ENDBRANCH   6   7
ENDBRANCH   3   6
ENDBRANCH   1   2
BRANCH   1  24
ATOM     24  C   UNL A   1      33.221  29.102  25.344  1.00  0.00     0.042 C 
BRANCH  24  25
ATOM     25  C   UNL A   1      34.101  29.427  26.534  1.00  0.00     0.118 C 
BRANCH  25  26
ATOM     26  N   UNL A   1      33.820  30.734  27.133  1.00  0.00    -0.352 N 
ATOM     27  C   UNL A   1      34.569  31.415  28.073  1.00  0.00     0.251 C 
ATOM     28  H   UNL A   1      32.998  31.182  26.828  1.00  0.00     0.163 HD
ATOM     29  O   UNL A   1      34.102  32.384  28.662  1.00  0.00    -0.269 OA
BRANCH  27  30
ATOM     30  C   UNL A   1      35.941  30.956  28.345  1.00  0.00     0.039 A 
ATOM     31  C   UNL A   1      36.939  31.835  28.779  1.00  0.00     0.014 A 
ATOM     32  C   UNL A   1      36.215  29.603  28.164  1.00  0.00     0.014 A 
ATOM     33  C   UNL A   1      38.201  31.322  29.064  1.00  0.00     0.010 A 
ATOM     34  C   UNL A   1      37.382  29.073  28.629  1.00  0.00     0.010 A 
ATOM     35  C   UNL A   1      38.407  29.938  28.979  1.00  0.00    -0.014 A 
BRANCH  35  36
ATOM     36  C   UNL A   1      39.703  29.338  29.227  1.00  0.00     0.031 A 
ATOM     37  C   UNL A   1      39.987  28.991  30.640  1.00  0.00     0.074 A 
ATOM     38  C   UNL A   1      40.469  28.901  28.206  1.00  0.00     0.049 A 
ATOM     39  N   UNL A   1      40.825  29.559  31.442  1.00  0.00    -0.248 NA
ATOM     40  C   UNL A   1      39.136  27.978  31.281  1.00  0.00     0.031 C 
ATOM     41  C   UNL A   1      40.145  28.840  26.771  1.00  0.00     0.029 A 
ATOM     42  N   UNL A   1      41.681  28.299  28.260  1.00  0.00    -0.354 N 
ATOM     43  C   UNL A   1      40.757  28.840  32.632  1.00  0.00     0.074 A 
ATOM     44  C   UNL A   1      39.575  28.021  32.541  1.00  0.00     0.031 C 
ATOM     45  C   UNL A   1      41.026  28.032  26.142  1.00  0.00     0.029 A 
ATOM     46  C   UNL A   1      42.074  27.687  27.081  1.00  0.00     0.049 A 
ATOM     47  H   UNL A   1      42.238  28.298  29.072  1.00  0.00     0.167 HD
ATOM     48  C   UNL A   1      41.800  28.799  33.510  1.00  0.00     0.034 A 
ATOM     49  C   UNL A   1      43.167  26.908  26.909  1.00  0.00     0.034 A 
ATOM     50  C   UNL A   1      42.820  29.748  33.156  1.00  0.00     0.049 A 
ATOM     51  C   UNL A   1      44.097  27.209  28.025  1.00  0.00     0.074 A 
ATOM     52  C   UNL A   1      42.891  31.124  33.093  1.00  0.00     0.029 A 
ATOM     53  N   UNL A   1      43.866  29.271  32.402  1.00  0.00    -0.354 N 
ATOM     54  N   UNL A   1      44.682  28.364  28.192  1.00  0.00    -0.248 NA
ATOM     55  C   UNL A   1      44.021  26.371  29.213  1.00  0.00     0.031 C 
ATOM     56  C   UNL A   1      43.699  31.399  31.953  1.00  0.00     0.029 A 
ATOM     57  C   UNL A   1      44.125  30.181  31.410  1.00  0.00     0.049 A 
ATOM     58  H   UNL A   1      44.347  28.425  32.549  1.00  0.00     0.167 HD
ATOM     59  C   UNL A   1      44.654  28.578  29.564  1.00  0.00     0.074 A 
ATOM     60  C   UNL A   1      44.341  27.274  30.144  1.00  0.00     0.031 C 
ATOM     61  C   UNL A   1      44.605  29.840  30.083  1.00  0.00     0.034 A 
BRANCH  48  62
ATOM     62  C   UNL A   1      42.065  27.668  34.470  1.00  0.00     0.023 A 
ATOM     63  C   UNL A   1      42.847  26.552  34.124  1.00  0.00     0.031 A 
ATOM     64  C   UNL A   1      41.726  27.790  35.833  1.00  0.00     0.131 A 
ATOM     65  C   UNL A   1      43.231  25.601  35.076  1.00  0.00     0.055 A 
ATOM     66  C   UNL A   1      42.167  26.875  36.798  1.00  0.00     0.041 A 
ATOM     67  F   UNL A   1      40.999  28.828  36.274  1.00  0.00    -0.206 F 
ATOM     68  C   UNL A   1      42.922  25.770  36.422  1.00  0.00     0.022 A 
BRANCH  65  69
ATOM     69  S   UNL A   1      44.165  24.131  34.572  1.00  0.00     0.124 S 
ATOM     70  O   UNL A   1      44.439  24.415  33.168  1.00  0.00    -0.237 OA
ATOM     71  O   UNL A   1      45.318  24.191  35.468  1.00  0.00    -0.237 OA
ATOM     72  O   UNL A   1      43.239  23.033  34.831  1.00  0.00    -0.744 OA
ENDBRANCH  65  69
ENDBRANCH  48  62
BRANCH  49  73
ATOM     73  C   UNL A   1      43.200  25.632  26.161  1.00  0.00     0.023 A 
ATOM     74  C   UNL A   1      42.352  24.573  26.544  1.00  0.00     0.031 A 
ATOM     75  C   UNL A   1      44.251  25.334  25.280  1.00  0.00     0.131 A 
ATOM     76  C   UNL A   1      42.597  23.268  26.098  1.00  0.00     0.055 A 
ATOM     77  C   UNL A   1      44.485  24.031  24.824  1.00  0.00     0.041 A 
ATOM     78  F   UNL A   1      45.109  26.293  24.898  1.00  0.00    -0.206 F 
ATOM     79  C   UNL A   1      43.664  22.987  25.245  1.00  0.00     0.022 A 
BRANCH  76  80
ATOM     80  S   UNL A   1      41.560  21.896  26.680  1.00  0.00     0.124 S 
ATOM     81  O   UNL A   1      41.610  20.969  25.553  1.00  0.00    -0.237 OA
ATOM     82  O   UNL A   1      42.276  21.470  27.877  1.00  0.00    -0.237 OA
ATOM     83  O   UNL A   1      40.260  22.522  26.905  1.00  0.00    -0.744 OA
ENDBRANCH  76  80
ENDBRANCH  49  73
BRANCH  61  84
ATOM     84  C   UNL A   1      44.834  31.015  29.159  1.00  0.00     0.023 A 
ATOM     85  C   UNL A   1      46.137  31.535  29.104  1.00  0.00     0.031 A 
ATOM     86  C   UNL A   1      43.804  31.775  28.571  1.00  0.00     0.131 A 
ATOM     87  C   UNL A   1      46.370  32.795  28.541  1.00  0.00     0.055 A 
ATOM     88  C   UNL A   1      44.052  33.004  27.951  1.00  0.00     0.041 A 
ATOM     89  F   UNL A   1      42.525  31.401  28.659  1.00  0.00    -0.206 F 
ATOM     90  C   UNL A   1      45.339  33.530  27.951  1.00  0.00     0.022 A 
BRANCH  87  91
ATOM     91  S   UNL A   1      47.998  33.569  28.694  1.00  0.00     0.124 S 
ATOM     92  O   UNL A   1      47.664  34.903  29.185  1.00  0.00    -0.237 OA
ATOM     93  O   UNL A   1      48.663  32.695  29.658  1.00  0.00    -0.237 OA
ATOM     94  O   UNL A   1      48.540  33.525  27.338  1.00  0.00    -0.744 OA
ENDBRANCH  87  91
ENDBRANCH  61  84
ENDBRANCH  35  36
ENDBRANCH  27  30
ENDBRANCH  25  26
ENDBRANCH  24  25
ENDBRANCH   1  24
TORSDOF 17
ENDMDL
MODEL 3
REMARK VINA RESULT:     -11.1      1.784      2.098
REMARK SMILES Cc1cc2nc(SCC(=O)NCCCNC(=O)c3ccc(-c4c5nc(c(-c6cc(S(=O)(=O)[O-])ccc6F)c6ccc([nH]6)c(-c6cc(S(=O)(=O)[O-])ccc6F)c6nc(c(-c7cc(S(=O)(=O)[O-])ccc7F)c7ccc4[nH]7)C=C6)C=C5)cc3)n(CC(C)C)c(=O)c2[nH]1
REMARK SMILES IDX 12 1 11 2 9 3 10 4 8 6 7 7 6 8 1 9 2 10 3 11 89 12 4 13
REMARK SMILES IDX 88 14 5 16 86 17 81 18 87 19 82 20 83 21 84 22 85 23 13 24
REMARK SMILES IDX 14 25 15 26 16 27 17 29 18 30 19 31 80 32 20 33 79 34 21 35
REMARK SMILES IDX 22 36 23 37 73 38 24 39 78 40 72 41 74 42 25 43 77 44 71 45
REMARK SMILES IDX 70 46 26 48 58 49 38 50 57 51 39 52 42 53 56 54 75 55 40 56
REMARK SMILES IDX 41 57 55 59 76 60 43 61 27 62 28 63 36 64 29 65 35 66 37 67
REMARK SMILES IDX 34 68 30 69 31 70 32 71 33 72 59 73 60 74 68 75 61 76 67 77
REMARK SMILES IDX 69 78 66 79 62 80 63 81 64 82 65 83 44 84 45 85 53 86 46 87
REMARK SMILES IDX 52 88 54 89 51 90 47 91 48 92 49 93 50 94
REMARK H PARENT 11 5 89 15 15 28 74 47 42 58
REMARK Flexibility Score: inf
ROOT
ATOM      1  C   UNL A   1      34.107  30.541  27.761  1.00  0.00     0.117 C 
ENDROOT
BRANCH   1   2
ATOM      2  N   UNL A   1      32.919  29.769  27.446  1.00  0.00    -0.355 N 
ATOM      3  C   UNL A   1      32.853  28.472  27.039  1.00  0.00     0.230 C 
ATOM      4  O   UNL A   1      31.852  27.828  27.353  1.00  0.00    -0.274 OA
ATOM      5  H   UNL A   1      32.059  30.239  27.538  1.00  0.00     0.163 HD
BRANCH   3   6
ATOM      6  C   UNL A   1      34.003  27.786  26.341  1.00  0.00     0.178 C 
BRANCH   6   7
ATOM      7  S   UNL A   1      33.575  26.506  25.202  1.00  0.00    -0.078 SA
BRANCH   7   8
ATOM      8  C   UNL A   1      33.992  24.852  25.599  1.00  0.00     0.172 A 
ATOM      9  C   UNL A   1      37.804  20.358  24.891  1.00  0.00     0.064 C 
ATOM     10  C   UNL A   1      36.888  21.485  25.202  1.00  0.00     0.014 A 
ATOM     11  C   UNL A   1      36.787  22.753  24.648  1.00  0.00     0.052 A 
ATOM     12  N   UNL A   1      35.891  21.361  26.152  1.00  0.00    -0.353 N 
ATOM     13  C   UNL A   1      35.673  23.353  25.247  1.00  0.00     0.097 A 
ATOM     14  C   UNL A   1      35.161  22.517  26.177  1.00  0.00     0.131 A 
ATOM     15  H   UNL A   1      35.732  20.571  26.716  1.00  0.00     0.166 HD
ATOM     16  N   UNL A   1      35.127  24.596  25.001  1.00  0.00    -0.222 NA
ATOM     17  C   UNL A   1      34.024  22.846  26.964  1.00  0.00     0.278 A 
ATOM     18  N   UNL A   1      33.328  23.978  26.475  1.00  0.00    -0.286 N 
ATOM     19  O   UNL A   1      33.724  22.225  27.966  1.00  0.00    -0.267 OA
BRANCH  18  20
ATOM     20  C   UNL A   1      31.969  24.073  27.025  1.00  0.00     0.131 C 
BRANCH  20  21
ATOM     21  C   UNL A   1      30.989  22.974  26.517  1.00  0.00     0.003 C 
ATOM     22  C   UNL A   1      29.565  23.094  27.071  1.00  0.00     0.009 C 
ATOM     23  C   UNL A   1      30.879  23.030  24.986  1.00  0.00     0.009 C 
ENDBRANCH  20  21
ENDBRANCH  18  20
ENDBRANCH   7   8
ENDBRANCH   6   7
ENDBRANCH   3   6
ENDBRANCH   1   2
BRANCH   1  24
ATOM     24  C   UNL A   1      33.904  32.053  27.731  1.00  0.00     0.042 C 
BRANCH  24  25
ATOM     25  C   UNL A   1      34.894  32.793  28.608  1.00  0.00     0.118 C 
BRANCH  25  26
ATOM     26  N   UNL A   1      34.477  32.893  30.009  1.00  0.00    -0.352 N 
ATOM     27  C   UNL A   1      34.980  32.206  31.096  1.00  0.00     0.251 C 
ATOM     28  H   UNL A   1      33.748  33.528  30.199  1.00  0.00     0.163 HD
ATOM     29  O   UNL A   1      34.386  32.207  32.168  1.00  0.00    -0.269 OA
BRANCH  27  30
ATOM     30  C   UNL A   1      36.252  31.479  30.939  1.00  0.00     0.039 A 
ATOM     31  C   UNL A   1      36.287  30.114  30.633  1.00  0.00     0.014 A 
ATOM     32  C   UNL A   1      37.430  32.204  31.095  1.00  0.00     0.014 A 
ATOM     33  C   UNL A   1      37.524  29.504  30.451  1.00  0.00     0.010 A 
ATOM     34  C   UNL A   1      38.623  31.657  30.724  1.00  0.00     0.010 A 
ATOM     35  C   UNL A   1      38.684  30.290  30.504  1.00  0.00    -0.014 A 
BRANCH  35  36
ATOM     36  C   UNL A   1      40.007  29.717  30.359  1.00  0.00     0.031 A 
ATOM     37  C   UNL A   1      40.693  29.362  31.623  1.00  0.00     0.074 A 
ATOM     38  C   UNL A   1      40.455  29.309  29.153  1.00  0.00     0.049 A 
ATOM     39  N   UNL A   1      41.715  29.940  32.160  1.00  0.00    -0.248 NA
ATOM     40  C   UNL A   1      40.082  28.322  32.465  1.00  0.00     0.031 C 
ATOM     41  C   UNL A   1      39.733  29.257  27.871  1.00  0.00     0.029 A 
ATOM     42  N   UNL A   1      41.643  28.735  28.845  1.00  0.00    -0.354 N 
ATOM     43  C   UNL A   1      42.007  29.207  33.308  1.00  0.00     0.074 A 
ATOM     44  C   UNL A   1      40.864  28.361  33.546  1.00  0.00     0.031 C 
ATOM     45  C   UNL A   1      40.411  28.477  27.001  1.00  0.00     0.029 A 
ATOM     46  C   UNL A   1      41.691  28.146  27.593  1.00  0.00     0.049 A 
ATOM     47  H   UNL A   1      42.410  28.738  29.463  1.00  0.00     0.167 HD
ATOM     48  C   UNL A   1      43.260  29.180  33.848  1.00  0.00     0.034 A 
ATOM     49  C   UNL A   1      42.703  27.395  27.100  1.00  0.00     0.034 A 
ATOM     50  C   UNL A   1      44.115  30.157  33.231  1.00  0.00     0.049 A 
ATOM     51  C   UNL A   1      43.909  27.704  27.907  1.00  0.00     0.074 A 
ATOM     52  C   UNL A   1      44.139  31.535  33.174  1.00  0.00     0.029 A 
ATOM     53  N   UNL A   1      44.909  29.713  32.200  1.00  0.00    -0.354 N 
ATOM     54  N   UNL A   1      44.495  28.871  27.919  1.00  0.00    -0.248 NA
ATOM     55  C   UNL A   1      44.195  26.852  29.052  1.00  0.00     0.031 C 
ATOM     56  C   UNL A   1      44.579  31.841  31.854  1.00  0.00     0.029 A 
ATOM     57  C   UNL A   1      44.854  30.640  31.192  1.00  0.00     0.049 A 
ATOM     58  H   UNL A   1      45.428  28.877  32.188  1.00  0.00     0.167 HD
ATOM     59  C   UNL A   1      44.859  29.070  29.244  1.00  0.00     0.074 A 
ATOM     60  C   UNL A   1      44.752  27.753  29.867  1.00  0.00     0.031 C 
ATOM     61  C   UNL A   1      44.938  30.325  29.777  1.00  0.00     0.034 A 
BRANCH  48  62
ATOM     62  C   UNL A   1      43.812  28.046  34.671  1.00  0.00     0.023 A 
ATOM     63  C   UNL A   1      44.110  28.182  36.039  1.00  0.00     0.031 A 
ATOM     64  C   UNL A   1      43.841  26.734  34.157  1.00  0.00     0.131 A 
ATOM     65  C   UNL A   1      44.452  27.079  36.829  1.00  0.00     0.055 A 
ATOM     66  C   UNL A   1      44.116  25.621  34.963  1.00  0.00     0.041 A 
ATOM     67  F   UNL A   1      43.553  26.490  32.869  1.00  0.00    -0.206 F 
ATOM     68  C   UNL A   1      44.427  25.789  36.306  1.00  0.00     0.022 A 
BRANCH  65  69
ATOM     69  S   UNL A   1      44.915  27.309  38.567  1.00  0.00     0.124 S 
ATOM     70  O   UNL A   1      44.818  28.757  38.714  1.00  0.00    -0.237 OA
ATOM     71  O   UNL A   1      43.886  26.531  39.252  1.00  0.00    -0.237 OA
ATOM     72  O   UNL A   1      46.262  26.750  38.638  1.00  0.00    -0.744 OA
ENDBRANCH  65  69
ENDBRANCH  48  62
BRANCH  49  73
ATOM     73  C   UNL A   1      42.544  26.128  26.353  1.00  0.00     0.023 A 
ATOM     74  C   UNL A   1      41.664  25.137  26.832  1.00  0.00     0.031 A 
ATOM     75  C   UNL A   1      43.456  25.756  25.353  1.00  0.00     0.131 A 
ATOM     76  C   UNL A   1      41.747  23.821  26.359  1.00  0.00     0.055 A 
ATOM     77  C   UNL A   1      43.528  24.443  24.872  1.00  0.00     0.041 A 
ATOM     78  F   UNL A   1      44.339  26.646  24.873  1.00  0.00    -0.206 F 
ATOM     79  C   UNL A   1      42.681  23.463  25.386  1.00  0.00     0.022 A 
BRANCH  76  80
ATOM     80  S   UNL A   1      40.679  22.531  27.059  1.00  0.00     0.124 S 
ATOM     81  O   UNL A   1      41.274  22.315  28.375  1.00  0.00    -0.237 OA
ATOM     82  O   UNL A   1      39.378  23.190  27.059  1.00  0.00    -0.237 OA
ATOM     83  O   UNL A   1      40.829  21.419  26.125  1.00  0.00    -0.744 OA
ENDBRANCH  76  80
ENDBRANCH  49  73
BRANCH  61  84
ATOM     84  C   UNL A   1      44.868  31.515  28.846  1.00  0.00     0.023 A 
ATOM     85  C   UNL A   1      46.087  32.014  28.362  1.00  0.00     0.031 A 
ATOM     86  C   UNL A   1      43.718  32.304  28.652  1.00  0.00     0.131 A 
ATOM     87  C   UNL A   1      46.146  33.281  27.771  1.00  0.00     0.055 A 
ATOM     88  C   UNL A   1      43.770  33.541  28.002  1.00  0.00     0.041 A 
ATOM     89  F   UNL A   1      42.535  31.949  29.161  1.00  0.00    -0.206 F 
ATOM     90  C   UNL A   1      44.993  34.046  27.574  1.00  0.00     0.022 A 
BRANCH  87  91
ATOM     91  S   UNL A   1      47.747  34.025  27.376  1.00  0.00     0.124 S 
ATOM     92  O   UNL A   1      47.897  33.706  25.959  1.00  0.00    -0.237 OA
ATOM     93  O   UNL A   1      47.513  35.434  27.680  1.00  0.00    -0.237 OA
ATOM     94  O   UNL A   1      48.683  33.344  28.267  1.00  0.00    -0.744 OA
ENDBRANCH  87  91
ENDBRANCH  61  84
ENDBRANCH  35  36
ENDBRANCH  27  30
ENDBRANCH  25  26
ENDBRANCH  24  25
ENDBRANCH   1  24
TORSDOF 17
ENDMDL
