MODEL 1
REMARK VINA RESULT:     -11.7      0.000      0.000
REMARK SMILES C[C@@H]1[NH2+]CC[C@@H]1C(=O)Nc1ccccc1CC(=O)NCCCNC(=O)c1ccc(-c2c3nc(c(-c4cc(S(=O)(=O)[O-])ccc4F)c4ccc([nH]4)c(-c4cc(S(=O)(=O)[O-])ccc4F)c4nc(c(-c5cc(S(=O)(=O)[O-])ccc5F)c5ccc2[nH]5)C=C4)C=C3)cc1
REMARK SMILES IDX 21 1 20 2 19 3 17 4 18 5 16 7 15 8 10 9 11 10 12 11 14 12
REMARK SMILES IDX 13 13 9 14 7 15 8 16 6 18 1 19 2 20 3 21 4 22 5 25 22 26
REMARK SMILES IDX 23 27 24 28 25 30 26 31 27 32 88 33 28 34 87 35 29 36 30 37
REMARK SMILES IDX 31 38 81 39 32 40 86 41 80 42 82 43 33 44 85 45 79 46 78 47
REMARK SMILES IDX 34 49 66 50 46 51 65 52 47 53 50 54 64 55 83 56 48 57 49 58
REMARK SMILES IDX 63 60 84 61 51 62 35 63 36 64 44 65 37 66 43 67 45 68 42 69
REMARK SMILES IDX 38 70 39 71 40 72 41 73 67 74 68 75 76 76 69 77 75 78 77 79
REMARK SMILES IDX 74 80 70 81 71 82 72 83 73 84 52 85 53 86 61 87 54 88 60 89
REMARK SMILES IDX 62 90 59 91 55 92 56 93 57 94 58 95
REMARK H PARENT 19 6 9 17 3 23 3 24 23 29 82 48 50 59
REMARK Flexibility Score: inf
ROOT
ATOM      1  C   UNL A   1      33.049  28.190  27.012  1.00  0.00     0.042 C 
ENDROOT
BRANCH   1   2
ATOM      2  C   UNL A   1      31.749  27.863  26.284  1.00  0.00     0.117 C 
BRANCH   2   3
ATOM      3  N   UNL A   1      31.129  26.683  26.845  1.00  0.00    -0.356 N 
ATOM      4  C   UNL A   1      31.402  25.384  26.535  1.00  0.00     0.224 C 
ATOM      5  O   UNL A   1      30.569  24.522  26.818  1.00  0.00    -0.275 OA
ATOM      6  H   UNL A   1      30.433  26.835  27.525  1.00  0.00     0.163 HD
BRANCH   4   7
ATOM      7  C   UNL A   1      32.756  25.020  25.963  1.00  0.00     0.137 C 
BRANCH   7   8
ATOM      8  C   UNL A   1      32.837  24.707  24.488  1.00  0.00    -0.015 A 
ATOM      9  C   UNL A   1      32.533  23.461  23.908  1.00  0.00     0.044 A 
ATOM     10  C   UNL A   1      32.767  23.267  22.531  1.00  0.00     0.026 A 
ATOM     11  C   UNL A   1      33.192  24.303  21.707  1.00  0.00     0.002 A 
ATOM     12  C   UNL A   1      33.272  25.747  23.633  1.00  0.00     0.006 A 
ATOM     13  C   UNL A   1      33.432  25.551  22.257  1.00  0.00     0.000 A 
BRANCH   9  14
ATOM     14  N   UNL A   1      32.127  22.286  24.556  1.00  0.00    -0.325 N 
ATOM     15  C   UNL A   1      32.663  21.114  24.954  1.00  0.00     0.233 C 
ATOM     16  O   UNL A   1      31.884  20.155  24.799  1.00  0.00    -0.274 OA
ATOM     17  H   UNL A   1      31.171  22.328  24.788  1.00  0.00     0.169 HD
BRANCH  15  18
ATOM     18  C   UNL A   1      33.864  20.926  25.901  1.00  0.00     0.142 C 
ATOM     19  C   UNL A   1      33.311  22.275  28.150  1.00  0.00     0.076 C 
ATOM     20  C   UNL A   1      34.296  21.680  27.164  1.00  0.00     0.192 C 
ATOM     21  N   UNL A   1      35.401  22.588  26.801  1.00  0.00    -0.343 N 
ATOM     22  C   UNL A   1      35.641  22.444  25.369  1.00  0.00     0.261 C 
ATOM     23  H   UNL A   1      36.241  22.337  27.321  1.00  0.00     0.346 HD
ATOM     24  H   UNL A   1      35.160  23.553  27.027  1.00  0.00     0.346 HD
ATOM     25  C   UNL A   1      35.155  21.044  25.058  1.00  0.00     0.081 C 
ENDBRANCH  15  18
ENDBRANCH   9  14
ENDBRANCH   7   8
ENDBRANCH   4   7
ENDBRANCH   2   3
ENDBRANCH   1   2
BRANCH   1  26
ATOM     26  C   UNL A   1      33.909  29.186  26.251  1.00  0.00     0.118 C 
BRANCH  26  27
ATOM     27  N   UNL A   1      33.670  30.550  26.688  1.00  0.00    -0.352 N 
ATOM     28  C   UNL A   1      34.326  31.264  27.657  1.00  0.00     0.251 C 
ATOM     29  H   UNL A   1      32.941  31.024  26.228  1.00  0.00     0.163 HD
ATOM     30  O   UNL A   1      33.856  32.321  28.051  1.00  0.00    -0.269 OA
BRANCH  28  31
ATOM     31  C   UNL A   1      35.582  30.731  28.224  1.00  0.00     0.039 A 
ATOM     32  C   UNL A   1      36.790  31.284  27.800  1.00  0.00     0.014 A 
ATOM     33  C   UNL A   1      35.569  29.682  29.150  1.00  0.00     0.014 A 
ATOM     34  C   UNL A   1      37.987  30.790  28.316  1.00  0.00     0.010 A 
ATOM     35  C   UNL A   1      36.757  29.257  29.733  1.00  0.00     0.010 A 
ATOM     36  C   UNL A   1      37.979  29.781  29.294  1.00  0.00    -0.014 A 
BRANCH  36  37
ATOM     37  C   UNL A   1      39.253  29.222  29.806  1.00  0.00     0.031 A 
ATOM     38  C   UNL A   1      39.873  29.797  31.053  1.00  0.00     0.074 A 
ATOM     39  C   UNL A   1      39.847  28.209  29.147  1.00  0.00     0.049 A 
ATOM     40  N   UNL A   1      40.967  29.439  31.674  1.00  0.00    -0.248 NA
ATOM     41  C   UNL A   1      39.189  30.947  31.664  1.00  0.00     0.031 C 
ATOM     42  C   UNL A   1      39.359  27.612  27.900  1.00  0.00     0.029 A 
ATOM     43  N   UNL A   1      40.979  27.493  29.435  1.00  0.00    -0.354 N 
ATOM     44  C   UNL A   1      41.104  30.322  32.739  1.00  0.00     0.074 A 
ATOM     45  C   UNL A   1      40.028  31.281  32.631  1.00  0.00     0.031 C 
ATOM     46  C   UNL A   1      40.161  26.593  27.558  1.00  0.00     0.029 A 
ATOM     47  C   UNL A   1      41.240  26.488  28.534  1.00  0.00     0.049 A 
ATOM     48  H   UNL A   1      41.552  27.681  30.213  1.00  0.00     0.167 HD
ATOM     49  C   UNL A   1      42.024  30.314  33.737  1.00  0.00     0.034 A 
ATOM     50  C   UNL A   1      42.236  25.582  28.505  1.00  0.00     0.034 A 
ATOM     51  C   UNL A   1      43.081  29.337  33.830  1.00  0.00     0.049 A 
ATOM     52  C   UNL A   1      43.248  25.591  29.624  1.00  0.00     0.074 A 
ATOM     53  C   UNL A   1      44.043  29.197  34.814  1.00  0.00     0.029 A 
ATOM     54  N   UNL A   1      43.317  28.331  32.899  1.00  0.00    -0.354 N 
ATOM     55  N   UNL A   1      43.330  26.396  30.659  1.00  0.00    -0.248 NA
ATOM     56  C   UNL A   1      44.286  24.556  29.580  1.00  0.00     0.031 C 
ATOM     57  C   UNL A   1      44.900  28.155  34.445  1.00  0.00     0.029 A 
ATOM     58  C   UNL A   1      44.426  27.587  33.273  1.00  0.00     0.049 A 
ATOM     59  H   UNL A   1      42.776  28.171  32.093  1.00  0.00     0.167 HD
ATOM     60  C   UNL A   1      44.414  25.943  31.406  1.00  0.00     0.074 A 
ATOM     61  C   UNL A   1      44.932  24.779  30.714  1.00  0.00     0.031 C 
ATOM     62  C   UNL A   1      44.936  26.439  32.558  1.00  0.00     0.034 A 
BRANCH  49  63
ATOM     63  C   UNL A   1      41.931  31.406  34.777  1.00  0.00     0.023 A 
ATOM     64  C   UNL A   1      40.915  31.419  35.751  1.00  0.00     0.031 A 
ATOM     65  C   UNL A   1      42.846  32.474  34.774  1.00  0.00     0.131 A 
ATOM     66  C   UNL A   1      40.788  32.512  36.621  1.00  0.00     0.055 A 
ATOM     67  C   UNL A   1      42.767  33.515  35.701  1.00  0.00     0.041 A 
ATOM     68  F   UNL A   1      43.824  32.534  33.856  1.00  0.00    -0.206 F 
ATOM     69  C   UNL A   1      41.723  33.547  36.621  1.00  0.00     0.022 A 
BRANCH  66  70
ATOM     70  S   UNL A   1      39.295  32.636  37.644  1.00  0.00     0.124 S 
ATOM     71  O   UNL A   1      39.859  32.605  38.993  1.00  0.00    -0.237 OA
ATOM     72  O   UNL A   1      38.725  33.909  37.220  1.00  0.00    -0.237 OA
ATOM     73  O   UNL A   1      38.525  31.451  37.272  1.00  0.00    -0.744 OA
ENDBRANCH  66  70
ENDBRANCH  49  63
BRANCH  50  74
ATOM     74  C   UNL A   1      42.326  24.588  27.397  1.00  0.00     0.023 A 
ATOM     75  C   UNL A   1      41.542  23.424  27.399  1.00  0.00     0.031 A 
ATOM     76  C   UNL A   1      43.231  24.770  26.335  1.00  0.00     0.131 A 
ATOM     77  C   UNL A   1      41.714  22.461  26.393  1.00  0.00     0.055 A 
ATOM     78  C   UNL A   1      43.359  23.836  25.305  1.00  0.00     0.041 A 
ATOM     79  F   UNL A   1      44.000  25.868  26.278  1.00  0.00    -0.206 F 
ATOM     80  C   UNL A   1      42.608  22.664  25.339  1.00  0.00     0.022 A 
BRANCH  77  81
ATOM     81  S   UNL A   1      40.818  20.889  26.531  1.00  0.00     0.124 S 
ATOM     82  O   UNL A   1      41.654  19.999  25.734  1.00  0.00    -0.237 OA
ATOM     83  O   UNL A   1      40.829  20.662  27.972  1.00  0.00    -0.237 OA
ATOM     84  O   UNL A   1      39.508  21.194  25.960  1.00  0.00    -0.744 OA
ENDBRANCH  77  81
ENDBRANCH  50  74
BRANCH  62  85
ATOM     85  C   UNL A   1      46.107  25.690  33.150  1.00  0.00     0.023 A 
ATOM     86  C   UNL A   1      45.923  24.575  33.987  1.00  0.00     0.031 A 
ATOM     87  C   UNL A   1      47.422  26.121  32.904  1.00  0.00     0.131 A 
ATOM     88  C   UNL A   1      47.029  23.982  34.612  1.00  0.00     0.055 A 
ATOM     89  C   UNL A   1      48.524  25.479  33.468  1.00  0.00     0.041 A 
ATOM     90  F   UNL A   1      47.658  27.181  32.114  1.00  0.00    -0.206 F 
ATOM     91  C   UNL A   1      48.330  24.414  34.343  1.00  0.00     0.022 A 
BRANCH  88  92
ATOM     92  S   UNL A   1      46.733  22.724  35.886  1.00  0.00     0.124 S 
ATOM     93  O   UNL A   1      45.289  22.816  36.072  1.00  0.00    -0.237 OA
ATOM     94  O   UNL A   1      47.216  21.508  35.240  1.00  0.00    -0.237 OA
ATOM     95  O   UNL A   1      47.535  23.187  37.016  1.00  0.00    -0.744 OA
ENDBRANCH  88  92
ENDBRANCH  62  85
ENDBRANCH  36  37
ENDBRANCH  28  31
ENDBRANCH  26  27
ENDBRANCH   1  26
TORSDOF 16
ENDMDL
MODEL 2
REMARK VINA RESULT:     -11.7      5.058     10.018
REMARK SMILES C[C@@H]1[NH2+]CC[C@@H]1C(=O)Nc1ccccc1CC(=O)NCCCNC(=O)c1ccc(-c2c3nc(c(-c4cc(S(=O)(=O)[O-])ccc4F)c4ccc([nH]4)c(-c4cc(S(=O)(=O)[O-])ccc4F)c4nc(c(-c5cc(S(=O)(=O)[O-])ccc5F)c5ccc2[nH]5)C=C4)C=C3)cc1
REMARK SMILES IDX 21 1 20 2 19 3 17 4 18 5 16 7 15 8 10 9 11 10 12 11 14 12
REMARK SMILES IDX 13 13 9 14 7 15 8 16 6 18 1 19 2 20 3 21 4 22 5 25 22 26
REMARK SMILES IDX 23 27 24 28 25 30 26 31 27 32 88 33 28 34 87 35 29 36 30 37
REMARK SMILES IDX 31 38 81 39 32 40 86 41 80 42 82 43 33 44 85 45 79 46 78 47
REMARK SMILES IDX 34 49 66 50 46 51 65 52 47 53 50 54 64 55 83 56 48 57 49 58
REMARK SMILES IDX 63 60 84 61 51 62 35 63 36 64 44 65 37 66 43 67 45 68 42 69
REMARK SMILES IDX 38 70 39 71 40 72 41 73 67 74 68 75 76 76 69 77 75 78 77 79
REMARK SMILES IDX 74 80 70 81 71 82 72 83 73 84 52 85 53 86 61 87 54 88 60 89
REMARK SMILES IDX 62 90 59 91 55 92 56 93 57 94 58 95
REMARK H PARENT 19 6 9 17 3 23 3 24 23 29 82 48 50 59
REMARK Flexibility Score: inf
ROOT
ATOM      1  C   UNL A   1      36.305  22.977  24.271  1.00  0.00     0.042 C 
ENDROOT
BRANCH   1   2
ATOM      2  C   UNL A   1      34.826  23.326  24.141  1.00  0.00     0.117 C 
BRANCH   2   3
ATOM      3  N   UNL A   1      34.657  24.623  23.524  1.00  0.00    -0.356 N 
ATOM      4  C   UNL A   1      34.124  25.741  24.094  1.00  0.00     0.224 C 
ATOM      5  O   UNL A   1      33.723  26.644  23.358  1.00  0.00    -0.275 OA
ATOM      6  H   UNL A   1      34.960  24.708  22.591  1.00  0.00     0.163 HD
BRANCH   4   7
ATOM      7  C   UNL A   1      34.144  25.896  25.600  1.00  0.00     0.137 C 
BRANCH   7   8
ATOM      8  C   UNL A   1      33.418  27.078  26.196  1.00  0.00    -0.015 A 
ATOM      9  C   UNL A   1      32.082  27.067  26.641  1.00  0.00     0.044 A 
ATOM     10  C   UNL A   1      31.487  28.272  27.065  1.00  0.00     0.026 A 
ATOM     11  C   UNL A   1      32.213  29.455  27.157  1.00  0.00     0.002 A 
ATOM     12  C   UNL A   1      34.138  28.292  26.294  1.00  0.00     0.006 A 
ATOM     13  C   UNL A   1      33.546  29.462  26.783  1.00  0.00     0.000 A 
BRANCH   9  14
ATOM     14  N   UNL A   1      31.172  26.001  26.604  1.00  0.00    -0.325 N 
ATOM     15  C   UNL A   1      29.969  25.717  26.065  1.00  0.00     0.233 C 
ATOM     16  O   UNL A   1      29.250  25.045  26.828  1.00  0.00    -0.274 OA
ATOM     17  H   UNL A   1      31.510  25.236  27.124  1.00  0.00     0.169 HD
BRANCH  15  18
ATOM     18  C   UNL A   1      29.596  25.761  24.571  1.00  0.00     0.142 C 
ATOM     19  C   UNL A   1      31.147  23.967  23.321  1.00  0.00     0.076 C 
ATOM     20  C   UNL A   1      30.316  25.235  23.323  1.00  0.00     0.192 C 
ATOM     21  N   UNL A   1      30.965  26.377  22.651  1.00  0.00    -0.343 N 
ATOM     22  C   UNL A   1      30.699  27.569  23.449  1.00  0.00     0.261 C 
ATOM     23  H   UNL A   1      30.580  26.492  21.714  1.00  0.00     0.346 HD
ATOM     24  H   UNL A   1      31.970  26.219  22.568  1.00  0.00     0.346 HD
ATOM     25  C   UNL A   1      29.409  27.243  24.171  1.00  0.00     0.081 C 
ENDBRANCH  15  18
ENDBRANCH   9  14
ENDBRANCH   7   8
ENDBRANCH   4   7
ENDBRANCH   2   3
ENDBRANCH   1   2
BRANCH   1  26
ATOM     26  C   UNL A   1      36.855  23.275  25.657  1.00  0.00     0.118 C 
BRANCH  26  27
ATOM     27  N   UNL A   1      37.840  22.292  26.070  1.00  0.00    -0.352 N 
ATOM     28  C   UNL A   1      39.090  22.502  26.593  1.00  0.00     0.251 C 
ATOM     29  H   UNL A   1      37.575  21.350  25.961  1.00  0.00     0.163 HD
ATOM     30  O   UNL A   1      39.873  21.568  26.680  1.00  0.00    -0.269 OA
BRANCH  28  31
ATOM     31  C   UNL A   1      39.476  23.862  27.022  1.00  0.00     0.039 A 
ATOM     32  C   UNL A   1      40.002  24.735  26.071  1.00  0.00     0.014 A 
ATOM     33  C   UNL A   1      39.338  24.266  28.355  1.00  0.00     0.014 A 
ATOM     34  C   UNL A   1      40.380  26.020  26.455  1.00  0.00     0.010 A 
ATOM     35  C   UNL A   1      39.627  25.577  28.716  1.00  0.00     0.010 A 
ATOM     36  C   UNL A   1      40.186  26.454  27.777  1.00  0.00    -0.014 A 
BRANCH  36  37
ATOM     37  C   UNL A   1      40.633  27.804  28.198  1.00  0.00     0.031 A 
ATOM     38  C   UNL A   1      42.083  28.187  28.063  1.00  0.00     0.074 A 
ATOM     39  C   UNL A   1      39.736  28.673  28.702  1.00  0.00     0.049 A 
ATOM     40  N   UNL A   1      42.671  29.319  28.353  1.00  0.00    -0.248 NA
ATOM     41  C   UNL A   1      43.000  27.148  27.568  1.00  0.00     0.031 C 
ATOM     42  C   UNL A   1      38.315  28.386  28.924  1.00  0.00     0.029 A 
ATOM     43  N   UNL A   1      39.878  29.973  29.108  1.00  0.00    -0.354 N 
ATOM     44  C   UNL A   1      44.021  29.125  28.083  1.00  0.00     0.074 A 
ATOM     45  C   UNL A   1      44.175  27.744  27.685  1.00  0.00     0.031 C 
ATOM     46  C   UNL A   1      37.711  29.493  29.382  1.00  0.00     0.029 A 
ATOM     47  C   UNL A   1      38.703  30.554  29.524  1.00  0.00     0.049 A 
ATOM     48  H   UNL A   1      40.740  30.449  29.103  1.00  0.00     0.167 HD
ATOM     49  C   UNL A   1      45.034  30.026  28.129  1.00  0.00     0.034 A 
ATOM     50  C   UNL A   1      38.456  31.802  29.965  1.00  0.00     0.034 A 
ATOM     51  C   UNL A   1      44.852  31.403  28.515  1.00  0.00     0.049 A 
ATOM     52  C   UNL A   1      39.597  32.787  30.008  1.00  0.00     0.074 A 
ATOM     53  C   UNL A   1      45.789  32.420  28.557  1.00  0.00     0.029 A 
ATOM     54  N   UNL A   1      43.647  31.958  28.932  1.00  0.00    -0.354 N 
ATOM     55  N   UNL A   1      40.860  32.605  29.692  1.00  0.00    -0.248 NA
ATOM     56  C   UNL A   1      39.274  34.148  30.447  1.00  0.00     0.031 C 
ATOM     57  C   UNL A   1      45.169  33.567  29.063  1.00  0.00     0.029 A 
ATOM     58  C   UNL A   1      43.824  33.294  29.259  1.00  0.00     0.049 A 
ATOM     59  H   UNL A   1      42.792  31.472  28.986  1.00  0.00     0.167 HD
ATOM     60  C   UNL A   1      41.475  33.842  29.866  1.00  0.00     0.074 A 
ATOM     61  C   UNL A   1      40.437  34.762  30.287  1.00  0.00     0.031 C 
ATOM     62  C   UNL A   1      42.777  34.190  29.693  1.00  0.00     0.034 A 
BRANCH  49  63
ATOM     63  C   UNL A   1      46.419  29.533  27.776  1.00  0.00     0.023 A 
ATOM     64  C   UNL A   1      46.739  29.087  26.480  1.00  0.00     0.031 A 
ATOM     65  C   UNL A   1      47.424  29.469  28.756  1.00  0.00     0.131 A 
ATOM     66  C   UNL A   1      47.998  28.522  26.221  1.00  0.00     0.055 A 
ATOM     67  C   UNL A   1      48.704  28.987  28.470  1.00  0.00     0.041 A 
ATOM     68  F   UNL A   1      47.176  29.856  30.017  1.00  0.00    -0.206 F 
ATOM     69  C   UNL A   1      48.991  28.495  27.201  1.00  0.00     0.022 A 
BRANCH  66  70
ATOM     70  S   UNL A   1      48.262  27.683  24.635  1.00  0.00     0.124 S 
ATOM     71  O   UNL A   1      48.003  26.289  24.992  1.00  0.00    -0.237 OA
ATOM     72  O   UNL A   1      47.270  28.316  23.774  1.00  0.00    -0.237 OA
ATOM     73  O   UNL A   1      49.654  27.987  24.313  1.00  0.00    -0.744 OA
ENDBRANCH  66  70
ENDBRANCH  49  63
BRANCH  50  74
ATOM     74  C   UNL A   1      37.082  32.199  30.389  1.00  0.00     0.023 A 
ATOM     75  C   UNL A   1      36.169  32.747  29.475  1.00  0.00     0.031 A 
ATOM     76  C   UNL A   1      36.675  32.074  31.731  1.00  0.00     0.131 A 
ATOM     77  C   UNL A   1      34.917  33.199  29.920  1.00  0.00     0.055 A 
ATOM     78  C   UNL A   1      35.408  32.473  32.158  1.00  0.00     0.041 A 
ATOM     79  F   UNL A   1      37.506  31.550  32.646  1.00  0.00    -0.206 F 
ATOM     80  C   UNL A   1      34.525  33.053  31.253  1.00  0.00     0.022 A 
BRANCH  77  81
ATOM     81  S   UNL A   1      33.839  34.068  28.748  1.00  0.00     0.124 S 
ATOM     82  O   UNL A   1      34.732  35.095  28.226  1.00  0.00    -0.237 OA
ATOM     83  O   UNL A   1      33.478  32.999  27.822  1.00  0.00    -0.237 OA
ATOM     84  O   UNL A   1      32.747  34.555  29.588  1.00  0.00    -0.744 OA
ENDBRANCH  77  81
ENDBRANCH  50  74
BRANCH  62  85
ATOM     85  C   UNL A   1      43.129  35.640  29.929  1.00  0.00     0.023 A 
ATOM     86  C   UNL A   1      43.032  36.599  28.905  1.00  0.00     0.031 A 
ATOM     87  C   UNL A   1      43.603  36.059  31.184  1.00  0.00     0.131 A 
ATOM     88  C   UNL A   1      43.482  37.908  29.131  1.00  0.00     0.055 A 
ATOM     89  C   UNL A   1      43.976  37.382  31.425  1.00  0.00     0.041 A 
ATOM     90  F   UNL A   1      43.717  35.187  32.199  1.00  0.00    -0.206 F 
ATOM     91  C   UNL A   1      43.935  38.310  30.389  1.00  0.00     0.022 A 
BRANCH  88  92
ATOM     92  S   UNL A   1      43.591  39.041  27.719  1.00  0.00     0.124 S 
ATOM     93  O   UNL A   1      43.766  40.331  28.379  1.00  0.00    -0.237 OA
ATOM     94  O   UNL A   1      44.753  38.532  26.999  1.00  0.00    -0.237 OA
ATOM     95  O   UNL A   1      42.311  38.863  27.036  1.00  0.00    -0.744 OA
ENDBRANCH  88  92
ENDBRANCH  62  85
ENDBRANCH  36  37
ENDBRANCH  28  31
ENDBRANCH  26  27
ENDBRANCH   1  26
TORSDOF 16
ENDMDL
MODEL 3
REMARK VINA RESULT:     -11.7      1.323      1.486
REMARK SMILES C[C@@H]1[NH2+]CC[C@@H]1C(=O)Nc1ccccc1CC(=O)NCCCNC(=O)c1ccc(-c2c3nc(c(-c4cc(S(=O)(=O)[O-])ccc4F)c4ccc([nH]4)c(-c4cc(S(=O)(=O)[O-])ccc4F)c4nc(c(-c5cc(S(=O)(=O)[O-])ccc5F)c5ccc2[nH]5)C=C4)C=C3)cc1
REMARK SMILES IDX 21 1 20 2 19 3 17 4 18 5 16 7 15 8 10 9 11 10 12 11 14 12
REMARK SMILES IDX 13 13 9 14 7 15 8 16 6 18 1 19 2 20 3 21 4 22 5 25 22 26
REMARK SMILES IDX 23 27 24 28 25 30 26 31 27 32 88 33 28 34 87 35 29 36 30 37
REMARK SMILES IDX 31 38 81 39 32 40 86 41 80 42 82 43 33 44 85 45 79 46 78 47
REMARK SMILES IDX 34 49 66 50 46 51 65 52 47 53 50 54 64 55 83 56 48 57 49 58
REMARK SMILES IDX 63 60 84 61 51 62 35 63 36 64 44 65 37 66 43 67 45 68 42 69
REMARK SMILES IDX 38 70 39 71 40 72 41 73 67 74 68 75 76 76 69 77 75 78 77 79
REMARK SMILES IDX 74 80 70 81 71 82 72 83 73 84 52 85 53 86 61 87 54 88 60 89
REMARK SMILES IDX 62 90 59 91 55 92 56 93 57 94 58 95
REMARK H PARENT 19 6 9 17 3 23 3 24 23 29 82 48 50 59
REMARK Flexibility Score: inf
ROOT
ATOM      1  C   UNL A   1      33.081  28.212  27.032  1.00  0.00     0.042 C 
ENDROOT
BRANCH   1   2
ATOM      2  C   UNL A   1      31.751  27.919  26.343  1.00  0.00     0.117 C 
BRANCH   2   3
ATOM      3  N   UNL A   1      31.136  26.734  26.898  1.00  0.00    -0.356 N 
ATOM      4  C   UNL A   1      31.406  25.438  26.572  1.00  0.00     0.224 C 
ATOM      5  O   UNL A   1      30.576  24.574  26.855  1.00  0.00    -0.275 OA
ATOM      6  H   UNL A   1      30.446  26.879  27.586  1.00  0.00     0.163 HD
BRANCH   4   7
ATOM      7  C   UNL A   1      32.755  25.080  25.984  1.00  0.00     0.137 C 
BRANCH   7   8
ATOM      8  C   UNL A   1      32.823  24.793  24.503  1.00  0.00    -0.015 A 
ATOM      9  C   UNL A   1      32.522  23.554  23.905  1.00  0.00     0.044 A 
ATOM     10  C   UNL A   1      32.744  23.384  22.523  1.00  0.00     0.026 A 
ATOM     11  C   UNL A   1      33.154  24.437  21.712  1.00  0.00     0.002 A 
ATOM     12  C   UNL A   1      33.243  25.849  23.661  1.00  0.00     0.006 A 
ATOM     13  C   UNL A   1      33.391  25.677  22.281  1.00  0.00     0.000 A 
BRANCH   9  14
ATOM     14  N   UNL A   1      32.131  22.366  24.537  1.00  0.00    -0.325 N 
ATOM     15  C   UNL A   1      32.678  21.190  24.908  1.00  0.00     0.233 C 
ATOM     16  O   UNL A   1      31.902  20.229  24.745  1.00  0.00    -0.274 OA
ATOM     17  H   UNL A   1      31.178  22.398  24.782  1.00  0.00     0.169 HD
BRANCH  15  18
ATOM     18  C   UNL A   1      33.892  20.991  25.836  1.00  0.00     0.142 C 
ATOM     19  C   UNL A   1      33.338  22.253  28.135  1.00  0.00     0.076 C 
ATOM     20  C   UNL A   1      34.324  21.710  27.120  1.00  0.00     0.192 C 
ATOM     21  N   UNL A   1      35.408  22.650  26.777  1.00  0.00    -0.343 N 
ATOM     22  C   UNL A   1      35.635  22.559  25.339  1.00  0.00     0.261 C 
ATOM     23  H   UNL A   1      36.258  22.397  27.280  1.00  0.00     0.346 HD
ATOM     24  H   UNL A   1      35.152  23.602  27.039  1.00  0.00     0.346 HD
ATOM     25  C   UNL A   1      35.172  21.162  24.985  1.00  0.00     0.081 C 
ENDBRANCH  15  18
ENDBRANCH   9  14
ENDBRANCH   7   8
ENDBRANCH   4   7
ENDBRANCH   2   3
ENDBRANCH   1   2
BRANCH   1  26
ATOM     26  C   UNL A   1      33.930  29.207  26.259  1.00  0.00     0.118 C 
BRANCH  26  27
ATOM     27  N   UNL A   1      33.697  30.572  26.696  1.00  0.00    -0.352 N 
ATOM     28  C   UNL A   1      34.360  31.286  27.661  1.00  0.00     0.251 C 
ATOM     29  H   UNL A   1      32.966  31.048  26.238  1.00  0.00     0.163 HD
ATOM     30  O   UNL A   1      33.894  32.344  28.056  1.00  0.00    -0.269 OA
BRANCH  28  31
ATOM     31  C   UNL A   1      35.617  30.750  28.222  1.00  0.00     0.039 A 
ATOM     32  C   UNL A   1      36.824  31.307  27.800  1.00  0.00     0.014 A 
ATOM     33  C   UNL A   1      35.607  29.695  29.141  1.00  0.00     0.014 A 
ATOM     34  C   UNL A   1      38.022  30.811  28.310  1.00  0.00     0.010 A 
ATOM     35  C   UNL A   1      36.796  29.267  29.719  1.00  0.00     0.010 A 
ATOM     36  C   UNL A   1      38.017  29.796  29.281  1.00  0.00    -0.014 A 
BRANCH  36  37
ATOM     37  C   UNL A   1      39.293  29.235  29.788  1.00  0.00     0.031 A 
ATOM     38  C   UNL A   1      39.924  29.814  31.027  1.00  0.00     0.074 A 
ATOM     39  C   UNL A   1      39.878  28.216  29.130  1.00  0.00     0.049 A 
ATOM     40  N   UNL A   1      41.021  29.455  31.642  1.00  0.00    -0.248 NA
ATOM     41  C   UNL A   1      39.248  30.971  31.636  1.00  0.00     0.031 C 
ATOM     42  C   UNL A   1      39.378  27.614  27.890  1.00  0.00     0.029 A 
ATOM     43  N   UNL A   1      41.009  27.497  29.413  1.00  0.00    -0.354 N 
ATOM     44  C   UNL A   1      41.169  30.344  32.701  1.00  0.00     0.074 A 
ATOM     45  C   UNL A   1      40.095  31.306  32.595  1.00  0.00     0.031 C 
ATOM     46  C   UNL A   1      40.174  26.590  27.548  1.00  0.00     0.029 A 
ATOM     47  C   UNL A   1      41.260  26.486  28.517  1.00  0.00     0.049 A 
ATOM     48  H   UNL A   1      41.588  27.688  30.187  1.00  0.00     0.167 HD
ATOM     49  C   UNL A   1      42.096  30.338  33.692  1.00  0.00     0.034 A 
ATOM     50  C   UNL A   1      42.252  25.576  28.486  1.00  0.00     0.034 A 
ATOM     51  C   UNL A   1      43.150  29.358  33.783  1.00  0.00     0.049 A 
ATOM     52  C   UNL A   1      43.272  25.587  29.597  1.00  0.00     0.074 A 
ATOM     53  C   UNL A   1      44.118  29.219  34.761  1.00  0.00     0.029 A 
ATOM     54  N   UNL A   1      43.375  28.346  32.856  1.00  0.00    -0.354 N 
ATOM     55  N   UNL A   1      43.365  26.398  30.627  1.00  0.00    -0.248 NA
ATOM     56  C   UNL A   1      44.306  24.548  29.551  1.00  0.00     0.031 C 
ATOM     57  C   UNL A   1      44.969  28.172  34.391  1.00  0.00     0.029 A 
ATOM     58  C   UNL A   1      44.484  27.599  33.226  1.00  0.00     0.049 A 
ATOM     59  H   UNL A   1      42.827  28.183  32.055  1.00  0.00     0.167 HD
ATOM     60  C   UNL A   1      44.453  25.945  31.369  1.00  0.00     0.074 A 
ATOM     61  C   UNL A   1      44.961  24.775  30.679  1.00  0.00     0.031 C 
ATOM     62  C   UNL A   1      44.985  26.445  32.515  1.00  0.00     0.034 A 
BRANCH  49  63
ATOM     63  C   UNL A   1      42.015  31.437  34.726  1.00  0.00     0.023 A 
ATOM     64  C   UNL A   1      41.028  31.438  35.730  1.00  0.00     0.031 A 
ATOM     65  C   UNL A   1      42.909  32.520  34.688  1.00  0.00     0.131 A 
ATOM     66  C   UNL A   1      40.907  32.536  36.597  1.00  0.00     0.055 A 
ATOM     67  C   UNL A   1      42.839  33.567  35.610  1.00  0.00     0.041 A 
ATOM     68  F   UNL A   1      43.858  32.591  33.741  1.00  0.00    -0.206 F 
ATOM     69  C   UNL A   1      41.824  33.587  36.561  1.00  0.00     0.022 A 
BRANCH  66  70
ATOM     70  S   UNL A   1      39.445  32.641  37.663  1.00  0.00     0.124 S 
ATOM     71  O   UNL A   1      40.049  32.626  38.994  1.00  0.00    -0.237 OA
ATOM     72  O   UNL A   1      38.841  33.902  37.249  1.00  0.00    -0.237 OA
ATOM     73  O   UNL A   1      38.683  31.442  37.320  1.00  0.00    -0.744 OA
ENDBRANCH  66  70
ENDBRANCH  49  63
BRANCH  50  74
ATOM     74  C   UNL A   1      42.330  24.576  27.382  1.00  0.00     0.023 A 
ATOM     75  C   UNL A   1      41.537  23.417  27.394  1.00  0.00     0.031 A 
ATOM     76  C   UNL A   1      43.233  24.744  26.316  1.00  0.00     0.131 A 
ATOM     77  C   UNL A   1      41.698  22.448  26.392  1.00  0.00     0.055 A 
ATOM     78  C   UNL A   1      43.350  23.804  25.291  1.00  0.00     0.041 A 
ATOM     79  F   UNL A   1      44.010  25.836  26.251  1.00  0.00    -0.206 F 
ATOM     80  C   UNL A   1      42.590  22.639  25.333  1.00  0.00     0.022 A 
BRANCH  77  81
ATOM     81  S   UNL A   1      40.790  20.884  26.541  1.00  0.00     0.124 S 
ATOM     82  O   UNL A   1      41.611  19.985  25.739  1.00  0.00    -0.237 OA
ATOM     83  O   UNL A   1      40.813  20.659  27.983  1.00  0.00    -0.237 OA
ATOM     84  O   UNL A   1      39.477  21.199  25.983  1.00  0.00    -0.744 OA
ENDBRANCH  77  81
ENDBRANCH  50  74
BRANCH  62  85
ATOM     85  C   UNL A   1      46.156  25.695  33.102  1.00  0.00     0.023 A 
ATOM     86  C   UNL A   1      47.462  25.857  32.606  1.00  0.00     0.031 A 
ATOM     87  C   UNL A   1      45.957  24.777  34.149  1.00  0.00     0.131 A 
ATOM     88  C   UNL A   1      48.500  25.054  33.098  1.00  0.00     0.055 A 
ATOM     89  C   UNL A   1      47.009  24.036  34.687  1.00  0.00     0.041 A 
ATOM     90  F   UNL A   1      44.732  24.580  34.662  1.00  0.00    -0.206 F 
ATOM     91  C   UNL A   1      48.287  24.159  34.148  1.00  0.00     0.022 A 
BRANCH  88  92
ATOM     92  S   UNL A   1      50.105  25.101  32.254  1.00  0.00     0.124 S 
ATOM     93  O   UNL A   1      50.565  23.724  32.402  1.00  0.00    -0.237 OA
ATOM     94  O   UNL A   1      49.736  25.507  30.902  1.00  0.00    -0.237 OA
ATOM     95  O   UNL A   1      50.863  26.093  33.014  1.00  0.00    -0.744 OA
ENDBRANCH  88  92
ENDBRANCH  62  85
ENDBRANCH  36  37
ENDBRANCH  28  31
ENDBRANCH  26  27
ENDBRANCH   1  26
TORSDOF 16
ENDMDL
