MODEL 1
REMARK VINA RESULT:     -10.8      0.000      0.000
REMARK SMILES CC[N@@H+](C[C@H]1CCCO1)[C@@H](C)c1ccc(C(=O)NCCCNC(=O)c2ccc(-c3c4nc(c(-c5cc(S(=O)(=O)[O-])ccc5F)c5ccc([nH]5)c(-c5cc(S(=O)(=O)[O-])ccc5F)c5nc(c(-c6cc(S(=O)(=O)[O-])ccc6F)c6ccc3[nH]6)C=C5)C=C4)cc2)o1
REMARK SMILES IDX 19 1 18 2 16 3 17 4 15 6 12 7 13 8 88 9 14 10 10 11 11 12
REMARK SMILES IDX 3 13 2 15 1 16 4 17 5 18 6 19 9 20 7 21 8 22 20 23 21 24
REMARK SMILES IDX 22 25 23 26 24 28 25 29 26 30 87 31 27 32 86 33 28 34 29 35
REMARK SMILES IDX 30 36 80 37 31 38 85 39 79 40 81 41 32 42 84 43 78 44 77 45
REMARK SMILES IDX 33 47 65 48 45 49 64 50 46 51 49 52 63 53 82 54 47 55 48 56
REMARK SMILES IDX 62 58 83 59 50 60 34 61 35 62 43 63 36 64 42 65 44 66 41 67
REMARK SMILES IDX 37 68 38 69 39 70 40 71 66 72 67 73 75 74 68 75 74 76 76 77
REMARK SMILES IDX 73 78 69 79 70 80 71 81 72 82 51 83 52 84 60 85 53 86 59 87
REMARK SMILES IDX 61 88 58 89 54 90 55 91 56 92 57 93
REMARK H PARENT 18 5 3 14 22 27 81 46 49 57
REMARK Flexibility Score: inf
ROOT
ATOM      1  C   UNL A   1      31.510  30.713  26.297  1.00  0.00     0.118 C 
ENDROOT
BRANCH   1   2
ATOM      2  N   UNL A   1      32.759  30.117  26.709  1.00  0.00    -0.349 N 
ATOM      3  C   UNL A   1      33.543  29.146  26.137  1.00  0.00     0.287 C 
ATOM      4  O   UNL A   1      34.526  28.809  26.802  1.00  0.00    -0.266 OA
ATOM      5  H   UNL A   1      33.114  30.474  27.555  1.00  0.00     0.163 HD
BRANCH   3   6
ATOM      6  C   UNL A   1      33.238  28.575  24.836  1.00  0.00     0.191 A 
ATOM      7  C   UNL A   1      32.281  27.034  23.565  1.00  0.00     0.161 A 
ATOM      8  C   UNL A   1      32.983  27.854  22.712  1.00  0.00     0.053 A 
ATOM      9  O   UNL A   1      32.455  27.441  24.850  1.00  0.00    -0.450 OA
ATOM     10  C   UNL A   1      33.558  28.855  23.518  1.00  0.00     0.057 A 
BRANCH   7  11
ATOM     11  C   UNL A   1      31.447  25.816  23.333  1.00  0.00     0.248 C 
ATOM     12  C   UNL A   1      30.011  26.173  23.758  1.00  0.00     0.084 C 
BRANCH  11  13
ATOM     13  N   UNL A   1      32.030  24.561  23.880  1.00  0.00    -0.324 N 
ATOM     14  H   UNL A   1      32.440  24.928  24.738  1.00  0.00     0.348 HD
BRANCH  13  15
ATOM     15  C   UNL A   1      31.114  23.529  24.384  1.00  0.00     0.259 C 
ATOM     16  C   UNL A   1      31.122  23.361  25.904  1.00  0.00     0.071 C 
ENDBRANCH  13  15
BRANCH  13  17
ATOM     17  C   UNL A   1      33.125  23.989  23.068  1.00  0.00     0.295 C 
BRANCH  17  18
ATOM     18  C   UNL A   1      34.552  23.924  23.680  1.00  0.00     0.173 C 
ATOM     19  C   UNL A   1      34.647  24.647  25.022  1.00  0.00     0.040 C 
ATOM     20  O   UNL A   1      34.984  22.569  23.908  1.00  0.00    -0.372 OA
ATOM     21  C   UNL A   1      34.853  23.535  26.021  1.00  0.00     0.031 C 
ATOM     22  C   UNL A   1      35.574  22.495  25.203  1.00  0.00     0.161 C 
ENDBRANCH  17  18
ENDBRANCH  13  17
ENDBRANCH  11  13
ENDBRANCH   7  11
ENDBRANCH   3   6
ENDBRANCH   1   2
BRANCH   1  23
ATOM     23  C   UNL A   1      31.413  32.176  26.704  1.00  0.00     0.042 C 
BRANCH  23  24
ATOM     24  C   UNL A   1      32.772  32.740  27.091  1.00  0.00     0.118 C 
BRANCH  24  25
ATOM     25  N   UNL A   1      32.642  34.068  27.687  1.00  0.00    -0.352 N 
ATOM     26  C   UNL A   1      33.196  34.586  28.826  1.00  0.00     0.251 C 
ATOM     27  H   UNL A   1      32.064  34.689  27.188  1.00  0.00     0.163 HD
ATOM     28  O   UNL A   1      32.722  35.609  29.311  1.00  0.00    -0.269 OA
BRANCH  26  29
ATOM     29  C   UNL A   1      34.348  33.916  29.456  1.00  0.00     0.039 A 
ATOM     30  C   UNL A   1      35.638  34.295  29.086  1.00  0.00     0.014 A 
ATOM     31  C   UNL A   1      34.151  32.891  30.387  1.00  0.00     0.014 A 
ATOM     32  C   UNL A   1      36.733  33.679  29.688  1.00  0.00     0.010 A 
ATOM     33  C   UNL A   1      35.239  32.350  31.058  1.00  0.00     0.010 A 
ATOM     34  C   UNL A   1      36.540  32.726  30.703  1.00  0.00    -0.014 A 
BRANCH  34  35
ATOM     35  C   UNL A   1      37.693  32.104  31.396  1.00  0.00     0.031 A 
ATOM     36  C   UNL A   1      38.449  30.984  30.737  1.00  0.00     0.074 A 
ATOM     37  C   UNL A   1      38.017  32.519  32.636  1.00  0.00     0.049 A 
ATOM     38  N   UNL A   1      39.448  30.278  31.200  1.00  0.00    -0.248 NA
ATOM     39  C   UNL A   1      38.002  30.582  29.394  1.00  0.00     0.031 C 
ATOM     40  C   UNL A   1      37.318  33.567  33.385  1.00  0.00     0.029 A 
ATOM     41  N   UNL A   1      39.011  32.112  33.486  1.00  0.00    -0.354 N 
ATOM     42  C   UNL A   1      39.742  29.344  30.211  1.00  0.00     0.074 A 
ATOM     43  C   UNL A   1      38.767  29.529  29.157  1.00  0.00     0.031 C 
ATOM     44  C   UNL A   1      37.930  33.747  34.565  1.00  0.00     0.029 A 
ATOM     45  C   UNL A   1      39.027  32.791  34.682  1.00  0.00     0.049 A 
ATOM     46  H   UNL A   1      39.654  31.401  33.263  1.00  0.00     0.167 HD
ATOM     47  C   UNL A   1      40.749  28.438  30.177  1.00  0.00     0.034 A 
ATOM     48  C   UNL A   1      39.827  32.651  35.757  1.00  0.00     0.034 A 
ATOM     49  C   UNL A   1      41.711  28.278  31.240  1.00  0.00     0.049 A 
ATOM     50  C   UNL A   1      40.921  31.614  35.706  1.00  0.00     0.074 A 
ATOM     51  C   UNL A   1      42.802  27.430  31.294  1.00  0.00     0.029 A 
ATOM     52  N   UNL A   1      41.692  28.977  32.441  1.00  0.00    -0.354 N 
ATOM     53  N   UNL A   1      41.223  30.776  34.739  1.00  0.00    -0.248 NA
ATOM     54  C   UNL A   1      41.788  31.513  36.885  1.00  0.00     0.031 C 
ATOM     55  C   UNL A   1      43.393  27.557  32.556  1.00  0.00     0.029 A 
ATOM     56  C   UNL A   1      42.730  28.551  33.257  1.00  0.00     0.049 A 
ATOM     57  H   UNL A   1      41.037  29.673  32.679  1.00  0.00     0.167 HD
ATOM     58  C   UNL A   1      42.336  30.070  35.185  1.00  0.00     0.074 A 
ATOM     59  C   UNL A   1      42.662  30.598  36.495  1.00  0.00     0.031 C 
ATOM     60  C   UNL A   1      43.030  29.078  34.568  1.00  0.00     0.034 A 
BRANCH  47  61
ATOM     61  C   UNL A   1      40.835  27.538  28.966  1.00  0.00     0.023 A 
ATOM     62  C   UNL A   1      41.801  27.737  27.963  1.00  0.00     0.031 A 
ATOM     63  C   UNL A   1      39.922  26.482  28.796  1.00  0.00     0.131 A 
ATOM     64  C   UNL A   1      41.783  26.947  26.803  1.00  0.00     0.055 A 
ATOM     65  C   UNL A   1      39.967  25.642  27.680  1.00  0.00     0.041 A 
ATOM     66  F   UNL A   1      38.961  26.255  29.704  1.00  0.00    -0.206 F 
ATOM     67  C   UNL A   1      40.890  25.882  26.668  1.00  0.00     0.022 A 
BRANCH  64  68
ATOM     68  S   UNL A   1      42.841  27.429  25.411  1.00  0.00     0.124 S 
ATOM     69  O   UNL A   1      42.923  26.180  24.657  1.00  0.00    -0.237 OA
ATOM     70  O   UNL A   1      42.077  28.503  24.789  1.00  0.00    -0.237 OA
ATOM     71  O   UNL A   1      44.088  27.840  26.055  1.00  0.00    -0.744 OA
ENDBRANCH  64  68
ENDBRANCH  47  61
BRANCH  48  72
ATOM     72  C   UNL A   1      39.626  33.499  36.966  1.00  0.00     0.023 A 
ATOM     73  C   UNL A   1      39.014  32.981  38.118  1.00  0.00     0.031 A 
ATOM     74  C   UNL A   1      40.006  34.853  36.974  1.00  0.00     0.131 A 
ATOM     75  C   UNL A   1      38.751  33.824  39.209  1.00  0.00     0.055 A 
ATOM     76  C   UNL A   1      39.799  35.672  38.084  1.00  0.00     0.041 A 
ATOM     77  F   UNL A   1      40.600  35.398  35.900  1.00  0.00    -0.206 F 
ATOM     78  C   UNL A   1      39.153  35.162  39.205  1.00  0.00     0.022 A 
BRANCH  75  79
ATOM     79  S   UNL A   1      37.785  33.170  40.598  1.00  0.00     0.124 S 
ATOM     80  O   UNL A   1      38.493  31.930  40.891  1.00  0.00    -0.237 OA
ATOM     81  O   UNL A   1      37.918  34.234  41.587  1.00  0.00    -0.237 OA
ATOM     82  O   UNL A   1      36.447  33.009  40.035  1.00  0.00    -0.744 OA
ENDBRANCH  75  79
ENDBRANCH  48  72
BRANCH  60  83
ATOM     83  C   UNL A   1      44.237  28.536  35.296  1.00  0.00     0.023 A 
ATOM     84  C   UNL A   1      44.128  27.508  36.249  1.00  0.00     0.031 A 
ATOM     85  C   UNL A   1      45.513  29.071  35.046  1.00  0.00     0.131 A 
ATOM     86  C   UNL A   1      45.260  27.097  36.967  1.00  0.00     0.055 A 
ATOM     87  C   UNL A   1      46.649  28.606  35.710  1.00  0.00     0.041 A 
ATOM     88  F   UNL A   1      45.678  30.058  34.150  1.00  0.00    -0.206 F 
ATOM     89  C   UNL A   1      46.524  27.625  36.689  1.00  0.00     0.022 A 
BRANCH  86  90
ATOM     90  S   UNL A   1      45.042  25.947  38.352  1.00  0.00     0.124 S 
ATOM     91  O   UNL A   1      46.402  25.834  38.868  1.00  0.00    -0.237 OA
ATOM     92  O   UNL A   1      44.093  26.658  39.203  1.00  0.00    -0.237 OA
ATOM     93  O   UNL A   1      44.517  24.739  37.715  1.00  0.00    -0.744 OA
ENDBRANCH  86  90
ENDBRANCH  60  83
ENDBRANCH  34  35
ENDBRANCH  26  29
ENDBRANCH  24  25
ENDBRANCH  23  24
ENDBRANCH   1  23
TORSDOF 18
ENDMDL
MODEL 2
REMARK VINA RESULT:     -10.7      3.474      8.688
REMARK SMILES CC[N@@H+](C[C@H]1CCCO1)[C@@H](C)c1ccc(C(=O)NCCCNC(=O)c2ccc(-c3c4nc(c(-c5cc(S(=O)(=O)[O-])ccc5F)c5ccc([nH]5)c(-c5cc(S(=O)(=O)[O-])ccc5F)c5nc(c(-c6cc(S(=O)(=O)[O-])ccc6F)c6ccc3[nH]6)C=C5)C=C4)cc2)o1
REMARK SMILES IDX 19 1 18 2 16 3 17 4 15 6 12 7 13 8 88 9 14 10 10 11 11 12
REMARK SMILES IDX 3 13 2 15 1 16 4 17 5 18 6 19 9 20 7 21 8 22 20 23 21 24
REMARK SMILES IDX 22 25 23 26 24 28 25 29 26 30 87 31 27 32 86 33 28 34 29 35
REMARK SMILES IDX 30 36 80 37 31 38 85 39 79 40 81 41 32 42 84 43 78 44 77 45
REMARK SMILES IDX 33 47 65 48 45 49 64 50 46 51 49 52 63 53 82 54 47 55 48 56
REMARK SMILES IDX 62 58 83 59 50 60 34 61 35 62 43 63 36 64 42 65 44 66 41 67
REMARK SMILES IDX 37 68 38 69 39 70 40 71 66 72 67 73 75 74 68 75 74 76 76 77
REMARK SMILES IDX 73 78 69 79 70 80 71 81 72 82 51 83 52 84 60 85 53 86 59 87
REMARK SMILES IDX 61 88 58 89 54 90 55 91 56 92 57 93
REMARK H PARENT 18 5 3 14 22 27 81 46 49 57
REMARK Flexibility Score: inf
ROOT
ATOM      1  C   UNL A   1      32.014  27.945  27.634  1.00  0.00     0.118 C 
ENDROOT
BRANCH   1   2
ATOM      2  N   UNL A   1      31.026  27.128  26.972  1.00  0.00    -0.349 N 
ATOM      3  C   UNL A   1      31.145  26.060  26.117  1.00  0.00     0.287 C 
ATOM      4  O   UNL A   1      30.080  25.632  25.664  1.00  0.00    -0.266 OA
ATOM      5  H   UNL A   1      30.095  27.383  27.170  1.00  0.00     0.163 HD
BRANCH   3   6
ATOM      6  C   UNL A   1      32.433  25.474  25.789  1.00  0.00     0.191 A 
ATOM      7  C   UNL A   1      33.837  23.761  25.751  1.00  0.00     0.161 A 
ATOM      8  C   UNL A   1      34.532  24.839  25.252  1.00  0.00     0.053 A 
ATOM      9  O   UNL A   1      32.582  24.141  26.106  1.00  0.00    -0.450 OA
ATOM     10  C   UNL A   1      33.626  25.916  25.242  1.00  0.00     0.057 A 
BRANCH   7  11
ATOM     11  C   UNL A   1      34.223  22.338  25.994  1.00  0.00     0.248 C 
ATOM     12  C   UNL A   1      35.755  22.264  25.868  1.00  0.00     0.084 C 
BRANCH  11  13
ATOM     13  N   UNL A   1      33.424  21.347  25.223  1.00  0.00    -0.324 N 
ATOM     14  H   UNL A   1      32.486  21.674  25.454  1.00  0.00     0.348 HD
BRANCH  13  15
ATOM     15  C   UNL A   1      33.437  21.430  23.757  1.00  0.00     0.259 C 
ATOM     16  C   UNL A   1      32.147  21.973  23.140  1.00  0.00     0.071 C 
ENDBRANCH  13  15
BRANCH  13  17
ATOM     17  C   UNL A   1      33.544  19.954  25.705  1.00  0.00     0.295 C 
BRANCH  17  18
ATOM     18  C   UNL A   1      33.079  18.799  24.775  1.00  0.00     0.173 C 
ATOM     19  C   UNL A   1      34.240  17.932  24.293  1.00  0.00     0.040 C 
ATOM     20  O   UNL A   1      32.147  17.918  25.429  1.00  0.00    -0.372 OA
ATOM     21  C   UNL A   1      34.022  16.612  24.990  1.00  0.00     0.031 C 
ATOM     22  C   UNL A   1      32.524  16.572  25.148  1.00  0.00     0.161 C 
ENDBRANCH  17  18
ENDBRANCH  13  17
ENDBRANCH  11  13
ENDBRANCH   7  11
ENDBRANCH   3   6
ENDBRANCH   1   2
BRANCH   1  23
ATOM     23  C   UNL A   1      31.993  29.383  27.137  1.00  0.00     0.042 C 
BRANCH  23  24
ATOM     24  C   UNL A   1      33.397  29.898  26.856  1.00  0.00     0.118 C 
BRANCH  24  25
ATOM     25  N   UNL A   1      33.511  31.321  27.169  1.00  0.00    -0.352 N 
ATOM     26  C   UNL A   1      34.370  31.976  28.009  1.00  0.00     0.251 C 
ATOM     27  H   UNL A   1      32.867  31.899  26.701  1.00  0.00     0.163 HD
ATOM     28  O   UNL A   1      34.103  33.121  28.363  1.00  0.00    -0.269 OA
BRANCH  26  29
ATOM     29  C   UNL A   1      35.597  31.308  28.477  1.00  0.00     0.039 A 
ATOM     30  C   UNL A   1      36.830  31.920  28.249  1.00  0.00     0.014 A 
ATOM     31  C   UNL A   1      35.531  30.064  29.110  1.00  0.00     0.014 A 
ATOM     32  C   UNL A   1      37.995  31.304  28.703  1.00  0.00     0.010 A 
ATOM     33  C   UNL A   1      36.679  29.500  29.649  1.00  0.00     0.010 A 
ATOM     34  C   UNL A   1      37.924  30.106  29.436  1.00  0.00    -0.014 A 
BRANCH  34  35
ATOM     35  C   UNL A   1      39.147  29.469  29.977  1.00  0.00     0.031 A 
ATOM     36  C   UNL A   1      39.784  30.009  31.228  1.00  0.00     0.074 A 
ATOM     37  C   UNL A   1      39.703  28.440  29.309  1.00  0.00     0.049 A 
ATOM     38  N   UNL A   1      40.881  29.625  31.827  1.00  0.00    -0.248 NA
ATOM     39  C   UNL A   1      39.118  31.153  31.871  1.00  0.00     0.031 C 
ATOM     40  C   UNL A   1      39.191  27.869  28.060  1.00  0.00     0.029 A 
ATOM     41  N   UNL A   1      40.819  27.693  29.581  1.00  0.00    -0.354 N 
ATOM     42  C   UNL A   1      41.041  30.485  32.910  1.00  0.00     0.074 A 
ATOM     43  C   UNL A   1      39.968  31.454  32.838  1.00  0.00     0.031 C 
ATOM     44  C   UNL A   1      39.968  26.838  27.697  1.00  0.00     0.029 A 
ATOM     45  C   UNL A   1      41.063  26.709  28.652  1.00  0.00     0.049 A 
ATOM     46  H   UNL A   1      41.392  27.846  30.367  1.00  0.00     0.167 HD
ATOM     47  C   UNL A   1      41.981  30.449  33.885  1.00  0.00     0.034 A 
ATOM     48  C   UNL A   1      42.066  25.812  28.573  1.00  0.00     0.034 A 
ATOM     49  C   UNL A   1      43.038  29.468  33.935  1.00  0.00     0.049 A 
ATOM     50  C   UNL A   1      43.117  25.813  29.655  1.00  0.00     0.074 A 
ATOM     51  C   UNL A   1      44.015  29.303  34.901  1.00  0.00     0.029 A 
ATOM     52  N   UNL A   1      43.262  28.491  32.973  1.00  0.00    -0.354 N 
ATOM     53  N   UNL A   1      43.223  26.596  30.705  1.00  0.00    -0.248 NA
ATOM     54  C   UNL A   1      44.174  24.801  29.546  1.00  0.00     0.031 C 
ATOM     55  C   UNL A   1      44.874  28.282  34.482  1.00  0.00     0.029 A 
ATOM     56  C   UNL A   1      44.383  27.744  33.303  1.00  0.00     0.049 A 
ATOM     57  H   UNL A   1      42.705  28.348  32.173  1.00  0.00     0.167 HD
ATOM     58  C   UNL A   1      44.344  26.148  31.398  1.00  0.00     0.074 A 
ATOM     59  C   UNL A   1      44.861  25.015  30.658  1.00  0.00     0.031 C 
ATOM     60  C   UNL A   1      44.894  26.626  32.544  1.00  0.00     0.034 A 
BRANCH  47  61
ATOM     61  C   UNL A   1      41.919  31.517  34.952  1.00  0.00     0.023 A 
ATOM     62  C   UNL A   1      40.909  31.527  35.932  1.00  0.00     0.031 A 
ATOM     63  C   UNL A   1      42.864  32.558  34.976  1.00  0.00     0.131 A 
ATOM     64  C   UNL A   1      40.822  32.592  36.841  1.00  0.00     0.055 A 
ATOM     65  C   UNL A   1      42.825  33.568  35.940  1.00  0.00     0.041 A 
ATOM     66  F   UNL A   1      43.837  32.619  34.054  1.00  0.00    -0.206 F 
ATOM     67  C   UNL A   1      41.790  33.599  36.870  1.00  0.00     0.022 A 
BRANCH  64  68
ATOM     68  S   UNL A   1      39.342  32.724  37.881  1.00  0.00     0.124 S 
ATOM     69  O   UNL A   1      38.883  34.076  37.570  1.00  0.00    -0.237 OA
ATOM     70  O   UNL A   1      38.509  31.635  37.387  1.00  0.00    -0.237 OA
ATOM     71  O   UNL A   1      39.860  32.549  39.237  1.00  0.00    -0.744 OA
ENDBRANCH  64  68
ENDBRANCH  47  61
BRANCH  48  72
ATOM     72  C   UNL A   1      42.131  24.849  27.438  1.00  0.00     0.023 A 
ATOM     73  C   UNL A   1      41.385  23.659  27.455  1.00  0.00     0.031 A 
ATOM     74  C   UNL A   1      42.973  25.082  26.336  1.00  0.00     0.131 A 
ATOM     75  C   UNL A   1      41.536  22.724  26.418  1.00  0.00     0.055 A 
ATOM     76  C   UNL A   1      43.072  24.178  25.277  1.00  0.00     0.041 A 
ATOM     77  F   UNL A   1      43.706  26.205  26.266  1.00  0.00    -0.206 F 
ATOM     78  C   UNL A   1      42.362  22.983  25.322  1.00  0.00     0.022 A 
BRANCH  75  79
ATOM     79  S   UNL A   1      40.707  21.118  26.572  1.00  0.00     0.124 S 
ATOM     80  O   UNL A   1      40.766  20.892  28.011  1.00  0.00    -0.237 OA
ATOM     81  O   UNL A   1      39.387  21.405  26.021  1.00  0.00    -0.237 OA
ATOM     82  O   UNL A   1      41.538  20.229  25.764  1.00  0.00    -0.744 OA
ENDBRANCH  75  79
ENDBRANCH  48  72
BRANCH  60  83
ATOM     83  C   UNL A   1      46.097  25.889  33.082  1.00  0.00     0.023 A 
ATOM     84  C   UNL A   1      47.393  26.121  32.587  1.00  0.00     0.031 A 
ATOM     85  C   UNL A   1      45.941  24.923  34.093  1.00  0.00     0.131 A 
ATOM     86  C   UNL A   1      48.467  25.349  33.051  1.00  0.00     0.055 A 
ATOM     87  C   UNL A   1      47.026  24.211  34.605  1.00  0.00     0.041 A 
ATOM     88  F   UNL A   1      44.727  24.655  34.601  1.00  0.00    -0.206 F 
ATOM     89  C   UNL A   1      48.296  24.410  34.071  1.00  0.00     0.022 A 
BRANCH  86  90
ATOM     90  S   UNL A   1      50.072  25.506  32.221  1.00  0.00     0.124 S 
ATOM     91  O   UNL A   1      49.734  26.326  31.062  1.00  0.00    -0.237 OA
ATOM     92  O   UNL A   1      50.891  26.151  33.242  1.00  0.00    -0.237 OA
ATOM     93  O   UNL A   1      50.437  24.123  31.917  1.00  0.00    -0.744 OA
ENDBRANCH  86  90
ENDBRANCH  60  83
ENDBRANCH  34  35
ENDBRANCH  26  29
ENDBRANCH  24  25
ENDBRANCH  23  24
ENDBRANCH   1  23
TORSDOF 18
ENDMDL
MODEL 3
REMARK VINA RESULT:     -10.7      1.634      2.246
REMARK SMILES CC[N@@H+](C[C@H]1CCCO1)[C@@H](C)c1ccc(C(=O)NCCCNC(=O)c2ccc(-c3c4nc(c(-c5cc(S(=O)(=O)[O-])ccc5F)c5ccc([nH]5)c(-c5cc(S(=O)(=O)[O-])ccc5F)c5nc(c(-c6cc(S(=O)(=O)[O-])ccc6F)c6ccc3[nH]6)C=C5)C=C4)cc2)o1
REMARK SMILES IDX 19 1 18 2 16 3 17 4 15 6 12 7 13 8 88 9 14 10 10 11 11 12
REMARK SMILES IDX 3 13 2 15 1 16 4 17 5 18 6 19 9 20 7 21 8 22 20 23 21 24
REMARK SMILES IDX 22 25 23 26 24 28 25 29 26 30 87 31 27 32 86 33 28 34 29 35
REMARK SMILES IDX 30 36 80 37 31 38 85 39 79 40 81 41 32 42 84 43 78 44 77 45
REMARK SMILES IDX 33 47 65 48 45 49 64 50 46 51 49 52 63 53 82 54 47 55 48 56
REMARK SMILES IDX 62 58 83 59 50 60 34 61 35 62 43 63 36 64 42 65 44 66 41 67
REMARK SMILES IDX 37 68 38 69 39 70 40 71 66 72 67 73 75 74 68 75 74 76 76 77
REMARK SMILES IDX 73 78 69 79 70 80 71 81 72 82 51 83 52 84 60 85 53 86 59 87
REMARK SMILES IDX 61 88 58 89 54 90 55 91 56 92 57 93
REMARK H PARENT 18 5 3 14 22 27 81 46 49 57
REMARK Flexibility Score: inf
ROOT
ATOM      1  C   UNL A   1      31.721  30.475  25.864  1.00  0.00     0.118 C 
ENDROOT
BRANCH   1   2
ATOM      2  N   UNL A   1      30.941  30.382  24.653  1.00  0.00    -0.349 N 
ATOM      3  C   UNL A   1      30.637  29.320  23.837  1.00  0.00     0.287 C 
ATOM      4  O   UNL A   1      29.999  29.608  22.822  1.00  0.00    -0.266 OA
ATOM      5  H   UNL A   1      30.555  31.239  24.358  1.00  0.00     0.163 HD
BRANCH   3   6
ATOM      6  C   UNL A   1      31.030  27.960  24.164  1.00  0.00     0.191 A 
ATOM      7  C   UNL A   1      32.316  26.182  23.865  1.00  0.00     0.161 A 
ATOM      8  C   UNL A   1      31.379  25.824  24.805  1.00  0.00     0.053 A 
ATOM      9  O   UNL A   1      32.095  27.457  23.449  1.00  0.00    -0.450 OA
ATOM     10  C   UNL A   1      30.586  26.967  25.021  1.00  0.00     0.057 A 
BRANCH   7  11
ATOM     11  C   UNL A   1      33.444  25.435  23.228  1.00  0.00     0.248 C 
ATOM     12  C   UNL A   1      33.062  25.225  21.752  1.00  0.00     0.084 C 
BRANCH  11  13
ATOM     13  N   UNL A   1      33.898  24.243  23.994  1.00  0.00    -0.324 N 
ATOM     14  H   UNL A   1      32.993  23.895  24.311  1.00  0.00     0.348 HD
BRANCH  13  15
ATOM     15  C   UNL A   1      34.433  23.098  23.247  1.00  0.00     0.259 C 
ATOM     16  C   UNL A   1      35.960  23.029  23.198  1.00  0.00     0.071 C 
ENDBRANCH  13  15
BRANCH  13  17
ATOM     17  C   UNL A   1      34.704  24.554  25.194  1.00  0.00     0.295 C 
BRANCH  17  18
ATOM     18  C   UNL A   1      34.411  23.782  26.510  1.00  0.00     0.173 C 
ATOM     19  C   UNL A   1      32.943  23.383  26.641  1.00  0.00     0.040 C 
ATOM     20  O   UNL A   1      35.181  22.569  26.610  1.00  0.00    -0.372 OA
ATOM     21  C   UNL A   1      32.961  21.880  26.506  1.00  0.00     0.031 C 
ATOM     22  C   UNL A   1      34.320  21.523  27.051  1.00  0.00     0.161 C 
ENDBRANCH  17  18
ENDBRANCH  13  17
ENDBRANCH  11  13
ENDBRANCH   7  11
ENDBRANCH   3   6
ENDBRANCH   1   2
BRANCH   1  23
ATOM     23  C   UNL A   1      31.502  31.796  26.586  1.00  0.00     0.042 C 
BRANCH  23  24
ATOM     24  C   UNL A   1      32.777  32.283  27.259  1.00  0.00     0.118 C 
BRANCH  24  25
ATOM     25  N   UNL A   1      32.708  33.713  27.549  1.00  0.00    -0.352 N 
ATOM     26  C   UNL A   1      33.294  34.444  28.546  1.00  0.00     0.251 C 
ATOM     27  H   UNL A   1      32.150  34.234  26.927  1.00  0.00     0.163 HD
ATOM     28  O   UNL A   1      32.868  35.569  28.794  1.00  0.00    -0.269 OA
BRANCH  26  29
ATOM     29  C   UNL A   1      34.424  33.881  29.306  1.00  0.00     0.039 A 
ATOM     30  C   UNL A   1      34.162  32.995  30.352  1.00  0.00     0.014 A 
ATOM     31  C   UNL A   1      35.738  34.254  29.007  1.00  0.00     0.014 A 
ATOM     32  C   UNL A   1      35.224  32.444  31.066  1.00  0.00     0.010 A 
ATOM     33  C   UNL A   1      36.797  33.629  29.652  1.00  0.00     0.010 A 
ATOM     34  C   UNL A   1      36.550  32.731  30.698  1.00  0.00    -0.014 A 
BRANCH  34  35
ATOM     35  C   UNL A   1      37.692  32.108  31.407  1.00  0.00     0.031 A 
ATOM     36  C   UNL A   1      38.460  30.990  30.756  1.00  0.00     0.074 A 
ATOM     37  C   UNL A   1      37.996  32.519  32.653  1.00  0.00     0.049 A 
ATOM     38  N   UNL A   1      39.451  30.283  31.233  1.00  0.00    -0.248 NA
ATOM     39  C   UNL A   1      38.035  30.593  29.405  1.00  0.00     0.031 C 
ATOM     40  C   UNL A   1      37.284  33.564  33.394  1.00  0.00     0.029 A 
ATOM     41  N   UNL A   1      38.976  32.110  33.518  1.00  0.00    -0.354 N 
ATOM     42  C   UNL A   1      39.762  29.353  30.246  1.00  0.00     0.074 A 
ATOM     43  C   UNL A   1      38.804  29.541  29.177  1.00  0.00     0.031 C 
ATOM     44  C   UNL A   1      37.877  33.740  34.585  1.00  0.00     0.029 A 
ATOM     45  C   UNL A   1      38.972  32.785  34.716  1.00  0.00     0.049 A 
ATOM     46  H   UNL A   1      39.623  31.400  33.303  1.00  0.00     0.167 HD
ATOM     47  C   UNL A   1      40.769  28.447  30.225  1.00  0.00     0.034 A 
ATOM     48  C   UNL A   1      39.755  32.640  35.803  1.00  0.00     0.034 A 
ATOM     49  C   UNL A   1      41.714  28.285  31.303  1.00  0.00     0.049 A 
ATOM     50  C   UNL A   1      40.850  31.604  35.767  1.00  0.00     0.074 A 
ATOM     51  C   UNL A   1      42.805  27.437  31.371  1.00  0.00     0.029 A 
ATOM     52  N   UNL A   1      41.676  28.979  32.506  1.00  0.00    -0.354 N 
ATOM     53  N   UNL A   1      41.168  30.770  34.802  1.00  0.00    -0.248 NA
ATOM     54  C   UNL A   1      41.697  31.500  36.960  1.00  0.00     0.031 C 
ATOM     55  C   UNL A   1      43.375  27.560  32.643  1.00  0.00     0.029 A 
ATOM     56  C   UNL A   1      42.700  28.552  33.337  1.00  0.00     0.049 A 
ATOM     57  H   UNL A   1      41.016  29.674  32.736  1.00  0.00     0.167 HD
ATOM     58  C   UNL A   1      42.275  30.064  35.263  1.00  0.00     0.074 A 
ATOM     59  C   UNL A   1      42.579  30.587  36.580  1.00  0.00     0.031 C 
ATOM     60  C   UNL A   1      42.979  29.074  34.655  1.00  0.00     0.034 A 
BRANCH  47  61
ATOM     61  C   UNL A   1      40.876  27.552  29.013  1.00  0.00     0.023 A 
ATOM     62  C   UNL A   1      41.876  27.738  28.040  1.00  0.00     0.031 A 
ATOM     63  C   UNL A   1      39.950  26.514  28.809  1.00  0.00     0.131 A 
ATOM     64  C   UNL A   1      41.879  26.954  26.876  1.00  0.00     0.055 A 
ATOM     65  C   UNL A   1      40.012  25.678  27.691  1.00  0.00     0.041 A 
ATOM     66  F   UNL A   1      38.957  26.300  29.687  1.00  0.00    -0.206 F 
ATOM     67  C   UNL A   1      40.971  25.906  26.708  1.00  0.00     0.022 A 
BRANCH  64  68
ATOM     68  S   UNL A   1      42.987  27.422  25.520  1.00  0.00     0.124 S 
ATOM     69  O   UNL A   1      42.124  28.287  24.719  1.00  0.00    -0.237 OA
ATOM     70  O   UNL A   1      44.082  28.083  26.219  1.00  0.00    -0.237 OA
ATOM     71  O   UNL A   1      43.325  26.144  24.896  1.00  0.00    -0.744 OA
ENDBRANCH  64  68
ENDBRANCH  47  61
BRANCH  48  72
ATOM     72  C   UNL A   1      39.534  33.484  37.012  1.00  0.00     0.023 A 
ATOM     73  C   UNL A   1      40.298  34.641  37.236  1.00  0.00     0.031 A 
ATOM     74  C   UNL A   1      38.584  33.125  37.984  1.00  0.00     0.131 A 
ATOM     75  C   UNL A   1      40.137  35.366  38.427  1.00  0.00     0.055 A 
ATOM     76  C   UNL A   1      38.383  33.884  39.138  1.00  0.00     0.041 A 
ATOM     77  F   UNL A   1      37.823  32.031  37.819  1.00  0.00    -0.206 F 
ATOM     78  C   UNL A   1      39.174  35.004  39.371  1.00  0.00     0.022 A 
BRANCH  75  79
ATOM     79  S   UNL A   1      41.274  36.738  38.768  1.00  0.00     0.124 S 
ATOM     80  O   UNL A   1      42.132  36.161  39.795  1.00  0.00    -0.237 OA
ATOM     81  O   UNL A   1      41.889  36.952  37.463  1.00  0.00    -0.237 OA
ATOM     82  O   UNL A   1      40.388  37.807  39.221  1.00  0.00    -0.744 OA
ENDBRANCH  75  79
ENDBRANCH  48  72
BRANCH  60  83
ATOM     83  C   UNL A   1      44.174  28.530  35.400  1.00  0.00     0.023 A 
ATOM     84  C   UNL A   1      44.050  27.500  36.350  1.00  0.00     0.031 A 
ATOM     85  C   UNL A   1      45.454  29.065  35.172  1.00  0.00     0.131 A 
ATOM     86  C   UNL A   1      45.171  27.087  37.084  1.00  0.00     0.055 A 
ATOM     87  C   UNL A   1      46.580  28.599  35.852  1.00  0.00     0.041 A 
ATOM     88  F   UNL A   1      45.633  30.054  34.280  1.00  0.00    -0.206 F 
ATOM     89  C   UNL A   1      46.439  27.616  36.827  1.00  0.00     0.022 A 
BRANCH  86  90
ATOM     90  S   UNL A   1      44.930  25.935  38.463  1.00  0.00     0.124 S 
ATOM     91  O   UNL A   1      44.548  24.709  37.769  1.00  0.00    -0.237 OA
ATOM     92  O   UNL A   1      46.245  25.925  39.097  1.00  0.00    -0.237 OA
ATOM     93  O   UNL A   1      43.867  26.559  39.251  1.00  0.00    -0.744 OA
ENDBRANCH  86  90
ENDBRANCH  60  83
ENDBRANCH  34  35
ENDBRANCH  26  29
ENDBRANCH  24  25
ENDBRANCH  23  24
ENDBRANCH   1  23
TORSDOF 18
ENDMDL
