MODEL 1
REMARK VINA RESULT:     -11.7      0.000      0.000
REMARK SMILES O=C(NCCCNC(=O)[C@@H]1C[C@H]1C(=O)N[C@@H]1CONC1=O)c1ccc(-c2c3nc(c(-c4cc(S(=O)(=O)[O-])ccc4F)c4ccc([nH]4)c(-c4cc(S(=O)(=O)[O-])ccc4F)c4nc(c(-c5cc(S(=O)(=O)[O-])ccc5F)c5ccc2[nH]5)C=C4)C=C3)cc1
REMARK SMILES IDX 4 1 3 2 1 3 2 4 22 6 23 7 84 8 24 9 83 10 25 11 26 12 27 13
REMARK SMILES IDX 77 14 28 15 82 16 76 17 78 18 29 19 81 20 75 21 74 22 30 24
REMARK SMILES IDX 62 25 42 26 61 27 43 28 46 29 60 30 79 31 44 32 45 33 59 35
REMARK SMILES IDX 80 36 47 37 31 38 32 39 40 40 33 41 39 42 41 43 38 44 34 45
REMARK SMILES IDX 35 46 36 47 37 48 63 49 64 50 72 51 65 52 71 53 73 54 70 55
REMARK SMILES IDX 66 56 67 57 68 58 69 59 48 60 49 61 57 62 50 63 56 64 58 65
REMARK SMILES IDX 55 66 51 67 52 68 53 69 54 70 5 71 6 72 7 73 8 74 9 76 10 77
REMARK SMILES IDX 11 78 12 79 13 80 14 81 15 82 16 84 17 85 20 86 18 87 19 88
REMARK SMILES IDX 21 89
REMARK H PARENT 3 5 78 23 46 34 7 75 15 83 19 90
REMARK Flexibility Score: inf
ROOT
ATOM      1  C   UNL A   1      32.724  32.957  27.271  1.00  0.00     0.118 C 
ENDROOT
BRANCH   1   2
ATOM      2  N   UNL A   1      32.548  34.294  27.823  1.00  0.00    -0.352 N 
ATOM      3  O   UNL A   1      32.781  35.984  29.291  1.00  0.00    -0.269 OA
ATOM      4  C   UNL A   1      33.181  34.898  28.883  1.00  0.00     0.251 C 
ATOM      5  H   UNL A   1      31.874  34.849  27.367  1.00  0.00     0.163 HD
BRANCH   4   6
ATOM      6  C   UNL A   1      34.326  34.230  29.539  1.00  0.00     0.039 A 
ATOM      7  C   UNL A   1      34.123  33.384  30.629  1.00  0.00     0.014 A 
ATOM      8  C   UNL A   1      35.618  34.446  29.053  1.00  0.00     0.014 A 
ATOM      9  C   UNL A   1      35.213  32.889  31.333  1.00  0.00     0.010 A 
ATOM     10  C   UNL A   1      36.710  33.855  29.698  1.00  0.00     0.010 A 
ATOM     11  C   UNL A   1      36.519  33.093  30.860  1.00  0.00    -0.014 A 
BRANCH  11  12
ATOM     12  C   UNL A   1      37.649  32.425  31.555  1.00  0.00     0.031 A 
ATOM     13  C   UNL A   1      38.433  31.325  30.896  1.00  0.00     0.074 A 
ATOM     14  C   UNL A   1      37.980  32.852  32.792  1.00  0.00     0.049 A 
ATOM     15  N   UNL A   1      39.446  30.643  31.367  1.00  0.00    -0.248 NA
ATOM     16  C   UNL A   1      38.027  30.934  29.538  1.00  0.00     0.031 C 
ATOM     17  C   UNL A   1      37.287  33.914  33.527  1.00  0.00     0.029 A 
ATOM     18  N   UNL A   1      38.983  32.465  33.643  1.00  0.00    -0.354 N 
ATOM     19  C   UNL A   1      39.792  29.733  30.374  1.00  0.00     0.074 A 
ATOM     20  C   UNL A   1      38.858  29.932  29.285  1.00  0.00     0.031 C 
ATOM     21  C   UNL A   1      37.912  34.127  34.693  1.00  0.00     0.029 A 
ATOM     22  C   UNL A   1      38.993  33.160  34.832  1.00  0.00     0.049 A 
ATOM     23  H   UNL A   1      39.633  31.759  33.426  1.00  0.00     0.167 HD
ATOM     24  C   UNL A   1      40.799  28.823  30.374  1.00  0.00     0.034 A 
ATOM     25  C   UNL A   1      39.762  33.016  35.927  1.00  0.00     0.034 A 
ATOM     26  C   UNL A   1      41.718  28.642  31.474  1.00  0.00     0.049 A 
ATOM     27  C   UNL A   1      40.831  31.955  35.920  1.00  0.00     0.074 A 
ATOM     28  C   UNL A   1      42.792  27.772  31.563  1.00  0.00     0.029 A 
ATOM     29  N   UNL A   1      41.667  29.328  32.682  1.00  0.00    -0.354 N 
ATOM     30  N   UNL A   1      41.159  31.121  34.960  1.00  0.00    -0.248 NA
ATOM     31  C   UNL A   1      41.635  31.819  37.140  1.00  0.00     0.031 C 
ATOM     32  C   UNL A   1      43.336  27.872  32.847  1.00  0.00     0.029 A 
ATOM     33  C   UNL A   1      42.664  28.872  33.532  1.00  0.00     0.049 A 
ATOM     34  H   UNL A   1      41.018  30.035  32.901  1.00  0.00     0.167 HD
ATOM     35  C   UNL A   1      42.228  30.381  35.454  1.00  0.00     0.074 A 
ATOM     36  C   UNL A   1      42.503  30.885  36.784  1.00  0.00     0.031 C 
ATOM     37  C   UNL A   1      42.923  29.376  34.862  1.00  0.00     0.034 A 
BRANCH  24  38
ATOM     38  C   UNL A   1      40.936  27.920  29.170  1.00  0.00     0.023 A 
ATOM     39  C   UNL A   1      41.944  28.106  28.209  1.00  0.00     0.031 A 
ATOM     40  C   UNL A   1      40.049  26.842  28.993  1.00  0.00     0.131 A 
ATOM     41  C   UNL A   1      42.012  27.260  27.091  1.00  0.00     0.055 A 
ATOM     42  C   UNL A   1      40.168  25.958  27.918  1.00  0.00     0.041 A 
ATOM     43  F   UNL A   1      39.051  26.627  29.864  1.00  0.00    -0.206 F 
ATOM     44  C   UNL A   1      41.148  26.171  26.954  1.00  0.00     0.022 A 
BRANCH  41  45
ATOM     45  S   UNL A   1      43.169  27.672  25.757  1.00  0.00     0.124 S 
ATOM     46  O   UNL A   1      43.987  26.463  25.686  1.00  0.00    -0.237 OA
ATOM     47  O   UNL A   1      42.278  27.905  24.626  1.00  0.00    -0.237 OA
ATOM     48  O   UNL A   1      43.864  28.856  26.257  1.00  0.00    -0.744 OA
ENDBRANCH  41  45
ENDBRANCH  24  38
BRANCH  25  49
ATOM     49  C   UNL A   1      39.524  33.857  37.135  1.00  0.00     0.023 A 
ATOM     50  C   UNL A   1      38.883  33.333  38.268  1.00  0.00     0.031 A 
ATOM     51  C   UNL A   1      39.883  35.217  37.153  1.00  0.00     0.131 A 
ATOM     52  C   UNL A   1      38.565  34.177  39.343  1.00  0.00     0.055 A 
ATOM     53  C   UNL A   1      39.630  36.035  38.254  1.00  0.00     0.041 A 
ATOM     54  F   UNL A   1      40.498  35.772  36.097  1.00  0.00    -0.206 F 
ATOM     55  C   UNL A   1      38.950  35.520  39.352  1.00  0.00     0.022 A 
BRANCH  52  56
ATOM     56  S   UNL A   1      37.530  33.521  40.679  1.00  0.00     0.124 S 
ATOM     57  O   UNL A   1      37.301  34.713  41.488  1.00  0.00    -0.237 OA
ATOM     58  O   UNL A   1      36.377  33.011  39.945  1.00  0.00    -0.237 OA
ATOM     59  O   UNL A   1      38.376  32.502  41.295  1.00  0.00    -0.744 OA
ENDBRANCH  52  56
ENDBRANCH  25  49
BRANCH  37  60
ATOM     60  C   UNL A   1      44.080  28.796  35.638  1.00  0.00     0.023 A 
ATOM     61  C   UNL A   1      43.923  27.689  36.489  1.00  0.00     0.031 A 
ATOM     62  C   UNL A   1      45.358  29.378  35.540  1.00  0.00     0.131 A 
ATOM     63  C   UNL A   1      45.008  27.239  37.257  1.00  0.00     0.055 A 
ATOM     64  C   UNL A   1      46.449  28.881  36.252  1.00  0.00     0.041 A 
ATOM     65  F   UNL A   1      45.565  30.442  34.746  1.00  0.00    -0.206 F 
ATOM     66  C   UNL A   1      46.274  27.815  37.129  1.00  0.00     0.022 A 
BRANCH  63  67
ATOM     67  S   UNL A   1      44.716  25.958  38.509  1.00  0.00     0.124 S 
ATOM     68  O   UNL A   1      43.784  26.626  39.413  1.00  0.00    -0.237 OA
ATOM     69  O   UNL A   1      44.162  24.867  37.715  1.00  0.00    -0.237 OA
ATOM     70  O   UNL A   1      46.046  25.709  39.061  1.00  0.00    -0.744 OA
ENDBRANCH  63  67
ENDBRANCH  37  60
ENDBRANCH  11  12
ENDBRANCH   4   6
ENDBRANCH   1   2
BRANCH   1  71
ATOM     71  C   UNL A   1      31.507  32.465  26.502  1.00  0.00     0.042 C 
BRANCH  71  72
ATOM     72  C   UNL A   1      31.403  30.952  26.417  1.00  0.00     0.117 C 
BRANCH  72  73
ATOM     73  N   UNL A   1      32.310  30.388  25.429  1.00  0.00    -0.356 N 
ATOM     74  C   UNL A   1      32.383  29.099  24.984  1.00  0.00     0.223 C 
ATOM     75  H   UNL A   1      32.954  31.017  25.032  1.00  0.00     0.163 HD
ATOM     76  O   UNL A   1      33.215  28.756  24.151  1.00  0.00    -0.275 OA
BRANCH  74  77
ATOM     77  C   UNL A   1      31.420  28.122  25.538  1.00  0.00     0.091 C 
ATOM     78  C   UNL A   1      31.686  27.419  26.852  1.00  0.00     0.028 C 
ATOM     79  C   UNL A   1      31.825  26.669  25.569  1.00  0.00     0.091 C 
BRANCH  79  80
ATOM     80  C   UNL A   1      31.006  25.538  25.082  1.00  0.00     0.224 C 
ATOM     81  O   UNL A   1      30.368  24.917  25.934  1.00  0.00    -0.275 OA
ATOM     82  N   UNL A   1      30.865  25.091  23.805  1.00  0.00    -0.342 N 
ATOM     83  H   UNL A   1      30.149  24.418  23.745  1.00  0.00     0.164 HD
BRANCH  82  84
ATOM     84  C   UNL A   1      31.472  25.324  22.498  1.00  0.00     0.202 C 
ATOM     85  C   UNL A   1      32.878  24.801  22.257  1.00  0.00     0.228 C 
ATOM     86  C   UNL A   1      31.523  26.737  21.997  1.00  0.00     0.268 C 
ATOM     87  O   UNL A   1      33.656  25.867  21.690  1.00  0.00    -0.271 OA
ATOM     88  N   UNL A   1      32.786  26.967  21.533  1.00  0.00    -0.233 N 
ATOM     89  O   UNL A   1      30.606  27.543  21.998  1.00  0.00    -0.270 OA
ATOM     90  H   UNL A   1      33.064  27.819  21.127  1.00  0.00     0.199 HD
ENDBRANCH  82  84
ENDBRANCH  79  80
ENDBRANCH  74  77
ENDBRANCH  72  73
ENDBRANCH  71  72
ENDBRANCH   1  71
TORSDOF 15
ENDMDL
MODEL 2
REMARK VINA RESULT:     -11.7      0.903      1.627
REMARK SMILES O=C(NCCCNC(=O)[C@@H]1C[C@H]1C(=O)N[C@@H]1CONC1=O)c1ccc(-c2c3nc(c(-c4cc(S(=O)(=O)[O-])ccc4F)c4ccc([nH]4)c(-c4cc(S(=O)(=O)[O-])ccc4F)c4nc(c(-c5cc(S(=O)(=O)[O-])ccc5F)c5ccc2[nH]5)C=C4)C=C3)cc1
REMARK SMILES IDX 4 1 3 2 1 3 2 4 22 6 23 7 84 8 24 9 83 10 25 11 26 12 27 13
REMARK SMILES IDX 77 14 28 15 82 16 76 17 78 18 29 19 81 20 75 21 74 22 30 24
REMARK SMILES IDX 62 25 42 26 61 27 43 28 46 29 60 30 79 31 44 32 45 33 59 35
REMARK SMILES IDX 80 36 47 37 31 38 32 39 40 40 33 41 39 42 41 43 38 44 34 45
REMARK SMILES IDX 35 46 36 47 37 48 63 49 64 50 72 51 65 52 71 53 73 54 70 55
REMARK SMILES IDX 66 56 67 57 68 58 69 59 48 60 49 61 57 62 50 63 56 64 58 65
REMARK SMILES IDX 55 66 51 67 52 68 53 69 54 70 5 71 6 72 7 73 8 74 9 76 10 77
REMARK SMILES IDX 11 78 12 79 13 80 14 81 15 82 16 84 17 85 20 86 18 87 19 88
REMARK SMILES IDX 21 89
REMARK H PARENT 3 5 78 23 46 34 7 75 15 83 19 90
REMARK Flexibility Score: inf
ROOT
ATOM      1  C   UNL A   1      32.708  32.556  27.156  1.00  0.00     0.118 C 
ENDROOT
BRANCH   1   2
ATOM      2  N   UNL A   1      32.560  33.917  27.657  1.00  0.00    -0.352 N 
ATOM      3  O   UNL A   1      32.851  35.664  29.046  1.00  0.00    -0.269 OA
ATOM      4  C   UNL A   1      33.231  34.559  28.670  1.00  0.00     0.251 C 
ATOM      5  H   UNL A   1      31.876  34.458  27.200  1.00  0.00     0.163 HD
BRANCH   4   6
ATOM      6  C   UNL A   1      34.392  33.908  29.317  1.00  0.00     0.039 A 
ATOM      7  C   UNL A   1      34.202  32.909  30.272  1.00  0.00     0.014 A 
ATOM      8  C   UNL A   1      35.685  34.298  28.959  1.00  0.00     0.014 A 
ATOM      9  C   UNL A   1      35.289  32.419  30.984  1.00  0.00     0.010 A 
ATOM     10  C   UNL A   1      36.786  33.721  29.601  1.00  0.00     0.010 A 
ATOM     11  C   UNL A   1      36.596  32.796  30.638  1.00  0.00    -0.014 A 
BRANCH  11  12
ATOM     12  C   UNL A   1      37.740  32.139  31.323  1.00  0.00     0.031 A 
ATOM     13  C   UNL A   1      38.514  31.031  30.666  1.00  0.00     0.074 A 
ATOM     14  C   UNL A   1      38.092  32.584  32.548  1.00  0.00     0.049 A 
ATOM     15  N   UNL A   1      39.536  30.357  31.129  1.00  0.00    -0.248 NA
ATOM     16  C   UNL A   1      38.085  30.620  29.321  1.00  0.00     0.031 C 
ATOM     17  C   UNL A   1      37.410  33.656  33.280  1.00  0.00     0.029 A 
ATOM     18  N   UNL A   1      39.110  32.211  33.387  1.00  0.00    -0.354 N 
ATOM     19  C   UNL A   1      39.866  29.433  30.143  1.00  0.00     0.074 A 
ATOM     20  C   UNL A   1      38.912  29.615  29.067  1.00  0.00     0.031 C 
ATOM     21  C   UNL A   1      38.055  33.886  34.431  1.00  0.00     0.029 A 
ATOM     22  C   UNL A   1      39.141  32.923  34.564  1.00  0.00     0.049 A 
ATOM     23  H   UNL A   1      39.757  31.502  33.168  1.00  0.00     0.167 HD
ATOM     24  C   UNL A   1      40.874  28.524  30.138  1.00  0.00     0.034 A 
ATOM     25  C   UNL A   1      39.929  32.795  35.648  1.00  0.00     0.034 A 
ATOM     26  C   UNL A   1      41.812  28.360  31.224  1.00  0.00     0.049 A 
ATOM     27  C   UNL A   1      40.999  31.736  35.638  1.00  0.00     0.074 A 
ATOM     28  C   UNL A   1      42.889  27.493  31.307  1.00  0.00     0.029 A 
ATOM     29  N   UNL A   1      41.782  29.064  32.423  1.00  0.00    -0.354 N 
ATOM     30  N   UNL A   1      41.311  30.889  34.684  1.00  0.00    -0.248 NA
ATOM     31  C   UNL A   1      41.824  31.618  36.845  1.00  0.00     0.031 C 
ATOM     32  C   UNL A   1      43.455  27.613  32.579  1.00  0.00     0.029 A 
ATOM     33  C   UNL A   1      42.795  28.621  33.262  1.00  0.00     0.049 A 
ATOM     34  H   UNL A   1      41.136  29.773  32.643  1.00  0.00     0.167 HD
ATOM     35  C   UNL A   1      42.390  30.157  35.170  1.00  0.00     0.074 A 
ATOM     36  C   UNL A   1      42.687  30.680  36.487  1.00  0.00     0.031 C 
ATOM     37  C   UNL A   1      43.076  29.145  34.579  1.00  0.00     0.034 A 
BRANCH  24  38
ATOM     38  C   UNL A   1      40.991  27.605  28.945  1.00  0.00     0.023 A 
ATOM     39  C   UNL A   1      41.982  27.778  27.964  1.00  0.00     0.031 A 
ATOM     40  C   UNL A   1      40.103  26.523  28.799  1.00  0.00     0.131 A 
ATOM     41  C   UNL A   1      42.032  26.916  26.857  1.00  0.00     0.055 A 
ATOM     42  C   UNL A   1      40.204  25.624  27.735  1.00  0.00     0.041 A 
ATOM     43  F   UNL A   1      39.121  26.319  29.690  1.00  0.00    -0.206 F 
ATOM     44  C   UNL A   1      41.166  25.824  26.750  1.00  0.00     0.022 A 
BRANCH  41  45
ATOM     45  S   UNL A   1      43.164  27.311  25.497  1.00  0.00     0.124 S 
ATOM     46  O   UNL A   1      43.489  25.982  24.984  1.00  0.00    -0.237 OA
ATOM     47  O   UNL A   1      42.339  28.144  24.629  1.00  0.00    -0.237 OA
ATOM     48  O   UNL A   1      44.269  28.001  26.158  1.00  0.00    -0.744 OA
ENDBRANCH  41  45
ENDBRANCH  24  38
BRANCH  25  49
ATOM     49  C   UNL A   1      39.710  33.653  36.848  1.00  0.00     0.023 A 
ATOM     50  C   UNL A   1      39.083  33.147  37.996  1.00  0.00     0.031 A 
ATOM     51  C   UNL A   1      40.076  35.012  36.843  1.00  0.00     0.131 A 
ATOM     52  C   UNL A   1      38.784  34.007  39.064  1.00  0.00     0.055 A 
ATOM     53  C   UNL A   1      39.841  35.846  37.937  1.00  0.00     0.041 A 
ATOM     54  F   UNL A   1      40.679  35.550  35.771  1.00  0.00    -0.206 F 
ATOM     55  C   UNL A   1      39.174  35.348  39.050  1.00  0.00     0.022 A 
BRANCH  52  56
ATOM     56  S   UNL A   1      37.763  33.373  40.422  1.00  0.00     0.124 S 
ATOM     57  O   UNL A   1      37.508  34.586  41.191  1.00  0.00    -0.237 OA
ATOM     58  O   UNL A   1      36.622  32.813  39.708  1.00  0.00    -0.237 OA
ATOM     59  O   UNL A   1      38.633  32.394  41.072  1.00  0.00    -0.744 OA
ENDBRANCH  52  56
ENDBRANCH  25  49
BRANCH  37  60
ATOM     60  C   UNL A   1      44.248  28.577  35.343  1.00  0.00     0.023 A 
ATOM     61  C   UNL A   1      44.093  27.540  36.278  1.00  0.00     0.031 A 
ATOM     62  C   UNL A   1      45.538  29.102  35.146  1.00  0.00     0.131 A 
ATOM     63  C   UNL A   1      45.196  27.104  37.028  1.00  0.00     0.055 A 
ATOM     64  C   UNL A   1      46.644  28.615  35.844  1.00  0.00     0.041 A 
ATOM     65  F   UNL A   1      45.745  30.098  34.269  1.00  0.00    -0.206 F 
ATOM     66  C   UNL A   1      46.474  27.622  36.802  1.00  0.00     0.022 A 
BRANCH  63  67
ATOM     67  S   UNL A   1      44.919  25.927  38.380  1.00  0.00     0.124 S 
ATOM     68  O   UNL A   1      43.794  26.535  39.085  1.00  0.00    -0.237 OA
ATOM     69  O   UNL A   1      44.628  24.691  37.663  1.00  0.00    -0.237 OA
ATOM     70  O   UNL A   1      46.186  25.937  39.108  1.00  0.00    -0.744 OA
ENDBRANCH  63  67
ENDBRANCH  37  60
ENDBRANCH  11  12
ENDBRANCH   4   6
ENDBRANCH   1   2
BRANCH   1  71
ATOM     71  C   UNL A   1      31.426  31.998  26.560  1.00  0.00     0.042 C 
BRANCH  71  72
ATOM     72  C   UNL A   1      31.525  30.541  26.141  1.00  0.00     0.117 C 
BRANCH  72  73
ATOM     73  N   UNL A   1      31.044  30.319  24.787  1.00  0.00    -0.356 N 
ATOM     74  C   UNL A   1      31.355  29.299  23.933  1.00  0.00     0.223 C 
ATOM     75  H   UNL A   1      30.414  30.991  24.441  1.00  0.00     0.163 HD
ATOM     76  O   UNL A   1      30.883  29.244  22.803  1.00  0.00    -0.275 OA
BRANCH  74  77
ATOM     77  C   UNL A   1      32.283  28.253  24.416  1.00  0.00     0.091 C 
ATOM     78  C   UNL A   1      33.760  28.307  24.093  1.00  0.00     0.028 C 
ATOM     79  C   UNL A   1      32.886  27.316  23.399  1.00  0.00     0.091 C 
BRANCH  79  80
ATOM     80  C   UNL A   1      32.919  25.841  23.501  1.00  0.00     0.224 C 
ATOM     81  O   UNL A   1      33.420  25.238  22.551  1.00  0.00    -0.275 OA
ATOM     82  N   UNL A   1      32.467  25.059  24.517  1.00  0.00    -0.342 N 
ATOM     83  H   UNL A   1      32.746  24.124  24.392  1.00  0.00     0.164 HD
BRANCH  82  84
ATOM     84  C   UNL A   1      31.685  25.210  25.741  1.00  0.00     0.202 C 
ATOM     85  C   UNL A   1      31.859  24.171  26.836  1.00  0.00     0.228 C 
ATOM     86  C   UNL A   1      30.197  25.342  25.604  1.00  0.00     0.268 C 
ATOM     87  O   UNL A   1      30.552  23.739  27.249  1.00  0.00    -0.271 OA
ATOM     88  N   UNL A   1      29.621  24.495  26.506  1.00  0.00    -0.233 N 
ATOM     89  O   UNL A   1      29.600  26.073  24.829  1.00  0.00    -0.270 OA
ATOM     90  H   UNL A   1      28.647  24.418  26.627  1.00  0.00     0.199 HD
ENDBRANCH  82  84
ENDBRANCH  79  80
ENDBRANCH  74  77
ENDBRANCH  72  73
ENDBRANCH  71  72
ENDBRANCH   1  71
TORSDOF 15
ENDMDL
MODEL 3
REMARK VINA RESULT:     -11.7      1.836      2.485
REMARK SMILES O=C(NCCCNC(=O)[C@@H]1C[C@H]1C(=O)N[C@@H]1CONC1=O)c1ccc(-c2c3nc(c(-c4cc(S(=O)(=O)[O-])ccc4F)c4ccc([nH]4)c(-c4cc(S(=O)(=O)[O-])ccc4F)c4nc(c(-c5cc(S(=O)(=O)[O-])ccc5F)c5ccc2[nH]5)C=C4)C=C3)cc1
REMARK SMILES IDX 4 1 3 2 1 3 2 4 22 6 23 7 84 8 24 9 83 10 25 11 26 12 27 13
REMARK SMILES IDX 77 14 28 15 82 16 76 17 78 18 29 19 81 20 75 21 74 22 30 24
REMARK SMILES IDX 62 25 42 26 61 27 43 28 46 29 60 30 79 31 44 32 45 33 59 35
REMARK SMILES IDX 80 36 47 37 31 38 32 39 40 40 33 41 39 42 41 43 38 44 34 45
REMARK SMILES IDX 35 46 36 47 37 48 63 49 64 50 72 51 65 52 71 53 73 54 70 55
REMARK SMILES IDX 66 56 67 57 68 58 69 59 48 60 49 61 57 62 50 63 56 64 58 65
REMARK SMILES IDX 55 66 51 67 52 68 53 69 54 70 5 71 6 72 7 73 8 74 9 76 10 77
REMARK SMILES IDX 11 78 12 79 13 80 14 81 15 82 16 84 17 85 20 86 18 87 19 88
REMARK SMILES IDX 21 89
REMARK H PARENT 3 5 78 23 46 34 7 75 15 83 19 90
REMARK Flexibility Score: inf
ROOT
ATOM      1  C   UNL A   1      32.675  32.649  27.314  1.00  0.00     0.118 C 
ENDROOT
BRANCH   1   2
ATOM      2  N   UNL A   1      32.600  34.052  27.704  1.00  0.00    -0.352 N 
ATOM      3  O   UNL A   1      32.985  35.886  28.951  1.00  0.00    -0.269 OA
ATOM      4  C   UNL A   1      33.304  34.735  28.667  1.00  0.00     0.251 C 
ATOM      5  H   UNL A   1      31.948  34.591  27.202  1.00  0.00     0.163 HD
BRANCH   4   6
ATOM      6  C   UNL A   1      34.426  34.076  29.370  1.00  0.00     0.039 A 
ATOM      7  C   UNL A   1      35.744  34.302  28.970  1.00  0.00     0.014 A 
ATOM      8  C   UNL A   1      34.158  33.228  30.448  1.00  0.00     0.014 A 
ATOM      9  C   UNL A   1      36.774  33.560  29.532  1.00  0.00     0.010 A 
ATOM     10  C   UNL A   1      35.211  32.565  31.087  1.00  0.00     0.010 A 
ATOM     11  C   UNL A   1      36.526  32.704  30.617  1.00  0.00    -0.014 A 
BRANCH  11  12
ATOM     12  C   UNL A   1      37.673  32.040  31.288  1.00  0.00     0.031 A 
ATOM     13  C   UNL A   1      38.434  30.929  30.619  1.00  0.00     0.074 A 
ATOM     14  C   UNL A   1      38.041  32.480  32.510  1.00  0.00     0.049 A 
ATOM     15  N   UNL A   1      39.458  30.248  31.069  1.00  0.00    -0.248 NA
ATOM     16  C   UNL A   1      37.988  30.524  29.278  1.00  0.00     0.031 C 
ATOM     17  C   UNL A   1      37.373  33.554  33.252  1.00  0.00     0.029 A 
ATOM     18  N   UNL A   1      39.067  32.099  33.336  1.00  0.00    -0.354 N 
ATOM     19  C   UNL A   1      39.771  29.326  30.077  1.00  0.00     0.074 A 
ATOM     20  C   UNL A   1      38.807  29.515  29.013  1.00  0.00     0.031 C 
ATOM     21  C   UNL A   1      38.033  33.777  34.396  1.00  0.00     0.029 A 
ATOM     22  C   UNL A   1      39.114  32.808  34.515  1.00  0.00     0.049 A 
ATOM     23  H   UNL A   1      39.707  31.387  33.108  1.00  0.00     0.167 HD
ATOM     24  C   UNL A   1      40.775  28.412  30.059  1.00  0.00     0.034 A 
ATOM     25  C   UNL A   1      39.913  32.673  35.590  1.00  0.00     0.034 A 
ATOM     26  C   UNL A   1      41.724  28.240  31.134  1.00  0.00     0.049 A 
ATOM     27  C   UNL A   1      40.977  31.608  35.565  1.00  0.00     0.074 A 
ATOM     28  C   UNL A   1      42.797  27.367  31.203  1.00  0.00     0.029 A 
ATOM     29  N   UNL A   1      41.711  28.940  32.335  1.00  0.00    -0.354 N 
ATOM     30  N   UNL A   1      41.275  30.762  34.606  1.00  0.00    -0.248 NA
ATOM     31  C   UNL A   1      41.815  31.483  36.762  1.00  0.00     0.031 C 
ATOM     32  C   UNL A   1      43.378  27.480  32.469  1.00  0.00     0.029 A 
ATOM     33  C   UNL A   1      42.730  28.490  33.162  1.00  0.00     0.049 A 
ATOM     34  H   UNL A   1      41.071  29.652  32.564  1.00  0.00     0.167 HD
ATOM     35  C   UNL A   1      42.355  30.023  35.078  1.00  0.00     0.074 A 
ATOM     36  C   UNL A   1      42.669  30.541  36.393  1.00  0.00     0.031 C 
ATOM     37  C   UNL A   1      43.028  29.009  34.477  1.00  0.00     0.034 A 
BRANCH  24  38
ATOM     38  C   UNL A   1      40.873  27.494  28.862  1.00  0.00     0.023 A 
ATOM     39  C   UNL A   1      41.842  27.676  27.861  1.00  0.00     0.031 A 
ATOM     40  C   UNL A   1      39.991  26.406  28.733  1.00  0.00     0.131 A 
ATOM     41  C   UNL A   1      41.875  26.816  26.752  1.00  0.00     0.055 A 
ATOM     42  C   UNL A   1      40.076  25.509  27.666  1.00  0.00     0.041 A 
ATOM     43  F   UNL A   1      39.029  26.194  29.645  1.00  0.00    -0.206 F 
ATOM     44  C   UNL A   1      41.016  25.718  26.662  1.00  0.00     0.022 A 
BRANCH  41  45
ATOM     45  S   UNL A   1      42.976  27.222  25.369  1.00  0.00     0.124 S 
ATOM     46  O   UNL A   1      43.027  25.952  24.646  1.00  0.00    -0.237 OA
ATOM     47  O   UNL A   1      42.261  28.304  24.702  1.00  0.00    -0.237 OA
ATOM     48  O   UNL A   1      44.224  27.607  26.023  1.00  0.00    -0.744 OA
ENDBRANCH  41  45
ENDBRANCH  24  38
BRANCH  25  49
ATOM     49  C   UNL A   1      39.713  33.529  36.794  1.00  0.00     0.023 A 
ATOM     50  C   UNL A   1      39.114  33.017  37.955  1.00  0.00     0.031 A 
ATOM     51  C   UNL A   1      40.066  34.891  36.781  1.00  0.00     0.131 A 
ATOM     52  C   UNL A   1      38.830  33.875  39.029  1.00  0.00     0.055 A 
ATOM     53  C   UNL A   1      39.847  35.723  37.880  1.00  0.00     0.041 A 
ATOM     54  F   UNL A   1      40.642  35.435  35.697  1.00  0.00    -0.206 F 
ATOM     55  C   UNL A   1      39.208  35.219  39.008  1.00  0.00     0.022 A 
BRANCH  52  56
ATOM     56  S   UNL A   1      37.844  33.232  40.409  1.00  0.00     0.124 S 
ATOM     57  O   UNL A   1      36.589  32.897  39.744  1.00  0.00    -0.237 OA
ATOM     58  O   UNL A   1      38.653  32.105  40.860  1.00  0.00    -0.237 OA
ATOM     59  O   UNL A   1      37.778  34.361  41.334  1.00  0.00    -0.744 OA
ENDBRANCH  52  56
ENDBRANCH  25  49
BRANCH  37  60
ATOM     60  C   UNL A   1      44.206  28.433  35.226  1.00  0.00     0.023 A 
ATOM     61  C   UNL A   1      44.050  27.425  36.193  1.00  0.00     0.031 A 
ATOM     62  C   UNL A   1      45.503  28.921  34.984  1.00  0.00     0.131 A 
ATOM     63  C   UNL A   1      45.161  26.982  36.926  1.00  0.00     0.055 A 
ATOM     64  C   UNL A   1      46.614  28.426  35.667  1.00  0.00     0.041 A 
ATOM     65  F   UNL A   1      45.711  29.888  34.076  1.00  0.00    -0.206 F 
ATOM     66  C   UNL A   1      46.445  27.462  36.655  1.00  0.00     0.022 A 
BRANCH  63  67
ATOM     67  S   UNL A   1      44.891  25.848  38.316  1.00  0.00     0.124 S 
ATOM     68  O   UNL A   1      46.187  25.875  38.986  1.00  0.00    -0.237 OA
ATOM     69  O   UNL A   1      43.791  26.487  39.030  1.00  0.00    -0.237 OA
ATOM     70  O   UNL A   1      44.554  24.582  37.665  1.00  0.00    -0.744 OA
ENDBRANCH  63  67
ENDBRANCH  37  60
ENDBRANCH  11  12
ENDBRANCH   4   6
ENDBRANCH   1   2
BRANCH   1  71
ATOM     71  C   UNL A   1      31.466  32.189  26.515  1.00  0.00     0.042 C 
BRANCH  71  72
ATOM     72  C   UNL A   1      31.415  30.688  26.286  1.00  0.00     0.117 C 
BRANCH  72  73
ATOM     73  N   UNL A   1      32.452  30.229  25.377  1.00  0.00    -0.356 N 
ATOM     74  C   UNL A   1      32.394  29.211  24.469  1.00  0.00     0.223 C 
ATOM     75  H   UNL A   1      33.307  30.714  25.423  1.00  0.00     0.163 HD
ATOM     76  O   UNL A   1      33.359  28.919  23.771  1.00  0.00    -0.275 OA
BRANCH  74  77
ATOM     77  C   UNL A   1      31.122  28.465  24.348  1.00  0.00     0.091 C 
ATOM     78  C   UNL A   1      30.995  27.279  23.416  1.00  0.00     0.028 C 
ATOM     79  C   UNL A   1      30.354  28.579  23.054  1.00  0.00     0.091 C 
BRANCH  79  80
ATOM     80  C   UNL A   1      28.912  28.882  22.933  1.00  0.00     0.224 C 
ATOM     81  O   UNL A   1      28.134  27.980  23.253  1.00  0.00    -0.275 OA
ATOM     82  N   UNL A   1      28.328  30.035  22.514  1.00  0.00    -0.342 N 
ATOM     83  H   UNL A   1      27.357  30.015  22.670  1.00  0.00     0.164 HD
BRANCH  82  84
ATOM     84  C   UNL A   1      28.730  31.296  21.896  1.00  0.00     0.202 C 
ATOM     85  C   UNL A   1      28.873  32.518  22.789  1.00  0.00     0.228 C 
ATOM     86  C   UNL A   1      27.921  31.791  20.735  1.00  0.00     0.268 C 
ATOM     87  O   UNL A   1      28.162  33.602  22.171  1.00  0.00    -0.271 OA
ATOM     88  N   UNL A   1      27.655  33.113  20.949  1.00  0.00    -0.233 N 
ATOM     89  O   UNL A   1      27.561  31.139  19.767  1.00  0.00    -0.270 OA
ATOM     90  H   UNL A   1      27.156  33.672  20.311  1.00  0.00     0.199 HD
ENDBRANCH  82  84
ENDBRANCH  79  80
ENDBRANCH  74  77
ENDBRANCH  72  73
ENDBRANCH  71  72
ENDBRANCH   1  71
TORSDOF 15
ENDMDL
