MODEL 1
REMARK VINA RESULT:     -13.1      0.000      0.000
REMARK SMILES O=C(C[C@H]1C(=O)N[NH+]=C2c3ccc(F)cc3N=CN21)NCCCNC(=O)c1ccc(-c2c3nc(c(-c4cc(S(=O)(=O)[O-])ccc4F)c4ccc([nH]4)c(-c4cc(S(=O)(=O)[O-])ccc4F)c4nc(c(-c5cc(S(=O)(=O)[O-])ccc5F)c5ccc2[nH]5)C=C4)C=C3)cc1
REMARK SMILES IDX 23 1 22 2 21 3 20 4 1 5 2 6 3 8 4 9 5 10 19 11 6 12 7 13
REMARK SMILES IDX 9 14 18 15 8 16 10 18 17 19 11 21 16 22 12 23 15 24 13 25
REMARK SMILES IDX 14 26 24 27 25 28 26 30 27 31 28 32 89 33 29 34 88 35 30 36
REMARK SMILES IDX 31 37 32 38 82 39 33 40 87 41 81 42 83 43 34 44 86 45 80 46
REMARK SMILES IDX 79 47 35 49 67 50 47 51 66 52 48 53 51 54 65 55 84 56 49 57
REMARK SMILES IDX 50 58 64 60 85 61 52 62 36 63 37 64 45 65 38 66 44 67 46 68
REMARK SMILES IDX 43 69 39 70 40 71 41 72 42 73 68 74 69 75 77 76 70 77 76 78
REMARK SMILES IDX 78 79 75 80 71 81 72 82 73 83 74 84 53 85 54 86 62 87 55 88
REMARK SMILES IDX 61 89 63 90 60 91 56 92 57 93 58 94 59 95
REMARK H PARENT 20 7 7 17 8 20 24 29 83 48 51 59
REMARK Flexibility Score: inf
ROOT
ATOM      1  C   UNL A   1      32.660  30.418  26.422  1.00  0.00     0.118 C 
ENDROOT
BRANCH   1   2
ATOM      2  C   UNL A   1      31.761  29.473  27.207  1.00  0.00     0.042 C 
BRANCH   2   3
ATOM      3  C   UNL A   1      32.404  28.146  27.596  1.00  0.00     0.117 C 
BRANCH   3   4
ATOM      4  N   UNL A   1      32.960  27.403  26.483  1.00  0.00    -0.356 N 
ATOM      5  O   UNL A   1      31.600  25.586  26.759  1.00  0.00    -0.275 OA
ATOM      6  C   UNL A   1      32.462  26.176  26.119  1.00  0.00     0.224 C 
ATOM      7  H   UNL A   1      33.712  27.787  25.975  1.00  0.00     0.163 HD
BRANCH   6   8
ATOM      8  C   UNL A   1      33.069  25.598  24.862  1.00  0.00     0.160 C 
BRANCH   8   9
ATOM      9  C   UNL A   1      32.091  25.617  23.686  1.00  0.00     0.284 C 
ATOM     10  C   UNL A   1      31.115  24.455  23.803  1.00  0.00     0.300 C 
ATOM     11  N   UNL A   1      31.420  26.913  23.496  1.00  0.00    -0.203 N 
ATOM     12  O   UNL A   1      31.473  23.288  23.634  1.00  0.00    -0.267 OA
ATOM     13  N   UNL A   1      29.828  24.769  24.150  1.00  0.00    -0.193 N 
ATOM     14  C   UNL A   1      30.038  26.963  23.620  1.00  0.00     0.309 C 
ATOM     15  C   UNL A   1      32.135  27.993  23.026  1.00  0.00     0.317 C 
ATOM     16  N   UNL A   1      29.262  25.993  23.998  1.00  0.00    -0.169 N 
ATOM     17  H   UNL A   1      29.272  24.056  24.539  1.00  0.00     0.216 HD
ATOM     18  C   UNL A   1      29.392  28.224  23.145  1.00  0.00     0.092 A 
ATOM     19  N   UNL A   1      31.641  29.101  22.577  1.00  0.00    -0.216 NA
ATOM     20  H   UNL A   1      28.303  26.139  24.166  1.00  0.00     0.340 HD
ATOM     21  C   UNL A   1      27.997  28.340  23.087  1.00  0.00     0.022 A 
ATOM     22  C   UNL A   1      30.231  29.186  22.549  1.00  0.00     0.085 A 
ATOM     23  C   UNL A   1      27.428  29.384  22.361  1.00  0.00     0.040 A 
ATOM     24  C   UNL A   1      29.642  30.228  21.831  1.00  0.00     0.068 A 
ATOM     25  C   UNL A   1      28.255  30.303  21.722  1.00  0.00     0.125 A 
ATOM     26  F   UNL A   1      27.704  31.258  20.962  1.00  0.00    -0.207 F 
ENDBRANCH   8   9
ENDBRANCH   6   8
ENDBRANCH   3   4
ENDBRANCH   2   3
ENDBRANCH   1   2
BRANCH   1  27
ATOM     27  N   UNL A   1      32.577  31.806  26.858  1.00  0.00    -0.352 N 
ATOM     28  C   UNL A   1      33.464  32.559  27.593  1.00  0.00     0.251 C 
ATOM     29  H   UNL A   1      31.758  32.279  26.584  1.00  0.00     0.163 HD
ATOM     30  O   UNL A   1      33.145  33.696  27.935  1.00  0.00    -0.269 OA
BRANCH  28  31
ATOM     31  C   UNL A   1      34.768  31.993  28.009  1.00  0.00     0.039 A 
ATOM     32  C   UNL A   1      34.880  30.667  28.425  1.00  0.00     0.014 A 
ATOM     33  C   UNL A   1      35.900  32.816  28.001  1.00  0.00     0.014 A 
ATOM     34  C   UNL A   1      36.063  30.225  29.012  1.00  0.00     0.010 A 
ATOM     35  C   UNL A   1      37.116  32.340  28.506  1.00  0.00     0.010 A 
ATOM     36  C   UNL A   1      37.193  31.058  29.072  1.00  0.00    -0.014 A 
BRANCH  36  37
ATOM     37  C   UNL A   1      38.430  30.564  29.738  1.00  0.00     0.031 A 
ATOM     38  C   UNL A   1      38.769  30.976  31.147  1.00  0.00     0.074 A 
ATOM     39  C   UNL A   1      39.218  29.684  29.089  1.00  0.00     0.049 A 
ATOM     40  N   UNL A   1      39.764  30.580  31.901  1.00  0.00    -0.248 NA
ATOM     41  C   UNL A   1      37.884  31.957  31.795  1.00  0.00     0.031 C 
ATOM     42  C   UNL A   1      38.992  29.216  27.722  1.00  0.00     0.029 A 
ATOM     43  N   UNL A   1      40.340  29.003  29.492  1.00  0.00    -0.354 N 
ATOM     44  C   UNL A   1      39.632  31.269  33.103  1.00  0.00     0.074 A 
ATOM     45  C   UNL A   1      38.485  32.140  32.963  1.00  0.00     0.031 C 
ATOM     46  C   UNL A   1      39.902  28.280  27.422  1.00  0.00     0.029 A 
ATOM     47  C   UNL A   1      40.822  28.126  28.547  1.00  0.00     0.049 A 
ATOM     48  H   UNL A   1      40.760  29.130  30.374  1.00  0.00     0.167 HD
ATOM     49  C   UNL A   1      40.385  31.170  34.224  1.00  0.00     0.034 A 
ATOM     50  C   UNL A   1      41.883  27.294  28.574  1.00  0.00     0.034 A 
ATOM     51  C   UNL A   1      41.513  30.281  34.358  1.00  0.00     0.049 A 
ATOM     52  C   UNL A   1      42.717  27.216  29.825  1.00  0.00     0.074 A 
ATOM     53  C   UNL A   1      42.319  30.090  35.467  1.00  0.00     0.029 A 
ATOM     54  N   UNL A   1      41.991  29.436  33.368  1.00  0.00    -0.354 N 
ATOM     55  N   UNL A   1      42.546  27.838  30.969  1.00  0.00    -0.248 NA
ATOM     56  C   UNL A   1      43.888  26.327  29.798  1.00  0.00     0.031 C 
ATOM     57  C   UNL A   1      43.318  29.177  35.129  1.00  0.00     0.029 A 
ATOM     58  C   UNL A   1      43.096  28.742  33.831  1.00  0.00     0.049 A 
ATOM     59  H   UNL A   1      41.602  29.344  32.468  1.00  0.00     0.167 HD
ATOM     60  C   UNL A   1      43.573  27.402  31.801  1.00  0.00     0.074 A 
ATOM     61  C   UNL A   1      44.345  26.442  31.038  1.00  0.00     0.031 C 
ATOM     62  C   UNL A   1      43.854  27.773  33.075  1.00  0.00     0.034 A 
BRANCH  49  63
ATOM     63  C   UNL A   1      40.027  32.020  35.419  1.00  0.00     0.023 A 
ATOM     64  C   UNL A   1      39.103  31.547  36.370  1.00  0.00     0.031 A 
ATOM     65  C   UNL A   1      40.487  33.344  35.541  1.00  0.00     0.131 A 
ATOM     66  C   UNL A   1      38.642  32.402  37.380  1.00  0.00     0.055 A 
ATOM     67  C   UNL A   1      40.055  34.178  36.573  1.00  0.00     0.041 A 
ATOM     68  F   UNL A   1      41.367  33.843  34.658  1.00  0.00    -0.206 F 
ATOM     69  C   UNL A   1      39.119  33.713  37.490  1.00  0.00     0.022 A 
BRANCH  66  70
ATOM     70  S   UNL A   1      37.359  31.872  38.548  1.00  0.00     0.124 S 
ATOM     71  O   UNL A   1      36.288  32.825  38.268  1.00  0.00    -0.237 OA
ATOM     72  O   UNL A   1      37.103  30.501  38.118  1.00  0.00    -0.237 OA
ATOM     73  O   UNL A   1      37.992  32.016  39.854  1.00  0.00    -0.744 OA
ENDBRANCH  66  70
ENDBRANCH  49  63
BRANCH  50  74
ATOM     74  C   UNL A   1      42.161  26.437  27.382  1.00  0.00     0.023 A 
ATOM     75  C   UNL A   1      41.723  25.100  27.337  1.00  0.00     0.031 A 
ATOM     76  C   UNL A   1      42.969  26.902  26.332  1.00  0.00     0.131 A 
ATOM     77  C   UNL A   1      42.164  24.255  26.310  1.00  0.00     0.055 A 
ATOM     78  C   UNL A   1      43.341  26.077  25.268  1.00  0.00     0.041 A 
ATOM     79  F   UNL A   1      43.422  28.165  26.336  1.00  0.00    -0.206 F 
ATOM     80  C   UNL A   1      42.957  24.741  25.266  1.00  0.00     0.022 A 
BRANCH  77  81
ATOM     81  S   UNL A   1      41.855  22.468  26.383  1.00  0.00     0.124 S 
ATOM     82  O   UNL A   1      42.584  21.986  25.214  1.00  0.00    -0.237 OA
ATOM     83  O   UNL A   1      42.436  22.118  27.678  1.00  0.00    -0.237 OA
ATOM     84  O   UNL A   1      40.402  22.367  26.309  1.00  0.00    -0.744 OA
ENDBRANCH  77  81
ENDBRANCH  50  74
BRANCH  62  85
ATOM     85  C   UNL A   1      45.047  27.154  33.764  1.00  0.00     0.023 A 
ATOM     86  C   UNL A   1      44.892  25.973  34.516  1.00  0.00     0.031 A 
ATOM     87  C   UNL A   1      46.287  27.814  33.811  1.00  0.00     0.131 A 
ATOM     88  C   UNL A   1      45.943  25.514  35.319  1.00  0.00     0.055 A 
ATOM     89  C   UNL A   1      47.348  27.326  34.576  1.00  0.00     0.041 A 
ATOM     90  F   UNL A   1      46.481  28.950  33.121  1.00  0.00    -0.206 F 
ATOM     91  C   UNL A   1      47.173  26.180  35.346  1.00  0.00     0.022 A 
BRANCH  88  92
ATOM     92  S   UNL A   1      45.726  24.094  36.427  1.00  0.00     0.124 S 
ATOM     93  O   UNL A   1      45.331  24.744  37.675  1.00  0.00    -0.237 OA
ATOM     94  O   UNL A   1      44.671  23.338  35.757  1.00  0.00    -0.237 OA
ATOM     95  O   UNL A   1      47.039  23.458  36.447  1.00  0.00    -0.744 OA
ENDBRANCH  88  92
ENDBRANCH  62  85
ENDBRANCH  36  37
ENDBRANCH  28  31
ENDBRANCH   1  27
TORSDOF 14
ENDMDL
MODEL 2
REMARK VINA RESULT:     -13.1      2.137      3.761
REMARK SMILES O=C(C[C@H]1C(=O)N[NH+]=C2c3ccc(F)cc3N=CN21)NCCCNC(=O)c1ccc(-c2c3nc(c(-c4cc(S(=O)(=O)[O-])ccc4F)c4ccc([nH]4)c(-c4cc(S(=O)(=O)[O-])ccc4F)c4nc(c(-c5cc(S(=O)(=O)[O-])ccc5F)c5ccc2[nH]5)C=C4)C=C3)cc1
REMARK SMILES IDX 23 1 22 2 21 3 20 4 1 5 2 6 3 8 4 9 5 10 19 11 6 12 7 13
REMARK SMILES IDX 9 14 18 15 8 16 10 18 17 19 11 21 16 22 12 23 15 24 13 25
REMARK SMILES IDX 14 26 24 27 25 28 26 30 27 31 28 32 89 33 29 34 88 35 30 36
REMARK SMILES IDX 31 37 32 38 82 39 33 40 87 41 81 42 83 43 34 44 86 45 80 46
REMARK SMILES IDX 79 47 35 49 67 50 47 51 66 52 48 53 51 54 65 55 84 56 49 57
REMARK SMILES IDX 50 58 64 60 85 61 52 62 36 63 37 64 45 65 38 66 44 67 46 68
REMARK SMILES IDX 43 69 39 70 40 71 41 72 42 73 68 74 69 75 77 76 70 77 76 78
REMARK SMILES IDX 78 79 75 80 71 81 72 82 73 83 74 84 53 85 54 86 62 87 55 88
REMARK SMILES IDX 61 89 63 90 60 91 56 92 57 93 58 94 59 95
REMARK H PARENT 20 7 7 17 8 20 24 29 83 48 51 59
REMARK Flexibility Score: inf
ROOT
ATOM      1  C   UNL A   1      32.288  29.956  26.458  1.00  0.00     0.118 C 
ENDROOT
BRANCH   1   2
ATOM      2  C   UNL A   1      32.127  29.594  24.988  1.00  0.00     0.042 C 
BRANCH   2   3
ATOM      3  C   UNL A   1      30.849  28.835  24.648  1.00  0.00     0.117 C 
BRANCH   3   4
ATOM      4  N   UNL A   1      31.042  27.420  24.401  1.00  0.00    -0.356 N 
ATOM      5  O   UNL A   1      30.611  26.783  26.555  1.00  0.00    -0.275 OA
ATOM      6  C   UNL A   1      30.850  26.486  25.391  1.00  0.00     0.224 C 
ATOM      7  H   UNL A   1      31.315  27.121  23.503  1.00  0.00     0.163 HD
BRANCH   6   8
ATOM      8  C   UNL A   1      30.967  25.051  24.933  1.00  0.00     0.160 C 
BRANCH   8   9
ATOM      9  C   UNL A   1      31.770  24.194  25.913  1.00  0.00     0.284 C 
ATOM     10  C   UNL A   1      30.864  23.153  26.554  1.00  0.00     0.300 C 
ATOM     11  N   UNL A   1      32.989  23.613  25.327  1.00  0.00    -0.203 N 
ATOM     12  O   UNL A   1      29.992  23.464  27.366  1.00  0.00    -0.267 OA
ATOM     13  N   UNL A   1      31.041  21.856  26.150  1.00  0.00    -0.193 N 
ATOM     14  C   UNL A   1      33.093  22.230  25.263  1.00  0.00     0.309 C 
ATOM     15  C   UNL A   1      34.061  24.425  25.030  1.00  0.00     0.317 C 
ATOM     16  N   UNL A   1      32.169  21.372  25.573  1.00  0.00    -0.169 N 
ATOM     17  H   UNL A   1      30.294  21.228  26.287  1.00  0.00     0.216 HD
ATOM     18  C   UNL A   1      34.449  21.699  24.926  1.00  0.00     0.092 A 
ATOM     19  N   UNL A   1      35.264  24.035  24.756  1.00  0.00    -0.216 NA
ATOM     20  H   UNL A   1      32.283  20.410  25.396  1.00  0.00     0.340 HD
ATOM     21  C   UNL A   1      34.715  20.324  24.970  1.00  0.00     0.022 A 
ATOM     22  C   UNL A   1      35.488  22.640  24.795  1.00  0.00     0.085 A 
ATOM     23  C   UNL A   1      36.036  19.883  24.960  1.00  0.00     0.040 A 
ATOM     24  C   UNL A   1      36.805  22.179  24.781  1.00  0.00     0.068 A 
ATOM     25  C   UNL A   1      37.067  20.815  24.889  1.00  0.00     0.125 A 
ATOM     26  F   UNL A   1      38.336  20.391  24.959  1.00  0.00    -0.207 F 
ENDBRANCH   8   9
ENDBRANCH   6   8
ENDBRANCH   3   4
ENDBRANCH   2   3
ENDBRANCH   1   2
BRANCH   1  27
ATOM     27  N   UNL A   1      32.176  31.385  26.726  1.00  0.00    -0.352 N 
ATOM     28  C   UNL A   1      33.054  32.240  27.351  1.00  0.00     0.251 C 
ATOM     29  H   UNL A   1      31.343  31.803  26.410  1.00  0.00     0.163 HD
ATOM     30  O   UNL A   1      32.713  33.403  27.559  1.00  0.00    -0.269 OA
BRANCH  28  31
ATOM     31  C   UNL A   1      34.377  31.758  27.813  1.00  0.00     0.039 A 
ATOM     32  C   UNL A   1      34.588  30.415  28.122  1.00  0.00     0.014 A 
ATOM     33  C   UNL A   1      35.423  32.676  27.957  1.00  0.00     0.014 A 
ATOM     34  C   UNL A   1      35.767  30.029  28.755  1.00  0.00     0.010 A 
ATOM     35  C   UNL A   1      36.643  32.267  28.507  1.00  0.00     0.010 A 
ATOM     36  C   UNL A   1      36.806  30.951  28.967  1.00  0.00    -0.014 A 
BRANCH  36  37
ATOM     37  C   UNL A   1      38.039  30.512  29.677  1.00  0.00     0.031 A 
ATOM     38  C   UNL A   1      38.302  30.925  31.102  1.00  0.00     0.074 A 
ATOM     39  C   UNL A   1      38.894  29.676  29.053  1.00  0.00     0.049 A 
ATOM     40  N   UNL A   1      39.285  30.571  31.891  1.00  0.00    -0.248 NA
ATOM     41  C   UNL A   1      37.345  31.856  31.722  1.00  0.00     0.031 C 
ATOM     42  C   UNL A   1      38.744  29.212  27.674  1.00  0.00     0.029 A 
ATOM     43  N   UNL A   1      40.031  29.048  29.495  1.00  0.00    -0.354 N 
ATOM     44  C   UNL A   1      39.072  31.241  33.092  1.00  0.00     0.074 A 
ATOM     45  C   UNL A   1      37.891  32.056  32.914  1.00  0.00     0.031 C 
ATOM     46  C   UNL A   1      39.711  28.324  27.403  1.00  0.00     0.029 A 
ATOM     47  C   UNL A   1      40.592  28.204  28.563  1.00  0.00     0.049 A 
ATOM     48  H   UNL A   1      40.409  29.186  30.393  1.00  0.00     0.167 HD
ATOM     49  C   UNL A   1      39.785  31.168  34.242  1.00  0.00     0.034 A 
ATOM     50  C   UNL A   1      41.691  27.424  28.625  1.00  0.00     0.034 A 
ATOM     51  C   UNL A   1      40.949  30.334  34.413  1.00  0.00     0.049 A 
ATOM     52  C   UNL A   1      42.478  27.375  29.908  1.00  0.00     0.074 A 
ATOM     53  C   UNL A   1      41.719  30.171  35.551  1.00  0.00     0.029 A 
ATOM     54  N   UNL A   1      41.506  29.522  33.436  1.00  0.00    -0.354 N 
ATOM     55  N   UNL A   1      42.232  27.976  31.048  1.00  0.00    -0.248 NA
ATOM     56  C   UNL A   1      43.691  26.544  29.920  1.00  0.00     0.031 C 
ATOM     57  C   UNL A   1      42.775  29.311  35.246  1.00  0.00     0.029 A 
ATOM     58  C   UNL A   1      42.625  28.878  33.937  1.00  0.00     0.049 A 
ATOM     59  H   UNL A   1      41.158  29.420  32.521  1.00  0.00     0.167 HD
ATOM     60  C   UNL A   1      43.246  27.583  31.917  1.00  0.00     0.074 A 
ATOM     61  C   UNL A   1      44.093  26.670  31.178  1.00  0.00     0.031 C 
ATOM     62  C   UNL A   1      43.459  27.955  33.204  1.00  0.00     0.034 A 
BRANCH  49  63
ATOM     63  C   UNL A   1      39.339  31.988  35.428  1.00  0.00     0.023 A 
ATOM     64  C   UNL A   1      38.622  31.381  36.476  1.00  0.00     0.031 A 
ATOM     65  C   UNL A   1      39.499  33.385  35.454  1.00  0.00     0.131 A 
ATOM     66  C   UNL A   1      38.060  32.172  37.487  1.00  0.00     0.055 A 
ATOM     67  C   UNL A   1      38.973  34.164  36.486  1.00  0.00     0.041 A 
ATOM     68  F   UNL A   1      40.174  34.012  34.477  1.00  0.00    -0.206 F 
ATOM     69  C   UNL A   1      38.238  33.559  37.501  1.00  0.00     0.022 A 
BRANCH  66  70
ATOM     70  S   UNL A   1      37.023  31.443  38.785  1.00  0.00     0.124 S 
ATOM     71  O   UNL A   1      36.824  30.086  38.281  1.00  0.00    -0.237 OA
ATOM     72  O   UNL A   1      37.883  31.552  39.960  1.00  0.00    -0.237 OA
ATOM     73  O   UNL A   1      35.831  32.283  38.795  1.00  0.00    -0.744 OA
ENDBRANCH  66  70
ENDBRANCH  49  63
BRANCH  50  74
ATOM     74  C   UNL A   1      42.057  26.593  27.438  1.00  0.00     0.023 A 
ATOM     75  C   UNL A   1      41.659  25.246  27.351  1.00  0.00     0.031 A 
ATOM     76  C   UNL A   1      42.907  27.096  26.441  1.00  0.00     0.131 A 
ATOM     77  C   UNL A   1      42.178  24.430  26.338  1.00  0.00     0.055 A 
ATOM     78  C   UNL A   1      43.360  26.298  25.388  1.00  0.00     0.041 A 
ATOM     79  F   UNL A   1      43.325  28.371  26.487  1.00  0.00    -0.206 F 
ATOM     80  C   UNL A   1      43.013  24.952  25.345  1.00  0.00     0.022 A 
BRANCH  77  81
ATOM     81  S   UNL A   1      41.915  22.634  26.369  1.00  0.00     0.124 S 
ATOM     82  O   UNL A   1      42.562  22.211  25.131  1.00  0.00    -0.237 OA
ATOM     83  O   UNL A   1      42.601  22.253  27.602  1.00  0.00    -0.237 OA
ATOM     84  O   UNL A   1      40.463  22.499  26.403  1.00  0.00    -0.744 OA
ENDBRANCH  77  81
ENDBRANCH  50  74
BRANCH  62  85
ATOM     85  C   UNL A   1      44.652  27.388  33.935  1.00  0.00     0.023 A 
ATOM     86  C   UNL A   1      44.513  26.222  34.714  1.00  0.00     0.031 A 
ATOM     87  C   UNL A   1      45.872  28.084  33.992  1.00  0.00     0.131 A 
ATOM     88  C   UNL A   1      45.559  25.814  35.551  1.00  0.00     0.055 A 
ATOM     89  C   UNL A   1      46.929  27.647  34.792  1.00  0.00     0.041 A 
ATOM     90  F   UNL A   1      46.050  29.207  33.277  1.00  0.00    -0.206 F 
ATOM     91  C   UNL A   1      46.769  26.515  35.587  1.00  0.00     0.022 A 
BRANCH  88  92
ATOM     92  S   UNL A   1      45.357  24.417  36.690  1.00  0.00     0.124 S 
ATOM     93  O   UNL A   1      46.726  24.210  37.158  1.00  0.00    -0.237 OA
ATOM     94  O   UNL A   1      44.434  24.959  37.683  1.00  0.00    -0.237 OA
ATOM     95  O   UNL A   1      44.821  23.351  35.849  1.00  0.00    -0.744 OA
ENDBRANCH  88  92
ENDBRANCH  62  85
ENDBRANCH  36  37
ENDBRANCH  28  31
ENDBRANCH   1  27
TORSDOF 14
ENDMDL
MODEL 3
REMARK VINA RESULT:     -13.0      5.138     10.064
REMARK SMILES O=C(C[C@H]1C(=O)N[NH+]=C2c3ccc(F)cc3N=CN21)NCCCNC(=O)c1ccc(-c2c3nc(c(-c4cc(S(=O)(=O)[O-])ccc4F)c4ccc([nH]4)c(-c4cc(S(=O)(=O)[O-])ccc4F)c4nc(c(-c5cc(S(=O)(=O)[O-])ccc5F)c5ccc2[nH]5)C=C4)C=C3)cc1
REMARK SMILES IDX 23 1 22 2 21 3 20 4 1 5 2 6 3 8 4 9 5 10 19 11 6 12 7 13
REMARK SMILES IDX 9 14 18 15 8 16 10 18 17 19 11 21 16 22 12 23 15 24 13 25
REMARK SMILES IDX 14 26 24 27 25 28 26 30 27 31 28 32 89 33 29 34 88 35 30 36
REMARK SMILES IDX 31 37 32 38 82 39 33 40 87 41 81 42 83 43 34 44 86 45 80 46
REMARK SMILES IDX 79 47 35 49 67 50 47 51 66 52 48 53 51 54 65 55 84 56 49 57
REMARK SMILES IDX 50 58 64 60 85 61 52 62 36 63 37 64 45 65 38 66 44 67 46 68
REMARK SMILES IDX 43 69 39 70 40 71 41 72 42 73 68 74 69 75 77 76 70 77 76 78
REMARK SMILES IDX 78 79 75 80 71 81 72 82 73 83 74 84 53 85 54 86 62 87 55 88
REMARK SMILES IDX 61 89 63 90 60 91 56 92 57 93 58 94 59 95
REMARK H PARENT 20 7 7 17 8 20 24 29 83 48 51 59
REMARK Flexibility Score: inf
ROOT
ATOM      1  C   UNL A   1      37.219  21.686  25.054  1.00  0.00     0.118 C 
ENDROOT
BRANCH   1   2
ATOM      2  C   UNL A   1      35.847  21.435  25.664  1.00  0.00     0.042 C 
BRANCH   2   3
ATOM      3  C   UNL A   1      34.784  20.956  24.680  1.00  0.00     0.117 C 
BRANCH   3   4
ATOM      4  N   UNL A   1      33.796  21.958  24.334  1.00  0.00    -0.356 N 
ATOM      5  O   UNL A   1      35.089  22.970  22.743  1.00  0.00    -0.275 OA
ATOM      6  C   UNL A   1      34.020  22.871  23.332  1.00  0.00     0.224 C 
ATOM      7  H   UNL A   1      32.944  21.984  24.828  1.00  0.00     0.163 HD
BRANCH   6   8
ATOM      8  C   UNL A   1      32.839  23.758  23.014  1.00  0.00     0.160 C 
BRANCH   8   9
ATOM      9  C   UNL A   1      33.253  25.213  22.789  1.00  0.00     0.284 C 
ATOM     10  C   UNL A   1      32.706  25.708  21.458  1.00  0.00     0.300 C 
ATOM     11  N   UNL A   1      32.921  26.104  23.914  1.00  0.00    -0.203 N 
ATOM     12  O   UNL A   1      33.146  25.298  20.383  1.00  0.00    -0.267 OA
ATOM     13  N   UNL A   1      31.669  26.601  21.517  1.00  0.00    -0.193 N 
ATOM     14  C   UNL A   1      32.036  27.148  23.686  1.00  0.00     0.309 C 
ATOM     15  C   UNL A   1      33.618  26.001  25.097  1.00  0.00     0.317 C 
ATOM     16  N   UNL A   1      31.371  27.372  22.593  1.00  0.00    -0.169 N 
ATOM     17  H   UNL A   1      31.096  26.691  20.720  1.00  0.00     0.216 HD
ATOM     18  C   UNL A   1      31.954  28.174  24.770  1.00  0.00     0.092 A 
ATOM     19  N   UNL A   1      33.614  26.861  26.064  1.00  0.00    -0.216 NA
ATOM     20  H   UNL A   1      30.679  28.071  22.547  1.00  0.00     0.340 HD
ATOM     21  C   UNL A   1      31.206  29.346  24.597  1.00  0.00     0.022 A 
ATOM     22  C   UNL A   1      32.835  28.023  25.858  1.00  0.00     0.085 A 
ATOM     23  C   UNL A   1      31.393  30.411  25.475  1.00  0.00     0.040 A 
ATOM     24  C   UNL A   1      33.005  29.099  26.731  1.00  0.00     0.068 A 
ATOM     25  C   UNL A   1      32.306  30.286  26.518  1.00  0.00     0.125 A 
ATOM     26  F   UNL A   1      32.539  31.339  27.311  1.00  0.00    -0.207 F 
ENDBRANCH   8   9
ENDBRANCH   6   8
ENDBRANCH   3   4
ENDBRANCH   2   3
ENDBRANCH   1   2
BRANCH   1  27
ATOM     27  N   UNL A   1      38.203  20.661  25.380  1.00  0.00    -0.352 N 
ATOM     28  C   UNL A   1      39.403  20.764  26.045  1.00  0.00     0.251 C 
ATOM     29  H   UNL A   1      37.973  19.753  25.076  1.00  0.00     0.163 HD
ATOM     30  O   UNL A   1      40.131  19.776  26.124  1.00  0.00    -0.269 OA
BRANCH  28  31
ATOM     31  C   UNL A   1      39.839  22.059  26.617  1.00  0.00     0.039 A 
ATOM     32  C   UNL A   1      39.316  23.266  26.155  1.00  0.00     0.014 A 
ATOM     33  C   UNL A   1      40.808  22.064  27.627  1.00  0.00     0.014 A 
ATOM     34  C   UNL A   1      39.894  24.468  26.555  1.00  0.00     0.010 A 
ATOM     35  C   UNL A   1      41.324  23.278  28.096  1.00  0.00     0.010 A 
ATOM     36  C   UNL A   1      40.914  24.491  27.520  1.00  0.00    -0.014 A 
BRANCH  36  37
ATOM     37  C   UNL A   1      41.534  25.791  27.899  1.00  0.00     0.031 A 
ATOM     38  C   UNL A   1      42.911  26.163  27.415  1.00  0.00     0.074 A 
ATOM     39  C   UNL A   1      40.819  26.671  28.629  1.00  0.00     0.049 A 
ATOM     40  N   UNL A   1      43.567  27.283  27.586  1.00  0.00    -0.248 NA
ATOM     41  C   UNL A   1      43.651  25.153  26.641  1.00  0.00     0.031 C 
ATOM     42  C   UNL A   1      39.478  26.419  29.155  1.00  0.00     0.029 A 
ATOM     43  N   UNL A   1      41.098  27.955  29.027  1.00  0.00    -0.354 N 
ATOM     44  C   UNL A   1      44.795  27.110  26.955  1.00  0.00     0.074 A 
ATOM     45  C   UNL A   1      44.811  25.762  26.433  1.00  0.00     0.031 C 
ATOM     46  C   UNL A   1      39.024  27.531  29.750  1.00  0.00     0.029 A 
ATOM     47  C   UNL A   1      40.065  28.556  29.710  1.00  0.00     0.049 A 
ATOM     48  H   UNL A   1      41.954  28.403  28.842  1.00  0.00     0.167 HD
ATOM     49  C   UNL A   1      45.806  27.999  26.809  1.00  0.00     0.034 A 
ATOM     50  C   UNL A   1      39.960  29.789  30.248  1.00  0.00     0.034 A 
ATOM     51  C   UNL A   1      45.768  29.349  27.316  1.00  0.00     0.049 A 
ATOM     52  C   UNL A   1      41.107  30.753  30.089  1.00  0.00     0.074 A 
ATOM     53  C   UNL A   1      46.734  30.333  27.190  1.00  0.00     0.029 A 
ATOM     54  N   UNL A   1      44.720  29.908  28.032  1.00  0.00    -0.354 N 
ATOM     55  N   UNL A   1      42.238  30.587  29.445  1.00  0.00    -0.248 NA
ATOM     56  C   UNL A   1      40.968  32.071  30.725  1.00  0.00     0.031 C 
ATOM     57  C   UNL A   1      46.298  31.464  27.880  1.00  0.00     0.029 A 
ATOM     58  C   UNL A   1      45.028  31.214  28.377  1.00  0.00     0.049 A 
ATOM     59  H   UNL A   1      43.883  29.446  28.261  1.00  0.00     0.167 HD
ATOM     60  C   UNL A   1      42.937  31.783  29.583  1.00  0.00     0.074 A 
ATOM     61  C   UNL A   1      42.089  32.673  30.347  1.00  0.00     0.031 C 
ATOM     62  C   UNL A   1      44.173  32.106  29.125  1.00  0.00     0.034 A 
BRANCH  49  63
ATOM     63  C   UNL A   1      47.045  27.574  26.060  1.00  0.00     0.023 A 
ATOM     64  C   UNL A   1      47.186  27.885  24.694  1.00  0.00     0.031 A 
ATOM     65  C   UNL A   1      48.014  26.747  26.656  1.00  0.00     0.131 A 
ATOM     66  C   UNL A   1      48.250  27.343  23.961  1.00  0.00     0.055 A 
ATOM     67  C   UNL A   1      49.095  26.244  25.931  1.00  0.00     0.041 A 
ATOM     68  F   UNL A   1      47.925  26.420  27.956  1.00  0.00    -0.206 F 
ATOM     69  C   UNL A   1      49.209  26.530  24.574  1.00  0.00     0.022 A 
BRANCH  66  70
ATOM     70  S   UNL A   1      48.396  27.615  22.173  1.00  0.00     0.124 S 
ATOM     71  O   UNL A   1      48.567  26.252  21.677  1.00  0.00    -0.237 OA
ATOM     72  O   UNL A   1      47.115  28.239  21.854  1.00  0.00    -0.237 OA
ATOM     73  O   UNL A   1      49.566  28.475  22.043  1.00  0.00    -0.744 OA
ENDBRANCH  66  70
ENDBRANCH  49  63
BRANCH  50  74
ATOM     74  C   UNL A   1      38.690  30.175  30.934  1.00  0.00     0.023 A 
ATOM     75  C   UNL A   1      37.674  30.857  30.239  1.00  0.00     0.031 A 
ATOM     76  C   UNL A   1      38.527  29.976  32.314  1.00  0.00     0.131 A 
ATOM     77  C   UNL A   1      36.584  31.387  30.941  1.00  0.00     0.055 A 
ATOM     78  C   UNL A   1      37.400  30.439  32.996  1.00  0.00     0.041 A 
ATOM     79  F   UNL A   1      39.474  29.342  33.023  1.00  0.00    -0.206 F 
ATOM     80  C   UNL A   1      36.432  31.167  32.313  1.00  0.00     0.022 A 
BRANCH  77  81
ATOM     81  S   UNL A   1      35.416  32.513  30.126  1.00  0.00     0.124 S 
ATOM     82  O   UNL A   1      35.074  31.771  28.916  1.00  0.00    -0.237 OA
ATOM     83  O   UNL A   1      34.354  32.615  31.125  1.00  0.00    -0.237 OA
ATOM     84  O   UNL A   1      36.194  33.730  29.925  1.00  0.00    -0.744 OA
ENDBRANCH  77  81
ENDBRANCH  50  74
BRANCH  62  85
ATOM     85  C   UNL A   1      44.718  33.483  29.420  1.00  0.00     0.023 A 
ATOM     86  C   UNL A   1      44.617  34.503  28.454  1.00  0.00     0.031 A 
ATOM     87  C   UNL A   1      45.474  33.736  30.578  1.00  0.00     0.131 A 
ATOM     88  C   UNL A   1      45.298  35.712  28.642  1.00  0.00     0.055 A 
ATOM     89  C   UNL A   1      46.112  34.960  30.783  1.00  0.00     0.041 A 
ATOM     90  F   UNL A   1      45.610  32.792  31.523  1.00  0.00    -0.206 F 
ATOM     91  C   UNL A   1      46.038  35.949  29.805  1.00  0.00     0.022 A 
BRANCH  88  92
ATOM     92  S   UNL A   1      45.327  36.982  27.348  1.00  0.00     0.124 S 
ATOM     93  O   UNL A   1      45.960  36.269  26.240  1.00  0.00    -0.237 OA
ATOM     94  O   UNL A   1      43.908  37.275  27.170  1.00  0.00    -0.237 OA
ATOM     95  O   UNL A   1      46.123  38.059  27.928  1.00  0.00    -0.744 OA
ENDBRANCH  88  92
ENDBRANCH  62  85
ENDBRANCH  36  37
ENDBRANCH  28  31
ENDBRANCH   1  27
TORSDOF 14
ENDMDL
