MODEL 1
REMARK VINA RESULT:     -13.6      0.000      0.000
REMARK SMILES CC(C)=C1[C@H]2CC[C@@H]1[C@H](C(=O)NNC(=O)c1ccoc1C)[C@H]2C(=O)NCCCNC(=O)c1ccc(-c2c3nc(c(-c4cc(S(=O)(=O)[O-])ccc4F)c4ccc([nH]4)c(-c4cc(S(=O)(=O)[O-])ccc4F)c4nc(c(-c5cc(S(=O)(=O)[O-])ccc5F)c5ccc2[nH]5)C=C4)C=C3)cc1
REMARK SMILES IDX 27 1 26 2 25 3 23 4 24 5 22 7 1 8 2 9 3 10 4 11 5 12 8 13
REMARK SMILES IDX 6 14 7 15 9 16 10 17 11 18 12 19 13 21 14 22 15 24 16 25
REMARK SMILES IDX 17 26 20 27 18 28 19 29 21 30 28 31 29 32 30 33 31 35 32 36
REMARK SMILES IDX 33 37 94 38 34 39 93 40 35 41 36 42 37 43 87 44 38 45 92 46
REMARK SMILES IDX 86 47 88 48 39 49 91 50 85 51 84 52 40 54 72 55 52 56 71 57
REMARK SMILES IDX 53 58 56 59 70 60 89 61 54 62 55 63 69 65 90 66 57 67 41 68
REMARK SMILES IDX 42 69 50 70 43 71 49 72 51 73 48 74 44 75 45 76 46 77 47 78
REMARK SMILES IDX 73 79 74 80 82 81 75 82 81 83 83 84 80 85 76 86 77 87 78 88
REMARK SMILES IDX 79 89 58 90 59 91 67 92 60 93 66 94 68 95 65 96 61 97 62 98
REMARK SMILES IDX 63 99 64 100
REMARK H PARENT 25 6 12 20 13 23 29 34 88 53 56 64
REMARK Flexibility Score: inf
ROOT
ATOM      1  C   UNL A   1      31.376  32.229  26.647  1.00  0.00     0.042 C 
ENDROOT
BRANCH   1   2
ATOM      2  C   UNL A   1      31.558  30.911  25.909  1.00  0.00     0.117 C 
BRANCH   2   3
ATOM      3  N   UNL A   1      31.523  29.779  26.819  1.00  0.00    -0.356 N 
ATOM      4  C   UNL A   1      31.778  28.457  26.686  1.00  0.00     0.224 C 
ATOM      5  O   UNL A   1      31.527  27.766  27.681  1.00  0.00    -0.275 OA
ATOM      6  H   UNL A   1      31.254  30.028  27.734  1.00  0.00     0.163 HD
BRANCH   4   7
ATOM      7  C   UNL A   1      32.369  27.779  25.455  1.00  0.00     0.098 C 
ATOM      8  C   UNL A   1      30.568  23.406  25.215  1.00  0.00     0.039 C 
ATOM      9  C   UNL A   1      31.633  24.280  25.816  1.00  0.00    -0.077 C 
ATOM     10  C   UNL A   1      32.279  23.705  27.053  1.00  0.00     0.039 C 
ATOM     11  C   UNL A   1      32.020  25.442  25.258  1.00  0.00    -0.064 C 
ATOM     12  C   UNL A   1      33.073  26.427  25.681  1.00  0.00     0.028 C 
ATOM     13  C   UNL A   1      31.705  26.049  23.905  1.00  0.00     0.028 C 
ATOM     14  C   UNL A   1      34.050  26.186  24.511  1.00  0.00     0.009 C 
ATOM     15  C   UNL A   1      33.117  25.863  23.322  1.00  0.00     0.009 C 
ATOM     16  C   UNL A   1      31.387  27.513  24.295  1.00  0.00     0.100 C 
BRANCH  16  17
ATOM     17  C   UNL A   1      31.605  28.541  23.189  1.00  0.00     0.242 C 
ATOM     18  O   UNL A   1      32.722  28.964  22.886  1.00  0.00    -0.273 OA
ATOM     19  N   UNL A   1      30.532  29.079  22.529  1.00  0.00    -0.267 N 
ATOM     20  H   UNL A   1      30.724  29.808  21.896  1.00  0.00     0.191 HD
BRANCH  19  21
ATOM     21  N   UNL A   1      29.199  28.702  22.663  1.00  0.00    -0.263 N 
ATOM     22  C   UNL A   1      28.156  29.594  22.852  1.00  0.00     0.273 C 
ATOM     23  H   UNL A   1      28.984  27.742  22.622  1.00  0.00     0.191 HD
ATOM     24  O   UNL A   1      27.059  29.168  23.204  1.00  0.00    -0.267 OA
BRANCH  22  25
ATOM     25  C   UNL A   1      28.408  31.019  22.712  1.00  0.00     0.082 A 
ATOM     26  C   UNL A   1      28.790  31.910  23.760  1.00  0.00     0.056 A 
ATOM     27  C   UNL A   1      28.271  31.815  21.585  1.00  0.00     0.113 A 
ATOM     28  C   UNL A   1      28.923  33.153  23.193  1.00  0.00     0.196 A 
ATOM     29  O   UNL A   1      28.613  33.104  21.874  1.00  0.00    -0.469 OA
ATOM     30  C   UNL A   1      27.831  31.582  20.192  1.00  0.00     0.088 C 
ENDBRANCH  22  25
ENDBRANCH  19  21
ENDBRANCH  16  17
ENDBRANCH   4   7
ENDBRANCH   2   3
ENDBRANCH   1   2
BRANCH   1  31
ATOM     31  C   UNL A   1      32.661  32.769  27.259  1.00  0.00     0.118 C 
BRANCH  31  32
ATOM     32  N   UNL A   1      32.516  34.151  27.692  1.00  0.00    -0.352 N 
ATOM     33  C   UNL A   1      33.096  34.834  28.735  1.00  0.00     0.251 C 
ATOM     34  H   UNL A   1      31.897  34.687  27.146  1.00  0.00     0.163 HD
ATOM     35  O   UNL A   1      32.609  35.914  29.065  1.00  0.00    -0.269 OA
BRANCH  33  36
ATOM     36  C   UNL A   1      34.269  34.296  29.470  1.00  0.00     0.039 A 
ATOM     37  C   UNL A   1      35.539  34.419  28.892  1.00  0.00     0.014 A 
ATOM     38  C   UNL A   1      34.132  33.603  30.674  1.00  0.00     0.014 A 
ATOM     39  C   UNL A   1      36.662  33.891  29.541  1.00  0.00     0.010 A 
ATOM     40  C   UNL A   1      35.260  33.161  31.365  1.00  0.00     0.010 A 
ATOM     41  C   UNL A   1      36.536  33.279  30.797  1.00  0.00    -0.014 A 
BRANCH  41  42
ATOM     42  C   UNL A   1      37.709  32.699  31.508  1.00  0.00     0.031 A 
ATOM     43  C   UNL A   1      38.475  31.559  30.885  1.00  0.00     0.074 A 
ATOM     44  C   UNL A   1      38.049  33.146  32.732  1.00  0.00     0.049 A 
ATOM     45  N   UNL A   1      39.440  30.831  31.388  1.00  0.00    -0.248 NA
ATOM     46  C   UNL A   1      38.070  31.165  29.529  1.00  0.00     0.031 C 
ATOM     47  C   UNL A   1      37.376  34.223  33.459  1.00  0.00     0.029 A 
ATOM     48  N   UNL A   1      39.044  32.741  33.587  1.00  0.00    -0.354 N 
ATOM     49  C   UNL A   1      39.736  29.874  30.421  1.00  0.00     0.074 A 
ATOM     50  C   UNL A   1      38.802  30.080  29.335  1.00  0.00     0.031 C 
ATOM     51  C   UNL A   1      37.994  34.411  34.637  1.00  0.00     0.029 A 
ATOM     52  C   UNL A   1      39.076  33.442  34.768  1.00  0.00     0.049 A 
ATOM     53  H   UNL A   1      39.676  32.017  33.373  1.00  0.00     0.167 HD
ATOM     54  C   UNL A   1      40.710  28.929  30.426  1.00  0.00     0.034 A 
ATOM     55  C   UNL A   1      39.880  33.312  35.841  1.00  0.00     0.034 A 
ATOM     56  C   UNL A   1      41.654  28.753  31.503  1.00  0.00     0.049 A 
ATOM     57  C   UNL A   1      40.947  32.250  35.835  1.00  0.00     0.074 A 
ATOM     58  C   UNL A   1      42.711  27.863  31.594  1.00  0.00     0.029 A 
ATOM     59  N   UNL A   1      41.654  29.485  32.685  1.00  0.00    -0.354 N 
ATOM     60  N   UNL A   1      41.225  31.363  34.909  1.00  0.00    -0.248 NA
ATOM     61  C   UNL A   1      41.812  32.177  37.020  1.00  0.00     0.031 C 
ATOM     62  C   UNL A   1      43.317  28.024  32.846  1.00  0.00     0.029 A 
ATOM     63  C   UNL A   1      42.678  29.055  33.515  1.00  0.00     0.049 A 
ATOM     64  H   UNL A   1      41.019  30.206  32.899  1.00  0.00     0.167 HD
ATOM     65  C   UNL A   1      42.313  30.641  35.390  1.00  0.00     0.074 A 
ATOM     66  C   UNL A   1      42.645  31.204  36.683  1.00  0.00     0.031 C 
ATOM     67  C   UNL A   1      42.984  29.613  34.811  1.00  0.00     0.034 A 
BRANCH  54  68
ATOM     68  C   UNL A   1      40.774  28.003  29.232  1.00  0.00     0.023 A 
ATOM     69  C   UNL A   1      41.702  28.203  28.194  1.00  0.00     0.031 A 
ATOM     70  C   UNL A   1      39.852  26.951  29.093  1.00  0.00     0.131 A 
ATOM     71  C   UNL A   1      41.619  27.438  27.021  1.00  0.00     0.055 A 
ATOM     72  C   UNL A   1      39.836  26.131  27.962  1.00  0.00     0.041 A 
ATOM     73  F   UNL A   1      38.930  26.718  30.041  1.00  0.00    -0.206 F 
ATOM     74  C   UNL A   1      40.708  26.386  26.907  1.00  0.00     0.022 A 
BRANCH  71  75
ATOM     75  S   UNL A   1      42.592  27.959  25.582  1.00  0.00     0.124 S 
ATOM     76  O   UNL A   1      41.752  29.016  25.025  1.00  0.00    -0.237 OA
ATOM     77  O   UNL A   1      43.846  28.391  26.189  1.00  0.00    -0.237 OA
ATOM     78  O   UNL A   1      42.677  26.747  24.768  1.00  0.00    -0.744 OA
ENDBRANCH  71  75
ENDBRANCH  54  68
BRANCH  55  79
ATOM     79  C   UNL A   1      39.712  34.211  37.016  1.00  0.00     0.023 A 
ATOM     80  C   UNL A   1      39.128  33.739  38.200  1.00  0.00     0.031 A 
ATOM     81  C   UNL A   1      40.116  35.556  36.964  1.00  0.00     0.131 A 
ATOM     82  C   UNL A   1      38.935  34.612  39.280  1.00  0.00     0.055 A 
ATOM     83  C   UNL A   1      39.956  36.413  38.053  1.00  0.00     0.041 A 
ATOM     84  F   UNL A   1      40.690  36.049  35.855  1.00  0.00    -0.206 F 
ATOM     85  C   UNL A   1      39.354  35.945  39.218  1.00  0.00     0.022 A 
BRANCH  82  86
ATOM     86  S   UNL A   1      38.085  33.994  40.757  1.00  0.00     0.124 S 
ATOM     87  O   UNL A   1      39.159  33.288  41.446  1.00  0.00    -0.237 OA
ATOM     88  O   UNL A   1      37.626  35.231  41.381  1.00  0.00    -0.237 OA
ATOM     89  O   UNL A   1      37.027  33.146  40.212  1.00  0.00    -0.744 OA
ENDBRANCH  82  86
ENDBRANCH  55  79
BRANCH  67  90
ATOM     90  C   UNL A   1      44.168  29.066  35.565  1.00  0.00     0.023 A 
ATOM     91  C   UNL A   1      44.027  28.045  36.520  1.00  0.00     0.031 A 
ATOM     92  C   UNL A   1      45.452  29.594  35.339  1.00  0.00     0.131 A 
ATOM     93  C   UNL A   1      45.144  27.617  37.252  1.00  0.00     0.055 A 
ATOM     94  C   UNL A   1      46.567  29.129  36.036  1.00  0.00     0.041 A 
ATOM     95  F   UNL A   1      45.640  30.572  34.438  1.00  0.00    -0.206 F 
ATOM     96  C   UNL A   1      46.415  28.143  37.008  1.00  0.00     0.022 A 
BRANCH  93  97
ATOM     97  S   UNL A   1      44.902  26.415  38.589  1.00  0.00     0.124 S 
ATOM     98  O   UNL A   1      45.448  25.195  38.003  1.00  0.00    -0.237 OA
ATOM     99  O   UNL A   1      45.676  27.000  39.680  1.00  0.00    -0.237 OA
ATOM    100  O   UNL A   1      43.454  26.412  38.791  1.00  0.00    -0.744 OA
ENDBRANCH  93  97
ENDBRANCH  67  90
ENDBRANCH  41  42
ENDBRANCH  33  36
ENDBRANCH  31  32
ENDBRANCH   1  31
TORSDOF 16
ENDMDL
MODEL 2
REMARK VINA RESULT:     -13.4      6.685     12.531
REMARK SMILES CC(C)=C1[C@H]2CC[C@@H]1[C@H](C(=O)NNC(=O)c1ccoc1C)[C@H]2C(=O)NCCCNC(=O)c1ccc(-c2c3nc(c(-c4cc(S(=O)(=O)[O-])ccc4F)c4ccc([nH]4)c(-c4cc(S(=O)(=O)[O-])ccc4F)c4nc(c(-c5cc(S(=O)(=O)[O-])ccc5F)c5ccc2[nH]5)C=C4)C=C3)cc1
REMARK SMILES IDX 27 1 26 2 25 3 23 4 24 5 22 7 1 8 2 9 3 10 4 11 5 12 8 13
REMARK SMILES IDX 6 14 7 15 9 16 10 17 11 18 12 19 13 21 14 22 15 24 16 25
REMARK SMILES IDX 17 26 20 27 18 28 19 29 21 30 28 31 29 32 30 33 31 35 32 36
REMARK SMILES IDX 33 37 94 38 34 39 93 40 35 41 36 42 37 43 87 44 38 45 92 46
REMARK SMILES IDX 86 47 88 48 39 49 91 50 85 51 84 52 40 54 72 55 52 56 71 57
REMARK SMILES IDX 53 58 56 59 70 60 89 61 54 62 55 63 69 65 90 66 57 67 41 68
REMARK SMILES IDX 42 69 50 70 43 71 49 72 51 73 48 74 44 75 45 76 46 77 47 78
REMARK SMILES IDX 73 79 74 80 82 81 75 82 81 83 83 84 80 85 76 86 77 87 78 88
REMARK SMILES IDX 79 89 58 90 59 91 67 92 60 93 66 94 68 95 65 96 61 97 62 98
REMARK SMILES IDX 63 99 64 100
REMARK H PARENT 25 6 12 20 13 23 29 34 88 53 56 64
REMARK Flexibility Score: inf
ROOT
ATOM      1  C   UNL A   1      38.438  19.675  24.943  1.00  0.00     0.042 C 
ENDROOT
BRANCH   1   2
ATOM      2  C   UNL A   1      37.103  20.398  25.053  1.00  0.00     0.117 C 
BRANCH   2   3
ATOM      3  N   UNL A   1      37.022  21.513  24.124  1.00  0.00    -0.356 N 
ATOM      4  C   UNL A   1      36.172  22.554  23.979  1.00  0.00     0.224 C 
ATOM      5  O   UNL A   1      36.361  23.258  22.979  1.00  0.00    -0.275 OA
ATOM      6  H   UNL A   1      37.745  21.510  23.455  1.00  0.00     0.163 HD
BRANCH   4   7
ATOM      7  C   UNL A   1      35.054  22.939  24.941  1.00  0.00     0.098 C 
ATOM      8  C   UNL A   1      31.516  24.773  22.385  1.00  0.00     0.039 C 
ATOM      9  C   UNL A   1      32.827  25.046  23.067  1.00  0.00    -0.077 C 
ATOM     10  C   UNL A   1      33.521  26.299  22.593  1.00  0.00     0.039 C 
ATOM     11  C   UNL A   1      33.303  24.274  24.061  1.00  0.00    -0.064 C 
ATOM     12  C   UNL A   1      34.558  24.397  24.879  1.00  0.00     0.028 C 
ATOM     13  C   UNL A   1      32.650  23.161  24.856  1.00  0.00     0.028 C 
ATOM     14  C   UNL A   1      33.884  24.739  26.224  1.00  0.00     0.009 C 
ATOM     15  C   UNL A   1      32.556  23.949  26.175  1.00  0.00     0.009 C 
ATOM     16  C   UNL A   1      33.768  22.090  24.857  1.00  0.00     0.100 C 
BRANCH  16  17
ATOM     17  C   UNL A   1      33.722  21.105  26.021  1.00  0.00     0.242 C 
ATOM     18  O   UNL A   1      34.270  21.329  27.102  1.00  0.00    -0.273 OA
ATOM     19  N   UNL A   1      33.109  19.890  25.870  1.00  0.00    -0.267 N 
ATOM     20  H   UNL A   1      33.195  19.256  26.619  1.00  0.00     0.191 HD
BRANCH  19  21
ATOM     21  N   UNL A   1      32.377  19.460  24.768  1.00  0.00    -0.263 N 
ATOM     22  C   UNL A   1      32.636  18.289  24.074  1.00  0.00     0.273 C 
ATOM     23  H   UNL A   1      31.629  20.022  24.462  1.00  0.00     0.191 HD
ATOM     24  O   UNL A   1      32.107  18.112  22.980  1.00  0.00    -0.267 OA
BRANCH  22  25
ATOM     25  C   UNL A   1      33.591  17.339  24.619  1.00  0.00     0.082 A 
ATOM     26  C   UNL A   1      35.010  17.398  24.469  1.00  0.00     0.056 A 
ATOM     27  C   UNL A   1      33.345  16.170  25.321  1.00  0.00     0.113 A 
ATOM     28  C   UNL A   1      35.524  16.314  25.136  1.00  0.00     0.196 A 
ATOM     29  O   UNL A   1      34.521  15.565  25.658  1.00  0.00    -0.469 OA
ATOM     30  C   UNL A   1      32.126  15.450  25.750  1.00  0.00     0.088 C 
ENDBRANCH  22  25
ENDBRANCH  19  21
ENDBRANCH  16  17
ENDBRANCH   4   7
ENDBRANCH   2   3
ENDBRANCH   1   2
BRANCH   1  31
ATOM     31  C   UNL A   1      39.414  20.022  26.058  1.00  0.00     0.118 C 
BRANCH  31  32
ATOM     32  N   UNL A   1      40.543  19.104  26.095  1.00  0.00    -0.352 N 
ATOM     33  C   UNL A   1      41.897  19.342  26.096  1.00  0.00     0.251 C 
ATOM     34  H   UNL A   1      40.295  18.152  26.125  1.00  0.00     0.163 HD
ATOM     35  O   UNL A   1      42.653  18.402  25.853  1.00  0.00    -0.269 OA
BRANCH  33  36
ATOM     36  C   UNL A   1      42.458  20.691  26.364  1.00  0.00     0.039 A 
ATOM     37  C   UNL A   1      42.587  21.114  27.692  1.00  0.00     0.014 A 
ATOM     38  C   UNL A   1      42.781  21.575  25.333  1.00  0.00     0.014 A 
ATOM     39  C   UNL A   1      43.078  22.394  27.980  1.00  0.00     0.010 A 
ATOM     40  C   UNL A   1      43.356  22.812  25.619  1.00  0.00     0.010 A 
ATOM     41  C   UNL A   1      43.491  23.246  26.945  1.00  0.00    -0.014 A 
BRANCH  41  42
ATOM     42  C   UNL A   1      44.008  24.616  27.217  1.00  0.00     0.031 A 
ATOM     43  C   UNL A   1      43.080  25.674  27.756  1.00  0.00     0.074 A 
ATOM     44  C   UNL A   1      45.284  24.930  26.922  1.00  0.00     0.049 A 
ATOM     45  N   UNL A   1      43.292  26.953  27.942  1.00  0.00    -0.248 NA
ATOM     46  C   UNL A   1      41.719  25.237  28.095  1.00  0.00     0.031 C 
ATOM     47  C   UNL A   1      46.279  24.009  26.371  1.00  0.00     0.029 A 
ATOM     48  N   UNL A   1      45.962  26.119  27.039  1.00  0.00    -0.354 N 
ATOM     49  C   UNL A   1      42.083  27.478  28.389  1.00  0.00     0.074 A 
ATOM     50  C   UNL A   1      41.131  26.387  28.383  1.00  0.00     0.031 C 
ATOM     51  C   UNL A   1      47.445  24.659  26.223  1.00  0.00     0.029 A 
ATOM     52  C   UNL A   1      47.271  26.051  26.626  1.00  0.00     0.049 A 
ATOM     53  H   UNL A   1      45.549  26.942  27.386  1.00  0.00     0.167 HD
ATOM     54  C   UNL A   1      41.797  28.742  28.792  1.00  0.00     0.034 A 
ATOM     55  C   UNL A   1      48.221  27.004  26.568  1.00  0.00     0.034 A 
ATOM     56  C   UNL A   1      42.763  29.813  28.820  1.00  0.00     0.049 A 
ATOM     57  C   UNL A   1      47.884  28.404  27.007  1.00  0.00     0.074 A 
ATOM     58  C   UNL A   1      42.600  31.118  29.254  1.00  0.00     0.029 A 
ATOM     59  N   UNL A   1      44.082  29.704  28.394  1.00  0.00    -0.354 N 
ATOM     60  N   UNL A   1      46.741  28.881  27.442  1.00  0.00    -0.248 NA
ATOM     61  C   UNL A   1      48.969  29.392  26.950  1.00  0.00     0.031 C 
ATOM     62  C   UNL A   1      43.801  31.807  29.045  1.00  0.00     0.029 A 
ATOM     63  C   UNL A   1      44.734  30.919  28.537  1.00  0.00     0.049 A 
ATOM     64  H   UNL A   1      44.493  28.881  28.043  1.00  0.00     0.167 HD
ATOM     65  C   UNL A   1      46.978  30.221  27.733  1.00  0.00     0.074 A 
ATOM     66  C   UNL A   1      48.373  30.472  27.433  1.00  0.00     0.031 C 
ATOM     67  C   UNL A   1      46.121  31.158  28.214  1.00  0.00     0.034 A 
BRANCH  54  68
ATOM     68  C   UNL A   1      40.371  29.025  29.206  1.00  0.00     0.023 A 
ATOM     69  C   UNL A   1      39.977  28.991  30.556  1.00  0.00     0.031 A 
ATOM     70  C   UNL A   1      39.378  29.260  28.239  1.00  0.00     0.131 A 
ATOM     71  C   UNL A   1      38.618  29.082  30.893  1.00  0.00     0.055 A 
ATOM     72  C   UNL A   1      38.038  29.443  28.589  1.00  0.00     0.041 A 
ATOM     73  F   UNL A   1      39.687  29.287  26.933  1.00  0.00    -0.206 F 
ATOM     74  C   UNL A   1      37.647  29.332  29.921  1.00  0.00     0.022 A 
BRANCH  71  75
ATOM     75  S   UNL A   1      38.123  28.683  32.592  1.00  0.00     0.124 S 
ATOM     76  O   UNL A   1      38.250  27.227  32.601  1.00  0.00    -0.237 OA
ATOM     77  O   UNL A   1      39.102  29.416  33.385  1.00  0.00    -0.237 OA
ATOM     78  O   UNL A   1      36.751  29.181  32.675  1.00  0.00    -0.744 OA
ENDBRANCH  71  75
ENDBRANCH  54  68
BRANCH  55  79
ATOM     79  C   UNL A   1      49.586  26.671  26.077  1.00  0.00     0.023 A 
ATOM     80  C   UNL A   1      49.997  27.054  24.792  1.00  0.00     0.031 A 
ATOM     81  C   UNL A   1      50.490  25.952  26.878  1.00  0.00     0.131 A 
ATOM     82  C   UNL A   1      51.270  26.691  24.330  1.00  0.00     0.055 A 
ATOM     83  C   UNL A   1      51.769  25.625  26.428  1.00  0.00     0.041 A 
ATOM     84  F   UNL A   1      50.145  25.575  28.119  1.00  0.00    -0.206 F 
ATOM     85  C   UNL A   1      52.163  25.987  25.143  1.00  0.00     0.022 A 
BRANCH  82  86
ATOM     86  S   UNL A   1      51.730  27.114  22.628  1.00  0.00     0.124 S 
ATOM     87  O   UNL A   1      52.126  28.511  22.764  1.00  0.00    -0.237 OA
ATOM     88  O   UNL A   1      52.806  26.164  22.360  1.00  0.00    -0.237 OA
ATOM     89  O   UNL A   1      50.500  26.882  21.875  1.00  0.00    -0.744 OA
ENDBRANCH  82  86
ENDBRANCH  55  79
BRANCH  67  90
ATOM     90  C   UNL A   1      46.693  32.526  28.481  1.00  0.00     0.023 A 
ATOM     91  C   UNL A   1      46.785  33.497  27.470  1.00  0.00     0.031 A 
ATOM     92  C   UNL A   1      47.174  32.851  29.762  1.00  0.00     0.131 A 
ATOM     93  C   UNL A   1      47.393  34.732  27.742  1.00  0.00     0.055 A 
ATOM     94  C   UNL A   1      47.733  34.099  30.039  1.00  0.00     0.041 A 
ATOM     95  F   UNL A   1      47.112  31.958  30.762  1.00  0.00    -0.206 F 
ATOM     96  C   UNL A   1      47.856  35.044  29.023  1.00  0.00     0.022 A 
BRANCH  93  97
ATOM     97  S   UNL A   1      47.643  35.901  26.378  1.00  0.00     0.124 S 
ATOM     98  O   UNL A   1      48.632  36.815  26.939  1.00  0.00    -0.237 OA
ATOM     99  O   UNL A   1      48.114  35.032  25.304  1.00  0.00    -0.237 OA
ATOM    100  O   UNL A   1      46.315  36.476  26.170  1.00  0.00    -0.744 OA
ENDBRANCH  93  97
ENDBRANCH  67  90
ENDBRANCH  41  42
ENDBRANCH  33  36
ENDBRANCH  31  32
ENDBRANCH   1  31
TORSDOF 16
ENDMDL
MODEL 3
REMARK VINA RESULT:     -13.3      1.003      7.598
REMARK SMILES CC(C)=C1[C@H]2CC[C@@H]1[C@H](C(=O)NNC(=O)c1ccoc1C)[C@H]2C(=O)NCCCNC(=O)c1ccc(-c2c3nc(c(-c4cc(S(=O)(=O)[O-])ccc4F)c4ccc([nH]4)c(-c4cc(S(=O)(=O)[O-])ccc4F)c4nc(c(-c5cc(S(=O)(=O)[O-])ccc5F)c5ccc2[nH]5)C=C4)C=C3)cc1
REMARK SMILES IDX 27 1 26 2 25 3 23 4 24 5 22 7 1 8 2 9 3 10 4 11 5 12 8 13
REMARK SMILES IDX 6 14 7 15 9 16 10 17 11 18 12 19 13 21 14 22 15 24 16 25
REMARK SMILES IDX 17 26 20 27 18 28 19 29 21 30 28 31 29 32 30 33 31 35 32 36
REMARK SMILES IDX 33 37 94 38 34 39 93 40 35 41 36 42 37 43 87 44 38 45 92 46
REMARK SMILES IDX 86 47 88 48 39 49 91 50 85 51 84 52 40 54 72 55 52 56 71 57
REMARK SMILES IDX 53 58 56 59 70 60 89 61 54 62 55 63 69 65 90 66 57 67 41 68
REMARK SMILES IDX 42 69 50 70 43 71 49 72 51 73 48 74 44 75 45 76 46 77 47 78
REMARK SMILES IDX 73 79 74 80 82 81 75 82 81 83 83 84 80 85 76 86 77 87 78 88
REMARK SMILES IDX 79 89 58 90 59 91 67 92 60 93 66 94 68 95 65 96 61 97 62 98
REMARK SMILES IDX 63 99 64 100
REMARK H PARENT 25 6 12 20 13 23 29 34 88 53 56 64
REMARK Flexibility Score: inf
ROOT
ATOM      1  C   UNL A   1      31.532  32.226  26.957  1.00  0.00     0.042 C 
ENDROOT
BRANCH   1   2
ATOM      2  C   UNL A   1      31.530  30.938  26.146  1.00  0.00     0.117 C 
BRANCH   2   3
ATOM      3  N   UNL A   1      31.508  29.766  27.005  1.00  0.00    -0.356 N 
ATOM      4  C   UNL A   1      31.788  28.457  26.815  1.00  0.00     0.224 C 
ATOM      5  O   UNL A   1      31.541  27.717  27.776  1.00  0.00    -0.275 OA
ATOM      6  H   UNL A   1      31.227  29.969  27.927  1.00  0.00     0.163 HD
BRANCH   4   7
ATOM      7  C   UNL A   1      32.401  27.844  25.560  1.00  0.00     0.098 C 
ATOM      8  C   UNL A   1      30.601  23.495  25.051  1.00  0.00     0.039 C 
ATOM      9  C   UNL A   1      31.656  24.333  25.717  1.00  0.00    -0.077 C 
ATOM     10  C   UNL A   1      32.278  23.690  26.933  1.00  0.00     0.039 C 
ATOM     11  C   UNL A   1      32.054  25.523  25.230  1.00  0.00    -0.064 C 
ATOM     12  C   UNL A   1      33.100  26.481  25.725  1.00  0.00     0.028 C 
ATOM     13  C   UNL A   1      31.764  26.203  23.907  1.00  0.00     0.028 C 
ATOM     14  C   UNL A   1      34.098  26.302  24.562  1.00  0.00     0.009 C 
ATOM     15  C   UNL A   1      33.187  26.046  23.340  1.00  0.00     0.009 C 
ATOM     16  C   UNL A   1      31.440  27.644  24.369  1.00  0.00     0.100 C 
BRANCH  16  17
ATOM     17  C   UNL A   1      31.679  28.729  23.324  1.00  0.00     0.242 C 
ATOM     18  O   UNL A   1      32.797  29.197  23.096  1.00  0.00    -0.273 OA
ATOM     19  N   UNL A   1      30.623  29.270  22.640  1.00  0.00    -0.267 N 
ATOM     20  H   UNL A   1      30.823  30.033  22.051  1.00  0.00     0.191 HD
BRANCH  19  21
ATOM     21  N   UNL A   1      29.297  28.851  22.691  1.00  0.00    -0.263 N 
ATOM     22  C   UNL A   1      28.217  29.709  22.819  1.00  0.00     0.273 C 
ATOM     23  H   UNL A   1      29.116  27.885  22.634  1.00  0.00     0.191 HD
ATOM     24  O   UNL A   1      27.115  29.246  23.102  1.00  0.00    -0.267 OA
BRANCH  22  25
ATOM     25  C   UNL A   1      28.432  31.141  22.697  1.00  0.00     0.082 A 
ATOM     26  C   UNL A   1      28.810  32.024  23.754  1.00  0.00     0.056 A 
ATOM     27  C   UNL A   1      28.257  31.952  21.586  1.00  0.00     0.113 A 
ATOM     28  C   UNL A   1      28.903  33.279  23.206  1.00  0.00     0.196 A 
ATOM     29  O   UNL A   1      28.572  33.244  21.892  1.00  0.00    -0.469 OA
ATOM     30  C   UNL A   1      27.800  31.730  20.197  1.00  0.00     0.088 C 
ENDBRANCH  22  25
ENDBRANCH  19  21
ENDBRANCH  16  17
ENDBRANCH   4   7
ENDBRANCH   2   3
ENDBRANCH   1   2
BRANCH   1  31
ATOM     31  C   UNL A   1      32.925  32.783  27.215  1.00  0.00     0.118 C 
BRANCH  31  32
ATOM     32  N   UNL A   1      32.877  34.086  27.861  1.00  0.00    -0.352 N 
ATOM     33  C   UNL A   1      33.496  34.552  28.996  1.00  0.00     0.251 C 
ATOM     34  H   UNL A   1      32.303  34.746  27.408  1.00  0.00     0.163 HD
ATOM     35  O   UNL A   1      33.086  35.599  29.495  1.00  0.00    -0.269 OA
BRANCH  33  36
ATOM     36  C   UNL A   1      34.622  33.822  29.634  1.00  0.00     0.039 A 
ATOM     37  C   UNL A   1      35.933  34.212  29.333  1.00  0.00     0.014 A 
ATOM     38  C   UNL A   1      34.412  32.712  30.454  1.00  0.00     0.014 A 
ATOM     39  C   UNL A   1      37.018  33.522  29.887  1.00  0.00     0.010 A 
ATOM     40  C   UNL A   1      35.489  32.085  31.079  1.00  0.00     0.010 A 
ATOM     41  C   UNL A   1      36.805  32.467  30.787  1.00  0.00    -0.014 A 
BRANCH  41  42
ATOM     42  C   UNL A   1      37.938  31.707  31.386  1.00  0.00     0.031 A 
ATOM     43  C   UNL A   1      38.433  32.062  32.765  1.00  0.00     0.074 A 
ATOM     44  C   UNL A   1      38.563  30.749  30.675  1.00  0.00     0.049 A 
ATOM     45  N   UNL A   1      39.478  31.616  33.415  1.00  0.00    -0.248 NA
ATOM     46  C   UNL A   1      37.666  33.085  33.490  1.00  0.00     0.031 C 
ATOM     47  C   UNL A   1      38.203  30.327  29.320  1.00  0.00     0.029 A 
ATOM     48  N   UNL A   1      39.641  29.961  30.992  1.00  0.00    -0.354 N 
ATOM     49  C   UNL A   1      39.511  32.326  34.612  1.00  0.00     0.074 A 
ATOM     50  C   UNL A   1      38.418  33.274  34.562  1.00  0.00     0.031 C 
ATOM     51  C   UNL A   1      39.027  29.339  28.935  1.00  0.00     0.029 A 
ATOM     52  C   UNL A   1      40.000  29.089  29.993  1.00  0.00     0.049 A 
ATOM     53  H   UNL A   1      40.112  30.016  31.855  1.00  0.00     0.167 HD
ATOM     54  C   UNL A   1      40.356  32.186  35.665  1.00  0.00     0.034 A 
ATOM     55  C   UNL A   1      41.006  28.194  29.932  1.00  0.00     0.034 A 
ATOM     56  C   UNL A   1      41.425  31.218  35.713  1.00  0.00     0.049 A 
ATOM     57  C   UNL A   1      41.941  28.060  31.103  1.00  0.00     0.074 A 
ATOM     58  C   UNL A   1      42.310  30.953  36.745  1.00  0.00     0.029 A 
ATOM     59  N   UNL A   1      41.756  30.349  34.680  1.00  0.00    -0.354 N 
ATOM     60  N   UNL A   1      41.952  28.727  32.233  1.00  0.00    -0.248 NA
ATOM     61  C   UNL A   1      43.000  27.047  30.989  1.00  0.00     0.031 C 
ATOM     62  C   UNL A   1      43.202  29.963  36.318  1.00  0.00     0.029 A 
ATOM     63  C   UNL A   1      42.841  29.565  35.042  1.00  0.00     0.049 A 
ATOM     64  H   UNL A   1      41.286  30.298  33.816  1.00  0.00     0.167 HD
ATOM     65  C   UNL A   1      43.002  28.197  32.976  1.00  0.00     0.074 A 
ATOM     66  C   UNL A   1      43.595  27.150  32.168  1.00  0.00     0.031 C 
ATOM     67  C   UNL A   1      43.432  28.538  34.217  1.00  0.00     0.034 A 
BRANCH  54  68
ATOM     68  C   UNL A   1      40.162  33.128  36.831  1.00  0.00     0.023 A 
ATOM     69  C   UNL A   1      39.491  32.723  38.000  1.00  0.00     0.031 A 
ATOM     70  C   UNL A   1      40.586  34.465  36.750  1.00  0.00     0.131 A 
ATOM     71  C   UNL A   1      39.171  33.666  38.988  1.00  0.00     0.055 A 
ATOM     72  C   UNL A   1      40.347  35.378  37.780  1.00  0.00     0.041 A 
ATOM     73  F   UNL A   1      41.217  34.918  35.654  1.00  0.00    -0.206 F 
ATOM     74  C   UNL A   1      39.616  34.987  38.899  1.00  0.00     0.022 A 
BRANCH  71  75
ATOM     75  S   UNL A   1      38.011  33.183  40.296  1.00  0.00     0.124 S 
ATOM     76  O   UNL A   1      37.979  34.388  41.122  1.00  0.00    -0.237 OA
ATOM     77  O   UNL A   1      36.796  32.889  39.547  1.00  0.00    -0.237 OA
ATOM     78  O   UNL A   1      38.657  32.028  40.918  1.00  0.00    -0.744 OA
ENDBRANCH  71  75
ENDBRANCH  54  68
BRANCH  55  79
ATOM     79  C   UNL A   1      41.184  27.351  28.718  1.00  0.00     0.023 A 
ATOM     80  C   UNL A   1      42.182  27.650  27.779  1.00  0.00     0.031 A 
ATOM     81  C   UNL A   1      40.350  26.246  28.473  1.00  0.00     0.131 A 
ATOM     82  C   UNL A   1      42.304  26.872  26.619  1.00  0.00     0.055 A 
ATOM     83  C   UNL A   1      40.499  25.452  27.336  1.00  0.00     0.041 A 
ATOM     84  F   UNL A   1      39.389  25.914  29.350  1.00  0.00    -0.206 F 
ATOM     85  C   UNL A   1      41.475  25.769  26.396  1.00  0.00     0.022 A 
BRANCH  82  86
ATOM     86  S   UNL A   1      43.537  27.349  25.379  1.00  0.00     0.124 S 
ATOM     87  O   UNL A   1      44.209  26.080  25.122  1.00  0.00    -0.237 OA
ATOM     88  O   UNL A   1      42.698  27.862  24.299  1.00  0.00    -0.237 OA
ATOM     89  O   UNL A   1      44.342  28.356  26.067  1.00  0.00    -0.744 OA
ENDBRANCH  82  86
ENDBRANCH  55  79
BRANCH  67  90
ATOM     90  C   UNL A   1      44.575  27.736  34.783  1.00  0.00     0.023 A 
ATOM     91  C   UNL A   1      44.367  26.495  35.409  1.00  0.00     0.031 A 
ATOM     92  C   UNL A   1      45.888  28.234  34.714  1.00  0.00     0.131 A 
ATOM     93  C   UNL A   1      45.449  25.816  35.988  1.00  0.00     0.055 A 
ATOM     94  C   UNL A   1      46.968  27.530  35.249  1.00  0.00     0.041 A 
ATOM     95  F   UNL A   1      46.141  29.415  34.127  1.00  0.00    -0.206 F 
ATOM     96  C   UNL A   1      46.750  26.319  35.901  1.00  0.00     0.022 A 
BRANCH  93  97
ATOM     97  S   UNL A   1      45.125  24.300  36.929  1.00  0.00     0.124 S 
ATOM     98  O   UNL A   1      46.468  23.758  37.106  1.00  0.00    -0.237 OA
ATOM     99  O   UNL A   1      44.480  24.811  38.135  1.00  0.00    -0.237 OA
ATOM    100  O   UNL A   1      44.255  23.525  36.045  1.00  0.00    -0.744 OA
ENDBRANCH  93  97
ENDBRANCH  67  90
ENDBRANCH  41  42
ENDBRANCH  33  36
ENDBRANCH  31  32
ENDBRANCH   1  31
TORSDOF 16
ENDMDL
