MODEL 1
REMARK VINA RESULT:     -12.4      0.000      0.000
REMARK SMILES C[C@@H]1CCCN(c2ccc(NC(=O)Cc3cccs3)c(C(=O)NCCCNC(=O)c3ccc(-c4c5nc(c(-c6cc(S(=O)(=O)[O-])ccc6F)c6ccc([nH]6)c(-c6cc(S(=O)(=O)[O-])ccc6F)c6nc(c(-c7cc(S(=O)(=O)[O-])ccc7F)c7ccc4[nH]7)C=C6)C=C5)cc3)c2)C1
REMARK SMILES IDX 25 1 24 2 23 3 21 4 22 5 20 7 7 8 8 9 93 10 9 11 10 12 6 13
REMARK SMILES IDX 1 14 2 15 3 16 94 17 4 18 5 19 11 20 12 21 13 23 14 24 15 25
REMARK SMILES IDX 16 26 19 27 17 28 18 29 26 30 27 31 28 32 29 34 30 35 31 36
REMARK SMILES IDX 92 37 32 38 91 39 33 40 34 41 35 42 85 43 36 44 90 45 84 46
REMARK SMILES IDX 86 47 37 48 89 49 83 50 82 51 38 53 70 54 50 55 69 56 51 57
REMARK SMILES IDX 54 58 68 59 87 60 52 61 53 62 67 64 88 65 55 66 39 67 40 68
REMARK SMILES IDX 48 69 41 70 47 71 49 72 46 73 42 74 43 75 44 76 45 77 71 78
REMARK SMILES IDX 72 79 80 80 73 81 79 82 81 83 78 84 74 85 75 86 76 87 77 88
REMARK SMILES IDX 56 89 57 90 65 91 58 92 64 93 66 94 63 95 59 96 60 97 61 98
REMARK SMILES IDX 62 99
REMARK H PARENT 23 6 11 22 27 33 86 52 54 63
REMARK Flexibility Score: inf
ROOT
ATOM      1  C   UNL A   1      33.691  29.262  23.157  1.00  0.00     0.042 C 
ENDROOT
BRANCH   1   2
ATOM      2  C   UNL A   1      34.053  27.971  22.424  1.00  0.00     0.118 C 
BRANCH   2   3
ATOM      3  N   UNL A   1      32.894  27.416  21.749  1.00  0.00    -0.352 N 
ATOM      4  C   UNL A   1      31.941  26.496  22.102  1.00  0.00     0.253 C 
ATOM      5  O   UNL A   1      31.028  26.333  21.289  1.00  0.00    -0.269 OA
ATOM      6  H   UNL A   1      32.765  27.777  20.841  1.00  0.00     0.163 HD
BRANCH   4   7
ATOM      7  C   UNL A   1      31.910  25.754  23.406  1.00  0.00     0.065 A 
ATOM      8  C   UNL A   1      33.011  24.329  25.066  1.00  0.00     0.038 A 
ATOM      9  C   UNL A   1      31.914  24.486  25.906  1.00  0.00     0.028 A 
ATOM     10  C   UNL A   1      32.977  24.942  23.812  1.00  0.00     0.042 A 
ATOM     11  C   UNL A   1      30.792  25.206  25.490  1.00  0.00     0.029 A 
ATOM     12  C   UNL A   1      30.749  25.795  24.224  1.00  0.00     0.054 A 
BRANCH   8  13
ATOM     13  N   UNL A   1      34.113  23.622  25.489  1.00  0.00    -0.371 N 
ATOM     14  C   UNL A   1      34.872  19.925  25.001  1.00  0.00     0.009 C 
ATOM     15  C   UNL A   1      34.849  21.419  24.682  1.00  0.00     0.005 C 
ATOM     16  C   UNL A   1      36.280  21.975  24.617  1.00  0.00     0.007 C 
ATOM     17  C   UNL A   1      34.010  22.184  25.720  1.00  0.00     0.119 C 
ATOM     18  C   UNL A   1      36.269  23.477  24.337  1.00  0.00     0.022 C 
ATOM     19  C   UNL A   1      35.438  24.220  25.377  1.00  0.00     0.116 C 
ENDBRANCH   8  13
BRANCH  12  20
ATOM     20  N   UNL A   1      29.569  26.383  23.719  1.00  0.00    -0.325 N 
ATOM     21  C   UNL A   1      29.181  27.674  23.498  1.00  0.00     0.229 C 
ATOM     22  H   UNL A   1      28.879  25.724  23.474  1.00  0.00     0.169 HD
ATOM     23  O   UNL A   1      28.047  27.852  23.035  1.00  0.00    -0.274 OA
BRANCH  21  24
ATOM     24  C   UNL A   1      30.053  28.878  23.793  1.00  0.00     0.147 C 
BRANCH  24  25
ATOM     25  C   UNL A   1      29.504  30.203  23.328  1.00  0.00     0.014 A 
ATOM     26  C   UNL A   1      29.143  31.349  24.014  1.00  0.00     0.016 A 
ATOM     27  S   UNL A   1      29.290  30.432  21.631  1.00  0.00    -0.148 S 
ATOM     28  C   UNL A   1      28.765  32.421  23.155  1.00  0.00     0.012 A 
ATOM     29  C   UNL A   1      28.778  32.047  21.833  1.00  0.00     0.065 A 
ENDBRANCH  24  25
ENDBRANCH  21  24
ENDBRANCH  12  20
ENDBRANCH   4   7
ENDBRANCH   2   3
ENDBRANCH   1   2
BRANCH   1  30
ATOM     30  C   UNL A   1      33.527  29.061  24.664  1.00  0.00     0.118 C 
BRANCH  30  31
ATOM     31  N   UNL A   1      32.786  30.160  25.269  1.00  0.00    -0.352 N 
ATOM     32  C   UNL A   1      32.920  30.747  26.502  1.00  0.00     0.251 C 
ATOM     33  H   UNL A   1      32.076  30.541  24.704  1.00  0.00     0.163 HD
ATOM     34  O   UNL A   1      32.004  31.442  26.931  1.00  0.00    -0.269 OA
BRANCH  32  35
ATOM     35  C   UNL A   1      34.147  30.550  27.304  1.00  0.00     0.039 A 
ATOM     36  C   UNL A   1      34.436  29.273  27.795  1.00  0.00     0.014 A 
ATOM     37  C   UNL A   1      34.980  31.625  27.625  1.00  0.00     0.014 A 
ATOM     38  C   UNL A   1      35.586  29.067  28.562  1.00  0.00     0.010 A 
ATOM     39  C   UNL A   1      36.163  31.405  28.323  1.00  0.00     0.010 A 
ATOM     40  C   UNL A   1      36.476  30.125  28.807  1.00  0.00    -0.014 A 
BRANCH  40  41
ATOM     41  C   UNL A   1      37.730  29.921  29.579  1.00  0.00     0.031 A 
ATOM     42  C   UNL A   1      38.813  29.030  29.030  1.00  0.00     0.074 A 
ATOM     43  C   UNL A   1      37.860  30.479  30.797  1.00  0.00     0.049 A 
ATOM     44  N   UNL A   1      39.928  28.637  29.592  1.00  0.00    -0.248 NA
ATOM     45  C   UNL A   1      38.594  28.483  27.682  1.00  0.00     0.031 C 
ATOM     46  C   UNL A   1      36.861  31.331  31.447  1.00  0.00     0.029 A 
ATOM     47  N   UNL A   1      38.877  30.404  31.715  1.00  0.00    -0.354 N 
ATOM     48  C   UNL A   1      40.534  27.783  28.676  1.00  0.00     0.074 A 
ATOM     49  C   UNL A   1      39.632  27.668  27.550  1.00  0.00     0.031 C 
ATOM     50  C   UNL A   1      37.325  31.718  32.646  1.00  0.00     0.029 A 
ATOM     51  C   UNL A   1      38.628  31.101  32.875  1.00  0.00     0.049 A 
ATOM     52  H   UNL A   1      39.708  29.901  31.560  1.00  0.00     0.167 HD
ATOM     53  C   UNL A   1      41.741  27.169  28.759  1.00  0.00     0.034 A 
ATOM     54  C   UNL A   1      39.358  31.218  34.003  1.00  0.00     0.034 A 
ATOM     55  C   UNL A   1      42.633  27.311  29.884  1.00  0.00     0.049 A 
ATOM     56  C   UNL A   1      40.688  30.511  34.079  1.00  0.00     0.074 A 
ATOM     57  C   UNL A   1      43.900  26.779  30.054  1.00  0.00     0.029 A 
ATOM     58  N   UNL A   1      42.351  28.033  31.037  1.00  0.00    -0.354 N 
ATOM     59  N   UNL A   1      41.267  29.741  33.186  1.00  0.00    -0.248 NA
ATOM     60  C   UNL A   1      41.468  30.699  35.309  1.00  0.00     0.031 C 
ATOM     61  C   UNL A   1      44.354  27.125  31.331  1.00  0.00     0.029 A 
ATOM     62  C   UNL A   1      43.406  27.938  31.931  1.00  0.00     0.049 A 
ATOM     63  H   UNL A   1      41.520  28.540  31.196  1.00  0.00     0.167 HD
ATOM     64  C   UNL A   1      42.494  29.380  33.736  1.00  0.00     0.074 A 
ATOM     65  C   UNL A   1      42.575  30.029  35.028  1.00  0.00     0.031 C 
ATOM     66  C   UNL A   1      43.467  28.587  33.219  1.00  0.00     0.034 A 
BRANCH  53  67
ATOM     67  C   UNL A   1      42.148  26.273  27.612  1.00  0.00     0.023 A 
ATOM     68  C   UNL A   1      41.865  24.895  27.613  1.00  0.00     0.031 A 
ATOM     69  C   UNL A   1      42.850  26.797  26.513  1.00  0.00     0.131 A 
ATOM     70  C   UNL A   1      42.349  24.078  26.581  1.00  0.00     0.055 A 
ATOM     71  C   UNL A   1      43.256  25.992  25.445  1.00  0.00     0.041 A 
ATOM     72  F   UNL A   1      43.167  28.100  26.462  1.00  0.00    -0.206 F 
ATOM     73  C   UNL A   1      43.021  24.621  25.483  1.00  0.00     0.022 A 
BRANCH  70  74
ATOM     74  S   UNL A   1      42.218  22.279  26.768  1.00  0.00     0.124 S 
ATOM     75  O   UNL A   1      43.387  21.820  26.023  1.00  0.00    -0.237 OA
ATOM     76  O   UNL A   1      42.276  22.107  28.215  1.00  0.00    -0.237 OA
ATOM     77  O   UNL A   1      40.931  21.963  26.151  1.00  0.00    -0.744 OA
ENDBRANCH  70  74
ENDBRANCH  53  67
BRANCH  54  78
ATOM     78  C   UNL A   1      38.853  32.023  35.152  1.00  0.00     0.023 A 
ATOM     79  C   UNL A   1      38.365  31.400  36.311  1.00  0.00     0.031 A 
ATOM     80  C   UNL A   1      38.812  33.428  35.092  1.00  0.00     0.131 A 
ATOM     81  C   UNL A   1      37.811  32.173  37.343  1.00  0.00     0.055 A 
ATOM     82  C   UNL A   1      38.309  34.196  36.144  1.00  0.00     0.041 A 
ATOM     83  F   UNL A   1      39.272  34.076  34.010  1.00  0.00    -0.206 F 
ATOM     84  C   UNL A   1      37.792  33.568  37.272  1.00  0.00     0.022 A 
BRANCH  81  85
ATOM     85  S   UNL A   1      37.030  31.324  38.741  1.00  0.00     0.124 S 
ATOM     86  O   UNL A   1      36.963  29.951  38.255  1.00  0.00    -0.237 OA
ATOM     87  O   UNL A   1      37.982  31.579  39.818  1.00  0.00    -0.237 OA
ATOM     88  O   UNL A   1      35.743  32.003  38.876  1.00  0.00    -0.744 OA
ENDBRANCH  81  85
ENDBRANCH  54  78
BRANCH  66  89
ATOM     89  C   UNL A   1      44.725  28.425  34.039  1.00  0.00     0.023 A 
ATOM     90  C   UNL A   1      44.872  27.385  34.972  1.00  0.00     0.031 A 
ATOM     91  C   UNL A   1      45.787  29.334  33.884  1.00  0.00     0.131 A 
ATOM     92  C   UNL A   1      46.032  27.312  35.758  1.00  0.00     0.055 A 
ATOM     93  C   UNL A   1      46.965  29.218  34.624  1.00  0.00     0.041 A 
ATOM     94  F   UNL A   1      45.699  30.347  33.009  1.00  0.00    -0.206 F 
ATOM     95  C   UNL A   1      47.087  28.210  35.576  1.00  0.00     0.022 A 
BRANCH  92  96
ATOM     96  S   UNL A   1      46.107  26.079  37.086  1.00  0.00     0.124 S 
ATOM     97  O   UNL A   1      47.352  26.436  37.761  1.00  0.00    -0.237 OA
ATOM     98  O   UNL A   1      44.880  26.347  37.830  1.00  0.00    -0.237 OA
ATOM     99  O   UNL A   1      46.133  24.805  36.371  1.00  0.00    -0.744 OA
ENDBRANCH  92  96
ENDBRANCH  66  89
ENDBRANCH  40  41
ENDBRANCH  32  35
ENDBRANCH  30  31
ENDBRANCH   1  30
TORSDOF 17
ENDMDL
MODEL 2
REMARK VINA RESULT:     -12.3      5.122      8.089
REMARK SMILES C[C@@H]1CCCN(c2ccc(NC(=O)Cc3cccs3)c(C(=O)NCCCNC(=O)c3ccc(-c4c5nc(c(-c6cc(S(=O)(=O)[O-])ccc6F)c6ccc([nH]6)c(-c6cc(S(=O)(=O)[O-])ccc6F)c6nc(c(-c7cc(S(=O)(=O)[O-])ccc7F)c7ccc4[nH]7)C=C6)C=C5)cc3)c2)C1
REMARK SMILES IDX 25 1 24 2 23 3 21 4 22 5 20 7 7 8 8 9 93 10 9 11 10 12 6 13
REMARK SMILES IDX 1 14 2 15 3 16 94 17 4 18 5 19 11 20 12 21 13 23 14 24 15 25
REMARK SMILES IDX 16 26 19 27 17 28 18 29 26 30 27 31 28 32 29 34 30 35 31 36
REMARK SMILES IDX 92 37 32 38 91 39 33 40 34 41 35 42 85 43 36 44 90 45 84 46
REMARK SMILES IDX 86 47 37 48 89 49 83 50 82 51 38 53 70 54 50 55 69 56 51 57
REMARK SMILES IDX 54 58 68 59 87 60 52 61 53 62 67 64 88 65 55 66 39 67 40 68
REMARK SMILES IDX 48 69 41 70 47 71 49 72 46 73 42 74 43 75 44 76 45 77 71 78
REMARK SMILES IDX 72 79 80 80 73 81 79 82 81 83 78 84 74 85 75 86 76 87 77 88
REMARK SMILES IDX 56 89 57 90 65 91 58 92 64 93 66 94 63 95 59 96 60 97 61 98
REMARK SMILES IDX 62 99
REMARK H PARENT 23 6 11 22 27 33 86 52 54 63
REMARK Flexibility Score: inf
ROOT
ATOM      1  C   UNL A   1      36.261  21.368  25.776  1.00  0.00     0.042 C 
ENDROOT
BRANCH   1   2
ATOM      2  C   UNL A   1      35.452  22.611  25.406  1.00  0.00     0.118 C 
BRANCH   2   3
ATOM      3  N   UNL A   1      35.354  22.756  23.966  1.00  0.00    -0.352 N 
ATOM      4  C   UNL A   1      34.400  23.273  23.127  1.00  0.00     0.253 C 
ATOM      5  O   UNL A   1      34.705  23.315  21.933  1.00  0.00    -0.269 OA
ATOM      6  H   UNL A   1      36.143  22.410  23.487  1.00  0.00     0.163 HD
BRANCH   4   7
ATOM      7  C   UNL A   1      33.082  23.832  23.574  1.00  0.00     0.065 A 
ATOM      8  C   UNL A   1      31.792  25.522  24.791  1.00  0.00     0.038 A 
ATOM      9  C   UNL A   1      30.620  24.966  24.290  1.00  0.00     0.028 A 
ATOM     10  C   UNL A   1      33.007  24.924  24.448  1.00  0.00     0.042 A 
ATOM     11  C   UNL A   1      30.655  23.817  23.498  1.00  0.00     0.029 A 
ATOM     12  C   UNL A   1      31.869  23.204  23.180  1.00  0.00     0.054 A 
BRANCH   8  13
ATOM     13  N   UNL A   1      31.746  26.657  25.567  1.00  0.00    -0.371 N 
ATOM     14  C   UNL A   1      34.646  28.773  26.829  1.00  0.00     0.009 C 
ATOM     15  C   UNL A   1      33.544  28.304  25.880  1.00  0.00     0.005 C 
ATOM     16  C   UNL A   1      32.497  29.412  25.685  1.00  0.00     0.007 C 
ATOM     17  C   UNL A   1      32.888  27.015  26.403  1.00  0.00     0.119 C 
ATOM     18  C   UNL A   1      31.370  28.941  24.768  1.00  0.00     0.022 C 
ATOM     19  C   UNL A   1      30.727  27.666  25.303  1.00  0.00     0.116 C 
ENDBRANCH   8  13
BRANCH  12  20
ATOM     20  N   UNL A   1      31.920  21.955  22.522  1.00  0.00    -0.325 N 
ATOM     21  C   UNL A   1      32.189  20.683  22.941  1.00  0.00     0.229 C 
ATOM     22  H   UNL A   1      31.720  22.013  21.560  1.00  0.00     0.169 HD
ATOM     23  O   UNL A   1      32.151  19.787  22.086  1.00  0.00    -0.274 OA
BRANCH  21  24
ATOM     24  C   UNL A   1      32.530  20.320  24.372  1.00  0.00     0.147 C 
BRANCH  24  25
ATOM     25  C   UNL A   1      33.240  19.002  24.553  1.00  0.00     0.014 A 
ATOM     26  C   UNL A   1      34.541  18.607  24.299  1.00  0.00     0.016 A 
ATOM     27  S   UNL A   1      32.342  17.695  25.235  1.00  0.00    -0.148 S 
ATOM     28  C   UNL A   1      34.816  17.274  24.724  1.00  0.00     0.012 A 
ATOM     29  C   UNL A   1      33.696  16.658  25.229  1.00  0.00     0.065 A 
ENDBRANCH  24  25
ENDBRANCH  21  24
ENDBRANCH  12  20
ENDBRANCH   4   7
ENDBRANCH   2   3
ENDBRANCH   1   2
BRANCH   1  30
ATOM     30  C   UNL A   1      37.631  21.331  25.098  1.00  0.00     0.118 C 
BRANCH  30  31
ATOM     31  N   UNL A   1      38.536  20.414  25.778  1.00  0.00    -0.352 N 
ATOM     32  C   UNL A   1      39.763  20.639  26.350  1.00  0.00     0.251 C 
ATOM     33  H   UNL A   1      38.217  19.484  25.837  1.00  0.00     0.163 HD
ATOM     34  O   UNL A   1      40.490  19.681  26.593  1.00  0.00    -0.269 OA
BRANCH  32  35
ATOM     35  C   UNL A   1      40.206  22.013  26.670  1.00  0.00     0.039 A 
ATOM     36  C   UNL A   1      41.181  22.197  27.655  1.00  0.00     0.014 A 
ATOM     37  C   UNL A   1      39.626  23.122  26.049  1.00  0.00     0.014 A 
ATOM     38  C   UNL A   1      41.609  23.488  27.978  1.00  0.00     0.010 A 
ATOM     39  C   UNL A   1      40.106  24.401  26.316  1.00  0.00     0.010 A 
ATOM     40  C   UNL A   1      41.096  24.599  27.290  1.00  0.00    -0.014 A 
BRANCH  40  41
ATOM     41  C   UNL A   1      41.570  25.978  27.581  1.00  0.00     0.031 A 
ATOM     42  C   UNL A   1      42.952  26.402  27.159  1.00  0.00     0.074 A 
ATOM     43  C   UNL A   1      40.786  26.817  28.284  1.00  0.00     0.049 A 
ATOM     44  N   UNL A   1      43.591  27.516  27.412  1.00  0.00    -0.248 NA
ATOM     45  C   UNL A   1      43.729  25.429  26.376  1.00  0.00     0.031 C 
ATOM     46  C   UNL A   1      39.442  26.503  28.777  1.00  0.00     0.029 A 
ATOM     47  N   UNL A   1      41.005  28.100  28.719  1.00  0.00    -0.354 N 
ATOM     48  C   UNL A   1      44.849  27.370  26.837  1.00  0.00     0.074 A 
ATOM     49  C   UNL A   1      44.902  26.036  26.277  1.00  0.00     0.031 C 
ATOM     50  C   UNL A   1      38.951  27.570  29.425  1.00  0.00     0.029 A 
ATOM     51  C   UNL A   1      39.959  28.625  29.442  1.00  0.00     0.049 A 
ATOM     52  H   UNL A   1      41.833  28.598  28.531  1.00  0.00     0.167 HD
ATOM     53  C   UNL A   1      45.859  28.274  26.766  1.00  0.00     0.034 A 
ATOM     54  C   UNL A   1      39.832  29.816  30.061  1.00  0.00     0.034 A 
ATOM     55  C   UNL A   1      45.779  29.605  27.315  1.00  0.00     0.049 A 
ATOM     56  C   UNL A   1      40.974  30.797  29.983  1.00  0.00     0.074 A 
ATOM     57  C   UNL A   1      46.718  30.621  27.257  1.00  0.00     0.029 A 
ATOM     58  N   UNL A   1      44.699  30.106  28.032  1.00  0.00    -0.354 N 
ATOM     59  N   UNL A   1      42.143  30.660  29.398  1.00  0.00    -0.248 NA
ATOM     60  C   UNL A   1      40.777  32.097  30.638  1.00  0.00     0.031 C 
ATOM     61  C   UNL A   1      46.233  31.709  27.991  1.00  0.00     0.029 A 
ATOM     62  C   UNL A   1      44.960  31.404  28.444  1.00  0.00     0.049 A 
ATOM     63  H   UNL A   1      43.869  29.610  28.221  1.00  0.00     0.167 HD
ATOM     64  C   UNL A   1      42.806  31.870  29.589  1.00  0.00     0.074 A 
ATOM     65  C   UNL A   1      41.901  32.726  30.327  1.00  0.00     0.031 C 
ATOM     66  C   UNL A   1      44.048  32.242  29.186  1.00  0.00     0.034 A 
BRANCH  53  67
ATOM     67  C   UNL A   1      47.138  27.838  26.088  1.00  0.00     0.023 A 
ATOM     68  C   UNL A   1      47.359  28.057  24.716  1.00  0.00     0.031 A 
ATOM     69  C   UNL A   1      48.140  27.174  26.816  1.00  0.00     0.131 A 
ATOM     70  C   UNL A   1      48.512  27.546  24.101  1.00  0.00     0.055 A 
ATOM     71  C   UNL A   1      49.326  26.743  26.215  1.00  0.00     0.041 A 
ATOM     72  F   UNL A   1      47.980  26.918  28.124  1.00  0.00    -0.206 F 
ATOM     73  C   UNL A   1      49.510  26.913  24.846  1.00  0.00     0.022 A 
BRANCH  70  74
ATOM     74  S   UNL A   1      48.619  27.591  22.292  1.00  0.00     0.124 S 
ATOM     75  O   UNL A   1      47.412  28.338  21.944  1.00  0.00    -0.237 OA
ATOM     76  O   UNL A   1      49.883  28.282  22.066  1.00  0.00    -0.237 OA
ATOM     77  O   UNL A   1      48.601  26.180  21.911  1.00  0.00    -0.744 OA
ENDBRANCH  70  74
ENDBRANCH  53  67
BRANCH  54  78
ATOM     78  C   UNL A   1      38.589  30.149  30.815  1.00  0.00     0.023 A 
ATOM     79  C   UNL A   1      37.581  30.933  30.235  1.00  0.00     0.031 A 
ATOM     80  C   UNL A   1      38.410  29.723  32.144  1.00  0.00     0.131 A 
ATOM     81  C   UNL A   1      36.462  31.310  30.993  1.00  0.00     0.055 A 
ATOM     82  C   UNL A   1      37.269  30.056  32.877  1.00  0.00     0.041 A 
ATOM     83  F   UNL A   1      39.340  28.965  32.747  1.00  0.00    -0.206 F 
ATOM     84  C   UNL A   1      36.294  30.866  32.306  1.00  0.00     0.022 A 
BRANCH  81  85
ATOM     85  S   UNL A   1      35.271  32.469  30.267  1.00  0.00     0.124 S 
ATOM     86  O   UNL A   1      34.317  32.638  31.356  1.00  0.00    -0.237 OA
ATOM     87  O   UNL A   1      36.115  33.621  29.967  1.00  0.00    -0.237 OA
ATOM     88  O   UNL A   1      34.766  31.749  29.099  1.00  0.00    -0.744 OA
ENDBRANCH  81  85
ENDBRANCH  54  78
BRANCH  66  89
ATOM     89  C   UNL A   1      44.473  33.657  29.496  1.00  0.00     0.023 A 
ATOM     90  C   UNL A   1      44.129  34.734  28.660  1.00  0.00     0.031 A 
ATOM     91  C   UNL A   1      45.240  33.926  30.643  1.00  0.00     0.131 A 
ATOM     92  C   UNL A   1      44.601  36.022  28.954  1.00  0.00     0.055 A 
ATOM     93  C   UNL A   1      45.653  35.220  30.964  1.00  0.00     0.041 A 
ATOM     94  F   UNL A   1      45.598  32.935  31.475  1.00  0.00    -0.206 F 
ATOM     95  C   UNL A   1      45.345  36.275  30.110  1.00  0.00     0.022 A 
BRANCH  92  96
ATOM     96  S   UNL A   1      44.306  37.351  27.755  1.00  0.00     0.124 S 
ATOM     97  O   UNL A   1      43.361  36.725  26.836  1.00  0.00    -0.237 OA
ATOM     98  O   UNL A   1      43.768  38.416  28.595  1.00  0.00    -0.237 OA
ATOM     99  O   UNL A   1      45.632  37.611  27.199  1.00  0.00    -0.744 OA
ENDBRANCH  92  96
ENDBRANCH  66  89
ENDBRANCH  40  41
ENDBRANCH  32  35
ENDBRANCH  30  31
ENDBRANCH   1  30
TORSDOF 17
ENDMDL
MODEL 3
REMARK VINA RESULT:     -12.0      4.610      7.041
REMARK SMILES C[C@@H]1CCCN(c2ccc(NC(=O)Cc3cccs3)c(C(=O)NCCCNC(=O)c3ccc(-c4c5nc(c(-c6cc(S(=O)(=O)[O-])ccc6F)c6ccc([nH]6)c(-c6cc(S(=O)(=O)[O-])ccc6F)c6nc(c(-c7cc(S(=O)(=O)[O-])ccc7F)c7ccc4[nH]7)C=C6)C=C5)cc3)c2)C1
REMARK SMILES IDX 25 1 24 2 23 3 21 4 22 5 20 7 7 8 8 9 93 10 9 11 10 12 6 13
REMARK SMILES IDX 1 14 2 15 3 16 94 17 4 18 5 19 11 20 12 21 13 23 14 24 15 25
REMARK SMILES IDX 16 26 19 27 17 28 18 29 26 30 27 31 28 32 29 34 30 35 31 36
REMARK SMILES IDX 92 37 32 38 91 39 33 40 34 41 35 42 85 43 36 44 90 45 84 46
REMARK SMILES IDX 86 47 37 48 89 49 83 50 82 51 38 53 70 54 50 55 69 56 51 57
REMARK SMILES IDX 54 58 68 59 87 60 52 61 53 62 67 64 88 65 55 66 39 67 40 68
REMARK SMILES IDX 48 69 41 70 47 71 49 72 46 73 42 74 43 75 44 76 45 77 71 78
REMARK SMILES IDX 72 79 80 80 73 81 79 82 81 83 78 84 74 85 75 86 76 87 77 88
REMARK SMILES IDX 56 89 57 90 65 91 58 92 64 93 66 94 63 95 59 96 60 97 61 98
REMARK SMILES IDX 62 99
REMARK H PARENT 23 6 11 22 27 33 86 52 54 63
REMARK Flexibility Score: inf
ROOT
ATOM      1  C   UNL A   1      36.685  23.097  24.609  1.00  0.00     0.042 C 
ENDROOT
BRANCH   1   2
ATOM      2  C   UNL A   1      35.610  24.165  24.410  1.00  0.00     0.118 C 
BRANCH   2   3
ATOM      3  N   UNL A   1      34.889  23.950  23.169  1.00  0.00    -0.352 N 
ATOM      4  C   UNL A   1      33.842  23.142  22.808  1.00  0.00     0.253 C 
ATOM      5  O   UNL A   1      33.420  23.294  21.659  1.00  0.00    -0.269 OA
ATOM      6  H   UNL A   1      35.225  24.502  22.425  1.00  0.00     0.163 HD
BRANCH   4   7
ATOM      7  C   UNL A   1      33.160  22.167  23.722  1.00  0.00     0.065 A 
ATOM      8  C   UNL A   1      33.102  19.992  24.847  1.00  0.00     0.038 A 
ATOM      9  C   UNL A   1      31.968  20.398  25.541  1.00  0.00     0.028 A 
ATOM     10  C   UNL A   1      33.663  20.875  23.922  1.00  0.00     0.042 A 
ATOM     11  C   UNL A   1      31.383  21.641  25.290  1.00  0.00     0.029 A 
ATOM     12  C   UNL A   1      31.930  22.511  24.344  1.00  0.00     0.054 A 
BRANCH   8  13
ATOM     13  N   UNL A   1      33.672  18.766  25.106  1.00  0.00    -0.371 N 
ATOM     14  C   UNL A   1      31.933  15.481  25.918  1.00  0.00     0.009 C 
ATOM     15  C   UNL A   1      32.551  16.579  25.055  1.00  0.00     0.005 C 
ATOM     16  C   UNL A   1      33.758  16.033  24.276  1.00  0.00     0.007 C 
ATOM     17  C   UNL A   1      32.955  17.787  25.917  1.00  0.00     0.119 C 
ATOM     18  C   UNL A   1      34.408  17.132  23.437  1.00  0.00     0.022 C 
ATOM     19  C   UNL A   1      34.807  18.319  24.308  1.00  0.00     0.116 C 
ENDBRANCH   8  13
BRANCH  12  20
ATOM     20  N   UNL A   1      31.267  23.696  23.955  1.00  0.00    -0.325 N 
ATOM     21  C   UNL A   1      31.201  24.954  24.483  1.00  0.00     0.229 C 
ATOM     22  H   UNL A   1      30.741  23.594  23.129  1.00  0.00     0.169 HD
ATOM     23  O   UNL A   1      30.509  25.785  23.880  1.00  0.00    -0.274 OA
BRANCH  21  24
ATOM     24  C   UNL A   1      31.915  25.373  25.752  1.00  0.00     0.147 C 
BRANCH  24  25
ATOM     25  C   UNL A   1      32.643  26.692  25.679  1.00  0.00     0.014 A 
ATOM     26  C   UNL A   1      33.562  27.195  24.774  1.00  0.00     0.016 A 
ATOM     27  S   UNL A   1      32.295  27.869  26.892  1.00  0.00    -0.148 S 
ATOM     28  C   UNL A   1      33.920  28.550  25.034  1.00  0.00     0.012 A 
ATOM     29  C   UNL A   1      33.319  29.029  26.173  1.00  0.00     0.065 A 
ENDBRANCH  24  25
ENDBRANCH  21  24
ENDBRANCH  12  20
ENDBRANCH   4   7
ENDBRANCH   2   3
ENDBRANCH   1   2
BRANCH   1  30
ATOM     30  C   UNL A   1      36.979  22.822  26.084  1.00  0.00     0.118 C 
BRANCH  30  31
ATOM     31  N   UNL A   1      38.122  21.932  26.241  1.00  0.00    -0.352 N 
ATOM     32  C   UNL A   1      39.451  22.218  26.422  1.00  0.00     0.251 C 
ATOM     33  H   UNL A   1      37.906  20.972  26.212  1.00  0.00     0.163 HD
ATOM     34  O   UNL A   1      40.281  21.337  26.222  1.00  0.00    -0.269 OA
BRANCH  32  35
ATOM     35  C   UNL A   1      39.882  23.567  26.850  1.00  0.00     0.039 A 
ATOM     36  C   UNL A   1      39.914  24.598  25.907  1.00  0.00     0.014 A 
ATOM     37  C   UNL A   1      40.312  23.806  28.158  1.00  0.00     0.014 A 
ATOM     38  C   UNL A   1      40.326  25.878  26.289  1.00  0.00     0.010 A 
ATOM     39  C   UNL A   1      40.649  25.096  28.556  1.00  0.00     0.010 A 
ATOM     40  C   UNL A   1      40.668  26.145  27.624  1.00  0.00    -0.014 A 
BRANCH  40  41
ATOM     41  C   UNL A   1      41.063  27.508  28.065  1.00  0.00     0.031 A 
ATOM     42  C   UNL A   1      42.518  27.891  28.110  1.00  0.00     0.074 A 
ATOM     43  C   UNL A   1      40.119  28.370  28.490  1.00  0.00     0.049 A 
ATOM     44  N   UNL A   1      43.074  28.985  28.566  1.00  0.00    -0.248 NA
ATOM     45  C   UNL A   1      43.477  26.896  27.606  1.00  0.00     0.031 C 
ATOM     46  C   UNL A   1      38.680  28.095  28.525  1.00  0.00     0.029 A 
ATOM     47  N   UNL A   1      40.223  29.645  28.985  1.00  0.00    -0.354 N 
ATOM     48  C   UNL A   1      44.445  28.803  28.422  1.00  0.00     0.074 A 
ATOM     49  C   UNL A   1      44.637  27.469  27.894  1.00  0.00     0.031 C 
ATOM     50  C   UNL A   1      38.037  29.176  28.994  1.00  0.00     0.029 A 
ATOM     51  C   UNL A   1      39.016  30.201  29.342  1.00  0.00     0.049 A 
ATOM     52  H   UNL A   1      41.081  30.119  29.077  1.00  0.00     0.167 HD
ATOM     53  C   UNL A   1      45.450  29.676  28.686  1.00  0.00     0.034 A 
ATOM     54  C   UNL A   1      38.732  31.394  29.902  1.00  0.00     0.034 A 
ATOM     55  C   UNL A   1      45.236  31.008  29.195  1.00  0.00     0.049 A 
ATOM     56  C   UNL A   1      39.866  32.340  30.203  1.00  0.00     0.074 A 
ATOM     57  C   UNL A   1      46.173  31.996  29.450  1.00  0.00     0.029 A 
ATOM     58  N   UNL A   1      43.998  31.541  29.535  1.00  0.00    -0.354 N 
ATOM     59  N   UNL A   1      41.156  32.169  30.020  1.00  0.00    -0.248 NA
ATOM     60  C   UNL A   1      39.507  33.645  30.774  1.00  0.00     0.031 C 
ATOM     61  C   UNL A   1      45.510  33.097  30.003  1.00  0.00     0.029 A 
ATOM     62  C   UNL A   1      44.150  32.830  30.022  1.00  0.00     0.049 A 
ATOM     63  H   UNL A   1      43.137  31.070  29.444  1.00  0.00     0.167 HD
ATOM     64  C   UNL A   1      41.757  33.358  30.425  1.00  0.00     0.074 A 
ATOM     65  C   UNL A   1      40.688  34.241  30.845  1.00  0.00     0.031 C 
ATOM     66  C   UNL A   1      43.072  33.693  30.443  1.00  0.00     0.034 A 
BRANCH  53  67
ATOM     67  C   UNL A   1      46.865  29.203  28.447  1.00  0.00     0.023 A 
ATOM     68  C   UNL A   1      47.360  28.975  27.150  1.00  0.00     0.031 A 
ATOM     69  C   UNL A   1      47.726  28.952  29.530  1.00  0.00     0.131 A 
ATOM     70  C   UNL A   1      48.644  28.437  26.973  1.00  0.00     0.055 A 
ATOM     71  C   UNL A   1      49.034  28.498  29.343  1.00  0.00     0.041 A 
ATOM     72  F   UNL A   1      47.307  29.132  30.792  1.00  0.00    -0.206 F 
ATOM     73  C   UNL A   1      49.494  28.221  28.059  1.00  0.00     0.022 A 
BRANCH  70  74
ATOM     74  S   UNL A   1      49.129  27.885  25.315  1.00  0.00     0.124 S 
ATOM     75  O   UNL A   1      49.360  26.460  25.534  1.00  0.00    -0.237 OA
ATOM     76  O   UNL A   1      47.959  28.225  24.514  1.00  0.00    -0.237 OA
ATOM     77  O   UNL A   1      50.330  28.668  25.030  1.00  0.00    -0.744 OA
ENDBRANCH  70  74
ENDBRANCH  53  67
BRANCH  54  78
ATOM     78  C   UNL A   1      37.323  31.763  30.223  1.00  0.00     0.023 A 
ATOM     79  C   UNL A   1      36.461  32.254  29.231  1.00  0.00     0.031 A 
ATOM     80  C   UNL A   1      36.830  31.670  31.537  1.00  0.00     0.131 A 
ATOM     81  C   UNL A   1      35.169  32.681  29.573  1.00  0.00     0.055 A 
ATOM     82  C   UNL A   1      35.525  32.045  31.863  1.00  0.00     0.041 A 
ATOM     83  F   UNL A   1      37.609  31.201  32.525  1.00  0.00    -0.206 F 
ATOM     84  C   UNL A   1      34.691  32.568  30.881  1.00  0.00     0.022 A 
BRANCH  81  85
ATOM     85  S   UNL A   1      34.150  33.474  28.300  1.00  0.00     0.124 S 
ATOM     86  O   UNL A   1      33.339  34.388  29.094  1.00  0.00    -0.237 OA
ATOM     87  O   UNL A   1      35.161  34.090  27.446  1.00  0.00    -0.237 OA
ATOM     88  O   UNL A   1      33.427  32.356  27.698  1.00  0.00    -0.744 OA
ENDBRANCH  81  85
ENDBRANCH  54  78
BRANCH  66  89
ATOM     89  C   UNL A   1      43.416  35.095  30.888  1.00  0.00     0.023 A 
ATOM     90  C   UNL A   1      43.493  35.442  32.248  1.00  0.00     0.031 A 
ATOM     91  C   UNL A   1      43.660  36.097  29.932  1.00  0.00     0.131 A 
ATOM     92  C   UNL A   1      43.752  36.772  32.614  1.00  0.00     0.055 A 
ATOM     93  C   UNL A   1      43.979  37.403  30.303  1.00  0.00     0.041 A 
ATOM     94  F   UNL A   1      43.597  35.820  28.620  1.00  0.00    -0.206 F 
ATOM     95  C   UNL A   1      44.013  37.750  31.651  1.00  0.00     0.022 A 
BRANCH  92  96
ATOM     96  S   UNL A   1      43.651  37.227  34.367  1.00  0.00     0.124 S 
ATOM     97  O   UNL A   1      42.780  38.397  34.327  1.00  0.00    -0.237 OA
ATOM     98  O   UNL A   1      43.079  36.026  34.969  1.00  0.00    -0.237 OA
ATOM     99  O   UNL A   1      45.040  37.500  34.730  1.00  0.00    -0.744 OA
ENDBRANCH  92  96
ENDBRANCH  66  89
ENDBRANCH  40  41
ENDBRANCH  32  35
ENDBRANCH  30  31
ENDBRANCH   1  30
TORSDOF 17
ENDMDL
