MODEL 1
REMARK VINA RESULT:     -11.8      0.000      0.000
REMARK SMILES CCc1ccc(N2C(=O)C[C@@H](SC[C@@H](NC(C)=O)C(=O)NCCCNC(=O)c3ccc(-c4c5nc(c(-c6cc(S(=O)(=O)[O-])ccc6F)c6ccc([nH]6)c(-c6cc(S(=O)(=O)[O-])ccc6F)c6nc(c(-c7cc(S(=O)(=O)[O-])ccc7F)c7ccc4[nH]7)C=C6)C=C5)cc3)C2=O)cc1
REMARK SMILES IDX 22 1 21 2 19 3 20 4 14 6 13 7 12 8 11 9 7 10 8 11 91 12 9 13
REMARK SMILES IDX 10 14 92 15 6 16 3 17 4 18 94 19 5 20 93 21 2 22 1 23 15 24
REMARK SMILES IDX 16 25 17 27 18 28 23 29 24 30 25 31 26 32 27 34 28 35 29 36
REMARK SMILES IDX 90 37 30 38 89 39 31 40 32 41 33 42 83 43 34 44 88 45 82 46
REMARK SMILES IDX 84 47 35 48 87 49 81 50 80 51 36 53 68 54 48 55 67 56 49 57
REMARK SMILES IDX 52 58 66 59 85 60 50 61 51 62 65 64 86 65 53 66 37 67 38 68
REMARK SMILES IDX 46 69 39 70 45 71 47 72 44 73 40 74 41 75 42 76 43 77 69 78
REMARK SMILES IDX 70 79 78 80 71 81 77 82 79 83 76 84 72 85 73 86 74 87 75 88
REMARK SMILES IDX 54 89 55 90 63 91 56 92 62 93 64 94 61 95 57 96 58 97 59 98
REMARK SMILES IDX 60 99
REMARK H PARENT 21 5 15 26 25 33 84 52 52 63
REMARK Flexibility Score: inf
ROOT
ATOM      1  C   UNL A   1      32.528  29.427  24.529  1.00  0.00     0.117 C 
ENDROOT
BRANCH   1   2
ATOM      2  N   UNL A   1      31.258  29.310  23.837  1.00  0.00    -0.354 N 
ATOM      3  C   UNL A   1      30.720  28.260  23.151  1.00  0.00     0.243 C 
ATOM      4  O   UNL A   1      29.661  28.456  22.547  1.00  0.00    -0.273 OA
ATOM      5  H   UNL A   1      30.695  30.117  23.865  1.00  0.00     0.163 HD
BRANCH   3   6
ATOM      6  C   UNL A   1      31.501  26.939  22.952  1.00  0.00     0.181 C 
BRANCH   6   7
ATOM      7  C   UNL A   1      30.797  25.926  23.903  1.00  0.00     0.105 C 
BRANCH   7   8
ATOM      8  S   UNL A   1      30.487  26.360  25.659  1.00  0.00    -0.145 SA
BRANCH   8   9
ATOM      9  C   UNL A   1      32.001  25.715  26.461  1.00  0.00     0.146 C 
ATOM     10  N   UNL A   1      32.796  23.658  25.678  1.00  0.00    -0.250 N 
ATOM     11  C   UNL A   1      33.739  24.570  25.276  1.00  0.00     0.235 C 
ATOM     12  C   UNL A   1      31.852  24.215  26.495  1.00  0.00     0.247 C 
ATOM     13  O   UNL A   1      34.783  24.365  24.684  1.00  0.00    -0.274 OA
ATOM     14  C   UNL A   1      33.292  25.943  25.698  1.00  0.00     0.125 C 
ATOM     15  O   UNL A   1      31.032  23.650  27.214  1.00  0.00    -0.273 OA
BRANCH  10  16
ATOM     16  C   UNL A   1      32.833  22.287  25.361  1.00  0.00     0.052 A 
ATOM     17  C   UNL A   1      32.965  19.560  24.657  1.00  0.00    -0.048 A 
ATOM     18  C   UNL A   1      32.425  20.499  23.769  1.00  0.00     0.006 A 
ATOM     19  C   UNL A   1      33.449  20.005  25.895  1.00  0.00     0.006 A 
ATOM     20  C   UNL A   1      32.332  21.847  24.130  1.00  0.00     0.027 A 
ATOM     21  C   UNL A   1      33.406  21.360  26.233  1.00  0.00     0.027 A 
BRANCH  17  22
ATOM     22  C   UNL A   1      33.071  18.108  24.255  1.00  0.00     0.032 C 
ATOM     23  C   UNL A   1      32.421  17.152  25.246  1.00  0.00     0.009 C 
ENDBRANCH  17  22
ENDBRANCH  10  16
ENDBRANCH   8   9
ENDBRANCH   7   8
ENDBRANCH   6   7
BRANCH   6  24
ATOM     24  N   UNL A   1      31.597  26.462  21.564  1.00  0.00    -0.344 N 
ATOM     25  C   UNL A   1      32.671  25.770  21.048  1.00  0.00     0.217 C 
ATOM     26  H   UNL A   1      30.842  26.650  20.961  1.00  0.00     0.164 HD
ATOM     27  C   UNL A   1      32.564  25.525  19.565  1.00  0.00     0.114 C 
ATOM     28  O   UNL A   1      33.679  25.474  21.675  1.00  0.00    -0.275 OA
ENDBRANCH   6  24
ENDBRANCH   3   6
ENDBRANCH   1   2
BRANCH   1  29
ATOM     29  C   UNL A   1      32.326  29.564  26.033  1.00  0.00     0.042 C 
BRANCH  29  30
ATOM     30  C   UNL A   1      33.614  29.864  26.785  1.00  0.00     0.118 C 
BRANCH  30  31
ATOM     31  N   UNL A   1      33.598  31.188  27.392  1.00  0.00    -0.352 N 
ATOM     32  C   UNL A   1      34.432  31.724  28.343  1.00  0.00     0.251 C 
ATOM     33  H   UNL A   1      32.884  31.786  27.074  1.00  0.00     0.163 HD
ATOM     34  O   UNL A   1      34.116  32.770  28.903  1.00  0.00    -0.269 OA
BRANCH  32  35
ATOM     35  C   UNL A   1      35.685  31.027  28.703  1.00  0.00     0.039 A 
ATOM     36  C   UNL A   1      36.903  31.557  28.274  1.00  0.00     0.014 A 
ATOM     37  C   UNL A   1      35.660  29.853  29.462  1.00  0.00     0.014 A 
ATOM     38  C   UNL A   1      38.097  30.947  28.665  1.00  0.00     0.010 A 
ATOM     39  C   UNL A   1      36.848  29.303  29.928  1.00  0.00     0.010 A 
ATOM     40  C   UNL A   1      38.081  29.839  29.529  1.00  0.00    -0.014 A 
BRANCH  40  41
ATOM     41  C   UNL A   1      39.344  29.223  30.015  1.00  0.00     0.031 A 
ATOM     42  C   UNL A   1      40.031  29.779  31.233  1.00  0.00     0.074 A 
ATOM     43  C   UNL A   1      39.895  28.203  29.329  1.00  0.00     0.049 A 
ATOM     44  N   UNL A   1      41.166  29.421  31.778  1.00  0.00    -0.248 NA
ATOM     45  C   UNL A   1      39.372  30.906  31.909  1.00  0.00     0.031 C 
ATOM     46  C   UNL A   1      39.342  27.609  28.110  1.00  0.00     0.029 A 
ATOM     47  N   UNL A   1      41.044  27.486  29.552  1.00  0.00    -0.354 N 
ATOM     48  C   UNL A   1      41.362  30.284  32.851  1.00  0.00     0.074 A 
ATOM     49  C   UNL A   1      40.263  31.226  32.835  1.00  0.00     0.031 C 
ATOM     50  C   UNL A   1      40.131  26.597  27.716  1.00  0.00     0.029 A 
ATOM     51  C   UNL A   1      41.274  26.502  28.618  1.00  0.00     0.049 A 
ATOM     52  H   UNL A   1      41.647  27.660  30.310  1.00  0.00     0.167 HD
ATOM     53  C   UNL A   1      42.350  30.276  33.779  1.00  0.00     0.034 A 
ATOM     54  C   UNL A   1      42.294  25.630  28.496  1.00  0.00     0.034 A 
ATOM     55  C   UNL A   1      43.431  29.320  33.784  1.00  0.00     0.049 A 
ATOM     56  C   UNL A   1      43.400  25.660  29.522  1.00  0.00     0.074 A 
ATOM     57  C   UNL A   1      44.455  29.183  34.706  1.00  0.00     0.029 A 
ATOM     58  N   UNL A   1      43.636  28.343  32.818  1.00  0.00    -0.354 N 
ATOM     59  N   UNL A   1      43.539  26.447  30.564  1.00  0.00    -0.248 NA
ATOM     60  C   UNL A   1      44.478  24.678  29.361  1.00  0.00     0.031 C 
ATOM     61  C   UNL A   1      45.319  28.179  34.256  1.00  0.00     0.029 A 
ATOM     62  C   UNL A   1      44.788  27.626  33.101  1.00  0.00     0.049 A 
ATOM     63  H   UNL A   1      43.049  28.184  32.044  1.00  0.00     0.167 HD
ATOM     64  C   UNL A   1      44.704  26.029  31.203  1.00  0.00     0.074 A 
ATOM     65  C   UNL A   1      45.216  24.912  30.437  1.00  0.00     0.031 C 
ATOM     66  C   UNL A   1      45.294  26.519  32.323  1.00  0.00     0.034 A 
BRANCH  53  67
ATOM     67  C   UNL A   1      42.317  31.347  34.844  1.00  0.00     0.023 A 
ATOM     68  C   UNL A   1      42.859  32.626  34.625  1.00  0.00     0.031 A 
ATOM     69  C   UNL A   1      41.757  31.080  36.107  1.00  0.00     0.131 A 
ATOM     70  C   UNL A   1      42.899  33.560  35.671  1.00  0.00     0.055 A 
ATOM     71  C   UNL A   1      41.722  32.044  37.115  1.00  0.00     0.041 A 
ATOM     72  F   UNL A   1      41.245  29.871  36.384  1.00  0.00    -0.206 F 
ATOM     73  C   UNL A   1      42.310  33.288  36.906  1.00  0.00     0.022 A 
BRANCH  70  74
ATOM     74  S   UNL A   1      43.869  35.076  35.439  1.00  0.00     0.124 S 
ATOM     75  O   UNL A   1      45.117  34.548  34.895  1.00  0.00    -0.237 OA
ATOM     76  O   UNL A   1      43.041  35.841  34.514  1.00  0.00    -0.237 OA
ATOM     77  O   UNL A   1      43.970  35.627  36.790  1.00  0.00    -0.744 OA
ENDBRANCH  70  74
ENDBRANCH  53  67
BRANCH  54  78
ATOM     78  C   UNL A   1      42.330  24.657  27.365  1.00  0.00     0.023 A 
ATOM     79  C   UNL A   1      41.559  23.485  27.395  1.00  0.00     0.031 A 
ATOM     80  C   UNL A   1      43.176  24.860  26.260  1.00  0.00     0.131 A 
ATOM     81  C   UNL A   1      41.688  22.534  26.370  1.00  0.00     0.055 A 
ATOM     82  C   UNL A   1      43.255  23.939  25.212  1.00  0.00     0.041 A 
ATOM     83  F   UNL A   1      43.933  25.965  26.176  1.00  0.00    -0.206 F 
ATOM     84  C   UNL A   1      42.520  22.761  25.272  1.00  0.00     0.022 A 
BRANCH  81  85
ATOM     85  S   UNL A   1      40.826  20.948  26.545  1.00  0.00     0.124 S 
ATOM     86  O   UNL A   1      40.851  20.755  27.991  1.00  0.00    -0.237 OA
ATOM     87  O   UNL A   1      39.524  21.245  25.958  1.00  0.00    -0.237 OA
ATOM     88  O   UNL A   1      41.657  20.023  25.777  1.00  0.00    -0.744 OA
ENDBRANCH  81  85
ENDBRANCH  54  78
BRANCH  66  89
ATOM     89  C   UNL A   1      46.534  25.810  32.813  1.00  0.00     0.023 A 
ATOM     90  C   UNL A   1      46.468  24.739  33.720  1.00  0.00     0.031 A 
ATOM     91  C   UNL A   1      47.804  26.222  32.369  1.00  0.00     0.131 A 
ATOM     92  C   UNL A   1      47.650  24.156  34.201  1.00  0.00     0.055 A 
ATOM     93  C   UNL A   1      48.973  25.594  32.797  1.00  0.00     0.041 A 
ATOM     94  F   UNL A   1      47.928  27.243  31.504  1.00  0.00    -0.206 F 
ATOM     95  C   UNL A   1      48.901  24.564  33.730  1.00  0.00     0.022 A 
BRANCH  92  96
ATOM     96  S   UNL A   1      47.538  22.925  35.528  1.00  0.00     0.124 S 
ATOM     97  O   UNL A   1      48.653  23.303  36.389  1.00  0.00    -0.237 OA
ATOM     98  O   UNL A   1      46.203  23.169  36.068  1.00  0.00    -0.237 OA
ATOM     99  O   UNL A   1      47.699  21.651  34.828  1.00  0.00    -0.744 OA
ENDBRANCH  92  96
ENDBRANCH  66  89
ENDBRANCH  40  41
ENDBRANCH  32  35
ENDBRANCH  30  31
ENDBRANCH  29  30
ENDBRANCH   1  29
TORSDOF 19
ENDMDL
MODEL 2
REMARK VINA RESULT:     -11.7      3.162      8.411
REMARK SMILES CCc1ccc(N2C(=O)C[C@@H](SC[C@@H](NC(C)=O)C(=O)NCCCNC(=O)c3ccc(-c4c5nc(c(-c6cc(S(=O)(=O)[O-])ccc6F)c6ccc([nH]6)c(-c6cc(S(=O)(=O)[O-])ccc6F)c6nc(c(-c7cc(S(=O)(=O)[O-])ccc7F)c7ccc4[nH]7)C=C6)C=C5)cc3)C2=O)cc1
REMARK SMILES IDX 22 1 21 2 19 3 20 4 14 6 13 7 12 8 11 9 7 10 8 11 91 12 9 13
REMARK SMILES IDX 10 14 92 15 6 16 3 17 4 18 94 19 5 20 93 21 2 22 1 23 15 24
REMARK SMILES IDX 16 25 17 27 18 28 23 29 24 30 25 31 26 32 27 34 28 35 29 36
REMARK SMILES IDX 90 37 30 38 89 39 31 40 32 41 33 42 83 43 34 44 88 45 82 46
REMARK SMILES IDX 84 47 35 48 87 49 81 50 80 51 36 53 68 54 48 55 67 56 49 57
REMARK SMILES IDX 52 58 66 59 85 60 50 61 51 62 65 64 86 65 53 66 37 67 38 68
REMARK SMILES IDX 46 69 39 70 45 71 47 72 44 73 40 74 41 75 42 76 43 77 69 78
REMARK SMILES IDX 70 79 78 80 71 81 77 82 79 83 76 84 72 85 73 86 74 87 75 88
REMARK SMILES IDX 54 89 55 90 63 91 56 92 62 93 64 94 61 95 57 96 58 97 59 98
REMARK SMILES IDX 60 99
REMARK H PARENT 21 5 15 26 25 33 84 52 52 63
REMARK Flexibility Score: inf
ROOT
ATOM      1  C   UNL A   1      31.978  30.344  25.827  1.00  0.00     0.117 C 
ENDROOT
BRANCH   1   2
ATOM      2  N   UNL A   1      31.786  29.106  26.560  1.00  0.00    -0.354 N 
ATOM      3  C   UNL A   1      31.478  27.854  26.112  1.00  0.00     0.243 C 
ATOM      4  O   UNL A   1      31.253  26.984  26.959  1.00  0.00    -0.273 OA
ATOM      5  H   UNL A   1      31.896  29.181  27.535  1.00  0.00     0.163 HD
BRANCH   3   6
ATOM      6  C   UNL A   1      31.205  27.577  24.614  1.00  0.00     0.181 C 
BRANCH   6   7
ATOM      7  C   UNL A   1      31.242  26.024  24.496  1.00  0.00     0.105 C 
BRANCH   7   8
ATOM      8  S   UNL A   1      31.734  25.223  22.919  1.00  0.00    -0.145 SA
BRANCH   8   9
ATOM      9  C   UNL A   1      31.957  23.486  23.453  1.00  0.00     0.146 C 
ATOM     10  N   UNL A   1      33.887  23.017  24.690  1.00  0.00    -0.250 N 
ATOM     11  C   UNL A   1      32.856  22.862  25.583  1.00  0.00     0.235 C 
ATOM     12  C   UNL A   1      33.441  23.220  23.414  1.00  0.00     0.247 C 
ATOM     13  O   UNL A   1      32.913  22.515  26.748  1.00  0.00    -0.274 OA
ATOM     14  C   UNL A   1      31.562  23.187  24.887  1.00  0.00     0.125 C 
ATOM     15  O   UNL A   1      34.071  23.151  22.363  1.00  0.00    -0.273 OA
BRANCH  10  16
ATOM     16  C   UNL A   1      35.249  22.898  25.025  1.00  0.00     0.052 A 
ATOM     17  C   UNL A   1      37.955  22.668  25.782  1.00  0.00    -0.048 A 
ATOM     18  C   UNL A   1      37.236  23.837  26.058  1.00  0.00     0.006 A 
ATOM     19  C   UNL A   1      37.300  21.612  25.134  1.00  0.00     0.006 A 
ATOM     20  C   UNL A   1      35.902  23.964  25.656  1.00  0.00     0.027 A 
ATOM     21  C   UNL A   1      35.952  21.718  24.780  1.00  0.00     0.027 A 
BRANCH  17  22
ATOM     22  C   UNL A   1      39.392  22.536  26.228  1.00  0.00     0.032 C 
ATOM     23  C   UNL A   1      39.881  21.096  26.290  1.00  0.00     0.009 C 
ENDBRANCH  17  22
ENDBRANCH  10  16
ENDBRANCH   8   9
ENDBRANCH   7   8
ENDBRANCH   6   7
BRANCH   6  24
ATOM     24  N   UNL A   1      29.973  28.170  24.073  1.00  0.00    -0.344 N 
ATOM     25  C   UNL A   1      29.788  28.520  22.753  1.00  0.00     0.217 C 
ATOM     26  H   UNL A   1      29.228  28.329  24.697  1.00  0.00     0.164 HD
ATOM     27  C   UNL A   1      28.485  29.232  22.503  1.00  0.00     0.114 C 
ATOM     28  O   UNL A   1      30.626  28.388  21.870  1.00  0.00    -0.275 OA
ENDBRANCH   6  24
ENDBRANCH   3   6
ENDBRANCH   1   2
BRANCH   1  29
ATOM     29  C   UNL A   1      31.678  31.555  26.701  1.00  0.00     0.042 C 
BRANCH  29  30
ATOM     30  C   UNL A   1      32.931  32.265  27.193  1.00  0.00     0.118 C 
BRANCH  30  31
ATOM     31  N   UNL A   1      32.674  33.658  27.530  1.00  0.00    -0.352 N 
ATOM     32  C   UNL A   1      33.175  34.415  28.561  1.00  0.00     0.251 C 
ATOM     33  H   UNL A   1      32.048  34.126  26.931  1.00  0.00     0.163 HD
ATOM     34  O   UNL A   1      32.659  35.497  28.823  1.00  0.00    -0.269 OA
BRANCH  32  35
ATOM     35  C   UNL A   1      34.311  33.910  29.362  1.00  0.00     0.039 A 
ATOM     36  C   UNL A   1      34.068  32.974  30.368  1.00  0.00     0.014 A 
ATOM     37  C   UNL A   1      35.613  34.360  29.122  1.00  0.00     0.014 A 
ATOM     38  C   UNL A   1      35.140  32.440  31.086  1.00  0.00     0.010 A 
ATOM     39  C   UNL A   1      36.685  33.758  29.771  1.00  0.00     0.010 A 
ATOM     40  C   UNL A   1      36.461  32.796  30.766  1.00  0.00    -0.014 A 
BRANCH  40  41
ATOM     41  C   UNL A   1      37.617  32.180  31.469  1.00  0.00     0.031 A 
ATOM     42  C   UNL A   1      38.392  31.069  30.813  1.00  0.00     0.074 A 
ATOM     43  C   UNL A   1      37.931  32.584  32.716  1.00  0.00     0.049 A 
ATOM     44  N   UNL A   1      39.390  30.366  31.284  1.00  0.00    -0.248 NA
ATOM     45  C   UNL A   1      37.968  30.676  29.460  1.00  0.00     0.031 C 
ATOM     46  C   UNL A   1      37.225  33.622  33.470  1.00  0.00     0.029 A 
ATOM     47  N   UNL A   1      38.920  32.171  33.573  1.00  0.00    -0.354 N 
ATOM     48  C   UNL A   1      39.705  29.442  30.293  1.00  0.00     0.074 A 
ATOM     49  C   UNL A   1      38.746  29.630  29.226  1.00  0.00     0.031 C 
ATOM     50  C   UNL A   1      37.826  33.789  34.659  1.00  0.00     0.029 A 
ATOM     51  C   UNL A   1      38.925  32.836  34.777  1.00  0.00     0.049 A 
ATOM     52  H   UNL A   1      39.567  31.464  33.346  1.00  0.00     0.167 HD
ATOM     53  C   UNL A   1      40.717  28.540  30.264  1.00  0.00     0.034 A 
ATOM     54  C   UNL A   1      39.716  32.687  35.858  1.00  0.00     0.034 A 
ATOM     55  C   UNL A   1      41.670  28.376  31.334  1.00  0.00     0.049 A 
ATOM     56  C   UNL A   1      40.814  31.654  35.815  1.00  0.00     0.074 A 
ATOM     57  C   UNL A   1      42.767  27.533  31.388  1.00  0.00     0.029 A 
ATOM     58  N   UNL A   1      41.639  29.061  32.543  1.00  0.00    -0.354 N 
ATOM     59  N   UNL A   1      41.134  30.827  34.847  1.00  0.00    -0.248 NA
ATOM     60  C   UNL A   1      41.664  31.543  37.007  1.00  0.00     0.031 C 
ATOM     61  C   UNL A   1      43.349  27.651  32.655  1.00  0.00     0.029 A 
ATOM     62  C   UNL A   1      42.672  28.633  33.361  1.00  0.00     0.049 A 
ATOM     63  H   UNL A   1      40.977  29.749  32.783  1.00  0.00     0.167 HD
ATOM     64  C   UNL A   1      42.247  30.123  35.300  1.00  0.00     0.074 A 
ATOM     65  C   UNL A   1      42.549  30.635  36.621  1.00  0.00     0.031 C 
ATOM     66  C   UNL A   1      42.957  29.146  34.681  1.00  0.00     0.034 A 
BRANCH  53  67
ATOM     67  C   UNL A   1      40.822  27.648  29.049  1.00  0.00     0.023 A 
ATOM     68  C   UNL A   1      41.768  27.886  28.036  1.00  0.00     0.031 A 
ATOM     69  C   UNL A   1      39.949  26.557  28.888  1.00  0.00     0.131 A 
ATOM     70  C   UNL A   1      41.768  27.095  26.876  1.00  0.00     0.055 A 
ATOM     71  C   UNL A   1      40.013  25.721  27.771  1.00  0.00     0.041 A 
ATOM     72  F   UNL A   1      39.009  26.292  29.809  1.00  0.00    -0.206 F 
ATOM     73  C   UNL A   1      40.916  25.998  26.749  1.00  0.00     0.022 A 
BRANCH  70  74
ATOM     74  S   UNL A   1      42.794  27.619  25.475  1.00  0.00     0.124 S 
ATOM     75  O   UNL A   1      42.760  26.431  24.624  1.00  0.00    -0.237 OA
ATOM     76  O   UNL A   1      42.074  28.784  24.975  1.00  0.00    -0.237 OA
ATOM     77  O   UNL A   1      44.092  27.900  26.087  1.00  0.00    -0.744 OA
ENDBRANCH  70  74
ENDBRANCH  53  67
BRANCH  54  78
ATOM     78  C   UNL A   1      39.505  33.525  37.074  1.00  0.00     0.023 A 
ATOM     79  C   UNL A   1      40.268  34.683  37.296  1.00  0.00     0.031 A 
ATOM     80  C   UNL A   1      38.572  33.154  38.060  1.00  0.00     0.131 A 
ATOM     81  C   UNL A   1      40.126  35.397  38.496  1.00  0.00     0.055 A 
ATOM     82  C   UNL A   1      38.392  33.903  39.224  1.00  0.00     0.041 A 
ATOM     83  F   UNL A   1      37.813  32.060  37.898  1.00  0.00    -0.206 F 
ATOM     84  C   UNL A   1      39.183  35.023  39.455  1.00  0.00     0.022 A 
BRANCH  81  85
ATOM     85  S   UNL A   1      41.266  36.768  38.829  1.00  0.00     0.124 S 
ATOM     86  O   UNL A   1      41.919  36.931  37.535  1.00  0.00    -0.237 OA
ATOM     87  O   UNL A   1      40.351  37.833  39.225  1.00  0.00    -0.237 OA
ATOM     88  O   UNL A   1      42.117  36.250  39.898  1.00  0.00    -0.744 OA
ENDBRANCH  81  85
ENDBRANCH  54  78
BRANCH  66  89
ATOM     89  C   UNL A   1      44.164  28.606  35.410  1.00  0.00     0.023 A 
ATOM     90  C   UNL A   1      44.065  27.544  36.326  1.00  0.00     0.031 A 
ATOM     91  C   UNL A   1      45.433  29.172  35.189  1.00  0.00     0.131 A 
ATOM     92  C   UNL A   1      45.203  27.121  37.031  1.00  0.00     0.055 A 
ATOM     93  C   UNL A   1      46.573  28.702  35.842  1.00  0.00     0.041 A 
ATOM     94  F   UNL A   1      45.587  30.191  34.327  1.00  0.00    -0.206 F 
ATOM     95  C   UNL A   1      46.459  27.680  36.780  1.00  0.00     0.022 A 
BRANCH  92  96
ATOM     96  S   UNL A   1      45.002  25.899  38.355  1.00  0.00     0.124 S 
ATOM     97  O   UNL A   1      46.383  25.515  38.626  1.00  0.00    -0.237 OA
ATOM     98  O   UNL A   1      44.339  26.676  39.399  1.00  0.00    -0.237 OA
ATOM     99  O   UNL A   1      44.178  24.859  37.740  1.00  0.00    -0.744 OA
ENDBRANCH  92  96
ENDBRANCH  66  89
ENDBRANCH  40  41
ENDBRANCH  32  35
ENDBRANCH  30  31
ENDBRANCH  29  30
ENDBRANCH   1  29
TORSDOF 19
ENDMDL
MODEL 3
REMARK VINA RESULT:     -11.7      5.211      9.010
REMARK SMILES CCc1ccc(N2C(=O)C[C@@H](SC[C@@H](NC(C)=O)C(=O)NCCCNC(=O)c3ccc(-c4c5nc(c(-c6cc(S(=O)(=O)[O-])ccc6F)c6ccc([nH]6)c(-c6cc(S(=O)(=O)[O-])ccc6F)c6nc(c(-c7cc(S(=O)(=O)[O-])ccc7F)c7ccc4[nH]7)C=C6)C=C5)cc3)C2=O)cc1
REMARK SMILES IDX 22 1 21 2 19 3 20 4 14 6 13 7 12 8 11 9 7 10 8 11 91 12 9 13
REMARK SMILES IDX 10 14 92 15 6 16 3 17 4 18 94 19 5 20 93 21 2 22 1 23 15 24
REMARK SMILES IDX 16 25 17 27 18 28 23 29 24 30 25 31 26 32 27 34 28 35 29 36
REMARK SMILES IDX 90 37 30 38 89 39 31 40 32 41 33 42 83 43 34 44 88 45 82 46
REMARK SMILES IDX 84 47 35 48 87 49 81 50 80 51 36 53 68 54 48 55 67 56 49 57
REMARK SMILES IDX 52 58 66 59 85 60 50 61 51 62 65 64 86 65 53 66 37 67 38 68
REMARK SMILES IDX 46 69 39 70 45 71 47 72 44 73 40 74 41 75 42 76 43 77 69 78
REMARK SMILES IDX 70 79 78 80 71 81 77 82 79 83 76 84 72 85 73 86 74 87 75 88
REMARK SMILES IDX 54 89 55 90 63 91 56 92 62 93 64 94 61 95 57 96 58 97 59 98
REMARK SMILES IDX 60 99
REMARK H PARENT 21 5 15 26 25 33 84 52 52 63
REMARK Flexibility Score: inf
ROOT
ATOM      1  C   UNL A   1      36.679  21.247  24.829  1.00  0.00     0.117 C 
ENDROOT
BRANCH   1   2
ATOM      2  N   UNL A   1      36.118  21.637  26.109  1.00  0.00    -0.354 N 
ATOM      3  C   UNL A   1      34.842  21.534  26.582  1.00  0.00     0.243 C 
ATOM      4  O   UNL A   1      34.596  22.052  27.676  1.00  0.00    -0.273 OA
ATOM      5  H   UNL A   1      36.761  22.040  26.737  1.00  0.00     0.163 HD
BRANCH   3   6
ATOM      6  C   UNL A   1      33.695  20.986  25.700  1.00  0.00     0.181 C 
BRANCH   6   7
ATOM      7  C   UNL A   1      33.172  22.234  24.927  1.00  0.00     0.105 C 
BRANCH   7   8
ATOM      8  S   UNL A   1      33.820  22.632  23.256  1.00  0.00    -0.145 SA
BRANCH   8   9
ATOM      9  C   UNL A   1      34.459  24.328  23.513  1.00  0.00     0.146 C 
ATOM     10  N   UNL A   1      32.859  26.007  23.819  1.00  0.00    -0.250 N 
ATOM     11  C   UNL A   1      33.479  25.893  25.037  1.00  0.00     0.235 C 
ATOM     12  C   UNL A   1      33.469  25.255  22.854  1.00  0.00     0.247 C 
ATOM     13  O   UNL A   1      33.284  26.544  26.048  1.00  0.00    -0.274 OA
ATOM     14  C   UNL A   1      34.506  24.797  24.955  1.00  0.00     0.125 C 
ATOM     15  O   UNL A   1      33.331  25.314  21.636  1.00  0.00    -0.273 OA
BRANCH  10  16
ATOM     16  C   UNL A   1      31.771  26.862  23.560  1.00  0.00     0.052 A 
ATOM     17  C   UNL A   1      29.565  28.565  23.130  1.00  0.00    -0.048 A 
ATOM     18  C   UNL A   1      29.371  27.226  23.490  1.00  0.00     0.006 A 
ATOM     19  C   UNL A   1      30.876  29.043  23.000  1.00  0.00     0.006 A 
ATOM     20  C   UNL A   1      30.463  26.373  23.675  1.00  0.00     0.027 A 
ATOM     21  C   UNL A   1      31.969  28.205  23.237  1.00  0.00     0.027 A 
BRANCH  17  22
ATOM     22  C   UNL A   1      28.379  29.482  22.943  1.00  0.00     0.032 C 
ATOM     23  C   UNL A   1      28.662  30.929  23.322  1.00  0.00     0.009 C 
ENDBRANCH  17  22
ENDBRANCH  10  16
ENDBRANCH   8   9
ENDBRANCH   7   8
ENDBRANCH   6   7
BRANCH   6  24
ATOM     24  N   UNL A   1      34.053  19.865  24.817  1.00  0.00    -0.344 N 
ATOM     25  C   UNL A   1      33.237  18.787  24.553  1.00  0.00     0.217 C 
ATOM     26  H   UNL A   1      34.937  19.887  24.384  1.00  0.00     0.164 HD
ATOM     27  C   UNL A   1      33.908  17.722  23.725  1.00  0.00     0.114 C 
ATOM     28  O   UNL A   1      32.120  18.623  25.025  1.00  0.00    -0.275 OA
ENDBRANCH   6  24
ENDBRANCH   3   6
ENDBRANCH   1   2
BRANCH   1  29
ATOM     29  C   UNL A   1      37.729  20.157  24.994  1.00  0.00     0.042 C 
BRANCH  29  30
ATOM     30  C   UNL A   1      38.972  20.629  25.734  1.00  0.00     0.118 C 
BRANCH  30  31
ATOM     31  N   UNL A   1      39.931  19.552  25.936  1.00  0.00    -0.352 N 
ATOM     32  C   UNL A   1      41.291  19.614  26.117  1.00  0.00     0.251 C 
ATOM     33  H   UNL A   1      39.547  18.645  25.944  1.00  0.00     0.163 HD
ATOM     34  O   UNL A   1      41.960  18.588  26.032  1.00  0.00    -0.269 OA
BRANCH  32  35
ATOM     35  C   UNL A   1      41.941  20.914  26.385  1.00  0.00     0.039 A 
ATOM     36  C   UNL A   1      42.236  21.759  25.313  1.00  0.00     0.014 A 
ATOM     37  C   UNL A   1      42.259  21.301  27.690  1.00  0.00     0.014 A 
ATOM     38  C   UNL A   1      42.787  23.018  25.559  1.00  0.00     0.010 A 
ATOM     39  C   UNL A   1      42.719  22.589  27.939  1.00  0.00     0.010 A 
ATOM     40  C   UNL A   1      42.995  23.461  26.876  1.00  0.00    -0.014 A 
BRANCH  40  41
ATOM     41  C   UNL A   1      43.510  24.826  27.157  1.00  0.00     0.031 A 
ATOM     42  C   UNL A   1      42.584  25.884  27.694  1.00  0.00     0.074 A 
ATOM     43  C   UNL A   1      44.795  25.125  26.879  1.00  0.00     0.049 A 
ATOM     44  N   UNL A   1      42.827  27.146  27.947  1.00  0.00    -0.248 NA
ATOM     45  C   UNL A   1      41.194  25.479  27.949  1.00  0.00     0.031 C 
ATOM     46  C   UNL A   1      45.775  24.193  26.316  1.00  0.00     0.029 A 
ATOM     47  N   UNL A   1      45.499  26.294  27.024  1.00  0.00    -0.354 N 
ATOM     48  C   UNL A   1      41.620  27.685  28.379  1.00  0.00     0.074 A 
ATOM     49  C   UNL A   1      40.633  26.630  28.286  1.00  0.00     0.031 C 
ATOM     50  C   UNL A   1      46.959  24.815  26.200  1.00  0.00     0.029 A 
ATOM     51  C   UNL A   1      46.813  26.203  26.627  1.00  0.00     0.049 A 
ATOM     52  H   UNL A   1      45.100  27.120  27.381  1.00  0.00     0.167 HD
ATOM     53  C   UNL A   1      41.364  28.936  28.837  1.00  0.00     0.034 A 
ATOM     54  C   UNL A   1      47.786  27.135  26.599  1.00  0.00     0.034 A 
ATOM     55  C   UNL A   1      42.365  29.970  28.933  1.00  0.00     0.049 A 
ATOM     56  C   UNL A   1      47.470  28.529  27.082  1.00  0.00     0.074 A 
ATOM     57  C   UNL A   1      42.231  31.254  29.432  1.00  0.00     0.029 A 
ATOM     58  N   UNL A   1      43.684  29.845  28.513  1.00  0.00    -0.354 N 
ATOM     59  N   UNL A   1      46.336  29.007  27.542  1.00  0.00    -0.248 NA
ATOM     60  C   UNL A   1      48.567  29.504  27.054  1.00  0.00     0.031 C 
ATOM     61  C   UNL A   1      43.442  31.927  29.243  1.00  0.00     0.029 A 
ATOM     62  C   UNL A   1      44.361  31.039  28.708  1.00  0.00     0.049 A 
ATOM     63  H   UNL A   1      44.079  29.028  28.131  1.00  0.00     0.167 HD
ATOM     64  C   UNL A   1      46.596  30.330  27.891  1.00  0.00     0.074 A 
ATOM     65  C   UNL A   1      47.996  30.566  27.602  1.00  0.00     0.031 C 
ATOM     66  C   UNL A   1      45.757  31.263  28.407  1.00  0.00     0.034 A 
BRANCH  53  67
ATOM     67  C   UNL A   1      39.943  29.254  29.241  1.00  0.00     0.023 A 
ATOM     68  C   UNL A   1      39.554  29.316  30.590  1.00  0.00     0.031 A 
ATOM     69  C   UNL A   1      38.957  29.477  28.263  1.00  0.00     0.131 A 
ATOM     70  C   UNL A   1      38.205  29.516  30.923  1.00  0.00     0.055 A 
ATOM     71  C   UNL A   1      37.633  29.761  28.603  1.00  0.00     0.041 A 
ATOM     72  F   UNL A   1      39.262  29.408  26.957  1.00  0.00    -0.206 F 
ATOM     73  C   UNL A   1      37.247  29.766  29.940  1.00  0.00     0.022 A 
BRANCH  70  74
ATOM     74  S   UNL A   1      37.700  29.290  32.651  1.00  0.00     0.124 S 
ATOM     75  O   UNL A   1      37.768  27.838  32.792  1.00  0.00    -0.237 OA
ATOM     76  O   UNL A   1      38.709  30.051  33.377  1.00  0.00    -0.237 OA
ATOM     77  O   UNL A   1      36.349  29.849  32.687  1.00  0.00    -0.744 OA
ENDBRANCH  70  74
ENDBRANCH  53  67
BRANCH  54  78
ATOM     78  C   UNL A   1      49.148  26.795  26.094  1.00  0.00     0.023 A 
ATOM     79  C   UNL A   1      49.617  27.310  24.875  1.00  0.00     0.031 A 
ATOM     80  C   UNL A   1      49.984  25.908  26.797  1.00  0.00     0.131 A 
ATOM     81  C   UNL A   1      50.858  26.893  24.368  1.00  0.00     0.055 A 
ATOM     82  C   UNL A   1      51.244  25.544  26.318  1.00  0.00     0.041 A 
ATOM     83  F   UNL A   1      49.589  25.388  27.970  1.00  0.00    -0.206 F 
ATOM     84  C   UNL A   1      51.681  26.025  25.089  1.00  0.00     0.022 A 
BRANCH  81  85
ATOM     85  S   UNL A   1      51.338  27.426  22.702  1.00  0.00     0.124 S 
ATOM     86  O   UNL A   1      50.413  26.666  21.870  1.00  0.00    -0.237 OA
ATOM     87  O   UNL A   1      51.110  28.866  22.768  1.00  0.00    -0.237 OA
ATOM     88  O   UNL A   1      52.740  27.023  22.608  1.00  0.00    -0.744 OA
ENDBRANCH  81  85
ENDBRANCH  54  78
BRANCH  66  89
ATOM     89  C   UNL A   1      46.349  32.611  28.741  1.00  0.00     0.023 A 
ATOM     90  C   UNL A   1      46.346  33.673  27.820  1.00  0.00     0.031 A 
ATOM     91  C   UNL A   1      46.934  32.832  30.002  1.00  0.00     0.131 A 
ATOM     92  C   UNL A   1      46.970  34.886  28.150  1.00  0.00     0.055 A 
ATOM     93  C   UNL A   1      47.491  34.062  30.349  1.00  0.00     0.041 A 
ATOM     94  F   UNL A   1      46.968  31.853  30.920  1.00  0.00    -0.206 F 
ATOM     95  C   UNL A   1      47.524  35.094  29.415  1.00  0.00     0.022 A 
BRANCH  92  96
ATOM     96  S   UNL A   1      47.136  36.157  26.866  1.00  0.00     0.124 S 
ATOM     97  O   UNL A   1      46.419  35.555  25.748  1.00  0.00    -0.237 OA
ATOM     98  O   UNL A   1      46.496  37.313  27.486  1.00  0.00    -0.237 OA
ATOM     99  O   UNL A   1      48.582  36.274  26.685  1.00  0.00    -0.744 OA
ENDBRANCH  92  96
ENDBRANCH  66  89
ENDBRANCH  40  41
ENDBRANCH  32  35
ENDBRANCH  30  31
ENDBRANCH  29  30
ENDBRANCH   1  29
TORSDOF 19
ENDMDL
