MODEL 1
REMARK VINA RESULT:     -11.5      0.000      0.000
REMARK SMILES C[C@](NC(=O)[C@](C)([NH3+])C(F)(F)F)(C(=O)NCCCNC(=O)c1ccc(-c2c3nc(c(-c4cc(S(=O)(=O)[O-])ccc4F)c4ccc([nH]4)c(-c4cc(S(=O)(=O)[O-])ccc4F)c4nc(c(-c5cc(S(=O)(=O)[O-])ccc5F)c5ccc2[nH]5)C=C4)C=C3)cc1)c1ccccc1
REMARK SMILES IDX 17 1 16 2 15 3 13 4 14 5 2 7 1 8 85 9 86 10 90 11 87 12
REMARK SMILES IDX 89 13 88 14 3 15 4 16 5 18 6 19 7 20 8 21 9 25 10 26 11 27
REMARK SMILES IDX 12 28 18 29 19 30 20 31 21 33 22 34 23 35 84 36 24 37 83 38
REMARK SMILES IDX 25 39 26 40 27 41 77 42 28 43 82 44 76 45 78 46 29 47 81 48
REMARK SMILES IDX 75 49 74 50 30 52 62 53 42 54 61 55 43 56 46 57 60 58 79 59
REMARK SMILES IDX 44 60 45 61 59 63 80 64 47 65 31 66 32 67 40 68 33 69 39 70
REMARK SMILES IDX 41 71 38 72 34 73 35 74 36 75 37 76 63 77 64 78 72 79 65 80
REMARK SMILES IDX 71 81 73 82 70 83 66 84 67 85 68 86 69 87 48 88 49 89 57 90
REMARK SMILES IDX 50 91 56 92 58 93 55 94 51 95 52 96 53 97 54 98
REMARK H PARENT 15 6 3 17 8 22 8 23 8 24 19 32 78 51 46 62
REMARK Flexibility Score: inf
ROOT
ATOM      1  C   UNL A   1      35.373  22.977  26.455  1.00  0.00     0.042 C 
ENDROOT
BRANCH   1   2
ATOM      2  C   UNL A   1      34.133  23.307  25.642  1.00  0.00     0.117 C 
BRANCH   2   3
ATOM      3  N   UNL A   1      32.968  23.463  26.501  1.00  0.00    -0.354 N 
ATOM      4  C   UNL A   1      31.908  24.325  26.464  1.00  0.00     0.250 C 
ATOM      5  O   UNL A   1      31.004  24.088  27.270  1.00  0.00    -0.272 OA
ATOM      6  H   UNL A   1      32.938  22.826  27.251  1.00  0.00     0.163 HD
BRANCH   4   7
ATOM      7  C   UNL A   1      31.796  25.434  25.338  1.00  0.00     0.142 C 
ATOM      8  C   UNL A   1      30.288  25.424  24.985  1.00  0.00     0.051 C 
BRANCH   7   9
ATOM      9  C   UNL A   1      32.314  26.759  25.912  1.00  0.00    -0.013 A 
ATOM     10  C   UNL A   1      31.441  27.840  26.155  1.00  0.00     0.007 A 
ATOM     11  C   UNL A   1      33.683  26.966  26.146  1.00  0.00     0.007 A 
ATOM     12  C   UNL A   1      31.901  29.025  26.731  1.00  0.00     0.000 A 
ATOM     13  C   UNL A   1      34.148  28.164  26.692  1.00  0.00     0.000 A 
ATOM     14  C   UNL A   1      33.253  29.181  27.011  1.00  0.00     0.000 A 
ENDBRANCH   7   9
BRANCH   7  15
ATOM     15  N   UNL A   1      32.652  24.984  24.207  1.00  0.00    -0.332 N 
ATOM     16  C   UNL A   1      33.002  25.342  22.956  1.00  0.00     0.291 C 
ATOM     17  H   UNL A   1      33.114  24.151  24.454  1.00  0.00     0.165 HD
ATOM     18  O   UNL A   1      33.864  24.577  22.486  1.00  0.00    -0.267 OA
BRANCH  16  19
ATOM     19  C   UNL A   1      32.598  26.603  22.139  1.00  0.00     0.267 C 
ATOM     20  C   UNL A   1      31.101  26.866  22.434  1.00  0.00     0.100 C 
BRANCH  19  21
ATOM     21  N   UNL A   1      32.661  26.281  20.672  1.00  0.00    -0.337 N 
ATOM     22  H   UNL A   1      31.765  26.501  20.237  1.00  0.00     0.345 HD
ATOM     23  H   UNL A   1      32.865  25.290  20.549  1.00  0.00     0.345 HD
ATOM     24  H   UNL A   1      33.397  26.835  20.233  1.00  0.00     0.345 HD
ENDBRANCH  19  21
BRANCH  19  25
ATOM     25  C   UNL A   1      33.369  27.858  22.561  1.00  0.00     0.453 C 
ATOM     26  F   UNL A   1      33.945  28.486  21.505  1.00  0.00    -0.164 F 
ATOM     27  F   UNL A   1      32.578  28.767  23.170  1.00  0.00    -0.164 F 
ATOM     28  F   UNL A   1      34.385  27.546  23.397  1.00  0.00    -0.164 F 
ENDBRANCH  19  25
ENDBRANCH  16  19
ENDBRANCH   7  15
ENDBRANCH   4   7
ENDBRANCH   2   3
ENDBRANCH   1   2
BRANCH   1  29
ATOM     29  C   UNL A   1      36.670  23.400  25.779  1.00  0.00     0.118 C 
BRANCH  29  30
ATOM     30  N   UNL A   1      37.746  22.443  25.988  1.00  0.00    -0.352 N 
ATOM     31  C   UNL A   1      39.041  22.670  26.385  1.00  0.00     0.251 C 
ATOM     32  H   UNL A   1      37.514  21.501  25.820  1.00  0.00     0.163 HD
ATOM     33  O   UNL A   1      39.863  21.759  26.306  1.00  0.00    -0.269 OA
BRANCH  31  34
ATOM     34  C   UNL A   1      39.440  24.005  26.877  1.00  0.00     0.039 A 
ATOM     35  C   UNL A   1      39.313  24.292  28.236  1.00  0.00     0.014 A 
ATOM     36  C   UNL A   1      39.937  24.974  26.000  1.00  0.00     0.014 A 
ATOM     37  C   UNL A   1      39.727  25.535  28.719  1.00  0.00     0.010 A 
ATOM     38  C   UNL A   1      40.453  26.163  26.498  1.00  0.00     0.010 A 
ATOM     39  C   UNL A   1      40.325  26.471  27.859  1.00  0.00    -0.014 A 
BRANCH  39  40
ATOM     40  C   UNL A   1      40.767  27.798  28.364  1.00  0.00     0.031 A 
ATOM     41  C   UNL A   1      42.236  28.126  28.425  1.00  0.00     0.074 A 
ATOM     42  C   UNL A   1      39.851  28.694  28.780  1.00  0.00     0.049 A 
ATOM     43  N   UNL A   1      42.824  29.224  28.827  1.00  0.00    -0.248 NA
ATOM     44  C   UNL A   1      43.172  27.067  28.013  1.00  0.00     0.031 C 
ATOM     45  C   UNL A   1      38.404  28.467  28.819  1.00  0.00     0.029 A 
ATOM     46  N   UNL A   1      39.996  29.977  29.242  1.00  0.00    -0.354 N 
ATOM     47  C   UNL A   1      44.191  28.984  28.723  1.00  0.00     0.074 A 
ATOM     48  C   UNL A   1      44.343  27.609  28.304  1.00  0.00     0.031 C 
ATOM     49  C   UNL A   1      37.794  29.590  29.231  1.00  0.00     0.029 A 
ATOM     50  C   UNL A   1      38.803  30.600  29.529  1.00  0.00     0.049 A 
ATOM     51  H   UNL A   1      40.872  30.412  29.357  1.00  0.00     0.167 HD
ATOM     52  C   UNL A   1      45.223  29.841  28.921  1.00  0.00     0.034 A 
ATOM     53  C   UNL A   1      38.554  31.847  29.978  1.00  0.00     0.034 A 
ATOM     54  C   UNL A   1      45.049  31.214  29.328  1.00  0.00     0.049 A 
ATOM     55  C   UNL A   1      39.718  32.780  30.199  1.00  0.00     0.074 A 
ATOM     56  C   UNL A   1      46.016  32.184  29.525  1.00  0.00     0.029 A 
ATOM     57  N   UNL A   1      43.826  31.812  29.608  1.00  0.00    -0.354 N 
ATOM     58  N   UNL A   1      41.003  32.555  30.042  1.00  0.00    -0.248 NA
ATOM     59  C   UNL A   1      39.393  34.142  30.634  1.00  0.00     0.031 C 
ATOM     60  C   UNL A   1      45.385  33.342  29.992  1.00  0.00     0.029 A 
ATOM     61  C   UNL A   1      44.016  33.128  29.998  1.00  0.00     0.049 A 
ATOM     62  H   UNL A   1      42.951  31.364  29.539  1.00  0.00     0.167 HD
ATOM     63  C   UNL A   1      41.636  33.763  30.321  1.00  0.00     0.074 A 
ATOM     64  C   UNL A   1      40.588  34.714  30.632  1.00  0.00     0.031 C 
ATOM     65  C   UNL A   1      42.961  34.063  30.315  1.00  0.00     0.034 A 
BRANCH  52  66
ATOM     66  C   UNL A   1      46.622  29.302  28.722  1.00  0.00     0.023 A 
ATOM     67  C   UNL A   1      47.155  29.080  27.438  1.00  0.00     0.031 A 
ATOM     68  C   UNL A   1      47.423  28.969  29.829  1.00  0.00     0.131 A 
ATOM     69  C   UNL A   1      48.408  28.466  27.294  1.00  0.00     0.055 A 
ATOM     70  C   UNL A   1      48.708  28.444  29.678  1.00  0.00     0.041 A 
ATOM     71  F   UNL A   1      46.964  29.131  31.080  1.00  0.00    -0.206 F 
ATOM     72  C   UNL A   1      49.202  28.173  28.405  1.00  0.00     0.022 A 
BRANCH  69  73
ATOM     73  S   UNL A   1      48.915  27.908  25.643  1.00  0.00     0.124 S 
ATOM     74  O   UNL A   1      47.778  28.330  24.828  1.00  0.00    -0.237 OA
ATOM     75  O   UNL A   1      50.159  28.640  25.431  1.00  0.00    -0.237 OA
ATOM     76  O   UNL A   1      49.058  26.463  25.799  1.00  0.00    -0.744 OA
ENDBRANCH  69  73
ENDBRANCH  52  66
BRANCH  53  77
ATOM     77  C   UNL A   1      37.153  32.294  30.237  1.00  0.00     0.023 A 
ATOM     78  C   UNL A   1      36.381  32.889  29.226  1.00  0.00     0.031 A 
ATOM     79  C   UNL A   1      36.584  32.181  31.518  1.00  0.00     0.131 A 
ATOM     80  C   UNL A   1      35.108  33.398  29.525  1.00  0.00     0.055 A 
ATOM     81  C   UNL A   1      35.293  32.633  31.796  1.00  0.00     0.041 A 
ATOM     82  F   UNL A   1      37.275  31.617  32.521  1.00  0.00    -0.206 F 
ATOM     83  C   UNL A   1      34.552  33.261  30.799  1.00  0.00     0.022 A 
BRANCH  80  84
ATOM     84  S   UNL A   1      34.223  34.335  28.246  1.00  0.00     0.124 S 
ATOM     85  O   UNL A   1      33.098  33.454  27.959  1.00  0.00    -0.237 OA
ATOM     86  O   UNL A   1      33.905  35.575  28.945  1.00  0.00    -0.237 OA
ATOM     87  O   UNL A   1      35.209  34.460  27.175  1.00  0.00    -0.744 OA
ENDBRANCH  80  84
ENDBRANCH  53  77
BRANCH  65  88
ATOM     88  C   UNL A   1      43.338  35.500  30.597  1.00  0.00     0.023 A 
ATOM     89  C   UNL A   1      43.557  35.970  31.904  1.00  0.00     0.031 A 
ATOM     90  C   UNL A   1      43.435  36.424  29.541  1.00  0.00     0.131 A 
ATOM     91  C   UNL A   1      43.771  37.338  32.128  1.00  0.00     0.055 A 
ATOM     92  C   UNL A   1      43.731  37.769  29.763  1.00  0.00     0.041 A 
ATOM     93  F   UNL A   1      43.235  36.036  28.271  1.00  0.00    -0.206 F 
ATOM     94  C   UNL A   1      43.877  38.238  31.065  1.00  0.00     0.022 A 
BRANCH  91  95
ATOM     95  S   UNL A   1      43.753  37.949  33.836  1.00  0.00     0.124 S 
ATOM     96  O   UNL A   1      43.256  36.789  34.569  1.00  0.00    -0.237 OA
ATOM     97  O   UNL A   1      45.155  38.290  34.058  1.00  0.00    -0.237 OA
ATOM     98  O   UNL A   1      42.839  39.088  33.783  1.00  0.00    -0.744 OA
ENDBRANCH  91  95
ENDBRANCH  65  88
ENDBRANCH  39  40
ENDBRANCH  31  34
ENDBRANCH  29  30
ENDBRANCH   1  29
TORSDOF 18
ENDMDL
MODEL 2
REMARK VINA RESULT:     -11.5      4.627      9.646
REMARK SMILES C[C@](NC(=O)[C@](C)([NH3+])C(F)(F)F)(C(=O)NCCCNC(=O)c1ccc(-c2c3nc(c(-c4cc(S(=O)(=O)[O-])ccc4F)c4ccc([nH]4)c(-c4cc(S(=O)(=O)[O-])ccc4F)c4nc(c(-c5cc(S(=O)(=O)[O-])ccc5F)c5ccc2[nH]5)C=C4)C=C3)cc1)c1ccccc1
REMARK SMILES IDX 17 1 16 2 15 3 13 4 14 5 2 7 1 8 85 9 86 10 90 11 87 12
REMARK SMILES IDX 89 13 88 14 3 15 4 16 5 18 6 19 7 20 8 21 9 25 10 26 11 27
REMARK SMILES IDX 12 28 18 29 19 30 20 31 21 33 22 34 23 35 84 36 24 37 83 38
REMARK SMILES IDX 25 39 26 40 27 41 77 42 28 43 82 44 76 45 78 46 29 47 81 48
REMARK SMILES IDX 75 49 74 50 30 52 62 53 42 54 61 55 43 56 46 57 60 58 79 59
REMARK SMILES IDX 44 60 45 61 59 63 80 64 47 65 31 66 32 67 40 68 33 69 39 70
REMARK SMILES IDX 41 71 38 72 34 73 35 74 36 75 37 76 63 77 64 78 72 79 65 80
REMARK SMILES IDX 71 81 73 82 70 83 66 84 67 85 68 86 69 87 48 88 49 89 57 90
REMARK SMILES IDX 50 91 56 92 58 93 55 94 51 95 52 96 53 97 54 98
REMARK H PARENT 15 6 3 17 8 22 8 23 8 24 19 32 78 51 46 62
REMARK Flexibility Score: inf
ROOT
ATOM      1  C   UNL A   1      33.801  28.595  24.903  1.00  0.00     0.042 C 
ENDROOT
BRANCH   1   2
ATOM      2  C   UNL A   1      33.044  27.320  24.574  1.00  0.00     0.117 C 
BRANCH   2   3
ATOM      3  N   UNL A   1      33.363  26.851  23.234  1.00  0.00    -0.354 N 
ATOM      4  C   UNL A   1      33.471  25.596  22.701  1.00  0.00     0.250 C 
ATOM      5  O   UNL A   1      33.611  25.551  21.476  1.00  0.00    -0.272 OA
ATOM      6  H   UNL A   1      33.532  27.574  22.588  1.00  0.00     0.163 HD
BRANCH   4   7
ATOM      7  C   UNL A   1      33.250  24.307  23.596  1.00  0.00     0.142 C 
ATOM      8  C   UNL A   1      32.526  23.333  22.634  1.00  0.00     0.051 C 
BRANCH   7   9
ATOM      9  C   UNL A   1      34.619  23.824  24.092  1.00  0.00    -0.013 A 
ATOM     10  C   UNL A   1      35.191  22.630  23.606  1.00  0.00     0.007 A 
ATOM     11  C   UNL A   1      35.314  24.514  25.098  1.00  0.00     0.007 A 
ATOM     12  C   UNL A   1      36.462  22.220  24.013  1.00  0.00     0.000 A 
ATOM     13  C   UNL A   1      36.571  24.086  25.529  1.00  0.00     0.000 A 
ATOM     14  C   UNL A   1      37.157  22.956  24.965  1.00  0.00     0.000 A 
ENDBRANCH   7   9
BRANCH   7  15
ATOM     15  N   UNL A   1      32.396  24.722  24.741  1.00  0.00    -0.332 N 
ATOM     16  C   UNL A   1      31.787  24.209  25.829  1.00  0.00     0.291 C 
ATOM     17  H   UNL A   1      32.215  25.688  24.686  1.00  0.00     0.165 HD
ATOM     18  O   UNL A   1      31.236  25.097  26.505  1.00  0.00    -0.267 OA
BRANCH  16  19
ATOM     19  C   UNL A   1      31.819  22.758  26.387  1.00  0.00     0.267 C 
ATOM     20  C   UNL A   1      31.771  21.808  25.166  1.00  0.00     0.100 C 
BRANCH  19  21
ATOM     21  N   UNL A   1      30.547  22.492  27.144  1.00  0.00    -0.337 N 
ATOM     22  H   UNL A   1      30.528  23.063  27.989  1.00  0.00     0.345 HD
ATOM     23  H   UNL A   1      30.502  21.506  27.399  1.00  0.00     0.345 HD
ATOM     24  H   UNL A   1      29.747  22.728  26.557  1.00  0.00     0.345 HD
ENDBRANCH  19  21
BRANCH  19  25
ATOM     25  C   UNL A   1      33.107  22.443  27.154  1.00  0.00     0.453 C 
ATOM     26  F   UNL A   1      33.909  21.581  26.479  1.00  0.00    -0.164 F 
ATOM     27  F   UNL A   1      33.843  23.548  27.399  1.00  0.00    -0.164 F 
ATOM     28  F   UNL A   1      32.836  21.840  28.333  1.00  0.00    -0.164 F 
ENDBRANCH  19  25
ENDBRANCH  16  19
ENDBRANCH   7  15
ENDBRANCH   4   7
ENDBRANCH   2   3
ENDBRANCH   1   2
BRANCH   1  29
ATOM     29  C   UNL A   1      33.965  28.835  26.396  1.00  0.00     0.118 C 
BRANCH  29  30
ATOM     30  N   UNL A   1      33.795  30.233  26.761  1.00  0.00    -0.352 N 
ATOM     31  C   UNL A   1      34.534  30.997  27.631  1.00  0.00     0.251 C 
ATOM     32  H   UNL A   1      33.045  30.696  26.324  1.00  0.00     0.163 HD
ATOM     33  O   UNL A   1      34.114  32.102  27.967  1.00  0.00    -0.269 OA
BRANCH  31  34
ATOM     34  C   UNL A   1      35.808  30.478  28.170  1.00  0.00     0.039 A 
ATOM     35  C   UNL A   1      35.791  29.738  29.353  1.00  0.00     0.014 A 
ATOM     36  C   UNL A   1      37.017  30.720  27.512  1.00  0.00     0.014 A 
ATOM     37  C   UNL A   1      36.983  29.206  29.849  1.00  0.00     0.010 A 
ATOM     38  C   UNL A   1      38.181  30.094  27.943  1.00  0.00     0.010 A 
ATOM     39  C   UNL A   1      38.184  29.356  29.134  1.00  0.00    -0.014 A 
BRANCH  39  40
ATOM     40  C   UNL A   1      39.458  28.794  29.655  1.00  0.00     0.031 A 
ATOM     41  C   UNL A   1      40.107  29.406  30.870  1.00  0.00     0.074 A 
ATOM     42  C   UNL A   1      40.033  27.750  29.029  1.00  0.00     0.049 A 
ATOM     43  N   UNL A   1      41.211  29.061  31.481  1.00  0.00    -0.248 NA
ATOM     44  C   UNL A   1      39.446  30.585  31.454  1.00  0.00     0.031 C 
ATOM     45  C   UNL A   1      39.525  27.109  27.813  1.00  0.00     0.029 A 
ATOM     46  N   UNL A   1      41.165  27.037  29.328  1.00  0.00    -0.354 N 
ATOM     47  C   UNL A   1      41.379  29.981  32.512  1.00  0.00     0.074 A 
ATOM     48  C   UNL A   1      40.311  30.948  32.388  1.00  0.00     0.031 C 
ATOM     49  C   UNL A   1      40.314  26.069  27.501  1.00  0.00     0.029 A 
ATOM     50  C   UNL A   1      41.407  25.993  28.464  1.00  0.00     0.049 A 
ATOM     51  H   UNL A   1      41.750  27.250  30.091  1.00  0.00     0.167 HD
ATOM     52  C   UNL A   1      42.313  29.999  33.494  1.00  0.00     0.034 A 
ATOM     53  C   UNL A   1      42.397  25.078  28.454  1.00  0.00     0.034 A 
ATOM     54  C   UNL A   1      43.365  29.018  33.607  1.00  0.00     0.049 A 
ATOM     55  C   UNL A   1      43.431  25.121  29.552  1.00  0.00     0.074 A 
ATOM     56  C   UNL A   1      44.345  28.913  34.578  1.00  0.00     0.029 A 
ATOM     57  N   UNL A   1      43.579  27.974  32.714  1.00  0.00    -0.354 N 
ATOM     58  N   UNL A   1      43.543  25.966  30.553  1.00  0.00    -0.248 NA
ATOM     59  C   UNL A   1      44.455  24.072  29.530  1.00  0.00     0.031 C 
ATOM     60  C   UNL A   1      45.192  27.853  34.233  1.00  0.00     0.029 A 
ATOM     61  C   UNL A   1      44.688  27.236  33.099  1.00  0.00     0.049 A 
ATOM     62  H   UNL A   1      43.023  27.786  31.924  1.00  0.00     0.167 HD
ATOM     63  C   UNL A   1      44.629  25.522  31.302  1.00  0.00     0.074 A 
ATOM     64  C   UNL A   1      45.119  24.325  30.648  1.00  0.00     0.031 C 
ATOM     65  C   UNL A   1      45.170  26.049  32.431  1.00  0.00     0.034 A 
BRANCH  52  66
ATOM     66  C   UNL A   1      42.245  31.127  34.498  1.00  0.00     0.023 A 
ATOM     67  C   UNL A   1      41.208  31.214  35.446  1.00  0.00     0.031 A 
ATOM     68  C   UNL A   1      43.208  32.152  34.487  1.00  0.00     0.131 A 
ATOM     69  C   UNL A   1      41.111  32.337  36.281  1.00  0.00     0.055 A 
ATOM     70  C   UNL A   1      43.157  33.221  35.384  1.00  0.00     0.041 A 
ATOM     71  F   UNL A   1      44.207  32.143  33.592  1.00  0.00    -0.206 F 
ATOM     72  C   UNL A   1      42.094  33.328  36.277  1.00  0.00     0.022 A 
BRANCH  69  73
ATOM     73  S   UNL A   1      39.597  32.565  37.255  1.00  0.00     0.124 S 
ATOM     74  O   UNL A   1      40.136  32.727  38.604  1.00  0.00    -0.237 OA
ATOM     75  O   UNL A   1      39.011  33.757  36.654  1.00  0.00    -0.237 OA
ATOM     76  O   UNL A   1      38.858  31.324  37.034  1.00  0.00    -0.744 OA
ENDBRANCH  69  73
ENDBRANCH  52  66
BRANCH  53  77
ATOM     77  C   UNL A   1      42.459  24.038  27.385  1.00  0.00     0.023 A 
ATOM     78  C   UNL A   1      41.857  22.781  27.557  1.00  0.00     0.031 A 
ATOM     79  C   UNL A   1      43.167  24.270  26.192  1.00  0.00     0.131 A 
ATOM     80  C   UNL A   1      42.023  21.785  26.582  1.00  0.00     0.055 A 
ATOM     81  C   UNL A   1      43.276  23.296  25.197  1.00  0.00     0.041 A 
ATOM     82  F   UNL A   1      43.758  25.455  25.971  1.00  0.00    -0.206 F 
ATOM     83  C   UNL A   1      42.716  22.039  25.397  1.00  0.00     0.022 A 
BRANCH  80  84
ATOM     84  S   UNL A   1      41.403  20.115  26.931  1.00  0.00     0.124 S 
ATOM     85  O   UNL A   1      42.628  19.328  26.880  1.00  0.00    -0.237 OA
ATOM     86  O   UNL A   1      40.802  20.285  28.249  1.00  0.00    -0.237 OA
ATOM     87  O   UNL A   1      40.457  19.871  25.844  1.00  0.00    -0.744 OA
ENDBRANCH  80  84
ENDBRANCH  53  77
BRANCH  65  88
ATOM     88  C   UNL A   1      46.317  25.291  33.059  1.00  0.00     0.023 A 
ATOM     89  C   UNL A   1      46.108  24.262  33.995  1.00  0.00     0.031 A 
ATOM     90  C   UNL A   1      47.645  25.635  32.747  1.00  0.00     0.131 A 
ATOM     91  C   UNL A   1      47.202  23.681  34.651  1.00  0.00     0.055 A 
ATOM     92  C   UNL A   1      48.732  24.994  33.341  1.00  0.00     0.041 A 
ATOM     93  F   UNL A   1      47.909  26.609  31.862  1.00  0.00    -0.206 F 
ATOM     94  C   UNL A   1      48.514  24.026  34.317  1.00  0.00     0.022 A 
BRANCH  91  95
ATOM     95  S   UNL A   1      46.884  22.576  36.055  1.00  0.00     0.124 S 
ATOM     96  O   UNL A   1      45.450  22.334  35.932  1.00  0.00    -0.237 OA
ATOM     97  O   UNL A   1      47.750  21.439  35.759  1.00  0.00    -0.237 OA
ATOM     98  O   UNL A   1      47.282  23.374  37.214  1.00  0.00    -0.744 OA
ENDBRANCH  91  95
ENDBRANCH  65  88
ENDBRANCH  39  40
ENDBRANCH  31  34
ENDBRANCH  29  30
ENDBRANCH   1  29
TORSDOF 18
ENDMDL
MODEL 3
REMARK VINA RESULT:     -11.4      4.422      9.290
REMARK SMILES C[C@](NC(=O)[C@](C)([NH3+])C(F)(F)F)(C(=O)NCCCNC(=O)c1ccc(-c2c3nc(c(-c4cc(S(=O)(=O)[O-])ccc4F)c4ccc([nH]4)c(-c4cc(S(=O)(=O)[O-])ccc4F)c4nc(c(-c5cc(S(=O)(=O)[O-])ccc5F)c5ccc2[nH]5)C=C4)C=C3)cc1)c1ccccc1
REMARK SMILES IDX 17 1 16 2 15 3 13 4 14 5 2 7 1 8 85 9 86 10 90 11 87 12
REMARK SMILES IDX 89 13 88 14 3 15 4 16 5 18 6 19 7 20 8 21 9 25 10 26 11 27
REMARK SMILES IDX 12 28 18 29 19 30 20 31 21 33 22 34 23 35 84 36 24 37 83 38
REMARK SMILES IDX 25 39 26 40 27 41 77 42 28 43 82 44 76 45 78 46 29 47 81 48
REMARK SMILES IDX 75 49 74 50 30 52 62 53 42 54 61 55 43 56 46 57 60 58 79 59
REMARK SMILES IDX 44 60 45 61 59 63 80 64 47 65 31 66 32 67 40 68 33 69 39 70
REMARK SMILES IDX 41 71 38 72 34 73 35 74 36 75 37 76 63 77 64 78 72 79 65 80
REMARK SMILES IDX 71 81 73 82 70 83 66 84 67 85 68 86 69 87 48 88 49 89 57 90
REMARK SMILES IDX 50 91 56 92 58 93 55 94 51 95 52 96 53 97 54 98
REMARK H PARENT 15 6 3 17 8 22 8 23 8 24 19 32 78 51 46 62
REMARK Flexibility Score: inf
ROOT
ATOM      1  C   UNL A   1      31.742  29.005  26.718  1.00  0.00     0.042 C 
ENDROOT
BRANCH   1   2
ATOM      2  C   UNL A   1      32.229  27.568  26.797  1.00  0.00     0.117 C 
BRANCH   2   3
ATOM      3  N   UNL A   1      31.111  26.638  26.856  1.00  0.00    -0.354 N 
ATOM      4  C   UNL A   1      30.597  25.760  25.942  1.00  0.00     0.250 C 
ATOM      5  O   UNL A   1      29.723  25.000  26.370  1.00  0.00    -0.272 OA
ATOM      6  H   UNL A   1      30.634  26.640  27.717  1.00  0.00     0.163 HD
BRANCH   4   7
ATOM      7  C   UNL A   1      31.224  25.630  24.492  1.00  0.00     0.142 C 
ATOM      8  C   UNL A   1      30.517  24.379  23.916  1.00  0.00     0.051 C 
BRANCH   7   9
ATOM      9  C   UNL A   1      30.950  26.933  23.730  1.00  0.00    -0.013 A 
ATOM     10  C   UNL A   1      29.633  27.386  23.510  1.00  0.00     0.007 A 
ATOM     11  C   UNL A   1      31.996  27.679  23.164  1.00  0.00     0.007 A 
ATOM     12  C   UNL A   1      29.384  28.600  22.868  1.00  0.00     0.000 A 
ATOM     13  C   UNL A   1      31.745  28.877  22.493  1.00  0.00     0.000 A 
ATOM     14  C   UNL A   1      30.442  29.351  22.371  1.00  0.00     0.000 A 
ENDBRANCH   7   9
BRANCH   7  15
ATOM     15  N   UNL A   1      32.687  25.428  24.675  1.00  0.00    -0.332 N 
ATOM     16  C   UNL A   1      33.581  24.456  24.946  1.00  0.00     0.291 C 
ATOM     17  H   UNL A   1      33.156  26.286  24.561  1.00  0.00     0.165 HD
ATOM     18  O   UNL A   1      34.748  24.884  24.901  1.00  0.00    -0.267 OA
BRANCH  16  19
ATOM     19  C   UNL A   1      33.352  22.930  25.144  1.00  0.00     0.267 C 
ATOM     20  C   UNL A   1      34.751  22.285  25.294  1.00  0.00     0.100 C 
BRANCH  19  21
ATOM     21  N   UNL A   1      32.782  22.349  23.880  1.00  0.00    -0.337 N 
ATOM     22  H   UNL A   1      32.888  23.019  23.119  1.00  0.00     0.345 HD
ATOM     23  H   UNL A   1      31.793  22.142  24.017  1.00  0.00     0.345 HD
ATOM     24  H   UNL A   1      33.279  21.489  23.647  1.00  0.00     0.345 HD
ENDBRANCH  19  21
BRANCH  19  25
ATOM     25  C   UNL A   1      32.566  22.607  26.419  1.00  0.00     0.453 C 
ATOM     26  F   UNL A   1      32.501  23.665  27.264  1.00  0.00    -0.164 F 
ATOM     27  F   UNL A   1      31.293  22.238  26.159  1.00  0.00    -0.164 F 
ATOM     28  F   UNL A   1      33.163  21.617  27.119  1.00  0.00    -0.164 F 
ENDBRANCH  19  25
ENDBRANCH  16  19
ENDBRANCH   7  15
ENDBRANCH   4   7
ENDBRANCH   2   3
ENDBRANCH   1   2
BRANCH   1  29
ATOM     29  C   UNL A   1      32.710  29.933  25.999  1.00  0.00     0.118 C 
BRANCH  29  30
ATOM     30  N   UNL A   1      32.474  31.335  26.309  1.00  0.00    -0.352 N 
ATOM     31  C   UNL A   1      33.129  32.147  27.203  1.00  0.00     0.251 C 
ATOM     32  H   UNL A   1      31.741  31.762  25.810  1.00  0.00     0.163 HD
ATOM     33  O   UNL A   1      32.655  33.247  27.477  1.00  0.00    -0.269 OA
BRANCH  31  34
ATOM     34  C   UNL A   1      34.380  31.683  27.841  1.00  0.00     0.039 A 
ATOM     35  C   UNL A   1      35.457  32.563  27.938  1.00  0.00     0.014 A 
ATOM     36  C   UNL A   1      34.489  30.383  28.343  1.00  0.00     0.014 A 
ATOM     37  C   UNL A   1      36.627  32.151  28.578  1.00  0.00     0.010 A 
ATOM     38  C   UNL A   1      35.608  30.014  29.078  1.00  0.00     0.010 A 
ATOM     39  C   UNL A   1      36.704  30.882  29.177  1.00  0.00    -0.014 A 
BRANCH  39  40
ATOM     40  C   UNL A   1      37.947  30.433  29.859  1.00  0.00     0.031 A 
ATOM     41  C   UNL A   1      38.231  30.879  31.270  1.00  0.00     0.074 A 
ATOM     42  C   UNL A   1      38.820  29.643  29.205  1.00  0.00     0.049 A 
ATOM     43  N   UNL A   1      39.252  30.594  32.039  1.00  0.00    -0.248 NA
ATOM     44  C   UNL A   1      37.257  31.793  31.888  1.00  0.00     0.031 C 
ATOM     45  C   UNL A   1      38.678  29.192  27.818  1.00  0.00     0.029 A 
ATOM     46  N   UNL A   1      39.996  29.071  29.618  1.00  0.00    -0.354 N 
ATOM     47  C   UNL A   1      39.045  31.299  33.221  1.00  0.00     0.074 A 
ATOM     48  C   UNL A   1      37.849  32.090  33.033  1.00  0.00     0.031 C 
ATOM     49  C   UNL A   1      39.698  28.375  27.514  1.00  0.00     0.029 A 
ATOM     50  C   UNL A   1      40.590  28.277  28.664  1.00  0.00     0.049 A 
ATOM     51  H   UNL A   1      40.378  29.214  30.514  1.00  0.00     0.167 HD
ATOM     52  C   UNL A   1      39.763  31.263  34.370  1.00  0.00     0.034 A 
ATOM     53  C   UNL A   1      41.725  27.551  28.714  1.00  0.00     0.034 A 
ATOM     54  C   UNL A   1      40.948  30.458  34.542  1.00  0.00     0.049 A 
ATOM     55  C   UNL A   1      42.513  27.531  30.000  1.00  0.00     0.074 A 
ATOM     56  C   UNL A   1      41.736  30.312  35.669  1.00  0.00     0.029 A 
ATOM     57  N   UNL A   1      41.521  29.665  33.553  1.00  0.00    -0.354 N 
ATOM     58  N   UNL A   1      42.273  28.161  31.129  1.00  0.00    -0.248 NA
ATOM     59  C   UNL A   1      43.709  26.684  30.024  1.00  0.00     0.031 C 
ATOM     60  C   UNL A   1      42.822  29.492  35.342  1.00  0.00     0.029 A 
ATOM     61  C   UNL A   1      42.664  29.048  34.039  1.00  0.00     0.049 A 
ATOM     62  H   UNL A   1      41.166  29.557  32.641  1.00  0.00     0.167 HD
ATOM     63  C   UNL A   1      43.270  27.750  32.010  1.00  0.00     0.074 A 
ATOM     64  C   UNL A   1      44.095  26.804  31.285  1.00  0.00     0.031 C 
ATOM     65  C   UNL A   1      43.482  28.114  33.302  1.00  0.00     0.034 A 
BRANCH  52  66
ATOM     66  C   UNL A   1      39.294  32.137  35.512  1.00  0.00     0.023 A 
ATOM     67  C   UNL A   1      39.677  33.488  35.616  1.00  0.00     0.031 A 
ATOM     68  C   UNL A   1      38.483  31.606  36.530  1.00  0.00     0.131 A 
ATOM     69  C   UNL A   1      39.321  34.233  36.751  1.00  0.00     0.055 A 
ATOM     70  C   UNL A   1      38.055  32.381  37.611  1.00  0.00     0.041 A 
ATOM     71  F   UNL A   1      38.105  30.319  36.503  1.00  0.00    -0.206 F 
ATOM     72  C   UNL A   1      38.489  33.698  37.735  1.00  0.00     0.022 A 
BRANCH  69  73
ATOM     73  S   UNL A   1      40.096  35.855  37.000  1.00  0.00     0.124 S 
ATOM     74  O   UNL A   1      41.512  35.498  37.058  1.00  0.00    -0.237 OA
ATOM     75  O   UNL A   1      39.671  36.593  35.816  1.00  0.00    -0.237 OA
ATOM     76  O   UNL A   1      39.526  36.316  38.263  1.00  0.00    -0.744 OA
ENDBRANCH  69  73
ENDBRANCH  52  66
BRANCH  53  77
ATOM     77  C   UNL A   1      42.183  26.775  27.524  1.00  0.00     0.023 A 
ATOM     78  C   UNL A   1      41.904  25.404  27.398  1.00  0.00     0.031 A 
ATOM     79  C   UNL A   1      42.953  27.384  26.516  1.00  0.00     0.131 A 
ATOM     80  C   UNL A   1      42.439  24.676  26.324  1.00  0.00     0.055 A 
ATOM     81  C   UNL A   1      43.431  26.668  25.417  1.00  0.00     0.041 A 
ATOM     82  F   UNL A   1      43.246  28.692  26.582  1.00  0.00    -0.206 F 
ATOM     83  C   UNL A   1      43.187  25.301  25.325  1.00  0.00     0.022 A 
BRANCH  80  84
ATOM     84  S   UNL A   1      42.225  22.873  26.304  1.00  0.00     0.124 S 
ATOM     85  O   UNL A   1      42.646  22.541  24.948  1.00  0.00    -0.237 OA
ATOM     86  O   UNL A   1      43.120  22.450  27.376  1.00  0.00    -0.237 OA
ATOM     87  O   UNL A   1      40.801  22.698  26.578  1.00  0.00    -0.744 OA
ENDBRANCH  80  84
ENDBRANCH  53  77
BRANCH  65  88
ATOM     88  C   UNL A   1      44.622  27.433  34.025  1.00  0.00     0.023 A 
ATOM     89  C   UNL A   1      44.445  26.229  34.729  1.00  0.00     0.031 A 
ATOM     90  C   UNL A   1      45.898  28.026  34.047  1.00  0.00     0.131 A 
ATOM     91  C   UNL A   1      45.495  25.707  35.497  1.00  0.00     0.055 A 
ATOM     92  C   UNL A   1      46.963  27.456  34.745  1.00  0.00     0.041 A 
ATOM     93  F   UNL A   1      46.129  29.177  33.395  1.00  0.00    -0.206 F 
ATOM     94  C   UNL A   1      46.759  26.302  35.495  1.00  0.00     0.022 A 
BRANCH  91  95
ATOM     95  S   UNL A   1      45.145  24.325  36.620  1.00  0.00     0.124 S 
ATOM     96  O   UNL A   1      44.232  23.512  35.824  1.00  0.00    -0.237 OA
ATOM     97  O   UNL A   1      46.473  23.761  36.841  1.00  0.00    -0.237 OA
ATOM     98  O   UNL A   1      44.545  24.974  37.784  1.00  0.00    -0.744 OA
ENDBRANCH  91  95
ENDBRANCH  65  88
ENDBRANCH  39  40
ENDBRANCH  31  34
ENDBRANCH  29  30
ENDBRANCH   1  29
TORSDOF 18
ENDMDL
