MODEL 1
REMARK VINA RESULT:     -10.6      0.000      0.000
REMARK SMILES CCCN(CC)S(=O)(=O)c1ccc(C(=O)NCCCNC(=O)c2ccc(-c3c4nc(c(-c5cc(S(=O)(=O)[O-])ccc5F)c5ccc([nH]5)c(-c5cc(S(=O)(=O)[O-])ccc5F)c5nc(c(-c6cc(S(=O)(=O)[O-])ccc6F)c6ccc3[nH]6)C=C5)C=C4)cc2)o1
REMARK SMILES IDX 17 1 16 2 14 3 15 4 13 6 10 7 11 8 86 9 12 10 7 11 8 12 9 13
REMARK SMILES IDX 4 14 3 15 2 16 1 17 5 18 6 19 18 20 19 21 20 22 21 23 22 25
REMARK SMILES IDX 23 26 24 27 85 28 25 29 84 30 26 31 27 32 28 33 78 34 29 35
REMARK SMILES IDX 83 36 77 37 79 38 30 39 82 40 76 41 75 42 31 44 63 45 43 46
REMARK SMILES IDX 62 47 44 48 47 49 61 50 80 51 45 52 46 53 60 55 81 56 48 57
REMARK SMILES IDX 32 58 33 59 41 60 34 61 40 62 42 63 39 64 35 65 36 66 37 67
REMARK SMILES IDX 38 68 64 69 65 70 73 71 66 72 72 73 74 74 71 75 67 76 68 77
REMARK SMILES IDX 69 78 70 79 49 80 50 81 58 82 51 83 57 84 59 85 56 86 52 87
REMARK SMILES IDX 53 88 54 89 55 90
REMARK H PARENT 16 5 20 24 79 43 47 54
REMARK Flexibility Score: inf
ROOT
ATOM      1  C   UNL A   1      31.264  29.761  24.750  1.00  0.00     0.118 C 
ENDROOT
BRANCH   1   2
ATOM      2  N   UNL A   1      30.615  29.864  23.458  1.00  0.00    -0.349 N 
ATOM      3  C   UNL A   1      30.091  28.889  22.642  1.00  0.00     0.287 C 
ATOM      4  O   UNL A   1      29.449  29.289  21.669  1.00  0.00    -0.266 OA
ATOM      5  H   UNL A   1      30.537  30.781  23.108  1.00  0.00     0.163 HD
BRANCH   3   6
ATOM      6  C   UNL A   1      30.294  27.481  22.931  1.00  0.00     0.193 A 
ATOM      7  C   UNL A   1      31.498  25.587  22.819  1.00  0.00     0.234 A 
ATOM      8  C   UNL A   1      30.403  25.351  23.640  1.00  0.00     0.065 A 
ATOM      9  O   UNL A   1      31.404  26.893  22.386  1.00  0.00    -0.438 OA
ATOM     10  C   UNL A   1      29.643  26.541  23.704  1.00  0.00     0.058 A 
BRANCH   7  11
ATOM     11  S   UNL A   1      32.918  24.569  22.388  1.00  0.00     0.276 S 
ATOM     12  O   UNL A   1      33.554  25.280  21.301  1.00  0.00    -0.204 OA
ATOM     13  O   UNL A   1      32.372  23.244  22.199  1.00  0.00    -0.204 OA
BRANCH  11  14
ATOM     14  N   UNL A   1      34.044  24.490  23.684  1.00  0.00    -0.195 NA
BRANCH  14  15
ATOM     15  C   UNL A   1      34.142  25.754  24.486  1.00  0.00     0.102 C 
BRANCH  15  16
ATOM     16  C   UNL A   1      33.617  25.620  25.915  1.00  0.00     0.013 C 
ATOM     17  C   UNL A   1      32.583  26.670  26.306  1.00  0.00     0.005 C 
ENDBRANCH  15  16
ENDBRANCH  14  15
BRANCH  14  18
ATOM     18  C   UNL A   1      34.006  23.284  24.561  1.00  0.00     0.099 C 
ATOM     19  C   UNL A   1      35.205  22.363  24.408  1.00  0.00     0.022 C 
ENDBRANCH  14  18
ENDBRANCH  11  14
ENDBRANCH   7  11
ENDBRANCH   3   6
ENDBRANCH   1   2
BRANCH   1  20
ATOM     20  C   UNL A   1      30.958  30.956  25.645  1.00  0.00     0.042 C 
BRANCH  20  21
ATOM     21  C   UNL A   1      32.101  31.324  26.587  1.00  0.00     0.118 C 
BRANCH  21  22
ATOM     22  N   UNL A   1      32.215  32.764  26.767  1.00  0.00    -0.352 N 
ATOM     23  C   UNL A   1      33.032  33.490  27.599  1.00  0.00     0.251 C 
ATOM     24  H   UNL A   1      31.613  33.300  26.204  1.00  0.00     0.163 HD
ATOM     25  O   UNL A   1      32.779  34.678  27.785  1.00  0.00    -0.269 OA
BRANCH  23  26
ATOM     26  C   UNL A   1      34.191  32.860  28.268  1.00  0.00     0.039 A 
ATOM     27  C   UNL A   1      35.436  33.495  28.202  1.00  0.00     0.014 A 
ATOM     28  C   UNL A   1      34.075  31.624  28.910  1.00  0.00     0.014 A 
ATOM     29  C   UNL A   1      36.548  32.914  28.818  1.00  0.00     0.010 A 
ATOM     30  C   UNL A   1      35.165  31.085  29.588  1.00  0.00     0.010 A 
ATOM     31  C   UNL A   1      36.415  31.718  29.539  1.00  0.00    -0.014 A 
BRANCH  31  32
ATOM     32  C   UNL A   1      37.578  31.097  30.224  1.00  0.00     0.031 A 
ATOM     33  C   UNL A   1      37.913  31.480  31.639  1.00  0.00     0.074 A 
ATOM     34  C   UNL A   1      38.365  30.236  29.552  1.00  0.00     0.049 A 
ATOM     35  N   UNL A   1      38.922  31.109  32.385  1.00  0.00    -0.248 NA
ATOM     36  C   UNL A   1      37.006  32.438  32.287  1.00  0.00     0.031 C 
ATOM     37  C   UNL A   1      38.162  29.812  28.165  1.00  0.00     0.029 A 
ATOM     38  N   UNL A   1      39.497  29.567  29.942  1.00  0.00    -0.354 N 
ATOM     39  C   UNL A   1      38.780  31.798  33.586  1.00  0.00     0.074 A 
ATOM     40  C   UNL A   1      37.629  32.663  33.433  1.00  0.00     0.031 C 
ATOM     41  C   UNL A   1      39.117  28.929  27.832  1.00  0.00     0.029 A 
ATOM     42  C   UNL A   1      40.023  28.758  28.963  1.00  0.00     0.049 A 
ATOM     43  H   UNL A   1      39.895  29.658  30.837  1.00  0.00     0.167 HD
ATOM     44  C   UNL A   1      39.522  31.699  34.719  1.00  0.00     0.034 A 
ATOM     45  C   UNL A   1      41.115  27.970  28.975  1.00  0.00     0.034 A 
ATOM     46  C   UNL A   1      40.667  30.827  34.849  1.00  0.00     0.049 A 
ATOM     47  C   UNL A   1      41.951  27.902  30.225  1.00  0.00     0.074 A 
ATOM     48  C   UNL A   1      41.466  30.607  35.958  1.00  0.00     0.029 A 
ATOM     49  N   UNL A   1      41.184  30.037  33.829  1.00  0.00    -0.354 N 
ATOM     50  N   UNL A   1      41.784  28.528  31.368  1.00  0.00    -0.248 NA
ATOM     51  C   UNL A   1      43.121  27.016  30.186  1.00  0.00     0.031 C 
ATOM     52  C   UNL A   1      42.500  29.737  35.590  1.00  0.00     0.029 A 
ATOM     53  C   UNL A   1      42.307  29.355  34.272  1.00  0.00     0.049 A 
ATOM     54  H   UNL A   1      40.807  29.972  32.922  1.00  0.00     0.167 HD
ATOM     55  C   UNL A   1      42.812  28.087  32.195  1.00  0.00     0.074 A 
ATOM     56  C   UNL A   1      43.587  27.137  31.421  1.00  0.00     0.031 C 
ATOM     57  C   UNL A   1      43.085  28.429  33.481  1.00  0.00     0.034 A 
BRANCH  44  58
ATOM     58  C   UNL A   1      39.123  32.582  35.880  1.00  0.00     0.023 A 
ATOM     59  C   UNL A   1      39.514  33.933  35.944  1.00  0.00     0.031 A 
ATOM     60  C   UNL A   1      38.413  32.055  36.973  1.00  0.00     0.131 A 
ATOM     61  C   UNL A   1      39.298  34.672  37.116  1.00  0.00     0.055 A 
ATOM     62  C   UNL A   1      38.113  32.828  38.098  1.00  0.00     0.041 A 
ATOM     63  F   UNL A   1      38.025  30.770  36.983  1.00  0.00    -0.206 F 
ATOM     64  C   UNL A   1      38.578  34.138  38.185  1.00  0.00     0.022 A 
BRANCH  61  65
ATOM     65  S   UNL A   1      40.147  36.266  37.297  1.00  0.00     0.124 S 
ATOM     66  O   UNL A   1      41.512  35.839  37.601  1.00  0.00    -0.237 OA
ATOM     67  O   UNL A   1      39.945  36.881  35.991  1.00  0.00    -0.237 OA
ATOM     68  O   UNL A   1      39.442  36.906  38.407  1.00  0.00    -0.744 OA
ENDBRANCH  61  65
ENDBRANCH  44  58
BRANCH  45  69
ATOM     69  C   UNL A   1      41.472  27.169  27.772  1.00  0.00     0.023 A 
ATOM     70  C   UNL A   1      41.242  25.785  27.740  1.00  0.00     0.031 A 
ATOM     71  C   UNL A   1      42.049  27.773  26.642  1.00  0.00     0.131 A 
ATOM     72  C   UNL A   1      41.615  25.042  26.610  1.00  0.00     0.055 A 
ATOM     73  C   UNL A   1      42.382  27.034  25.503  1.00  0.00     0.041 A 
ATOM     74  F   UNL A   1      42.277  29.095  26.619  1.00  0.00    -0.206 F 
ATOM     75  C   UNL A   1      42.172  25.658  25.488  1.00  0.00     0.022 A 
BRANCH  72  76
ATOM     76  S   UNL A   1      41.397  23.242  26.645  1.00  0.00     0.124 S 
ATOM     77  O   UNL A   1      41.904  22.906  27.970  1.00  0.00    -0.237 OA
ATOM     78  O   UNL A   1      39.956  23.108  26.455  1.00  0.00    -0.237 OA
ATOM     79  O   UNL A   1      42.214  22.780  25.525  1.00  0.00    -0.744 OA
ENDBRANCH  72  76
ENDBRANCH  45  69
BRANCH  57  80
ATOM     80  C   UNL A   1      44.256  27.735  34.133  1.00  0.00     0.023 A 
ATOM     81  C   UNL A   1      44.110  26.505  34.799  1.00  0.00     0.031 A 
ATOM     82  C   UNL A   1      45.531  28.326  34.108  1.00  0.00     0.131 A 
ATOM     83  C   UNL A   1      45.206  25.936  35.463  1.00  0.00     0.055 A 
ATOM     84  C   UNL A   1      46.632  27.726  34.720  1.00  0.00     0.041 A 
ATOM     85  F   UNL A   1      45.726  29.501  33.489  1.00  0.00    -0.206 F 
ATOM     86  C   UNL A   1      46.470  26.530  35.414  1.00  0.00     0.022 A 
BRANCH  83  87
ATOM     87  S   UNL A   1      44.940  24.454  36.475  1.00  0.00     0.124 S 
ATOM     88  O   UNL A   1      43.926  23.740  35.706  1.00  0.00    -0.237 OA
ATOM     89  O   UNL A   1      46.268  23.848  36.497  1.00  0.00    -0.237 OA
ATOM     90  O   UNL A   1      44.483  24.989  37.756  1.00  0.00    -0.744 OA
ENDBRANCH  83  87
ENDBRANCH  57  80
ENDBRANCH  31  32
ENDBRANCH  23  26
ENDBRANCH  21  22
ENDBRANCH  20  21
ENDBRANCH   1  20
TORSDOF 18
ENDMDL
MODEL 2
REMARK VINA RESULT:     -10.5      2.273      3.221
REMARK SMILES CCCN(CC)S(=O)(=O)c1ccc(C(=O)NCCCNC(=O)c2ccc(-c3c4nc(c(-c5cc(S(=O)(=O)[O-])ccc5F)c5ccc([nH]5)c(-c5cc(S(=O)(=O)[O-])ccc5F)c5nc(c(-c6cc(S(=O)(=O)[O-])ccc6F)c6ccc3[nH]6)C=C5)C=C4)cc2)o1
REMARK SMILES IDX 17 1 16 2 14 3 15 4 13 6 10 7 11 8 86 9 12 10 7 11 8 12 9 13
REMARK SMILES IDX 4 14 3 15 2 16 1 17 5 18 6 19 18 20 19 21 20 22 21 23 22 25
REMARK SMILES IDX 23 26 24 27 85 28 25 29 84 30 26 31 27 32 28 33 78 34 29 35
REMARK SMILES IDX 83 36 77 37 79 38 30 39 82 40 76 41 75 42 31 44 63 45 43 46
REMARK SMILES IDX 62 47 44 48 47 49 61 50 80 51 45 52 46 53 60 55 81 56 48 57
REMARK SMILES IDX 32 58 33 59 41 60 34 61 40 62 42 63 39 64 35 65 36 66 37 67
REMARK SMILES IDX 38 68 64 69 65 70 73 71 66 72 72 73 74 74 71 75 67 76 68 77
REMARK SMILES IDX 69 78 70 79 49 80 50 81 58 82 51 83 57 84 59 85 56 86 52 87
REMARK SMILES IDX 53 88 54 89 55 90
REMARK H PARENT 16 5 20 24 79 43 47 54
REMARK Flexibility Score: inf
ROOT
ATOM      1  C   UNL A   1      31.399  28.365  25.916  1.00  0.00     0.118 C 
ENDROOT
BRANCH   1   2
ATOM      2  N   UNL A   1      31.194  28.828  24.559  1.00  0.00    -0.349 N 
ATOM      3  C   UNL A   1      30.881  28.130  23.416  1.00  0.00     0.287 C 
ATOM      4  O   UNL A   1      30.605  28.813  22.427  1.00  0.00    -0.266 OA
ATOM      5  H   UNL A   1      31.296  29.799  24.435  1.00  0.00     0.163 HD
BRANCH   3   6
ATOM      6  C   UNL A   1      30.881  26.678  23.400  1.00  0.00     0.193 A 
ATOM      7  C   UNL A   1      31.917  24.698  23.172  1.00  0.00     0.234 A 
ATOM      8  C   UNL A   1      30.610  24.454  23.573  1.00  0.00     0.065 A 
ATOM      9  O   UNL A   1      32.058  26.066  23.060  1.00  0.00    -0.438 OA
ATOM     10  C   UNL A   1      29.958  25.700  23.709  1.00  0.00     0.058 A 
BRANCH   7  11
ATOM     11  S   UNL A   1      33.321  23.601  22.921  1.00  0.00     0.276 S 
ATOM     12  O   UNL A   1      34.377  24.469  22.449  1.00  0.00    -0.204 OA
ATOM     13  O   UNL A   1      32.805  22.532  22.097  1.00  0.00    -0.204 OA
BRANCH  11  14
ATOM     14  N   UNL A   1      33.845  22.909  24.405  1.00  0.00    -0.195 NA
BRANCH  14  15
ATOM     15  C   UNL A   1      34.804  21.766  24.240  1.00  0.00     0.102 C 
BRANCH  15  16
ATOM     16  C   UNL A   1      36.271  22.192  24.209  1.00  0.00     0.013 C 
ATOM     17  C   UNL A   1      37.235  21.173  24.806  1.00  0.00     0.005 C 
ENDBRANCH  15  16
ENDBRANCH  14  15
BRANCH  14  18
ATOM     18  C   UNL A   1      34.279  23.838  25.487  1.00  0.00     0.099 C 
ATOM     19  C   UNL A   1      34.051  23.308  26.893  1.00  0.00     0.022 C 
ENDBRANCH  14  18
ENDBRANCH  11  14
ENDBRANCH   7  11
ENDBRANCH   3   6
ENDBRANCH   1   2
BRANCH   1  20
ATOM     20  C   UNL A   1      32.841  27.939  26.168  1.00  0.00     0.042 C 
BRANCH  20  21
ATOM     21  C   UNL A   1      33.873  28.945  25.665  1.00  0.00     0.118 C 
BRANCH  21  22
ATOM     22  N   UNL A   1      33.653  30.272  26.219  1.00  0.00    -0.352 N 
ATOM     23  C   UNL A   1      34.246  30.894  27.291  1.00  0.00     0.251 C 
ATOM     24  H   UNL A   1      32.973  30.809  25.752  1.00  0.00     0.163 HD
ATOM     25  O   UNL A   1      33.724  31.908  27.748  1.00  0.00    -0.269 OA
BRANCH  23  26
ATOM     26  C   UNL A   1      35.483  30.354  27.895  1.00  0.00     0.039 A 
ATOM     27  C   UNL A   1      35.379  29.477  28.980  1.00  0.00     0.014 A 
ATOM     28  C   UNL A   1      36.745  30.749  27.441  1.00  0.00     0.014 A 
ATOM     29  C   UNL A   1      36.534  28.962  29.574  1.00  0.00     0.010 A 
ATOM     30  C   UNL A   1      37.893  30.177  27.983  1.00  0.00     0.010 A 
ATOM     31  C   UNL A   1      37.800  29.287  29.063  1.00  0.00    -0.014 A 
BRANCH  31  32
ATOM     32  C   UNL A   1      39.040  28.730  29.662  1.00  0.00     0.031 A 
ATOM     33  C   UNL A   1      39.571  29.288  30.954  1.00  0.00     0.074 A 
ATOM     34  C   UNL A   1      39.719  27.765  29.012  1.00  0.00     0.049 A 
ATOM     35  N   UNL A   1      40.670  28.991  31.599  1.00  0.00    -0.248 NA
ATOM     36  C   UNL A   1      38.772  30.349  31.583  1.00  0.00     0.031 C 
ATOM     37  C   UNL A   1      39.321  27.167  27.736  1.00  0.00     0.029 A 
ATOM     38  N   UNL A   1      40.886  27.123  29.332  1.00  0.00    -0.354 N 
ATOM     39  C   UNL A   1      40.701  29.837  32.703  1.00  0.00     0.074 A 
ATOM     40  C   UNL A   1      39.549  30.707  32.592  1.00  0.00     0.031 C 
ATOM     41  C   UNL A   1      40.212  26.221  27.399  1.00  0.00     0.029 A 
ATOM     42  C   UNL A   1      41.265  26.176  28.409  1.00  0.00     0.049 A 
ATOM     43  H   UNL A   1      41.405  27.320  30.145  1.00  0.00     0.167 HD
ATOM     44  C   UNL A   1      41.592  29.869  33.728  1.00  0.00     0.034 A 
ATOM     45  C   UNL A   1      42.340  25.367  28.380  1.00  0.00     0.034 A 
ATOM     46  C   UNL A   1      42.735  28.990  33.819  1.00  0.00     0.049 A 
ATOM     47  C   UNL A   1      43.340  25.442  29.503  1.00  0.00     0.074 A 
ATOM     48  C   UNL A   1      43.678  28.897  34.829  1.00  0.00     0.029 A 
ATOM     49  N   UNL A   1      43.099  28.057  32.854  1.00  0.00    -0.354 N 
ATOM     50  N   UNL A   1      43.338  26.218  30.562  1.00  0.00    -0.248 NA
ATOM     51  C   UNL A   1      44.485  24.525  29.426  1.00  0.00     0.031 C 
ATOM     52  C   UNL A   1      44.643  27.957  34.445  1.00  0.00     0.029 A 
ATOM     53  C   UNL A   1      44.266  27.409  33.230  1.00  0.00     0.049 A 
ATOM     54  H   UNL A   1      42.600  27.882  32.024  1.00  0.00     0.167 HD
ATOM     55  C   UNL A   1      44.466  25.862  31.294  1.00  0.00     0.074 A 
ATOM     56  C   UNL A   1      45.118  24.797  30.558  1.00  0.00     0.031 C 
ATOM     57  C   UNL A   1      44.918  26.364  32.473  1.00  0.00     0.034 A 
BRANCH  44  58
ATOM     58  C   UNL A   1      41.366  30.909  34.802  1.00  0.00     0.023 A 
ATOM     59  C   UNL A   1      40.235  30.869  35.639  1.00  0.00     0.031 A 
ATOM     60  C   UNL A   1      42.243  31.999  34.943  1.00  0.00     0.131 A 
ATOM     61  C   UNL A   1      39.950  31.948  36.489  1.00  0.00     0.055 A 
ATOM     62  C   UNL A   1      42.005  33.022  35.864  1.00  0.00     0.041 A 
ATOM     63  F   UNL A   1      43.331  32.107  34.164  1.00  0.00    -0.206 F 
ATOM     64  C   UNL A   1      40.841  33.013  36.627  1.00  0.00     0.022 A 
BRANCH  61  65
ATOM     65  S   UNL A   1      38.307  32.030  37.255  1.00  0.00     0.124 S 
ATOM     66  O   UNL A   1      37.790  30.689  36.988  1.00  0.00    -0.237 OA
ATOM     67  O   UNL A   1      38.622  32.328  38.647  1.00  0.00    -0.237 OA
ATOM     68  O   UNL A   1      37.639  33.103  36.520  1.00  0.00    -0.744 OA
ENDBRANCH  61  65
ENDBRANCH  44  58
BRANCH  45  69
ATOM     69  C   UNL A   1      42.519  24.403  27.259  1.00  0.00     0.023 A 
ATOM     70  C   UNL A   1      42.002  23.101  27.345  1.00  0.00     0.031 A 
ATOM     71  C   UNL A   1      43.212  24.766  26.092  1.00  0.00     0.131 A 
ATOM     72  C   UNL A   1      42.209  22.198  26.293  1.00  0.00     0.055 A 
ATOM     73  C   UNL A   1      43.381  23.875  25.030  1.00  0.00     0.041 A 
ATOM     74  F   UNL A   1      43.715  26.004  25.957  1.00  0.00    -0.206 F 
ATOM     75  C   UNL A   1      42.884  22.578  25.132  1.00  0.00     0.022 A 
BRANCH  72  76
ATOM     76  S   UNL A   1      41.614  20.495  26.482  1.00  0.00     0.124 S 
ATOM     77  O   UNL A   1      40.171  20.669  26.372  1.00  0.00    -0.237 OA
ATOM     78  O   UNL A   1      42.267  19.820  25.364  1.00  0.00    -0.237 OA
ATOM     79  O   UNL A   1      42.100  20.111  27.806  1.00  0.00    -0.744 OA
ENDBRANCH  72  76
ENDBRANCH  45  69
BRANCH  57  80
ATOM     80  C   UNL A   1      46.161  25.730  33.048  1.00  0.00     0.023 A 
ATOM     81  C   UNL A   1      46.096  24.610  33.897  1.00  0.00     0.031 A 
ATOM     82  C   UNL A   1      47.427  26.271  32.762  1.00  0.00     0.131 A 
ATOM     83  C   UNL A   1      47.269  24.104  34.476  1.00  0.00     0.055 A 
ATOM     84  C   UNL A   1      48.596  25.726  33.294  1.00  0.00     0.041 A 
ATOM     85  F   UNL A   1      47.546  27.341  31.961  1.00  0.00    -0.206 F 
ATOM     86  C   UNL A   1      48.520  24.645  34.168  1.00  0.00     0.022 A 
BRANCH  83  87
ATOM     87  S   UNL A   1      47.131  22.787  35.716  1.00  0.00     0.124 S 
ATOM     88  O   UNL A   1      45.699  22.787  36.000  1.00  0.00    -0.237 OA
ATOM     89  O   UNL A   1      47.637  21.624  34.994  1.00  0.00    -0.237 OA
ATOM     90  O   UNL A   1      47.980  23.254  36.810  1.00  0.00    -0.744 OA
ENDBRANCH  83  87
ENDBRANCH  57  80
ENDBRANCH  31  32
ENDBRANCH  23  26
ENDBRANCH  21  22
ENDBRANCH  20  21
ENDBRANCH   1  20
TORSDOF 18
ENDMDL
MODEL 3
REMARK VINA RESULT:     -10.3      2.333      7.921
REMARK SMILES CCCN(CC)S(=O)(=O)c1ccc(C(=O)NCCCNC(=O)c2ccc(-c3c4nc(c(-c5cc(S(=O)(=O)[O-])ccc5F)c5ccc([nH]5)c(-c5cc(S(=O)(=O)[O-])ccc5F)c5nc(c(-c6cc(S(=O)(=O)[O-])ccc6F)c6ccc3[nH]6)C=C5)C=C4)cc2)o1
REMARK SMILES IDX 17 1 16 2 14 3 15 4 13 6 10 7 11 8 86 9 12 10 7 11 8 12 9 13
REMARK SMILES IDX 4 14 3 15 2 16 1 17 5 18 6 19 18 20 19 21 20 22 21 23 22 25
REMARK SMILES IDX 23 26 24 27 85 28 25 29 84 30 26 31 27 32 28 33 78 34 29 35
REMARK SMILES IDX 83 36 77 37 79 38 30 39 82 40 76 41 75 42 31 44 63 45 43 46
REMARK SMILES IDX 62 47 44 48 47 49 61 50 80 51 45 52 46 53 60 55 81 56 48 57
REMARK SMILES IDX 32 58 33 59 41 60 34 61 40 62 42 63 39 64 35 65 36 66 37 67
REMARK SMILES IDX 38 68 64 69 65 70 73 71 66 72 72 73 74 74 71 75 67 76 68 77
REMARK SMILES IDX 69 78 70 79 49 80 50 81 58 82 51 83 57 84 59 85 56 86 52 87
REMARK SMILES IDX 53 88 54 89 55 90
REMARK H PARENT 16 5 20 24 79 43 47 54
REMARK Flexibility Score: inf
ROOT
ATOM      1  C   UNL A   1      31.692  30.385  25.745  1.00  0.00     0.118 C 
ENDROOT
BRANCH   1   2
ATOM      2  N   UNL A   1      30.860  30.316  24.561  1.00  0.00    -0.349 N 
ATOM      3  C   UNL A   1      30.656  29.285  23.673  1.00  0.00     0.287 C 
ATOM      4  O   UNL A   1      29.760  29.459  22.845  1.00  0.00    -0.266 OA
ATOM      5  H   UNL A   1      30.360  31.139  24.359  1.00  0.00     0.163 HD
BRANCH   3   6
ATOM      6  C   UNL A   1      31.459  28.077  23.729  1.00  0.00     0.193 A 
ATOM      7  C   UNL A   1      31.690  25.863  24.034  1.00  0.00     0.234 A 
ATOM      8  C   UNL A   1      32.913  26.368  23.612  1.00  0.00     0.065 A 
ATOM      9  O   UNL A   1      30.817  26.929  24.111  1.00  0.00    -0.438 OA
ATOM     10  C   UNL A   1      32.768  27.762  23.428  1.00  0.00     0.058 A 
BRANCH   7  11
ATOM     11  S   UNL A   1      31.127  24.183  24.345  1.00  0.00     0.276 S 
ATOM     12  O   UNL A   1      30.348  23.841  23.175  1.00  0.00    -0.204 OA
ATOM     13  O   UNL A   1      30.524  24.238  25.657  1.00  0.00    -0.204 OA
BRANCH  11  14
ATOM     14  N   UNL A   1      32.449  23.086  24.424  1.00  0.00    -0.195 NA
BRANCH  14  15
ATOM     15  C   UNL A   1      32.139  21.808  25.147  1.00  0.00     0.102 C 
BRANCH  15  16
ATOM     16  C   UNL A   1      32.683  20.560  24.453  1.00  0.00     0.013 C 
ATOM     17  C   UNL A   1      32.934  19.381  25.386  1.00  0.00     0.005 C 
ENDBRANCH  15  16
ENDBRANCH  14  15
BRANCH  14  18
ATOM     18  C   UNL A   1      33.217  22.837  23.171  1.00  0.00     0.099 C 
ATOM     19  C   UNL A   1      34.682  23.234  23.247  1.00  0.00     0.022 C 
ENDBRANCH  14  18
ENDBRANCH  11  14
ENDBRANCH   7  11
ENDBRANCH   3   6
ENDBRANCH   1   2
BRANCH   1  20
ATOM     20  C   UNL A   1      31.470  31.674  26.530  1.00  0.00     0.042 C 
BRANCH  20  21
ATOM     21  C   UNL A   1      32.721  32.179  27.244  1.00  0.00     0.118 C 
BRANCH  21  22
ATOM     22  N   UNL A   1      32.635  33.599  27.551  1.00  0.00    -0.352 N 
ATOM     23  C   UNL A   1      33.275  34.336  28.517  1.00  0.00     0.251 C 
ATOM     24  H   UNL A   1      32.022  34.111  26.976  1.00  0.00     0.163 HD
ATOM     25  O   UNL A   1      32.858  35.463  28.773  1.00  0.00    -0.269 OA
BRANCH  23  26
ATOM     26  C   UNL A   1      34.440  33.789  29.245  1.00  0.00     0.039 A 
ATOM     27  C   UNL A   1      34.223  32.842  30.252  1.00  0.00     0.014 A 
ATOM     28  C   UNL A   1      35.737  34.242  28.986  1.00  0.00     0.014 A 
ATOM     29  C   UNL A   1      35.307  32.318  30.961  1.00  0.00     0.010 A 
ATOM     30  C   UNL A   1      36.822  33.664  29.639  1.00  0.00     0.010 A 
ATOM     31  C   UNL A   1      36.618  32.704  30.642  1.00  0.00    -0.014 A 
BRANCH  31  32
ATOM     32  C   UNL A   1      37.787  32.140  31.365  1.00  0.00     0.031 A 
ATOM     33  C   UNL A   1      38.597  31.035  30.744  1.00  0.00     0.074 A 
ATOM     34  C   UNL A   1      38.080  32.580  32.603  1.00  0.00     0.049 A 
ATOM     35  N   UNL A   1      39.603  30.362  31.239  1.00  0.00    -0.248 NA
ATOM     36  C   UNL A   1      38.193  30.610  29.396  1.00  0.00     0.031 C 
ATOM     37  C   UNL A   1      37.348  33.623  33.324  1.00  0.00     0.029 A 
ATOM     38  N   UNL A   1      39.068  32.202  33.476  1.00  0.00    -0.354 N 
ATOM     39  C   UNL A   1      39.946  29.424  30.269  1.00  0.00     0.074 A 
ATOM     40  C   UNL A   1      38.987  29.571  29.194  1.00  0.00     0.031 C 
ATOM     41  C   UNL A   1      37.933  33.826  34.516  1.00  0.00     0.029 A 
ATOM     42  C   UNL A   1      39.051  32.898  34.661  1.00  0.00     0.049 A 
ATOM     43  H   UNL A   1      39.726  31.499  33.274  1.00  0.00     0.167 HD
ATOM     44  C   UNL A   1      40.979  28.542  30.264  1.00  0.00     0.034 A 
ATOM     45  C   UNL A   1      39.844  32.798  35.744  1.00  0.00     0.034 A 
ATOM     46  C   UNL A   1      41.924  28.413  31.348  1.00  0.00     0.049 A 
ATOM     47  C   UNL A   1      40.960  31.787  35.739  1.00  0.00     0.074 A 
ATOM     48  C   UNL A   1      43.035  27.591  31.436  1.00  0.00     0.029 A 
ATOM     49  N   UNL A   1      41.863  29.121  32.544  1.00  0.00    -0.354 N 
ATOM     50  N   UNL A   1      41.298  30.933  34.801  1.00  0.00    -0.248 NA
ATOM     51  C   UNL A   1      41.803  31.732  36.940  1.00  0.00     0.031 C 
ATOM     52  C   UNL A   1      43.605  27.755  32.705  1.00  0.00     0.029 A 
ATOM     53  C   UNL A   1      42.895  28.732  33.385  1.00  0.00     0.049 A 
ATOM     54  H   UNL A   1      41.185  29.801  32.761  1.00  0.00     0.167 HD
ATOM     55  C   UNL A   1      42.414  30.258  35.287  1.00  0.00     0.074 A 
ATOM     56  C   UNL A   1      42.693  30.813  36.597  1.00  0.00     0.031 C 
ATOM     57  C   UNL A   1      43.147  29.277  34.700  1.00  0.00     0.034 A 
BRANCH  44  58
ATOM     58  C   UNL A   1      41.102  27.638  29.057  1.00  0.00     0.023 A 
ATOM     59  C   UNL A   1      42.111  27.830  28.095  1.00  0.00     0.031 A 
ATOM     60  C   UNL A   1      40.158  26.624  28.820  1.00  0.00     0.131 A 
ATOM     61  C   UNL A   1      42.085  27.106  26.894  1.00  0.00     0.055 A 
ATOM     62  C   UNL A   1      40.196  25.837  27.666  1.00  0.00     0.041 A 
ATOM     63  F   UNL A   1      39.159  26.401  29.689  1.00  0.00    -0.206 F 
ATOM     64  C   UNL A   1      41.149  26.092  26.683  1.00  0.00     0.022 A 
BRANCH  61  65
ATOM     65  S   UNL A   1      43.162  27.647  25.538  1.00  0.00     0.124 S 
ATOM     66  O   UNL A   1      44.098  28.525  26.239  1.00  0.00    -0.237 OA
ATOM     67  O   UNL A   1      43.710  26.387  25.049  1.00  0.00    -0.237 OA
ATOM     68  O   UNL A   1      42.247  28.328  24.624  1.00  0.00    -0.744 OA
ENDBRANCH  61  65
ENDBRANCH  44  58
BRANCH  45  69
ATOM     69  C   UNL A   1      39.626  33.690  36.916  1.00  0.00     0.023 A 
ATOM     70  C   UNL A   1      39.052  33.193  38.097  1.00  0.00     0.031 A 
ATOM     71  C   UNL A   1      39.982  35.049  36.871  1.00  0.00     0.131 A 
ATOM     72  C   UNL A   1      38.825  34.057  39.178  1.00  0.00     0.055 A 
ATOM     73  C   UNL A   1      39.789  35.895  37.965  1.00  0.00     0.041 A 
ATOM     74  F   UNL A   1      40.545  35.568  35.769  1.00  0.00    -0.206 F 
ATOM     75  C   UNL A   1      39.199  35.401  39.125  1.00  0.00     0.022 A 
BRANCH  72  76
ATOM     76  S   UNL A   1      37.989  33.402  40.649  1.00  0.00     0.124 S 
ATOM     77  O   UNL A   1      38.793  32.223  40.949  1.00  0.00    -0.237 OA
ATOM     78  O   UNL A   1      38.108  34.517  41.585  1.00  0.00    -0.237 OA
ATOM     79  O   UNL A   1      36.633  33.133  40.177  1.00  0.00    -0.744 OA
ENDBRANCH  72  76
ENDBRANCH  45  69
BRANCH  57  80
ATOM     80  C   UNL A   1      44.344  28.773  35.469  1.00  0.00     0.023 A 
ATOM     81  C   UNL A   1      44.212  27.850  36.521  1.00  0.00     0.031 A 
ATOM     82  C   UNL A   1      45.632  29.244  35.158  1.00  0.00     0.131 A 
ATOM     83  C   UNL A   1      45.341  27.472  37.264  1.00  0.00     0.055 A 
ATOM     84  C   UNL A   1      46.760  28.819  35.862  1.00  0.00     0.041 A 
ATOM     85  F   UNL A   1      45.814  30.128  34.165  1.00  0.00    -0.206 F 
ATOM     86  C   UNL A   1      46.616  27.938  36.930  1.00  0.00     0.022 A 
BRANCH  83  87
ATOM     87  S   UNL A   1      45.110  26.434  38.734  1.00  0.00     0.124 S 
ATOM     88  O   UNL A   1      45.761  25.191  38.332  1.00  0.00    -0.237 OA
ATOM     89  O   UNL A   1      45.791  27.204  39.769  1.00  0.00    -0.237 OA
ATOM     90  O   UNL A   1      43.658  26.356  38.875  1.00  0.00    -0.744 OA
ENDBRANCH  83  87
ENDBRANCH  57  80
ENDBRANCH  31  32
ENDBRANCH  23  26
ENDBRANCH  21  22
ENDBRANCH  20  21
ENDBRANCH   1  20
TORSDOF 18
ENDMDL
