MODEL 1
REMARK VINA RESULT:     -11.2      0.000      0.000
REMARK SMILES COc1c(Cl)cc(C(=O)NCCCNC(=O)c2ccc(-c3c4nc(c(-c5cc(S(=O)(=O)[O-])ccc5F)c5ccc([nH]5)c(-c5cc(S(=O)(=O)[O-])ccc5F)c5nc(c(-c6cc(S(=O)(=O)[O-])ccc6F)c6ccc3[nH]6)C=C5)C=C4)cc2)cc1NC(=S)NC(=O)c1cccc(C)c1OC
REMARK SMILES IDX 11 1 10 2 8 3 9 4 7 6 3 7 4 8 81 9 5 10 6 11 80 12 2 13 1 14
REMARK SMILES IDX 82 15 83 17 84 18 85 19 86 20 87 22 88 23 89 24 94 25 90 26
REMARK SMILES IDX 92 27 91 28 93 29 95 30 96 31 12 32 13 33 14 34 15 35 16 37
REMARK SMILES IDX 17 38 18 39 79 40 19 41 78 42 20 43 21 44 22 45 72 46 23 47
REMARK SMILES IDX 77 48 71 49 73 50 24 51 76 52 70 53 69 54 25 56 57 57 37 58
REMARK SMILES IDX 56 59 38 60 41 61 55 62 74 63 39 64 40 65 54 67 75 68 42 69
REMARK SMILES IDX 26 70 27 71 35 72 28 73 34 74 36 75 33 76 29 77 30 78 31 79
REMARK SMILES IDX 32 80 58 81 59 82 67 83 60 84 66 85 68 86 65 87 61 88 62 89
REMARK SMILES IDX 63 90 64 91 43 92 44 93 52 94 45 95 51 96 53 97 50 98 46 99
REMARK SMILES IDX 47 100 48 101 49 102
REMARK H PARENT 10 5 82 16 85 21 14 36 73 55 41 66
REMARK Flexibility Score: inf
ROOT
ATOM      1  C   UNL A   1      34.692  31.021  27.824  1.00  0.00     0.118 C 
ENDROOT
BRANCH   1   2
ATOM      2  N   UNL A   1      33.393  31.726  27.423  1.00  0.00    -0.352 N 
ATOM      3  C   UNL A   1      31.901  31.278  26.758  1.00  0.00     0.251 C 
ATOM      4  O   UNL A   1      31.380  32.400  26.918  1.00  0.00    -0.269 OA
ATOM      5  H   UNL A   1      33.437  32.694  27.595  1.00  0.00     0.163 HD
BRANCH   3   6
ATOM      6  C   UNL A   1      31.515  29.541  25.506  1.00  0.00     0.043 A 
ATOM      7  C   UNL A   1      30.953  27.304  23.763  1.00  0.00     0.160 A 
ATOM      8  C   UNL A   1      30.666  28.566  23.341  1.00  0.00     0.086 A 
ATOM      9  C   UNL A   1      31.834  27.131  24.795  1.00  0.00     0.085 A 
ATOM     10  Cl  UNL A   1      29.816  29.374  22.096  1.00  0.00    -0.080 Cl
ATOM     11  C   UNL A   1      31.017  29.413  24.309  1.00  0.00     0.038 A 
ATOM     12  C   UNL A   1      31.814  28.169  25.645  1.00  0.00     0.044 A 
BRANCH   7  13
ATOM     13  O   UNL A   1      30.228  26.211  23.470  1.00  0.00    -0.493 OA
ATOM     14  C   UNL A   1      28.945  26.367  24.007  1.00  0.00     0.278 C 
ENDBRANCH   7  13
BRANCH   9  15
ATOM     15  N   UNL A   1      32.467  26.033  25.374  1.00  0.00    -0.329 N 
ATOM     16  H   UNL A   1      32.423  25.978  26.356  1.00  0.00     0.169 HD
BRANCH  15  17
ATOM     17  C   UNL A   1      33.153  25.001  24.735  1.00  0.00     0.177 C 
ATOM     18  S   UNL A   1      34.706  24.662  25.253  1.00  0.00    -0.040 S 
BRANCH  17  19
ATOM     19  N   UNL A   1      32.639  24.280  23.632  1.00  0.00    -0.299 N 
ATOM     20  C   UNL A   1      33.029  23.090  22.974  1.00  0.00     0.261 C 
ATOM     21  H   UNL A   1      31.839  24.695  23.237  1.00  0.00     0.172 HD
ATOM     22  O   UNL A   1      33.827  23.170  22.040  1.00  0.00    -0.269 OA
BRANCH  20  23
ATOM     23  C   UNL A   1      32.553  21.633  23.463  1.00  0.00     0.082 A 
ATOM     24  C   UNL A   1      31.966  20.676  21.942  1.00  0.00     0.018 A 
ATOM     25  C   UNL A   1      33.316  20.568  24.889  1.00  0.00     0.134 A 
ATOM     26  C   UNL A   1      32.142  18.842  21.804  1.00  0.00     0.001 A 
ATOM     27  C   UNL A   1      33.717  18.778  24.567  1.00  0.00    -0.008 A 
ATOM     28  C   UNL A   1      33.021  17.888  23.142  1.00  0.00     0.007 A 
ATOM     29  C   UNL A   1      35.530  18.521  24.694  1.00  0.00     0.048 C 
BRANCH  25  30
ATOM     30  O   UNL A   1      34.350  20.973  25.790  1.00  0.00    -0.496 OA
ATOM     31  C   UNL A   1      34.014  21.476  27.064  1.00  0.00     0.278 C 
ENDBRANCH  25  30
ENDBRANCH  20  23
ENDBRANCH  17  19
ENDBRANCH  15  17
ENDBRANCH   9  15
ENDBRANCH   3   6
ENDBRANCH   1   2
BRANCH   1  32
ATOM     32  C   UNL A   1      35.485  31.658  28.999  1.00  0.00     0.042 C 
BRANCH  32  33
ATOM     33  C   UNL A   1      35.664  30.767  30.181  1.00  0.00     0.118 C 
BRANCH  33  34
ATOM     34  N   UNL A   1      35.624  31.573  31.382  1.00  0.00    -0.352 N 
ATOM     35  C   UNL A   1      36.398  31.463  32.497  1.00  0.00     0.251 C 
ATOM     36  H   UNL A   1      34.952  32.293  31.395  1.00  0.00     0.163 HD
ATOM     37  O   UNL A   1      35.989  31.903  33.565  1.00  0.00    -0.269 OA
BRANCH  35  38
ATOM     38  C   UNL A   1      37.713  30.823  32.366  1.00  0.00     0.039 A 
ATOM     39  C   UNL A   1      37.887  29.529  32.837  1.00  0.00     0.014 A 
ATOM     40  C   UNL A   1      38.780  31.532  31.801  1.00  0.00     0.014 A 
ATOM     41  C   UNL A   1      39.156  28.975  32.780  1.00  0.00     0.010 A 
ATOM     42  C   UNL A   1      39.973  30.900  31.547  1.00  0.00     0.010 A 
ATOM     43  C   UNL A   1      40.196  29.644  32.107  1.00  0.00    -0.014 A 
BRANCH  43  44
ATOM     44  C   UNL A   1      41.551  29.074  32.050  1.00  0.00     0.031 A 
ATOM     45  C   UNL A   1      41.935  28.187  30.905  1.00  0.00     0.074 A 
ATOM     46  C   UNL A   1      42.432  29.370  33.022  1.00  0.00     0.049 A 
ATOM     47  N   UNL A   1      43.097  27.642  30.671  1.00  0.00    -0.248 NA
ATOM     48  C   UNL A   1      40.903  27.860  29.904  1.00  0.00     0.031 C 
ATOM     49  C   UNL A   1      42.139  30.206  34.186  1.00  0.00     0.029 A 
ATOM     50  N   UNL A   1      43.748  29.026  33.179  1.00  0.00    -0.354 N 
ATOM     51  C   UNL A   1      42.943  26.930  29.493  1.00  0.00     0.074 A 
ATOM     52  C   UNL A   1      41.558  27.041  29.099  1.00  0.00     0.031 C 
ATOM     53  C   UNL A   1      43.260  30.363  34.902  1.00  0.00     0.029 A 
ATOM     54  C   UNL A   1      44.331  29.585  34.291  1.00  0.00     0.049 A 
ATOM     55  H   UNL A   1      44.230  28.435  32.555  1.00  0.00     0.167 HD
ATOM     56  C   UNL A   1      43.889  26.265  28.797  1.00  0.00     0.034 A 
ATOM     57  C   UNL A   1      45.580  29.474  34.784  1.00  0.00     0.034 A 
ATOM     58  C   UNL A   1      45.250  26.132  29.229  1.00  0.00     0.049 A 
ATOM     59  C   UNL A   1      46.574  28.617  34.055  1.00  0.00     0.074 A 
ATOM     60  C   UNL A   1      46.274  25.470  28.580  1.00  0.00     0.029 A 
ATOM     61  N   UNL A   1      45.774  26.625  30.415  1.00  0.00    -0.354 N 
ATOM     62  N   UNL A   1      46.410  27.952  32.935  1.00  0.00    -0.248 NA
ATOM     63  C   UNL A   1      47.911  28.488  34.646  1.00  0.00     0.031 C 
ATOM     64  C   UNL A   1      47.382  25.461  29.419  1.00  0.00     0.029 A 
ATOM     65  C   UNL A   1      47.096  26.229  30.535  1.00  0.00     0.049 A 
ATOM     66  H   UNL A   1      45.283  27.171  31.071  1.00  0.00     0.167 HD
ATOM     67  C   UNL A   1      47.639  27.365  32.664  1.00  0.00     0.074 A 
ATOM     68  C   UNL A   1      48.532  27.754  33.737  1.00  0.00     0.031 C 
ATOM     69  C   UNL A   1      47.988  26.592  31.606  1.00  0.00     0.034 A 
BRANCH  56  70
ATOM     70  C   UNL A   1      43.462  25.567  27.539  1.00  0.00     0.023 A 
ATOM     71  C   UNL A   1      42.813  24.323  27.565  1.00  0.00     0.031 A 
ATOM     72  C   UNL A   1      43.739  26.152  26.292  1.00  0.00     0.131 A 
ATOM     73  C   UNL A   1      42.564  23.656  26.360  1.00  0.00     0.055 A 
ATOM     74  C   UNL A   1      43.373  25.539  25.098  1.00  0.00     0.041 A 
ATOM     75  F   UNL A   1      44.375  27.333  26.213  1.00  0.00    -0.206 F 
ATOM     76  C   UNL A   1      42.802  24.272  25.128  1.00  0.00     0.022 A 
BRANCH  73  77
ATOM     77  S   UNL A   1      42.161  21.890  26.421  1.00  0.00     0.124 S 
ATOM     78  O   UNL A   1      42.980  21.366  25.330  1.00  0.00    -0.237 OA
ATOM     79  O   UNL A   1      42.575  21.513  27.767  1.00  0.00    -0.237 OA
ATOM     80  O   UNL A   1      40.721  21.862  26.177  1.00  0.00    -0.744 OA
ENDBRANCH  73  77
ENDBRANCH  56  70
BRANCH  57  81
ATOM     81  C   UNL A   1      45.945  30.142  36.063  1.00  0.00     0.023 A 
ATOM     82  C   UNL A   1      45.796  29.496  37.301  1.00  0.00     0.031 A 
ATOM     83  C   UNL A   1      46.376  31.482  36.059  1.00  0.00     0.131 A 
ATOM     84  C   UNL A   1      46.015  30.218  38.484  1.00  0.00     0.055 A 
ATOM     85  C   UNL A   1      46.692  32.157  37.234  1.00  0.00     0.041 A 
ATOM     86  F   UNL A   1      46.506  32.151  34.903  1.00  0.00    -0.206 F 
ATOM     87  C   UNL A   1      46.499  31.528  38.457  1.00  0.00     0.022 A 
BRANCH  84  88
ATOM     88  S   UNL A   1      45.473  29.500  40.060  1.00  0.00     0.124 S 
ATOM     89  O   UNL A   1      46.687  29.610  40.861  1.00  0.00    -0.237 OA
ATOM     90  O   UNL A   1      44.371  30.378  40.439  1.00  0.00    -0.237 OA
ATOM     91  O   UNL A   1      45.087  28.139  39.697  1.00  0.00    -0.744 OA
ENDBRANCH  84  88
ENDBRANCH  57  81
BRANCH  69  92
ATOM     92  C   UNL A   1      49.434  26.190  31.482  1.00  0.00     0.023 A 
ATOM     93  C   UNL A   1      49.925  24.971  31.972  1.00  0.00     0.031 A 
ATOM     94  C   UNL A   1      50.347  27.086  30.891  1.00  0.00     0.131 A 
ATOM     95  C   UNL A   1      51.309  24.749  31.986  1.00  0.00     0.055 A 
ATOM     96  C   UNL A   1      51.703  26.796  30.789  1.00  0.00     0.041 A 
ATOM     97  F   UNL A   1      49.933  28.266  30.401  1.00  0.00    -0.206 F 
ATOM     98  C   UNL A   1      52.196  25.634  31.367  1.00  0.00     0.022 A 
BRANCH  95  99
ATOM     99  S   UNL A   1      51.959  23.424  33.039  1.00  0.00     0.124 S 
ATOM    100  O   UNL A   1      53.398  23.627  32.914  1.00  0.00    -0.237 OA
ATOM    101  O   UNL A   1      51.381  23.740  34.341  1.00  0.00    -0.237 OA
ATOM    102  O   UNL A   1      51.447  22.208  32.410  1.00  0.00    -0.744 OA
ENDBRANCH  95  99
ENDBRANCH  69  92
ENDBRANCH  43  44
ENDBRANCH  35  38
ENDBRANCH  33  34
ENDBRANCH  32  33
ENDBRANCH   1  32
TORSDOF 19
ENDMDL
MODEL 2
REMARK VINA RESULT:     -11.2      1.952      2.370
REMARK SMILES COc1c(Cl)cc(C(=O)NCCCNC(=O)c2ccc(-c3c4nc(c(-c5cc(S(=O)(=O)[O-])ccc5F)c5ccc([nH]5)c(-c5cc(S(=O)(=O)[O-])ccc5F)c5nc(c(-c6cc(S(=O)(=O)[O-])ccc6F)c6ccc3[nH]6)C=C5)C=C4)cc2)cc1NC(=S)NC(=O)c1cccc(C)c1OC
REMARK SMILES IDX 11 1 10 2 8 3 9 4 7 6 3 7 4 8 81 9 5 10 6 11 80 12 2 13 1 14
REMARK SMILES IDX 82 15 83 17 84 18 85 19 86 20 87 22 88 23 89 24 94 25 90 26
REMARK SMILES IDX 92 27 91 28 93 29 95 30 96 31 12 32 13 33 14 34 15 35 16 37
REMARK SMILES IDX 17 38 18 39 79 40 19 41 78 42 20 43 21 44 22 45 72 46 23 47
REMARK SMILES IDX 77 48 71 49 73 50 24 51 76 52 70 53 69 54 25 56 57 57 37 58
REMARK SMILES IDX 56 59 38 60 41 61 55 62 74 63 39 64 40 65 54 67 75 68 42 69
REMARK SMILES IDX 26 70 27 71 35 72 28 73 34 74 36 75 33 76 29 77 30 78 31 79
REMARK SMILES IDX 32 80 58 81 59 82 67 83 60 84 66 85 68 86 65 87 61 88 62 89
REMARK SMILES IDX 63 90 64 91 43 92 44 93 52 94 45 95 51 96 53 97 50 98 46 99
REMARK SMILES IDX 47 100 48 101 49 102
REMARK H PARENT 10 5 82 16 85 21 14 36 73 55 41 66
REMARK Flexibility Score: inf
ROOT
ATOM      1  C   UNL A   1      35.363  29.882  27.364  1.00  0.00     0.118 C 
ENDROOT
BRANCH   1   2
ATOM      2  N   UNL A   1      34.196  30.866  27.233  1.00  0.00    -0.352 N 
ATOM      3  C   UNL A   1      32.574  30.799  26.750  1.00  0.00     0.251 C 
ATOM      4  O   UNL A   1      32.317  31.967  27.101  1.00  0.00    -0.269 OA
ATOM      5  H   UNL A   1      34.458  31.777  27.498  1.00  0.00     0.163 HD
BRANCH   3   6
ATOM      6  C   UNL A   1      31.691  29.346  25.393  1.00  0.00     0.043 A 
ATOM      7  C   UNL A   1      30.488  27.503  23.518  1.00  0.00     0.160 A 
ATOM      8  C   UNL A   1      30.554  28.826  23.203  1.00  0.00     0.086 A 
ATOM      9  C   UNL A   1      31.310  27.009  24.493  1.00  0.00     0.085 A 
ATOM     10  Cl  UNL A   1      29.935  29.938  22.060  1.00  0.00    -0.080 Cl
ATOM     11  C   UNL A   1      31.150  29.460  24.213  1.00  0.00     0.038 A 
ATOM     12  C   UNL A   1      31.599  27.938  25.417  1.00  0.00     0.044 A 
BRANCH   7  13
ATOM     13  O   UNL A   1      29.480  26.681  23.178  1.00  0.00    -0.493 OA
ATOM     14  C   UNL A   1      28.408  26.902  24.050  1.00  0.00     0.278 C 
ENDBRANCH   7  13
BRANCH   9  15
ATOM     15  N   UNL A   1      31.624  25.734  24.961  1.00  0.00    -0.329 N 
ATOM     16  H   UNL A   1      31.096  25.414  25.728  1.00  0.00     0.169 HD
BRANCH  15  17
ATOM     17  C   UNL A   1      32.592  24.857  24.478  1.00  0.00     0.177 C 
ATOM     18  S   UNL A   1      34.099  24.884  25.202  1.00  0.00    -0.040 S 
BRANCH  17  19
ATOM     19  N   UNL A   1      32.396  24.003  23.367  1.00  0.00    -0.299 N 
ATOM     20  C   UNL A   1      33.025  22.817  22.922  1.00  0.00     0.261 C 
ATOM     21  H   UNL A   1      31.665  24.297  22.777  1.00  0.00     0.172 HD
ATOM     22  O   UNL A   1      33.994  22.912  22.170  1.00  0.00    -0.269 OA
BRANCH  20  23
ATOM     23  C   UNL A   1      32.589  21.357  23.441  1.00  0.00     0.082 A 
ATOM     24  C   UNL A   1      31.982  20.370  21.947  1.00  0.00     0.018 A 
ATOM     25  C   UNL A   1      33.407  20.325  24.860  1.00  0.00     0.134 A 
ATOM     26  C   UNL A   1      32.190  18.538  21.827  1.00  0.00     0.001 A 
ATOM     27  C   UNL A   1      33.835  18.539  24.550  1.00  0.00    -0.008 A 
ATOM     28  C   UNL A   1      33.120  17.618  23.154  1.00  0.00     0.007 A 
ATOM     29  C   UNL A   1      35.655  18.317  24.635  1.00  0.00     0.048 C 
BRANCH  25  30
ATOM     30  O   UNL A   1      34.456  20.761  25.729  1.00  0.00    -0.496 OA
ATOM     31  C   UNL A   1      34.138  21.387  26.953  1.00  0.00     0.278 C 
ENDBRANCH  25  30
ENDBRANCH  20  23
ENDBRANCH  17  19
ENDBRANCH  15  17
ENDBRANCH   9  15
ENDBRANCH   3   6
ENDBRANCH   1   2
BRANCH   1  32
ATOM     32  C   UNL A   1      36.538  30.327  28.278  1.00  0.00     0.042 C 
BRANCH  32  33
ATOM     33  C   UNL A   1      36.646  29.576  29.561  1.00  0.00     0.118 C 
BRANCH  33  34
ATOM     34  N   UNL A   1      36.307  30.464  30.651  1.00  0.00    -0.352 N 
ATOM     35  C   UNL A   1      36.828  30.492  31.909  1.00  0.00     0.251 C 
ATOM     36  H   UNL A   1      35.612  31.135  30.460  1.00  0.00     0.163 HD
ATOM     37  O   UNL A   1      36.177  30.981  32.825  1.00  0.00    -0.269 OA
BRANCH  35  38
ATOM     38  C   UNL A   1      38.172  29.936  32.114  1.00  0.00     0.039 A 
ATOM     39  C   UNL A   1      39.268  30.788  32.085  1.00  0.00     0.014 A 
ATOM     40  C   UNL A   1      38.336  28.558  32.301  1.00  0.00     0.014 A 
ATOM     41  C   UNL A   1      40.533  30.233  32.197  1.00  0.00     0.010 A 
ATOM     42  C   UNL A   1      39.568  28.047  32.630  1.00  0.00     0.010 A 
ATOM     43  C   UNL A   1      40.687  28.866  32.501  1.00  0.00    -0.014 A 
BRANCH  43  44
ATOM     44  C   UNL A   1      42.024  28.262  32.609  1.00  0.00     0.031 A 
ATOM     45  C   UNL A   1      42.769  27.882  31.366  1.00  0.00     0.074 A 
ATOM     46  C   UNL A   1      42.565  28.073  33.826  1.00  0.00     0.049 A 
ATOM     47  N   UNL A   1      43.973  27.386  31.275  1.00  0.00    -0.248 NA
ATOM     48  C   UNL A   1      42.094  28.067  30.068  1.00  0.00     0.031 C 
ATOM     49  C   UNL A   1      41.904  28.390  35.091  1.00  0.00     0.029 A 
ATOM     50  N   UNL A   1      43.791  27.591  34.200  1.00  0.00    -0.354 N 
ATOM     51  C   UNL A   1      44.206  27.222  29.920  1.00  0.00     0.074 A 
ATOM     52  C   UNL A   1      42.995  27.591  29.225  1.00  0.00     0.031 C 
ATOM     53  C   UNL A   1      42.755  28.158  36.098  1.00  0.00     0.029 A 
ATOM     54  C   UNL A   1      43.994  27.608  35.559  1.00  0.00     0.049 A 
ATOM     55  H   UNL A   1      44.462  27.264  33.557  1.00  0.00     0.167 HD
ATOM     56  C   UNL A   1      45.345  26.820  29.318  1.00  0.00     0.034 A 
ATOM     57  C   UNL A   1      45.047  27.211  36.301  1.00  0.00     0.034 A 
ATOM     58  C   UNL A   1      46.523  26.418  30.030  1.00  0.00     0.049 A 
ATOM     59  C   UNL A   1      46.250  26.643  35.605  1.00  0.00     0.074 A 
ATOM     60  C   UNL A   1      47.723  25.994  29.492  1.00  0.00     0.029 A 
ATOM     61  N   UNL A   1      46.651  26.350  31.410  1.00  0.00    -0.354 N 
ATOM     62  N   UNL A   1      46.454  26.499  34.317  1.00  0.00    -0.248 NA
ATOM     63  C   UNL A   1      47.358  26.183  36.450  1.00  0.00     0.031 C 
ATOM     64  C   UNL A   1      48.534  25.561  30.534  1.00  0.00     0.029 A 
ATOM     65  C   UNL A   1      47.896  25.836  31.732  1.00  0.00     0.049 A 
ATOM     66  H   UNL A   1      45.964  26.624  32.059  1.00  0.00     0.167 HD
ATOM     67  C   UNL A   1      47.735  25.975  34.196  1.00  0.00     0.074 A 
ATOM     68  C   UNL A   1      48.254  25.829  35.542  1.00  0.00     0.031 C 
ATOM     69  C   UNL A   1      48.416  25.668  33.065  1.00  0.00     0.034 A 
BRANCH  56  70
ATOM     70  C   UNL A   1      45.340  26.722  27.821  1.00  0.00     0.023 A 
ATOM     71  C   UNL A   1      44.992  25.536  27.156  1.00  0.00     0.031 A 
ATOM     72  C   UNL A   1      45.720  27.834  27.050  1.00  0.00     0.131 A 
ATOM     73  C   UNL A   1      45.141  25.461  25.767  1.00  0.00     0.055 A 
ATOM     74  C   UNL A   1      45.742  27.789  25.660  1.00  0.00     0.041 A 
ATOM     75  F   UNL A   1      46.079  28.987  27.639  1.00  0.00    -0.206 F 
ATOM     76  C   UNL A   1      45.473  26.590  25.012  1.00  0.00     0.022 A 
BRANCH  73  77
ATOM     77  S   UNL A   1      45.138  23.825  24.987  1.00  0.00     0.124 S 
ATOM     78  O   UNL A   1      46.131  24.004  23.930  1.00  0.00    -0.237 OA
ATOM     79  O   UNL A   1      45.524  22.947  26.084  1.00  0.00    -0.237 OA
ATOM     80  O   UNL A   1      43.762  23.676  24.518  1.00  0.00    -0.744 OA
ENDBRANCH  73  77
ENDBRANCH  56  70
BRANCH  57  81
ATOM     81  C   UNL A   1      44.987  27.278  37.787  1.00  0.00     0.023 A 
ATOM     82  C   UNL A   1      45.457  28.395  38.494  1.00  0.00     0.031 A 
ATOM     83  C   UNL A   1      44.523  26.172  38.522  1.00  0.00     0.131 A 
ATOM     84  C   UNL A   1      45.513  28.349  39.895  1.00  0.00     0.055 A 
ATOM     85  C   UNL A   1      44.485  26.175  39.913  1.00  0.00     0.041 A 
ATOM     86  F   UNL A   1      44.090  25.069  37.892  1.00  0.00    -0.206 F 
ATOM     87  C   UNL A   1      44.994  27.265  40.608  1.00  0.00     0.022 A 
BRANCH  84  88
ATOM     88  S   UNL A   1      46.452  29.628  40.778  1.00  0.00     0.124 S 
ATOM     89  O   UNL A   1      45.475  30.709  40.844  1.00  0.00    -0.237 OA
ATOM     90  O   UNL A   1      46.767  28.967  42.039  1.00  0.00    -0.237 OA
ATOM     91  O   UNL A   1      47.594  29.873  39.901  1.00  0.00    -0.744 OA
ENDBRANCH  84  88
ENDBRANCH  57  81
BRANCH  69  92
ATOM     92  C   UNL A   1      49.851  25.236  33.210  1.00  0.00     0.023 A 
ATOM     93  C   UNL A   1      50.246  23.891  33.160  1.00  0.00     0.031 A 
ATOM     94  C   UNL A   1      50.840  26.211  33.449  1.00  0.00     0.131 A 
ATOM     95  C   UNL A   1      51.566  23.554  33.486  1.00  0.00     0.055 A 
ATOM     96  C   UNL A   1      52.176  25.875  33.639  1.00  0.00     0.041 A 
ATOM     97  F   UNL A   1      50.521  27.515  33.504  1.00  0.00    -0.206 F 
ATOM     98  C   UNL A   1      52.540  24.537  33.689  1.00  0.00     0.022 A 
BRANCH  95  99
ATOM     99  S   UNL A   1      51.942  21.827  33.891  1.00  0.00     0.124 S 
ATOM    100  O   UNL A   1      53.398  21.857  33.985  1.00  0.00    -0.237 OA
ATOM    101  O   UNL A   1      51.226  21.633  35.147  1.00  0.00    -0.237 OA
ATOM    102  O   UNL A   1      51.408  21.087  32.750  1.00  0.00    -0.744 OA
ENDBRANCH  95  99
ENDBRANCH  69  92
ENDBRANCH  43  44
ENDBRANCH  35  38
ENDBRANCH  33  34
ENDBRANCH  32  33
ENDBRANCH   1  32
TORSDOF 19
ENDMDL
MODEL 3
REMARK VINA RESULT:     -11.1      5.929      9.418
REMARK SMILES COc1c(Cl)cc(C(=O)NCCCNC(=O)c2ccc(-c3c4nc(c(-c5cc(S(=O)(=O)[O-])ccc5F)c5ccc([nH]5)c(-c5cc(S(=O)(=O)[O-])ccc5F)c5nc(c(-c6cc(S(=O)(=O)[O-])ccc6F)c6ccc3[nH]6)C=C5)C=C4)cc2)cc1NC(=S)NC(=O)c1cccc(C)c1OC
REMARK SMILES IDX 11 1 10 2 8 3 9 4 7 6 3 7 4 8 81 9 5 10 6 11 80 12 2 13 1 14
REMARK SMILES IDX 82 15 83 17 84 18 85 19 86 20 87 22 88 23 89 24 94 25 90 26
REMARK SMILES IDX 92 27 91 28 93 29 95 30 96 31 12 32 13 33 14 34 15 35 16 37
REMARK SMILES IDX 17 38 18 39 79 40 19 41 78 42 20 43 21 44 22 45 72 46 23 47
REMARK SMILES IDX 77 48 71 49 73 50 24 51 76 52 70 53 69 54 25 56 57 57 37 58
REMARK SMILES IDX 56 59 38 60 41 61 55 62 74 63 39 64 40 65 54 67 75 68 42 69
REMARK SMILES IDX 26 70 27 71 35 72 28 73 34 74 36 75 33 76 29 77 30 78 31 79
REMARK SMILES IDX 32 80 58 81 59 82 67 83 60 84 66 85 68 86 65 87 61 88 62 89
REMARK SMILES IDX 63 90 64 91 43 92 44 93 52 94 45 95 51 96 53 97 50 98 46 99
REMARK SMILES IDX 47 100 48 101 49 102
REMARK H PARENT 10 5 82 16 85 21 14 36 73 55 41 66
REMARK Flexibility Score: inf
ROOT
ATOM      1  C   UNL A   1      39.399  35.157  35.820  1.00  0.00     0.118 C 
ENDROOT
BRANCH   1   2
ATOM      2  N   UNL A   1      38.355  34.289  36.529  1.00  0.00    -0.352 N 
ATOM      3  C   UNL A   1      36.914  33.502  36.111  1.00  0.00     0.251 C 
ATOM      4  O   UNL A   1      36.806  32.906  37.201  1.00  0.00    -0.269 OA
ATOM      5  H   UNL A   1      38.580  34.153  37.478  1.00  0.00     0.163 HD
BRANCH   3   6
ATOM      6  C   UNL A   1      35.570  34.047  34.489  1.00  0.00     0.043 A 
ATOM      7  C   UNL A   1      33.788  34.881  32.371  1.00  0.00     0.160 A 
ATOM      8  C   UNL A   1      34.306  35.817  33.213  1.00  0.00     0.086 A 
ATOM      9  C   UNL A   1      34.394  33.659  32.279  1.00  0.00     0.085 A 
ATOM     10  Cl  UNL A   1      34.103  37.462  33.636  1.00  0.00    -0.080 Cl
ATOM     11  C   UNL A   1      35.093  35.191  34.089  1.00  0.00     0.038 A 
ATOM     12  C   UNL A   1      34.995  33.315  33.428  1.00  0.00     0.044 A 
BRANCH   7  13
ATOM     13  O   UNL A   1      32.555  34.925  31.838  1.00  0.00    -0.493 OA
ATOM     14  C   UNL A   1      32.517  35.941  30.877  1.00  0.00     0.278 C 
ENDBRANCH   7  13
BRANCH   9  15
ATOM     15  N   UNL A   1      34.250  32.550  31.447  1.00  0.00    -0.329 N 
ATOM     16  H   UNL A   1      33.682  31.824  31.791  1.00  0.00     0.169 HD
BRANCH  15  17
ATOM     17  C   UNL A   1      34.811  32.343  30.189  1.00  0.00     0.177 C 
ATOM     18  S   UNL A   1      34.524  33.493  29.010  1.00  0.00    -0.040 S 
BRANCH  17  19
ATOM     19  N   UNL A   1      35.542  31.185  29.833  1.00  0.00    -0.299 N 
ATOM     20  C   UNL A   1      36.457  30.884  28.798  1.00  0.00     0.261 C 
ATOM     21  H   UNL A   1      35.379  30.424  30.438  1.00  0.00     0.172 HD
ATOM     22  O   UNL A   1      36.017  30.446  27.735  1.00  0.00    -0.269 OA
BRANCH  20  23
ATOM     23  C   UNL A   1      38.032  31.190  28.916  1.00  0.00     0.082 A 
ATOM     24  C   UNL A   1      38.242  33.052  29.167  1.00  0.00     0.018 A 
ATOM     25  C   UNL A   1      39.386  30.070  29.730  1.00  0.00     0.134 A 
ATOM     26  C   UNL A   1      39.630  33.762  30.158  1.00  0.00     0.001 A 
ATOM     27  C   UNL A   1      40.582  30.828  30.939  1.00  0.00    -0.008 A 
ATOM     28  C   UNL A   1      40.816  32.628  31.044  1.00  0.00     0.007 A 
ATOM     29  C   UNL A   1      40.330  30.089  32.600  1.00  0.00     0.048 C 
BRANCH  25  30
ATOM     30  O   UNL A   1      39.195  28.751  30.250  1.00  0.00    -0.496 OA
ATOM     31  C   UNL A   1      39.565  27.631  29.475  1.00  0.00     0.278 C 
ENDBRANCH  25  30
ENDBRANCH  20  23
ENDBRANCH  17  19
ENDBRANCH  15  17
ENDBRANCH   9  15
ENDBRANCH   3   6
ENDBRANCH   1   2
BRANCH   1  32
ATOM     32  C   UNL A   1      40.070  36.265  36.678  1.00  0.00     0.042 C 
BRANCH  32  33
ATOM     33  C   UNL A   1      41.402  35.895  37.236  1.00  0.00     0.118 C 
BRANCH  33  34
ATOM     34  N   UNL A   1      42.367  36.899  36.845  1.00  0.00    -0.352 N 
ATOM     35  C   UNL A   1      43.537  36.727  36.171  1.00  0.00     0.251 C 
ATOM     36  H   UNL A   1      42.149  37.826  37.098  1.00  0.00     0.163 HD
ATOM     37  O   UNL A   1      44.430  37.559  36.282  1.00  0.00    -0.269 OA
BRANCH  35  38
ATOM     38  C   UNL A   1      43.675  35.540  35.317  1.00  0.00     0.039 A 
ATOM     39  C   UNL A   1      44.807  34.746  35.440  1.00  0.00     0.014 A 
ATOM     40  C   UNL A   1      42.686  35.242  34.372  1.00  0.00     0.014 A 
ATOM     41  C   UNL A   1      44.958  33.679  34.568  1.00  0.00     0.010 A 
ATOM     42  C   UNL A   1      42.736  34.063  33.667  1.00  0.00     0.010 A 
ATOM     43  C   UNL A   1      43.910  33.314  33.701  1.00  0.00    -0.014 A 
BRANCH  43  44
ATOM     44  C   UNL A   1      44.062  32.192  32.761  1.00  0.00     0.031 A 
ATOM     45  C   UNL A   1      44.419  32.464  31.333  1.00  0.00     0.074 A 
ATOM     46  C   UNL A   1      43.892  30.934  33.205  1.00  0.00     0.049 A 
ATOM     47  N   UNL A   1      44.641  31.596  30.384  1.00  0.00    -0.248 NA
ATOM     48  C   UNL A   1      44.537  33.870  30.902  1.00  0.00     0.031 C 
ATOM     49  C   UNL A   1      43.520  30.576  34.574  1.00  0.00     0.029 A 
ATOM     50  N   UNL A   1      44.026  29.729  32.568  1.00  0.00    -0.354 N 
ATOM     51  C   UNL A   1      44.943  32.344  29.258  1.00  0.00     0.074 A 
ATOM     52  C   UNL A   1      44.799  33.737  29.613  1.00  0.00     0.031 C 
ATOM     53  C   UNL A   1      43.522  29.242  34.690  1.00  0.00     0.029 A 
ATOM     54  C   UNL A   1      43.822  28.649  33.392  1.00  0.00     0.049 A 
ATOM     55  H   UNL A   1      44.248  29.646  31.612  1.00  0.00     0.167 HD
ATOM     56  C   UNL A   1      45.331  31.896  28.046  1.00  0.00     0.034 A 
ATOM     57  C   UNL A   1      43.852  27.326  33.138  1.00  0.00     0.034 A 
ATOM     58  C   UNL A   1      45.427  30.506  27.703  1.00  0.00     0.049 A 
ATOM     59  C   UNL A   1      44.156  26.862  31.742  1.00  0.00     0.074 A 
ATOM     60  C   UNL A   1      45.811  29.968  26.491  1.00  0.00     0.029 A 
ATOM     61  N   UNL A   1      45.109  29.444  28.536  1.00  0.00    -0.354 N 
ATOM     62  N   UNL A   1      44.444  27.588  30.688  1.00  0.00    -0.248 NA
ATOM     63  C   UNL A   1      44.137  25.416  31.497  1.00  0.00     0.031 C 
ATOM     64  C   UNL A   1      45.618  28.592  26.549  1.00  0.00     0.029 A 
ATOM     65  C   UNL A   1      45.239  28.255  27.837  1.00  0.00     0.049 A 
ATOM     66  H   UNL A   1      44.834  29.522  29.478  1.00  0.00     0.167 HD
ATOM     67  C   UNL A   1      44.689  26.681  29.664  1.00  0.00     0.074 A 
ATOM     68  C   UNL A   1      44.513  25.358  30.229  1.00  0.00     0.031 C 
ATOM     69  C   UNL A   1      45.047  26.936  28.382  1.00  0.00     0.034 A 
BRANCH  56  70
ATOM     70  C   UNL A   1      45.601  32.919  26.983  1.00  0.00     0.023 A 
ATOM     71  C   UNL A   1      46.861  33.519  26.832  1.00  0.00     0.031 A 
ATOM     72  C   UNL A   1      44.563  33.319  26.123  1.00  0.00     0.131 A 
ATOM     73  C   UNL A   1      47.017  34.565  25.917  1.00  0.00     0.055 A 
ATOM     74  C   UNL A   1      44.762  34.272  25.130  1.00  0.00     0.041 A 
ATOM     75  F   UNL A   1      43.335  32.790  26.238  1.00  0.00    -0.206 F 
ATOM     76  C   UNL A   1      45.989  34.918  25.037  1.00  0.00     0.022 A 
BRANCH  73  77
ATOM     77  S   UNL A   1      48.484  35.620  26.056  1.00  0.00     0.124 S 
ATOM     78  O   UNL A   1      47.906  36.949  25.869  1.00  0.00    -0.237 OA
ATOM     79  O   UNL A   1      48.970  35.318  27.397  1.00  0.00    -0.237 OA
ATOM     80  O   UNL A   1      49.337  35.161  24.962  1.00  0.00    -0.744 OA
ENDBRANCH  73  77
ENDBRANCH  56  70
BRANCH  57  81
ATOM     81  C   UNL A   1      43.525  26.347  34.211  1.00  0.00     0.023 A 
ATOM     82  C   UNL A   1      44.508  25.522  34.780  1.00  0.00     0.031 A 
ATOM     83  C   UNL A   1      42.191  26.176  34.624  1.00  0.00     0.131 A 
ATOM     84  C   UNL A   1      44.124  24.518  35.681  1.00  0.00     0.055 A 
ATOM     85  C   UNL A   1      41.835  25.247  35.596  1.00  0.00     0.041 A 
ATOM     86  F   UNL A   1      41.212  26.921  34.088  1.00  0.00    -0.206 F 
ATOM     87  C   UNL A   1      42.803  24.401  36.122  1.00  0.00     0.022 A 
BRANCH  84  88
ATOM     88  S   UNL A   1      45.327  23.232  36.125  1.00  0.00     0.124 S 
ATOM     89  O   UNL A   1      44.718  22.048  35.529  1.00  0.00    -0.237 OA
ATOM     90  O   UNL A   1      46.548  23.717  35.490  1.00  0.00    -0.237 OA
ATOM     91  O   UNL A   1      45.331  23.263  37.586  1.00  0.00    -0.744 OA
ENDBRANCH  84  88
ENDBRANCH  57  81
BRANCH  69  92
ATOM     92  C   UNL A   1      45.383  25.759  27.504  1.00  0.00     0.023 A 
ATOM     93  C   UNL A   1      44.431  25.119  26.697  1.00  0.00     0.031 A 
ATOM     94  C   UNL A   1      46.695  25.243  27.521  1.00  0.00     0.131 A 
ATOM     95  C   UNL A   1      44.774  23.922  26.054  1.00  0.00     0.055 A 
ATOM     96  C   UNL A   1      47.060  24.131  26.772  1.00  0.00     0.041 A 
ATOM     97  F   UNL A   1      47.650  25.816  28.272  1.00  0.00    -0.206 F 
ATOM     98  C   UNL A   1      46.088  23.444  26.056  1.00  0.00     0.022 A 
BRANCH  95  99
ATOM     99  S   UNL A   1      43.440  22.866  25.429  1.00  0.00     0.124 S 
ATOM    100  O   UNL A   1      42.260  23.663  25.747  1.00  0.00    -0.237 OA
ATOM    101  O   UNL A   1      43.767  22.747  24.012  1.00  0.00    -0.237 OA
ATOM    102  O   UNL A   1      43.587  21.637  26.207  1.00  0.00    -0.744 OA
ENDBRANCH  95  99
ENDBRANCH  69  92
ENDBRANCH  43  44
ENDBRANCH  35  38
ENDBRANCH  33  34
ENDBRANCH  32  33
ENDBRANCH   1  32
TORSDOF 19
ENDMDL
