MODEL 1
REMARK VINA RESULT:     -12.8      0.000      0.000
REMARK SMILES Cc1cc([C@H](O)CC2(CC(=O)NCCCNC(=O)c3ccc(-c4c5nc(c(-c6cc(S(=O)(=O)[O-])ccc6F)c6ccc([nH]6)c(-c6cc(S(=O)(=O)[O-])ccc6F)c6nc(c(-c7cc(S(=O)(=O)[O-])ccc7F)c7ccc4[nH]7)C=C6)C=C5)cc3)CCCC2)ccc1F
REMARK SMILES IDX 13 1 12 2 10 3 11 4 9 6 8 7 82 8 85 9 83 10 84 11 7 12 5 13
REMARK SMILES IDX 4 14 1 15 2 16 3 17 88 18 87 19 89 20 86 21 6 22 14 24 15 25
REMARK SMILES IDX 16 26 17 27 18 29 19 30 20 31 81 32 21 33 80 34 22 35 23 36
REMARK SMILES IDX 24 37 74 38 25 39 79 40 73 41 75 42 26 43 78 44 72 45 71 46
REMARK SMILES IDX 27 48 59 49 39 50 58 51 40 52 43 53 57 54 76 55 41 56 42 57
REMARK SMILES IDX 56 59 77 60 44 61 28 62 29 63 37 64 30 65 36 66 38 67 35 68
REMARK SMILES IDX 31 69 32 70 33 71 34 72 60 73 61 74 69 75 62 76 68 77 70 78
REMARK SMILES IDX 67 79 63 80 64 81 65 82 66 83 45 84 46 85 54 86 47 87 53 88
REMARK SMILES IDX 55 89 52 90 48 91 49 92 50 93 51 94
REMARK H PARENT 12 5 6 23 16 28 75 47 43 58
REMARK Flexibility Score: inf
ROOT
ATOM      1  C   UNL A   1      32.446  29.630  25.704  1.00  0.00     0.117 C 
ENDROOT
BRANCH   1   2
ATOM      2  N   UNL A   1      33.296  29.613  24.534  1.00  0.00    -0.356 N 
ATOM      3  C   UNL A   1      33.232  28.738  23.492  1.00  0.00     0.220 C 
ATOM      4  O   UNL A   1      34.150  28.726  22.672  1.00  0.00    -0.275 OA
ATOM      5  H   UNL A   1      33.994  30.306  24.486  1.00  0.00     0.163 HD
BRANCH   3   6
ATOM      6  C   UNL A   1      31.991  27.872  23.320  1.00  0.00     0.107 C 
BRANCH   6   7
ATOM      7  C   UNL A   1      32.029  26.325  23.601  1.00  0.00    -0.018 C 
ATOM      8  C   UNL A   1      30.558  25.857  23.399  1.00  0.00     0.007 C 
ATOM      9  C   UNL A   1      32.156  25.848  25.064  1.00  0.00     0.007 C 
ATOM     10  C   UNL A   1      29.833  26.276  24.696  1.00  0.00     0.001 C 
ATOM     11  C   UNL A   1      30.910  26.334  25.778  1.00  0.00     0.001 C 
BRANCH   7  12
ATOM     12  C   UNL A   1      33.065  25.650  22.655  1.00  0.00     0.044 C 
BRANCH  12  13
ATOM     13  C   UNL A   1      32.819  24.186  22.245  1.00  0.00     0.145 C 
BRANCH  13  14
ATOM     14  C   UNL A   1      33.561  23.188  23.112  1.00  0.00    -0.019 A 
ATOM     15  C   UNL A   1      37.114  22.587  24.361  1.00  0.00     0.047 C 
ATOM     16  C   UNL A   1      35.649  22.416  24.111  1.00  0.00    -0.015 A 
ATOM     17  C   UNL A   1      34.928  23.369  23.385  1.00  0.00     0.012 A 
ATOM     18  C   UNL A   1      34.985  21.276  24.568  1.00  0.00     0.126 A 
ATOM     19  C   UNL A   1      33.630  21.084  24.324  1.00  0.00     0.040 A 
ATOM     20  F   UNL A   1      35.667  20.340  25.244  1.00  0.00    -0.207 F 
ATOM     21  C   UNL A   1      32.916  22.039  23.599  1.00  0.00     0.009 A 
ENDBRANCH  13  14
BRANCH  13  22
ATOM     22  O   UNL A   1      33.212  23.975  20.891  1.00  0.00    -0.388 OA
ATOM     23  H   UNL A   1      33.224  23.024  20.702  1.00  0.00     0.211 HD
ENDBRANCH  13  22
ENDBRANCH  12  13
ENDBRANCH   7  12
ENDBRANCH   6   7
ENDBRANCH   3   6
ENDBRANCH   1   2
BRANCH   1  24
ATOM     24  C   UNL A   1      33.174  28.942  26.834  1.00  0.00     0.042 C 
BRANCH  24  25
ATOM     25  C   UNL A   1      34.607  29.349  26.881  1.00  0.00     0.118 C 
BRANCH  25  26
ATOM     26  N   UNL A   1      34.752  30.679  27.456  1.00  0.00    -0.352 N 
ATOM     27  C   UNL A   1      35.570  31.006  28.519  1.00  0.00     0.251 C 
ATOM     28  H   UNL A   1      34.222  31.406  27.055  1.00  0.00     0.163 HD
ATOM     29  O   UNL A   1      35.237  31.947  29.251  1.00  0.00    -0.269 OA
BRANCH  27  30
ATOM     30  C   UNL A   1      36.778  30.183  28.732  1.00  0.00     0.039 A 
ATOM     31  C   UNL A   1      36.955  29.289  29.787  1.00  0.00     0.014 A 
ATOM     32  C   UNL A   1      37.770  30.305  27.768  1.00  0.00     0.014 A 
ATOM     33  C   UNL A   1      38.139  28.550  29.845  1.00  0.00     0.010 A 
ATOM     34  C   UNL A   1      38.669  29.309  27.607  1.00  0.00     0.010 A 
ATOM     35  C   UNL A   1      38.992  28.584  28.739  1.00  0.00    -0.014 A 
BRANCH  35  36
ATOM     36  C   UNL A   1      40.345  28.067  28.657  1.00  0.00     0.031 A 
ATOM     37  C   UNL A   1      40.576  26.657  28.387  1.00  0.00     0.074 A 
ATOM     38  C   UNL A   1      41.328  29.004  28.670  1.00  0.00     0.049 A 
ATOM     39  N   UNL A   1      41.595  26.009  28.818  1.00  0.00    -0.248 NA
ATOM     40  C   UNL A   1      39.641  25.846  27.615  1.00  0.00     0.031 C 
ATOM     41  C   UNL A   1      42.719  28.929  28.271  1.00  0.00     0.029 A 
ATOM     42  N   UNL A   1      41.201  30.316  29.152  1.00  0.00    -0.354 N 
ATOM     43  C   UNL A   1      41.642  24.843  28.086  1.00  0.00     0.074 A 
ATOM     44  C   UNL A   1      40.328  24.703  27.500  1.00  0.00     0.031 C 
ATOM     45  C   UNL A   1      43.370  29.995  28.782  1.00  0.00     0.029 A 
ATOM     46  C   UNL A   1      42.437  30.710  29.648  1.00  0.00     0.049 A 
ATOM     47  H   UNL A   1      40.381  30.860  29.141  1.00  0.00     0.167 HD
ATOM     48  C   UNL A   1      42.856  24.265  27.857  1.00  0.00     0.034 A 
ATOM     49  C   UNL A   1      42.584  30.989  30.978  1.00  0.00     0.034 A 
ATOM     50  C   UNL A   1      43.920  25.091  28.447  1.00  0.00     0.049 A 
ATOM     51  C   UNL A   1      43.468  29.945  31.620  1.00  0.00     0.074 A 
ATOM     52  C   UNL A   1      44.761  26.044  27.894  1.00  0.00     0.029 A 
ATOM     53  N   UNL A   1      43.966  25.288  29.824  1.00  0.00    -0.354 N 
ATOM     54  N   UNL A   1      43.718  28.786  31.075  1.00  0.00    -0.248 NA
ATOM     55  C   UNL A   1      44.150  30.113  32.896  1.00  0.00     0.031 C 
ATOM     56  C   UNL A   1      45.259  26.861  28.944  1.00  0.00     0.029 A 
ATOM     57  C   UNL A   1      44.734  26.400  30.140  1.00  0.00     0.049 A 
ATOM     58  H   UNL A   1      43.516  24.714  30.485  1.00  0.00     0.167 HD
ATOM     59  C   UNL A   1      44.553  28.059  31.872  1.00  0.00     0.074 A 
ATOM     60  C   UNL A   1      44.811  28.945  32.995  1.00  0.00     0.031 C 
ATOM     61  C   UNL A   1      44.938  26.792  31.537  1.00  0.00     0.034 A 
BRANCH  48  62
ATOM     62  C   UNL A   1      43.097  23.176  26.830  1.00  0.00     0.023 A 
ATOM     63  C   UNL A   1      42.776  21.814  27.028  1.00  0.00     0.031 A 
ATOM     64  C   UNL A   1      43.656  23.485  25.570  1.00  0.00     0.131 A 
ATOM     65  C   UNL A   1      42.918  20.863  25.997  1.00  0.00     0.055 A 
ATOM     66  C   UNL A   1      43.845  22.529  24.564  1.00  0.00     0.041 A 
ATOM     67  F   UNL A   1      44.019  24.732  25.244  1.00  0.00    -0.206 F 
ATOM     68  C   UNL A   1      43.458  21.214  24.765  1.00  0.00     0.022 A 
BRANCH  65  69
ATOM     69  S   UNL A   1      42.332  19.153  26.202  1.00  0.00     0.124 S 
ATOM     70  O   UNL A   1      43.290  18.396  25.396  1.00  0.00    -0.237 OA
ATOM     71  O   UNL A   1      42.439  18.956  27.644  1.00  0.00    -0.237 OA
ATOM     72  O   UNL A   1      40.974  19.183  25.666  1.00  0.00    -0.744 OA
ENDBRANCH  65  69
ENDBRANCH  48  62
BRANCH  49  73
ATOM     73  C   UNL A   1      41.355  31.604  31.588  1.00  0.00     0.023 A 
ATOM     74  C   UNL A   1      40.481  30.868  32.409  1.00  0.00     0.031 A 
ATOM     75  C   UNL A   1      40.842  32.767  30.963  1.00  0.00     0.131 A 
ATOM     76  C   UNL A   1      39.119  31.232  32.475  1.00  0.00     0.055 A 
ATOM     77  C   UNL A   1      39.482  33.089  30.991  1.00  0.00     0.041 A 
ATOM     78  F   UNL A   1      41.641  33.526  30.193  1.00  0.00    -0.206 F 
ATOM     79  C   UNL A   1      38.606  32.295  31.720  1.00  0.00     0.022 A 
BRANCH  76  80
ATOM     80  S   UNL A   1      37.957  30.246  33.470  1.00  0.00     0.124 S 
ATOM     81  O   UNL A   1      38.168  30.814  34.798  1.00  0.00    -0.237 OA
ATOM     82  O   UNL A   1      36.663  30.556  32.866  1.00  0.00    -0.237 OA
ATOM     83  O   UNL A   1      38.424  28.884  33.270  1.00  0.00    -0.744 OA
ENDBRANCH  76  80
ENDBRANCH  49  73
BRANCH  61  84
ATOM     84  C   UNL A   1      45.604  25.790  32.450  1.00  0.00     0.023 A 
ATOM     85  C   UNL A   1      44.782  24.831  33.093  1.00  0.00     0.031 A 
ATOM     86  C   UNL A   1      46.942  25.832  32.869  1.00  0.00     0.131 A 
ATOM     87  C   UNL A   1      45.265  24.024  34.127  1.00  0.00     0.055 A 
ATOM     88  C   UNL A   1      47.451  24.948  33.828  1.00  0.00     0.041 A 
ATOM     89  F   UNL A   1      47.795  26.766  32.432  1.00  0.00    -0.206 F 
ATOM     90  C   UNL A   1      46.607  24.057  34.479  1.00  0.00     0.022 A 
BRANCH  87  91
ATOM     91  S   UNL A   1      44.115  23.070  35.156  1.00  0.00     0.124 S 
ATOM     92  O   UNL A   1      42.823  23.570  34.697  1.00  0.00    -0.237 OA
ATOM     93  O   UNL A   1      44.428  21.694  34.771  1.00  0.00    -0.237 OA
ATOM     94  O   UNL A   1      44.489  23.429  36.519  1.00  0.00    -0.744 OA
ENDBRANCH  87  91
ENDBRANCH  61  84
ENDBRANCH  35  36
ENDBRANCH  27  30
ENDBRANCH  25  26
ENDBRANCH  24  25
ENDBRANCH   1  24
TORSDOF 18
ENDMDL
MODEL 2
REMARK VINA RESULT:     -12.5      1.859      2.535
REMARK SMILES Cc1cc([C@H](O)CC2(CC(=O)NCCCNC(=O)c3ccc(-c4c5nc(c(-c6cc(S(=O)(=O)[O-])ccc6F)c6ccc([nH]6)c(-c6cc(S(=O)(=O)[O-])ccc6F)c6nc(c(-c7cc(S(=O)(=O)[O-])ccc7F)c7ccc4[nH]7)C=C6)C=C5)cc3)CCCC2)ccc1F
REMARK SMILES IDX 13 1 12 2 10 3 11 4 9 6 8 7 82 8 85 9 83 10 84 11 7 12 5 13
REMARK SMILES IDX 4 14 1 15 2 16 3 17 88 18 87 19 89 20 86 21 6 22 14 24 15 25
REMARK SMILES IDX 16 26 17 27 18 29 19 30 20 31 81 32 21 33 80 34 22 35 23 36
REMARK SMILES IDX 24 37 74 38 25 39 79 40 73 41 75 42 26 43 78 44 72 45 71 46
REMARK SMILES IDX 27 48 59 49 39 50 58 51 40 52 43 53 57 54 76 55 41 56 42 57
REMARK SMILES IDX 56 59 77 60 44 61 28 62 29 63 37 64 30 65 36 66 38 67 35 68
REMARK SMILES IDX 31 69 32 70 33 71 34 72 60 73 61 74 69 75 62 76 68 77 70 78
REMARK SMILES IDX 67 79 63 80 64 81 65 82 66 83 45 84 46 85 54 86 47 87 53 88
REMARK SMILES IDX 55 89 52 90 48 91 49 92 50 93 51 94
REMARK H PARENT 12 5 6 23 16 28 75 47 43 58
REMARK Flexibility Score: inf
ROOT
ATOM      1  C   UNL A   1      32.024  29.504  26.340  1.00  0.00     0.117 C 
ENDROOT
BRANCH   1   2
ATOM      2  N   UNL A   1      32.486  29.334  24.980  1.00  0.00    -0.356 N 
ATOM      3  C   UNL A   1      31.720  29.330  23.853  1.00  0.00     0.220 C 
ATOM      4  O   UNL A   1      32.230  28.972  22.792  1.00  0.00    -0.275 OA
ATOM      5  H   UNL A   1      33.454  29.208  24.856  1.00  0.00     0.163 HD
BRANCH   3   6
ATOM      6  C   UNL A   1      30.292  29.856  23.919  1.00  0.00     0.107 C 
BRANCH   6   7
ATOM      7  C   UNL A   1      29.168  29.286  22.977  1.00  0.00    -0.018 C 
ATOM      8  C   UNL A   1      29.271  30.147  21.685  1.00  0.00     0.007 C 
ATOM      9  C   UNL A   1      27.698  29.635  23.294  1.00  0.00     0.007 C 
ATOM     10  C   UNL A   1      28.572  31.476  22.044  1.00  0.00     0.001 C 
ATOM     11  C   UNL A   1      27.581  31.141  23.158  1.00  0.00     0.001 C 
BRANCH   7  12
ATOM     12  C   UNL A   1      29.392  27.760  22.765  1.00  0.00     0.044 C 
BRANCH  12  13
ATOM     13  C   UNL A   1      29.202  26.829  23.977  1.00  0.00     0.145 C 
BRANCH  13  14
ATOM     14  C   UNL A   1      30.289  25.779  24.103  1.00  0.00    -0.019 A 
ATOM     15  C   UNL A   1      33.583  25.298  25.962  1.00  0.00     0.047 C 
ATOM     16  C   UNL A   1      32.418  25.062  25.054  1.00  0.00    -0.015 A 
ATOM     17  C   UNL A   1      31.363  25.977  24.987  1.00  0.00     0.012 A 
ATOM     18  C   UNL A   1      32.385  23.937  24.229  1.00  0.00     0.126 A 
ATOM     19  C   UNL A   1      31.324  23.711  23.358  1.00  0.00     0.040 A 
ATOM     20  F   UNL A   1      33.400  23.062  24.262  1.00  0.00    -0.207 F 
ATOM     21  C   UNL A   1      30.274  24.629  23.296  1.00  0.00     0.009 A 
ENDBRANCH  13  14
BRANCH  13  22
ATOM     22  O   UNL A   1      27.946  26.158  23.899  1.00  0.00    -0.388 OA
ATOM     23  H   UNL A   1      27.228  26.805  23.973  1.00  0.00     0.211 HD
ENDBRANCH  13  22
ENDBRANCH  12  13
ENDBRANCH   7  12
ENDBRANCH   6   7
ENDBRANCH   3   6
ENDBRANCH   1   2
BRANCH   1  24
ATOM     24  C   UNL A   1      32.982  28.790  27.264  1.00  0.00     0.042 C 
BRANCH  24  25
ATOM     25  C   UNL A   1      34.382  29.256  27.054  1.00  0.00     0.118 C 
BRANCH  25  26
ATOM     26  N   UNL A   1      34.558  30.613  27.553  1.00  0.00    -0.352 N 
ATOM     27  C   UNL A   1      35.404  30.985  28.578  1.00  0.00     0.251 C 
ATOM     28  H   UNL A   1      34.030  31.325  27.124  1.00  0.00     0.163 HD
ATOM     29  O   UNL A   1      35.100  31.970  29.265  1.00  0.00    -0.269 OA
BRANCH  27  30
ATOM     30  C   UNL A   1      36.604  30.156  28.811  1.00  0.00     0.039 A 
ATOM     31  C   UNL A   1      36.802  29.337  29.921  1.00  0.00     0.014 A 
ATOM     32  C   UNL A   1      37.565  30.191  27.809  1.00  0.00     0.014 A 
ATOM     33  C   UNL A   1      37.975  28.581  29.993  1.00  0.00     0.010 A 
ATOM     34  C   UNL A   1      38.441  29.169  27.690  1.00  0.00     0.010 A 
ATOM     35  C   UNL A   1      38.791  28.521  28.861  1.00  0.00    -0.014 A 
BRANCH  35  36
ATOM     36  C   UNL A   1      40.132  27.973  28.772  1.00  0.00     0.031 A 
ATOM     37  C   UNL A   1      40.329  26.542  28.609  1.00  0.00     0.074 A 
ATOM     38  C   UNL A   1      41.129  28.890  28.673  1.00  0.00     0.049 A 
ATOM     39  N   UNL A   1      41.354  25.912  29.053  1.00  0.00    -0.248 NA
ATOM     40  C   UNL A   1      39.354  25.690  27.939  1.00  0.00     0.031 C 
ATOM     41  C   UNL A   1      42.502  28.757  28.232  1.00  0.00     0.029 A 
ATOM     42  N   UNL A   1      41.040  30.238  29.051  1.00  0.00    -0.354 N 
ATOM     43  C   UNL A   1      41.356  24.691  28.418  1.00  0.00     0.074 A 
ATOM     44  C   UNL A   1      40.018  24.529  27.893  1.00  0.00     0.031 C 
ATOM     45  C   UNL A   1      43.188  29.849  28.631  1.00  0.00     0.029 A 
ATOM     46  C   UNL A   1      42.301  30.648  29.469  1.00  0.00     0.049 A 
ATOM     47  H   UNL A   1      40.229  30.795  29.026  1.00  0.00     0.167 HD
ATOM     48  C   UNL A   1      42.550  24.073  28.193  1.00  0.00     0.034 A 
ATOM     49  C   UNL A   1      42.502  31.030  30.766  1.00  0.00     0.034 A 
ATOM     50  C   UNL A   1      43.648  24.924  28.675  1.00  0.00     0.049 A 
ATOM     51  C   UNL A   1      43.392  30.025  31.459  1.00  0.00     0.074 A 
ATOM     52  C   UNL A   1      44.483  25.814  28.017  1.00  0.00     0.029 A 
ATOM     53  N   UNL A   1      43.750  25.230  30.029  1.00  0.00    -0.354 N 
ATOM     54  N   UNL A   1      43.604  28.822  31.000  1.00  0.00    -0.248 NA
ATOM     55  C   UNL A   1      44.124  30.283  32.691  1.00  0.00     0.031 C 
ATOM     56  C   UNL A   1      45.033  26.703  28.978  1.00  0.00     0.029 A 
ATOM     57  C   UNL A   1      44.546  26.349  30.225  1.00  0.00     0.049 A 
ATOM     58  H   UNL A   1      43.315  24.720  30.750  1.00  0.00     0.167 HD
ATOM     59  C   UNL A   1      44.456  28.146  31.823  1.00  0.00     0.074 A 
ATOM     60  C   UNL A   1      44.770  29.114  32.860  1.00  0.00     0.031 C 
ATOM     61  C   UNL A   1      44.809  26.849  31.578  1.00  0.00     0.034 A 
BRANCH  48  62
ATOM     62  C   UNL A   1      42.735  22.901  27.249  1.00  0.00     0.023 A 
ATOM     63  C   UNL A   1      43.648  22.888  26.170  1.00  0.00     0.031 A 
ATOM     64  C   UNL A   1      41.990  21.713  27.420  1.00  0.00     0.131 A 
ATOM     65  C   UNL A   1      43.859  21.730  25.393  1.00  0.00     0.055 A 
ATOM     66  C   UNL A   1      42.164  20.580  26.615  1.00  0.00     0.041 A 
ATOM     67  F   UNL A   1      41.080  21.584  28.394  1.00  0.00    -0.206 F 
ATOM     68  C   UNL A   1      43.115  20.576  25.608  1.00  0.00     0.022 A 
BRANCH  65  69
ATOM     69  S   UNL A   1      45.165  21.667  24.129  1.00  0.00     0.124 S 
ATOM     70  O   UNL A   1      46.324  21.215  24.898  1.00  0.00    -0.237 OA
ATOM     71  O   UNL A   1      44.633  20.697  23.177  1.00  0.00    -0.237 OA
ATOM     72  O   UNL A   1      45.253  23.043  23.648  1.00  0.00    -0.744 OA
ENDBRANCH  65  69
ENDBRANCH  48  62
BRANCH  49  73
ATOM     73  C   UNL A   1      41.306  31.715  31.368  1.00  0.00     0.023 A 
ATOM     74  C   UNL A   1      40.453  31.065  32.278  1.00  0.00     0.031 A 
ATOM     75  C   UNL A   1      40.787  32.832  30.669  1.00  0.00     0.131 A 
ATOM     76  C   UNL A   1      39.100  31.458  32.364  1.00  0.00     0.055 A 
ATOM     77  C   UNL A   1      39.435  33.181  30.720  1.00  0.00     0.041 A 
ATOM     78  F   UNL A   1      41.567  33.512  29.810  1.00  0.00    -0.206 F 
ATOM     79  C   UNL A   1      38.575  32.465  31.543  1.00  0.00     0.022 A 
BRANCH  76  80
ATOM     80  S   UNL A   1      37.962  30.577  33.478  1.00  0.00     0.124 S 
ATOM     81  O   UNL A   1      38.518  29.228  33.444  1.00  0.00    -0.237 OA
ATOM     82  O   UNL A   1      38.133  31.282  34.747  1.00  0.00    -0.237 OA
ATOM     83  O   UNL A   1      36.669  30.757  32.840  1.00  0.00    -0.744 OA
ENDBRANCH  76  80
ENDBRANCH  49  73
BRANCH  61  84
ATOM     84  C   UNL A   1      45.493  25.911  32.544  1.00  0.00     0.023 A 
ATOM     85  C   UNL A   1      44.675  25.102  33.373  1.00  0.00     0.031 A 
ATOM     86  C   UNL A   1      46.865  25.896  32.833  1.00  0.00     0.131 A 
ATOM     87  C   UNL A   1      45.203  24.386  34.451  1.00  0.00     0.055 A 
ATOM     88  C   UNL A   1      47.406  25.094  33.844  1.00  0.00     0.041 A 
ATOM     89  F   UNL A   1      47.732  26.703  32.209  1.00  0.00    -0.206 F 
ATOM     90  C   UNL A   1      46.573  24.354  34.674  1.00  0.00     0.022 A 
BRANCH  87  91
ATOM     91  S   UNL A   1      44.099  23.652  35.689  1.00  0.00     0.124 S 
ATOM     92  O   UNL A   1      42.970  23.229  34.866  1.00  0.00    -0.237 OA
ATOM     93  O   UNL A   1      44.920  22.570  36.231  1.00  0.00    -0.237 OA
ATOM     94  O   UNL A   1      43.835  24.749  36.614  1.00  0.00    -0.744 OA
ENDBRANCH  87  91
ENDBRANCH  61  84
ENDBRANCH  35  36
ENDBRANCH  27  30
ENDBRANCH  25  26
ENDBRANCH  24  25
ENDBRANCH   1  24
TORSDOF 18
ENDMDL
MODEL 3
REMARK VINA RESULT:     -12.3      1.181      1.776
REMARK SMILES Cc1cc([C@H](O)CC2(CC(=O)NCCCNC(=O)c3ccc(-c4c5nc(c(-c6cc(S(=O)(=O)[O-])ccc6F)c6ccc([nH]6)c(-c6cc(S(=O)(=O)[O-])ccc6F)c6nc(c(-c7cc(S(=O)(=O)[O-])ccc7F)c7ccc4[nH]7)C=C6)C=C5)cc3)CCCC2)ccc1F
REMARK SMILES IDX 13 1 12 2 10 3 11 4 9 6 8 7 82 8 85 9 83 10 84 11 7 12 5 13
REMARK SMILES IDX 4 14 1 15 2 16 3 17 88 18 87 19 89 20 86 21 6 22 14 24 15 25
REMARK SMILES IDX 16 26 17 27 18 29 19 30 20 31 81 32 21 33 80 34 22 35 23 36
REMARK SMILES IDX 24 37 74 38 25 39 79 40 73 41 75 42 26 43 78 44 72 45 71 46
REMARK SMILES IDX 27 48 59 49 39 50 58 51 40 52 43 53 57 54 76 55 41 56 42 57
REMARK SMILES IDX 56 59 77 60 44 61 28 62 29 63 37 64 30 65 36 66 38 67 35 68
REMARK SMILES IDX 31 69 32 70 33 71 34 72 60 73 61 74 69 75 62 76 68 77 70 78
REMARK SMILES IDX 67 79 63 80 64 81 65 82 66 83 45 84 46 85 54 86 47 87 53 88
REMARK SMILES IDX 55 89 52 90 48 91 49 92 50 93 51 94
REMARK H PARENT 12 5 6 23 16 28 75 47 43 58
REMARK Flexibility Score: inf
ROOT
ATOM      1  C   UNL A   1      32.831  28.899  25.501  1.00  0.00     0.117 C 
ENDROOT
BRANCH   1   2
ATOM      2  N   UNL A   1      31.944  28.121  26.338  1.00  0.00    -0.356 N 
ATOM      3  C   UNL A   1      31.526  26.844  26.117  1.00  0.00     0.220 C 
ATOM      4  O   UNL A   1      30.614  26.391  26.809  1.00  0.00    -0.275 OA
ATOM      5  H   UNL A   1      31.607  28.561  27.152  1.00  0.00     0.163 HD
BRANCH   3   6
ATOM      6  C   UNL A   1      32.257  25.986  25.092  1.00  0.00     0.107 C 
BRANCH   6   7
ATOM      7  C   UNL A   1      31.530  25.460  23.800  1.00  0.00    -0.018 C 
ATOM      8  C   UNL A   1      32.633  25.468  22.703  1.00  0.00     0.007 C 
ATOM      9  C   UNL A   1      30.558  26.410  23.066  1.00  0.00     0.007 C 
ATOM     10  C   UNL A   1      32.749  26.947  22.275  1.00  0.00     0.001 C 
ATOM     11  C   UNL A   1      31.393  27.580  22.583  1.00  0.00     0.001 C 
BRANCH   7  12
ATOM     12  C   UNL A   1      30.904  24.064  24.087  1.00  0.00     0.044 C 
BRANCH  12  13
ATOM     13  C   UNL A   1      31.360  23.317  25.355  1.00  0.00     0.145 C 
BRANCH  13  14
ATOM     14  C   UNL A   1      32.393  22.242  25.078  1.00  0.00    -0.019 A 
ATOM     15  C   UNL A   1      32.581  18.435  24.960  1.00  0.00     0.047 C 
ATOM     16  C   UNL A   1      32.973  19.878  24.912  1.00  0.00    -0.015 A 
ATOM     17  C   UNL A   1      32.020  20.887  25.080  1.00  0.00     0.012 A 
ATOM     18  C   UNL A   1      34.309  20.239  24.735  1.00  0.00     0.126 A 
ATOM     19  C   UNL A   1      34.699  21.574  24.713  1.00  0.00     0.040 A 
ATOM     20  F   UNL A   1      35.240  19.284  24.597  1.00  0.00    -0.207 F 
ATOM     21  C   UNL A   1      33.743  22.576  24.882  1.00  0.00     0.009 A 
ENDBRANCH  13  14
BRANCH  13  22
ATOM     22  O   UNL A   1      30.247  22.705  26.001  1.00  0.00    -0.388 OA
ATOM     23  H   UNL A   1      29.722  22.216  25.348  1.00  0.00     0.211 HD
ENDBRANCH  13  22
ENDBRANCH  12  13
ENDBRANCH   7  12
ENDBRANCH   6   7
ENDBRANCH   3   6
ENDBRANCH   1   2
BRANCH   1  24
ATOM     24  C   UNL A   1      34.234  28.774  26.046  1.00  0.00     0.042 C 
BRANCH  24  25
ATOM     25  C   UNL A   1      34.269  29.029  27.513  1.00  0.00     0.118 C 
BRANCH  25  26
ATOM     26  N   UNL A   1      34.501  30.440  27.791  1.00  0.00    -0.352 N 
ATOM     27  C   UNL A   1      35.463  30.939  28.646  1.00  0.00     0.251 C 
ATOM     28  H   UNL A   1      33.925  31.092  27.330  1.00  0.00     0.163 HD
ATOM     29  O   UNL A   1      35.241  32.015  29.218  1.00  0.00    -0.269 OA
BRANCH  27  30
ATOM     30  C   UNL A   1      36.683  30.132  28.851  1.00  0.00     0.039 A 
ATOM     31  C   UNL A   1      36.888  29.256  29.915  1.00  0.00     0.014 A 
ATOM     32  C   UNL A   1      37.657  30.252  27.869  1.00  0.00     0.014 A 
ATOM     33  C   UNL A   1      38.082  28.531  29.963  1.00  0.00     0.010 A 
ATOM     34  C   UNL A   1      38.565  29.264  27.706  1.00  0.00     0.010 A 
ATOM     35  C   UNL A   1      38.915  28.559  28.843  1.00  0.00    -0.014 A 
BRANCH  35  36
ATOM     36  C   UNL A   1      40.273  28.056  28.745  1.00  0.00     0.031 A 
ATOM     37  C   UNL A   1      40.515  26.646  28.483  1.00  0.00     0.074 A 
ATOM     38  C   UNL A   1      41.246  29.004  28.736  1.00  0.00     0.049 A 
ATOM     39  N   UNL A   1      41.548  26.013  28.904  1.00  0.00    -0.248 NA
ATOM     40  C   UNL A   1      39.578  25.819  27.732  1.00  0.00     0.031 C 
ATOM     41  C   UNL A   1      42.631  28.941  28.317  1.00  0.00     0.029 A 
ATOM     42  N   UNL A   1      41.111  30.318  29.208  1.00  0.00    -0.354 N 
ATOM     43  C   UNL A   1      41.597  24.842  28.182  1.00  0.00     0.074 A 
ATOM     44  C   UNL A   1      40.275  24.683  27.617  1.00  0.00     0.031 C 
ATOM     45  C   UNL A   1      43.277  30.018  28.809  1.00  0.00     0.029 A 
ATOM     46  C   UNL A   1      42.350  30.730  29.683  1.00  0.00     0.049 A 
ATOM     47  H   UNL A   1      40.285  30.853  29.205  1.00  0.00     0.167 HD
ATOM     48  C   UNL A   1      42.813  24.275  27.940  1.00  0.00     0.034 A 
ATOM     49  C   UNL A   1      42.513  31.022  31.008  1.00  0.00     0.034 A 
ATOM     50  C   UNL A   1      43.876  25.118  28.507  1.00  0.00     0.049 A 
ATOM     51  C   UNL A   1      43.417  29.993  31.646  1.00  0.00     0.074 A 
ATOM     52  C   UNL A   1      44.699  26.075  27.934  1.00  0.00     0.029 A 
ATOM     53  N   UNL A   1      43.941  25.327  29.882  1.00  0.00    -0.354 N 
ATOM     54  N   UNL A   1      43.673  28.833  31.107  1.00  0.00    -0.248 NA
ATOM     55  C   UNL A   1      44.117  30.180  32.910  1.00  0.00     0.031 C 
ATOM     56  C   UNL A   1      45.203  26.906  28.969  1.00  0.00     0.029 A 
ATOM     57  C   UNL A   1      44.701  26.450  30.176  1.00  0.00     0.049 A 
ATOM     58  H   UNL A   1      43.507  24.753  30.554  1.00  0.00     0.167 HD
ATOM     59  C   UNL A   1      44.527  28.122  31.898  1.00  0.00     0.074 A 
ATOM     60  C   UNL A   1      44.792  29.019  33.009  1.00  0.00     0.031 C 
ATOM     61  C   UNL A   1      44.922  26.856  31.567  1.00  0.00     0.034 A 
BRANCH  48  62
ATOM     62  C   UNL A   1      43.051  23.180  26.918  1.00  0.00     0.023 A 
ATOM     63  C   UNL A   1      42.791  21.810  27.149  1.00  0.00     0.031 A 
ATOM     64  C   UNL A   1      43.543  23.490  25.631  1.00  0.00     0.131 A 
ATOM     65  C   UNL A   1      42.925  20.849  26.126  1.00  0.00     0.055 A 
ATOM     66  C   UNL A   1      43.725  22.527  24.631  1.00  0.00     0.041 A 
ATOM     67  F   UNL A   1      43.844  24.745  25.272  1.00  0.00    -0.206 F 
ATOM     68  C   UNL A   1      43.397  21.202  24.867  1.00  0.00     0.022 A 
BRANCH  65  69
ATOM     69  S   UNL A   1      42.414  19.122  26.380  1.00  0.00     0.124 S 
ATOM     70  O   UNL A   1      42.337  19.030  27.838  1.00  0.00    -0.237 OA
ATOM     71  O   UNL A   1      41.132  19.068  25.685  1.00  0.00    -0.237 OA
ATOM     72  O   UNL A   1      43.495  18.346  25.778  1.00  0.00    -0.744 OA
ENDBRANCH  65  69
ENDBRANCH  48  62
BRANCH  49  73
ATOM     73  C   UNL A   1      41.286  31.628  31.632  1.00  0.00     0.023 A 
ATOM     74  C   UNL A   1      40.408  30.879  32.434  1.00  0.00     0.031 A 
ATOM     75  C   UNL A   1      40.779  32.808  31.032  1.00  0.00     0.131 A 
ATOM     76  C   UNL A   1      39.048  31.247  32.508  1.00  0.00     0.055 A 
ATOM     77  C   UNL A   1      39.421  33.136  31.067  1.00  0.00     0.041 A 
ATOM     78  F   UNL A   1      41.582  33.581  30.280  1.00  0.00    -0.206 F 
ATOM     79  C   UNL A   1      38.541  32.330  31.777  1.00  0.00     0.022 A 
BRANCH  76  80
ATOM     80  S   UNL A   1      37.881  30.244  33.479  1.00  0.00     0.124 S 
ATOM     81  O   UNL A   1      37.993  30.870  34.793  1.00  0.00    -0.237 OA
ATOM     82  O   UNL A   1      36.608  30.469  32.797  1.00  0.00    -0.237 OA
ATOM     83  O   UNL A   1      38.419  28.900  33.358  1.00  0.00    -0.744 OA
ENDBRANCH  76  80
ENDBRANCH  49  73
BRANCH  61  84
ATOM     84  C   UNL A   1      45.612  25.869  32.479  1.00  0.00     0.023 A 
ATOM     85  C   UNL A   1      44.800  24.996  33.247  1.00  0.00     0.031 A 
ATOM     86  C   UNL A   1      46.981  25.856  32.778  1.00  0.00     0.131 A 
ATOM     87  C   UNL A   1      45.329  24.221  34.282  1.00  0.00     0.055 A 
ATOM     88  C   UNL A   1      47.526  24.999  33.742  1.00  0.00     0.041 A 
ATOM     89  F   UNL A   1      47.841  26.714  32.215  1.00  0.00    -0.206 F 
ATOM     90  C   UNL A   1      46.698  24.196  34.515  1.00  0.00     0.022 A 
BRANCH  87  91
ATOM     91  S   UNL A   1      44.227  23.393  35.460  1.00  0.00     0.124 S 
ATOM     92  O   UNL A   1      44.152  24.377  36.536  1.00  0.00    -0.237 OA
ATOM     93  O   UNL A   1      43.005  23.229  34.674  1.00  0.00    -0.237 OA
ATOM     94  O   UNL A   1      44.926  22.154  35.780  1.00  0.00    -0.744 OA
ENDBRANCH  87  91
ENDBRANCH  61  84
ENDBRANCH  35  36
ENDBRANCH  27  30
ENDBRANCH  25  26
ENDBRANCH  24  25
ENDBRANCH   1  24
TORSDOF 18
ENDMDL
