MODEL 1
REMARK VINA RESULT:     -12.2      0.000      0.000
REMARK SMILES Cn1c(Cl)cnc1C[N@@H+]1CCC[C@@H]1C(=O)NCCCNC(=O)c1ccc(-c2c3nc(c(-c4cc(S(=O)(=O)[O-])ccc4F)c4ccc([nH]4)c(-c4cc(S(=O)(=O)[O-])ccc4F)c4nc(c(-c5cc(S(=O)(=O)[O-])ccc5F)c5ccc2[nH]5)C=C4)C=C3)cc1
REMARK SMILES IDX 18 1 17 2 16 3 14 4 15 5 13 7 9 8 10 9 11 11 12 12 8 13 7 14
REMARK SMILES IDX 1 15 2 16 3 17 4 18 5 19 6 20 19 21 20 22 21 23 22 25 23 26
REMARK SMILES IDX 24 27 85 28 25 29 84 30 26 31 27 32 28 33 78 34 29 35 83 36
REMARK SMILES IDX 77 37 79 38 30 39 82 40 76 41 75 42 31 44 63 45 43 46 62 47
REMARK SMILES IDX 44 48 47 49 61 50 80 51 45 52 46 53 60 55 81 56 48 57 32 58
REMARK SMILES IDX 33 59 41 60 34 61 40 62 42 63 39 64 35 65 36 66 37 67 38 68
REMARK SMILES IDX 64 69 65 70 73 71 66 72 72 73 74 74 71 75 67 76 68 77 69 78
REMARK SMILES IDX 70 79 49 80 50 81 58 82 51 83 57 84 59 85 56 86 52 87 53 88
REMARK SMILES IDX 54 89 55 90
REMARK H PARENT 16 6 9 10 20 24 79 43 47 54
REMARK Flexibility Score: inf
ROOT
ATOM      1  C   UNL A   1      33.661  29.889  27.155  1.00  0.00     0.042 C 
ENDROOT
BRANCH   1   2
ATOM      2  C   UNL A   1      33.269  29.071  25.931  1.00  0.00     0.118 C 
BRANCH   2   3
ATOM      3  N   UNL A   1      32.430  27.921  26.181  1.00  0.00    -0.351 N 
ATOM      4  C   UNL A   1      32.636  26.640  25.752  1.00  0.00     0.278 C 
ATOM      5  O   UNL A   1      32.153  25.739  26.446  1.00  0.00    -0.268 OA
ATOM      6  H   UNL A   1      31.621  28.077  26.720  1.00  0.00     0.163 HD
BRANCH   4   7
ATOM      7  C   UNL A   1      33.405  26.295  24.466  1.00  0.00     0.274 C 
ATOM      8  N   UNL A   1      32.665  26.223  23.191  1.00  0.00    -0.318 N 
ATOM      9  C   UNL A   1      33.411  25.325  22.314  1.00  0.00     0.263 C 
ATOM     10  H   UNL A   1      32.643  27.178  22.834  1.00  0.00     0.349 HD
ATOM     11  C   UNL A   1      34.049  24.308  23.251  1.00  0.00     0.068 C 
ATOM     12  C   UNL A   1      34.364  25.107  24.507  1.00  0.00     0.081 C 
BRANCH   8  13
ATOM     13  C   UNL A   1      31.205  26.174  23.134  1.00  0.00     0.339 C 
BRANCH  13  14
ATOM     14  C   UNL A   1      30.454  27.457  22.839  1.00  0.00     0.165 A 
ATOM     15  C   UNL A   1      28.204  26.799  23.837  1.00  0.00     0.152 C 
ATOM     16  N   UNL A   1      29.146  27.716  23.234  1.00  0.00    -0.317 N 
ATOM     17  C   UNL A   1      28.863  28.994  22.832  1.00  0.00     0.128 A 
ATOM     18  Cl  UNL A   1      27.384  29.750  23.158  1.00  0.00    -0.063 Cl
ATOM     19  C   UNL A   1      29.960  29.458  22.171  1.00  0.00     0.152 A 
ATOM     20  N   UNL A   1      30.942  28.512  22.201  1.00  0.00    -0.234 NA
ENDBRANCH  13  14
ENDBRANCH   8  13
ENDBRANCH   4   7
ENDBRANCH   2   3
ENDBRANCH   1   2
BRANCH   1  21
ATOM     21  C   UNL A   1      34.944  29.375  27.804  1.00  0.00     0.118 C 
BRANCH  21  22
ATOM     22  N   UNL A   1      35.545  30.305  28.771  1.00  0.00    -0.352 N 
ATOM     23  C   UNL A   1      36.839  30.278  29.279  1.00  0.00     0.251 C 
ATOM     24  H   UNL A   1      34.964  31.030  29.096  1.00  0.00     0.163 HD
ATOM     25  O   UNL A   1      37.193  30.994  30.197  1.00  0.00    -0.269 OA
BRANCH  23  26
ATOM     26  C   UNL A   1      37.769  29.291  28.714  1.00  0.00     0.039 A 
ATOM     27  C   UNL A   1      38.481  29.625  27.562  1.00  0.00     0.014 A 
ATOM     28  C   UNL A   1      38.099  28.183  29.486  1.00  0.00     0.014 A 
ATOM     29  C   UNL A   1      39.662  28.947  27.300  1.00  0.00     0.010 A 
ATOM     30  C   UNL A   1      39.332  27.601  29.296  1.00  0.00     0.010 A 
ATOM     31  C   UNL A   1      40.134  28.000  28.225  1.00  0.00    -0.014 A 
BRANCH  31  32
ATOM     32  C   UNL A   1      41.554  27.639  28.202  1.00  0.00     0.031 A 
ATOM     33  C   UNL A   1      41.885  26.436  27.382  1.00  0.00     0.074 A 
ATOM     34  C   UNL A   1      42.558  28.417  28.653  1.00  0.00     0.049 A 
ATOM     35  N   UNL A   1      42.233  25.267  27.811  1.00  0.00    -0.248 NA
ATOM     36  C   UNL A   1      41.655  26.479  25.929  1.00  0.00     0.031 C 
ATOM     37  C   UNL A   1      42.476  29.772  29.203  1.00  0.00     0.029 A 
ATOM     38  N   UNL A   1      43.900  28.189  28.601  1.00  0.00    -0.354 N 
ATOM     39  C   UNL A   1      42.515  24.501  26.683  1.00  0.00     0.074 A 
ATOM     40  C   UNL A   1      41.938  25.221  25.580  1.00  0.00     0.031 C 
ATOM     41  C   UNL A   1      43.706  30.329  29.210  1.00  0.00     0.029 A 
ATOM     42  C   UNL A   1      44.677  29.313  28.846  1.00  0.00     0.049 A 
ATOM     43  H   UNL A   1      44.285  27.304  28.407  1.00  0.00     0.167 HD
ATOM     44  C   UNL A   1      43.403  23.465  26.743  1.00  0.00     0.034 A 
ATOM     45  C   UNL A   1      46.026  29.419  28.763  1.00  0.00     0.034 A 
ATOM     46  C   UNL A   1      43.697  23.129  28.123  1.00  0.00     0.049 A 
ATOM     47  C   UNL A   1      46.576  28.054  28.938  1.00  0.00     0.074 A 
ATOM     48  C   UNL A   1      42.934  22.760  29.216  1.00  0.00     0.029 A 
ATOM     49  N   UNL A   1      44.906  23.542  28.645  1.00  0.00    -0.354 N 
ATOM     50  N   UNL A   1      46.452  27.373  30.045  1.00  0.00    -0.248 NA
ATOM     51  C   UNL A   1      46.854  27.254  27.755  1.00  0.00     0.031 C 
ATOM     52  C   UNL A   1      43.515  23.458  30.317  1.00  0.00     0.029 A 
ATOM     53  C   UNL A   1      44.652  24.127  29.859  1.00  0.00     0.049 A 
ATOM     54  H   UNL A   1      45.789  23.434  28.223  1.00  0.00     0.167 HD
ATOM     55  C   UNL A   1      46.184  26.075  29.641  1.00  0.00     0.074 A 
ATOM     56  C   UNL A   1      46.569  26.038  28.231  1.00  0.00     0.031 C 
ATOM     57  C   UNL A   1      45.415  25.240  30.401  1.00  0.00     0.034 A 
BRANCH  44  58
ATOM     58  C   UNL A   1      44.312  23.004  25.613  1.00  0.00     0.023 A 
ATOM     59  C   UNL A   1      44.399  21.612  25.399  1.00  0.00     0.031 A 
ATOM     60  C   UNL A   1      45.295  23.776  24.957  1.00  0.00     0.131 A 
ATOM     61  C   UNL A   1      45.497  21.043  24.734  1.00  0.00     0.055 A 
ATOM     62  C   UNL A   1      46.349  23.208  24.230  1.00  0.00     0.041 A 
ATOM     63  F   UNL A   1      45.347  25.108  25.034  1.00  0.00    -0.206 F 
ATOM     64  C   UNL A   1      46.482  21.833  24.154  1.00  0.00     0.022 A 
BRANCH  61  65
ATOM     65  S   UNL A   1      45.716  19.248  24.837  1.00  0.00     0.124 S 
ATOM     66  O   UNL A   1      45.603  18.867  23.433  1.00  0.00    -0.237 OA
ATOM     67  O   UNL A   1      47.043  19.141  25.431  1.00  0.00    -0.237 OA
ATOM     68  O   UNL A   1      44.611  18.822  25.692  1.00  0.00    -0.744 OA
ENDBRANCH  61  65
ENDBRANCH  44  58
BRANCH  45  69
ATOM     69  C   UNL A   1      46.809  30.599  28.321  1.00  0.00     0.023 A 
ATOM     70  C   UNL A   1      46.310  31.537  27.399  1.00  0.00     0.031 A 
ATOM     71  C   UNL A   1      48.004  30.942  28.996  1.00  0.00     0.131 A 
ATOM     72  C   UNL A   1      46.993  32.757  27.187  1.00  0.00     0.055 A 
ATOM     73  C   UNL A   1      48.681  32.143  28.776  1.00  0.00     0.041 A 
ATOM     74  F   UNL A   1      48.510  30.154  29.959  1.00  0.00    -0.206 F 
ATOM     75  C   UNL A   1      48.169  33.064  27.876  1.00  0.00     0.022 A 
BRANCH  72  76
ATOM     76  S   UNL A   1      46.286  34.022  26.084  1.00  0.00     0.124 S 
ATOM     77  O   UNL A   1      47.447  34.435  25.305  1.00  0.00    -0.237 OA
ATOM     78  O   UNL A   1      45.256  33.275  25.370  1.00  0.00    -0.237 OA
ATOM     79  O   UNL A   1      45.774  35.033  27.010  1.00  0.00    -0.744 OA
ENDBRANCH  72  76
ENDBRANCH  45  69
BRANCH  57  80
ATOM     80  C   UNL A   1      45.158  25.599  31.853  1.00  0.00     0.023 A 
ATOM     81  C   UNL A   1      46.008  25.284  32.935  1.00  0.00     0.031 A 
ATOM     82  C   UNL A   1      44.035  26.406  32.122  1.00  0.00     0.131 A 
ATOM     83  C   UNL A   1      45.711  25.762  34.228  1.00  0.00     0.055 A 
ATOM     84  C   UNL A   1      43.758  26.896  33.397  1.00  0.00     0.041 A 
ATOM     85  F   UNL A   1      43.199  26.763  31.133  1.00  0.00    -0.206 F 
ATOM     86  C   UNL A   1      44.592  26.569  34.457  1.00  0.00     0.022 A 
BRANCH  83  87
ATOM     87  S   UNL A   1      46.761  25.322  35.652  1.00  0.00     0.124 S 
ATOM     88  O   UNL A   1      47.592  26.504  35.848  1.00  0.00    -0.237 OA
ATOM     89  O   UNL A   1      45.776  25.054  36.697  1.00  0.00    -0.237 OA
ATOM     90  O   UNL A   1      47.485  24.139  35.184  1.00  0.00    -0.744 OA
ENDBRANCH  83  87
ENDBRANCH  57  80
ENDBRANCH  31  32
ENDBRANCH  23  26
ENDBRANCH  21  22
ENDBRANCH   1  21
TORSDOF 15
ENDMDL
MODEL 2
REMARK VINA RESULT:     -12.1      2.657      7.692
REMARK SMILES Cn1c(Cl)cnc1C[N@@H+]1CCC[C@@H]1C(=O)NCCCNC(=O)c1ccc(-c2c3nc(c(-c4cc(S(=O)(=O)[O-])ccc4F)c4ccc([nH]4)c(-c4cc(S(=O)(=O)[O-])ccc4F)c4nc(c(-c5cc(S(=O)(=O)[O-])ccc5F)c5ccc2[nH]5)C=C4)C=C3)cc1
REMARK SMILES IDX 18 1 17 2 16 3 14 4 15 5 13 7 9 8 10 9 11 11 12 12 8 13 7 14
REMARK SMILES IDX 1 15 2 16 3 17 4 18 5 19 6 20 19 21 20 22 21 23 22 25 23 26
REMARK SMILES IDX 24 27 85 28 25 29 84 30 26 31 27 32 28 33 78 34 29 35 83 36
REMARK SMILES IDX 77 37 79 38 30 39 82 40 76 41 75 42 31 44 63 45 43 46 62 47
REMARK SMILES IDX 44 48 47 49 61 50 80 51 45 52 46 53 60 55 81 56 48 57 32 58
REMARK SMILES IDX 33 59 41 60 34 61 40 62 42 63 39 64 35 65 36 66 37 67 38 68
REMARK SMILES IDX 64 69 65 70 73 71 66 72 72 73 74 74 71 75 67 76 68 77 69 78
REMARK SMILES IDX 70 79 49 80 50 81 58 82 51 83 57 84 59 85 56 86 52 87 53 88
REMARK SMILES IDX 54 89 55 90
REMARK H PARENT 16 6 9 10 20 24 79 43 47 54
REMARK Flexibility Score: inf
ROOT
ATOM      1  C   UNL A   1      33.260  30.803  27.261  1.00  0.00     0.042 C 
ENDROOT
BRANCH   1   2
ATOM      2  C   UNL A   1      33.572  29.337  26.991  1.00  0.00     0.118 C 
BRANCH   2   3
ATOM      3  N   UNL A   1      33.939  29.009  25.631  1.00  0.00    -0.351 N 
ATOM      4  C   UNL A   1      33.113  28.959  24.544  1.00  0.00     0.278 C 
ATOM      5  O   UNL A   1      33.634  29.174  23.443  1.00  0.00    -0.268 OA
ATOM      6  H   UNL A   1      34.887  28.798  25.472  1.00  0.00     0.163 HD
BRANCH   4   7
ATOM      7  C   UNL A   1      31.613  28.635  24.637  1.00  0.00     0.274 C 
ATOM      8  N   UNL A   1      31.194  27.223  24.738  1.00  0.00    -0.318 N 
ATOM      9  C   UNL A   1      29.838  27.140  24.204  1.00  0.00     0.263 C 
ATOM     10  H   UNL A   1      31.231  26.998  25.733  1.00  0.00     0.349 HD
ATOM     11  C   UNL A   1      29.782  28.208  23.119  1.00  0.00     0.068 C 
ATOM     12  C   UNL A   1      30.673  29.321  23.648  1.00  0.00     0.081 C 
BRANCH   8  13
ATOM     13  C   UNL A   1      32.106  26.113  24.461  1.00  0.00     0.339 C 
BRANCH  13  14
ATOM     14  C   UNL A   1      32.146  24.956  25.439  1.00  0.00     0.165 A 
ATOM     15  C   UNL A   1      34.662  24.552  25.419  1.00  0.00     0.152 C 
ATOM     16  N   UNL A   1      33.310  24.342  25.889  1.00  0.00    -0.317 N 
ATOM     17  C   UNL A   1      32.924  23.393  26.797  1.00  0.00     0.128 A 
ATOM     18  Cl  UNL A   1      34.032  22.435  27.646  1.00  0.00    -0.063 Cl
ATOM     19  C   UNL A   1      31.563  23.413  26.843  1.00  0.00     0.152 A 
ATOM     20  N   UNL A   1      31.095  24.394  26.020  1.00  0.00    -0.234 NA
ENDBRANCH  13  14
ENDBRANCH   8  13
ENDBRANCH   4   7
ENDBRANCH   2   3
ENDBRANCH   1   2
BRANCH   1  21
ATOM     21  C   UNL A   1      34.497  31.585  27.699  1.00  0.00     0.118 C 
BRANCH  21  22
ATOM     22  N   UNL A   1      34.573  31.833  29.146  1.00  0.00    -0.352 N 
ATOM     23  C   UNL A   1      35.606  31.490  30.011  1.00  0.00     0.251 C 
ATOM     24  H   UNL A   1      33.802  32.296  29.549  1.00  0.00     0.163 HD
ATOM     25  O   UNL A   1      35.504  31.593  31.219  1.00  0.00    -0.269 OA
BRANCH  23  26
ATOM     26  C   UNL A   1      36.824  30.921  29.420  1.00  0.00     0.039 A 
ATOM     27  C   UNL A   1      38.034  31.589  29.607  1.00  0.00     0.014 A 
ATOM     28  C   UNL A   1      36.770  29.620  28.931  1.00  0.00     0.014 A 
ATOM     29  C   UNL A   1      39.209  30.863  29.489  1.00  0.00     0.010 A 
ATOM     30  C   UNL A   1      37.927  28.873  28.941  1.00  0.00     0.010 A 
ATOM     31  C   UNL A   1      39.146  29.480  29.250  1.00  0.00    -0.014 A 
BRANCH  31  32
ATOM     32  C   UNL A   1      40.309  28.653  29.584  1.00  0.00     0.031 A 
ATOM     33  C   UNL A   1      40.529  28.437  31.046  1.00  0.00     0.074 A 
ATOM     34  C   UNL A   1      41.017  27.918  28.703  1.00  0.00     0.049 A 
ATOM     35  N   UNL A   1      41.460  28.949  31.781  1.00  0.00    -0.248 NA
ATOM     36  C   UNL A   1      39.517  27.698  31.816  1.00  0.00     0.031 C 
ATOM     37  C   UNL A   1      40.770  27.739  27.270  1.00  0.00     0.029 A 
ATOM     38  N   UNL A   1      42.056  27.072  28.942  1.00  0.00    -0.354 N 
ATOM     39  C   UNL A   1      41.308  28.397  33.051  1.00  0.00     0.074 A 
ATOM     40  C   UNL A   1      39.990  27.822  33.059  1.00  0.00     0.031 C 
ATOM     41  C   UNL A   1      41.472  26.676  26.823  1.00  0.00     0.029 A 
ATOM     42  C   UNL A   1      42.352  26.223  27.884  1.00  0.00     0.049 A 
ATOM     43  H   UNL A   1      42.555  27.065  29.791  1.00  0.00     0.167 HD
ATOM     44  C   UNL A   1      42.376  28.265  33.891  1.00  0.00     0.034 A 
ATOM     45  C   UNL A   1      43.256  25.213  27.864  1.00  0.00     0.034 A 
ATOM     46  C   UNL A   1      43.503  29.039  33.405  1.00  0.00     0.049 A 
ATOM     47  C   UNL A   1      44.264  25.517  28.908  1.00  0.00     0.074 A 
ATOM     48  C   UNL A   1      43.701  30.371  33.089  1.00  0.00     0.029 A 
ATOM     49  N   UNL A   1      44.536  28.362  32.790  1.00  0.00    -0.354 N 
ATOM     50  N   UNL A   1      45.055  26.555  28.853  1.00  0.00    -0.248 NA
ATOM     51  C   UNL A   1      44.089  24.949  30.236  1.00  0.00     0.031 C 
ATOM     52  C   UNL A   1      44.497  30.350  31.905  1.00  0.00     0.029 A 
ATOM     53  C   UNL A   1      44.825  29.022  31.623  1.00  0.00     0.049 A 
ATOM     54  H   UNL A   1      44.984  27.552  33.128  1.00  0.00     0.167 HD
ATOM     55  C   UNL A   1      45.106  27.036  30.152  1.00  0.00     0.074 A 
ATOM     56  C   UNL A   1      44.600  25.938  30.975  1.00  0.00     0.031 C 
ATOM     57  C   UNL A   1      45.283  28.366  30.409  1.00  0.00     0.034 A 
BRANCH  44  58
ATOM     58  C   UNL A   1      42.570  27.158  34.918  1.00  0.00     0.023 A 
ATOM     59  C   UNL A   1      43.408  26.087  34.542  1.00  0.00     0.031 A 
ATOM     60  C   UNL A   1      41.787  26.933  36.070  1.00  0.00     0.131 A 
ATOM     61  C   UNL A   1      43.316  24.834  35.169  1.00  0.00     0.055 A 
ATOM     62  C   UNL A   1      41.752  25.703  36.739  1.00  0.00     0.041 A 
ATOM     63  F   UNL A   1      40.955  27.848  36.575  1.00  0.00    -0.206 F 
ATOM     64  C   UNL A   1      42.484  24.630  36.263  1.00  0.00     0.022 A 
BRANCH  61  65
ATOM     65  S   UNL A   1      44.144  23.427  34.383  1.00  0.00     0.124 S 
ATOM     66  O   UNL A   1      45.332  24.070  33.831  1.00  0.00    -0.237 OA
ATOM     67  O   UNL A   1      44.359  22.535  35.516  1.00  0.00    -0.237 OA
ATOM     68  O   UNL A   1      43.167  22.967  33.401  1.00  0.00    -0.744 OA
ENDBRANCH  61  65
ENDBRANCH  44  58
BRANCH  45  69
ATOM     69  C   UNL A   1      43.145  23.921  27.143  1.00  0.00     0.023 A 
ATOM     70  C   UNL A   1      44.009  23.565  26.091  1.00  0.00     0.031 A 
ATOM     71  C   UNL A   1      42.304  22.904  27.649  1.00  0.00     0.131 A 
ATOM     72  C   UNL A   1      44.013  22.242  25.593  1.00  0.00     0.055 A 
ATOM     73  C   UNL A   1      42.304  21.601  27.147  1.00  0.00     0.041 A 
ATOM     74  F   UNL A   1      41.509  23.121  28.711  1.00  0.00    -0.206 F 
ATOM     75  C   UNL A   1      43.170  21.260  26.121  1.00  0.00     0.022 A 
BRANCH  72  76
ATOM     76  S   UNL A   1      45.212  21.749  24.314  1.00  0.00     0.124 S 
ATOM     77  O   UNL A   1      46.383  21.397  25.108  1.00  0.00    -0.237 OA
ATOM     78  O   UNL A   1      44.524  20.649  23.647  1.00  0.00    -0.237 OA
ATOM     79  O   UNL A   1      45.358  22.958  23.502  1.00  0.00    -0.744 OA
ENDBRANCH  72  76
ENDBRANCH  45  69
BRANCH  57  80
ATOM     80  C   UNL A   1      45.788  29.266  29.297  1.00  0.00     0.023 A 
ATOM     81  C   UNL A   1      44.981  30.094  28.486  1.00  0.00     0.031 A 
ATOM     82  C   UNL A   1      47.184  29.363  29.138  1.00  0.00     0.131 A 
ATOM     83  C   UNL A   1      45.579  30.964  27.551  1.00  0.00     0.055 A 
ATOM     84  C   UNL A   1      47.772  30.241  28.230  1.00  0.00     0.041 A 
ATOM     85  F   UNL A   1      48.009  28.621  29.895  1.00  0.00    -0.206 F 
ATOM     86  C   UNL A   1      46.969  31.041  27.426  1.00  0.00     0.022 A 
BRANCH  83  87
ATOM     87  S   UNL A   1      44.558  32.001  26.453  1.00  0.00     0.124 S 
ATOM     88  O   UNL A   1      45.457  32.330  25.353  1.00  0.00    -0.237 OA
ATOM     89  O   UNL A   1      43.447  31.112  26.125  1.00  0.00    -0.237 OA
ATOM     90  O   UNL A   1      44.195  33.136  27.303  1.00  0.00    -0.744 OA
ENDBRANCH  83  87
ENDBRANCH  57  80
ENDBRANCH  31  32
ENDBRANCH  23  26
ENDBRANCH  21  22
ENDBRANCH   1  21
TORSDOF 15
ENDMDL
MODEL 3
REMARK VINA RESULT:     -12.1      4.563     10.545
REMARK SMILES Cn1c(Cl)cnc1C[N@@H+]1CCC[C@@H]1C(=O)NCCCNC(=O)c1ccc(-c2c3nc(c(-c4cc(S(=O)(=O)[O-])ccc4F)c4ccc([nH]4)c(-c4cc(S(=O)(=O)[O-])ccc4F)c4nc(c(-c5cc(S(=O)(=O)[O-])ccc5F)c5ccc2[nH]5)C=C4)C=C3)cc1
REMARK SMILES IDX 18 1 17 2 16 3 14 4 15 5 13 7 9 8 10 9 11 11 12 12 8 13 7 14
REMARK SMILES IDX 1 15 2 16 3 17 4 18 5 19 6 20 19 21 20 22 21 23 22 25 23 26
REMARK SMILES IDX 24 27 85 28 25 29 84 30 26 31 27 32 28 33 78 34 29 35 83 36
REMARK SMILES IDX 77 37 79 38 30 39 82 40 76 41 75 42 31 44 63 45 43 46 62 47
REMARK SMILES IDX 44 48 47 49 61 50 80 51 45 52 46 53 60 55 81 56 48 57 32 58
REMARK SMILES IDX 33 59 41 60 34 61 40 62 42 63 39 64 35 65 36 66 37 67 38 68
REMARK SMILES IDX 64 69 65 70 73 71 66 72 72 73 74 74 71 75 67 76 68 77 69 78
REMARK SMILES IDX 70 79 49 80 50 81 58 82 51 83 57 84 59 85 56 86 52 87 53 88
REMARK SMILES IDX 54 89 55 90
REMARK H PARENT 16 6 9 10 20 24 79 43 47 54
REMARK Flexibility Score: inf
ROOT
ATOM      1  C   UNL A   1      38.755  22.255  26.125  1.00  0.00     0.042 C 
ENDROOT
BRANCH   1   2
ATOM      2  C   UNL A   1      37.381  22.195  25.472  1.00  0.00     0.118 C 
BRANCH   2   3
ATOM      3  N   UNL A   1      36.251  22.314  26.365  1.00  0.00    -0.351 N 
ATOM      4  C   UNL A   1      35.042  21.686  26.254  1.00  0.00     0.278 C 
ATOM      5  O   UNL A   1      34.422  21.489  27.305  1.00  0.00    -0.268 OA
ATOM      6  H   UNL A   1      36.364  22.912  27.138  1.00  0.00     0.163 HD
BRANCH   4   7
ATOM      7  C   UNL A   1      34.437  21.252  24.908  1.00  0.00     0.274 C 
ATOM      8  N   UNL A   1      33.592  22.207  24.165  1.00  0.00    -0.318 N 
ATOM      9  C   UNL A   1      32.690  21.420  23.330  1.00  0.00     0.263 C 
ATOM     10  H   UNL A   1      34.239  22.768  23.611  1.00  0.00     0.349 HD
ATOM     11  C   UNL A   1      32.436  20.146  24.126  1.00  0.00     0.068 C 
ATOM     12  C   UNL A   1      33.753  19.888  24.843  1.00  0.00     0.081 C 
BRANCH   8  13
ATOM     13  C   UNL A   1      33.066  23.427  24.775  1.00  0.00     0.339 C 
BRANCH  13  14
ATOM     14  C   UNL A   1      33.247  24.737  24.034  1.00  0.00     0.165 A 
ATOM     15  C   UNL A   1      33.165  26.304  26.041  1.00  0.00     0.152 C 
ATOM     16  N   UNL A   1      33.357  25.982  24.644  1.00  0.00    -0.317 N 
ATOM     17  C   UNL A   1      33.568  26.890  23.642  1.00  0.00     0.128 A 
ATOM     18  Cl  UNL A   1      33.818  28.537  23.937  1.00  0.00    -0.063 Cl
ATOM     19  C   UNL A   1      33.532  26.203  22.466  1.00  0.00     0.152 A 
ATOM     20  N   UNL A   1      33.356  24.875  22.720  1.00  0.00    -0.234 NA
ENDBRANCH  13  14
ENDBRANCH   8  13
ENDBRANCH   4   7
ENDBRANCH   2   3
ENDBRANCH   1   2
BRANCH   1  21
ATOM     21  C   UNL A   1      39.132  23.676  26.544  1.00  0.00     0.118 C 
BRANCH  21  22
ATOM     22  N   UNL A   1      40.496  24.074  26.165  1.00  0.00    -0.352 N 
ATOM     23  C   UNL A   1      41.080  25.328  26.303  1.00  0.00     0.251 C 
ATOM     24  H   UNL A   1      41.060  23.371  25.769  1.00  0.00     0.163 HD
ATOM     25  O   UNL A   1      42.158  25.601  25.811  1.00  0.00    -0.269 OA
BRANCH  23  26
ATOM     26  C   UNL A   1      40.311  26.360  27.013  1.00  0.00     0.039 A 
ATOM     27  C   UNL A   1      39.723  26.034  28.235  1.00  0.00     0.014 A 
ATOM     28  C   UNL A   1      40.421  27.676  26.577  1.00  0.00     0.014 A 
ATOM     29  C   UNL A   1      39.426  27.063  29.115  1.00  0.00     0.010 A 
ATOM     30  C   UNL A   1      40.245  28.683  27.499  1.00  0.00     0.010 A 
ATOM     31  C   UNL A   1      39.779  28.382  28.781  1.00  0.00    -0.014 A 
BRANCH  31  32
ATOM     32  C   UNL A   1      39.900  29.373  29.853  1.00  0.00     0.031 A 
ATOM     33  C   UNL A   1      38.651  30.135  30.152  1.00  0.00     0.074 A 
ATOM     34  C   UNL A   1      40.942  29.470  30.703  1.00  0.00     0.049 A 
ATOM     35  N   UNL A   1      38.407  31.375  29.879  1.00  0.00    -0.248 NA
ATOM     36  C   UNL A   1      37.481  29.409  30.667  1.00  0.00     0.031 C 
ATOM     37  C   UNL A   1      42.126  28.612  30.785  1.00  0.00     0.029 A 
ATOM     38  N   UNL A   1      41.098  30.308  31.765  1.00  0.00    -0.354 N 
ATOM     39  C   UNL A   1      37.153  31.657  30.416  1.00  0.00     0.074 A 
ATOM     40  C   UNL A   1      36.558  30.375  30.685  1.00  0.00     0.031 C 
ATOM     41  C   UNL A   1      42.749  28.817  31.965  1.00  0.00     0.029 A 
ATOM     42  C   UNL A   1      42.121  29.944  32.631  1.00  0.00     0.049 A 
ATOM     43  H   UNL A   1      40.535  31.103  31.906  1.00  0.00     0.167 HD
ATOM     44  C   UNL A   1      36.826  32.924  30.805  1.00  0.00     0.034 A 
ATOM     45  C   UNL A   1      42.444  30.518  33.815  1.00  0.00     0.034 A 
ATOM     46  C   UNL A   1      37.789  33.878  30.288  1.00  0.00     0.049 A 
ATOM     47  C   UNL A   1      41.937  31.910  33.771  1.00  0.00     0.074 A 
ATOM     48  C   UNL A   1      38.251  34.203  29.025  1.00  0.00     0.029 A 
ATOM     49  N   UNL A   1      38.728  34.386  31.161  1.00  0.00    -0.354 N 
ATOM     50  N   UNL A   1      42.387  32.805  32.934  1.00  0.00    -0.248 NA
ATOM     51  C   UNL A   1      40.620  32.194  34.321  1.00  0.00     0.031 C 
ATOM     52  C   UNL A   1      39.654  34.403  29.192  1.00  0.00     0.029 A 
ATOM     53  C   UNL A   1      39.953  34.291  30.552  1.00  0.00     0.049 A 
ATOM     54  H   UNL A   1      38.551  34.752  32.059  1.00  0.00     0.167 HD
ATOM     55  C   UNL A   1      41.265  33.499  32.511  1.00  0.00     0.074 A 
ATOM     56  C   UNL A   1      40.231  33.166  33.490  1.00  0.00     0.031 C 
ATOM     57  C   UNL A   1      41.198  34.046  31.260  1.00  0.00     0.034 A 
BRANCH  44  58
ATOM     58  C   UNL A   1      35.898  33.292  31.954  1.00  0.00     0.023 A 
ATOM     59  C   UNL A   1      34.870  34.214  31.666  1.00  0.00     0.031 A 
ATOM     60  C   UNL A   1      36.123  33.052  33.327  1.00  0.00     0.131 A 
ATOM     61  C   UNL A   1      34.257  34.965  32.682  1.00  0.00     0.055 A 
ATOM     62  C   UNL A   1      35.456  33.750  34.341  1.00  0.00     0.041 A 
ATOM     63  F   UNL A   1      37.043  32.194  33.775  1.00  0.00    -0.206 F 
ATOM     64  C   UNL A   1      34.550  34.747  34.022  1.00  0.00     0.022 A 
BRANCH  61  65
ATOM     65  S   UNL A   1      33.234  36.379  32.195  1.00  0.00     0.124 S 
ATOM     66  O   UNL A   1      33.836  37.449  32.982  1.00  0.00    -0.237 OA
ATOM     67  O   UNL A   1      33.459  36.429  30.755  1.00  0.00    -0.237 OA
ATOM     68  O   UNL A   1      31.890  35.980  32.604  1.00  0.00    -0.744 OA
ENDBRANCH  61  65
ENDBRANCH  44  58
BRANCH  45  69
ATOM     69  C   UNL A   1      42.961  29.842  35.031  1.00  0.00     0.023 A 
ATOM     70  C   UNL A   1      42.358  28.692  35.571  1.00  0.00     0.031 A 
ATOM     71  C   UNL A   1      44.224  30.206  35.553  1.00  0.00     0.131 A 
ATOM     72  C   UNL A   1      43.015  27.955  36.584  1.00  0.00     0.055 A 
ATOM     73  C   UNL A   1      44.864  29.482  36.561  1.00  0.00     0.041 A 
ATOM     74  F   UNL A   1      44.919  31.235  35.041  1.00  0.00    -0.206 F 
ATOM     75  C   UNL A   1      44.265  28.342  37.074  1.00  0.00     0.022 A 
BRANCH  72  76
ATOM     76  S   UNL A   1      42.292  26.402  37.201  1.00  0.00     0.124 S 
ATOM     77  O   UNL A   1      43.114  26.123  38.372  1.00  0.00    -0.237 OA
ATOM     78  O   UNL A   1      40.906  26.780  37.454  1.00  0.00    -0.237 OA
ATOM     79  O   UNL A   1      42.476  25.475  36.084  1.00  0.00    -0.744 OA
ENDBRANCH  72  76
ENDBRANCH  45  69
BRANCH  57  80
ATOM     80  C   UNL A   1      42.479  34.215  30.465  1.00  0.00     0.023 A 
ATOM     81  C   UNL A   1      42.879  33.408  29.377  1.00  0.00     0.031 A 
ATOM     82  C   UNL A   1      43.277  35.335  30.772  1.00  0.00     0.131 A 
ATOM     83  C   UNL A   1      44.045  33.728  28.652  1.00  0.00     0.055 A 
ATOM     84  C   UNL A   1      44.416  35.661  30.038  1.00  0.00     0.041 A 
ATOM     85  F   UNL A   1      42.940  36.157  31.778  1.00  0.00    -0.206 F 
ATOM     86  C   UNL A   1      44.809  34.854  28.978  1.00  0.00     0.022 A 
BRANCH  83  87
ATOM     87  S   UNL A   1      44.613  32.671  27.281  1.00  0.00     0.124 S 
ATOM     88  O   UNL A   1      46.059  32.862  27.272  1.00  0.00    -0.237 OA
ATOM     89  O   UNL A   1      44.146  31.349  27.689  1.00  0.00    -0.237 OA
ATOM     90  O   UNL A   1      43.918  33.226  26.117  1.00  0.00    -0.744 OA
ENDBRANCH  83  87
ENDBRANCH  57  80
ENDBRANCH  31  32
ENDBRANCH  23  26
ENDBRANCH  21  22
ENDBRANCH   1  21
TORSDOF 15
ENDMDL
