MODEL 1
REMARK VINA RESULT:     -12.6      0.000      0.000
REMARK SMILES Cc1cscc1C(=O)N1C[C@@H](C(=O)NCCCNC(=O)c2ccc(-c3c4nc(c(-c5cc(S(=O)(=O)[O-])ccc5F)c5ccc([nH]5)c(-c5cc(S(=O)(=O)[O-])ccc5F)c5nc(c(-c6cc(S(=O)(=O)[O-])ccc6F)c6ccc3[nH]6)C=C5)C=C4)cc2)Oc2ccccc21
REMARK SMILES IDX 16 1 15 2 14 3 12 4 13 5 11 7 9 8 10 9 90 10 85 11 89 12
REMARK SMILES IDX 84 13 86 14 88 15 87 16 7 17 8 18 6 19 1 20 2 21 3 22 4 23
REMARK SMILES IDX 5 24 17 25 18 26 19 27 20 29 21 30 22 31 83 32 23 33 82 34
REMARK SMILES IDX 24 35 25 36 26 37 76 38 27 39 81 40 75 41 77 42 28 43 80 44
REMARK SMILES IDX 74 45 73 46 29 48 61 49 41 50 60 51 42 52 45 53 59 54 78 55
REMARK SMILES IDX 43 56 44 57 58 59 79 60 46 61 30 62 31 63 39 64 32 65 38 66
REMARK SMILES IDX 40 67 37 68 33 69 34 70 35 71 36 72 62 73 63 74 71 75 64 76
REMARK SMILES IDX 70 77 72 78 69 79 65 80 66 81 67 82 68 83 47 84 48 85 56 86
REMARK SMILES IDX 49 87 55 88 57 89 54 90 50 91 51 92 52 93 53 94
REMARK H PARENT 14 6 18 28 77 47 45 58
REMARK Flexibility Score: inf
ROOT
ATOM      1  C   UNL A   1      36.364  22.040  24.286  1.00  0.00     0.042 C 
ENDROOT
BRANCH   1   2
ATOM      2  C   UNL A   1      35.710  23.412  24.204  1.00  0.00     0.118 C 
BRANCH   2   3
ATOM      3  N   UNL A   1      34.692  23.518  23.176  1.00  0.00    -0.353 N 
ATOM      4  C   UNL A   1      33.922  24.580  22.817  1.00  0.00     0.262 C 
ATOM      5  O   UNL A   1      33.236  24.448  21.794  1.00  0.00    -0.271 OA
ATOM      6  H   UNL A   1      34.534  22.695  22.659  1.00  0.00     0.163 HD
BRANCH   4   7
ATOM      7  C   UNL A   1      33.815  25.880  23.652  1.00  0.00     0.281 C 
ATOM      8  N   UNL A   1      32.154  25.174  25.346  1.00  0.00    -0.301 N 
ATOM      9  C   UNL A   1      33.564  25.519  25.122  1.00  0.00     0.181 C 
ATOM     10  C   UNL A   1      31.216  25.943  24.589  1.00  0.00     0.086 A 
ATOM     11  C   UNL A   1      31.686  26.865  23.641  1.00  0.00     0.144 A 
ATOM     12  C   UNL A   1      29.834  25.866  24.803  1.00  0.00     0.030 A 
ATOM     13  O   UNL A   1      33.002  26.977  23.267  1.00  0.00    -0.477 OA
ATOM     14  C   UNL A   1      30.806  27.715  22.965  1.00  0.00     0.049 A 
ATOM     15  C   UNL A   1      28.950  26.689  24.098  1.00  0.00     0.002 A 
ATOM     16  C   UNL A   1      29.436  27.621  23.187  1.00  0.00     0.004 A 
BRANCH   8  17
ATOM     17  C   UNL A   1      31.765  24.106  26.154  1.00  0.00     0.259 C 
ATOM     18  O   UNL A   1      31.045  24.245  27.142  1.00  0.00    -0.269 OA
BRANCH  17  19
ATOM     19  C   UNL A   1      32.264  22.763  25.813  1.00  0.00     0.053 A 
ATOM     20  C   UNL A   1      33.845  22.211  27.853  1.00  0.00     0.046 C 
ATOM     21  C   UNL A   1      33.169  21.901  26.556  1.00  0.00    -0.028 A 
ATOM     22  C   UNL A   1      33.306  20.670  25.935  1.00  0.00     0.069 A 
ATOM     23  S   UNL A   1      32.363  20.519  24.526  1.00  0.00    -0.151 S 
ATOM     24  C   UNL A   1      31.747  22.094  24.714  1.00  0.00     0.079 A 
ENDBRANCH  17  19
ENDBRANCH   8  17
ENDBRANCH   4   7
ENDBRANCH   2   3
ENDBRANCH   1   2
BRANCH   1  25
ATOM     25  C   UNL A   1      36.779  21.595  25.683  1.00  0.00     0.118 C 
BRANCH  25  26
ATOM     26  N   UNL A   1      37.846  20.609  25.692  1.00  0.00    -0.352 N 
ATOM     27  C   UNL A   1      39.177  20.736  26.027  1.00  0.00     0.251 C 
ATOM     28  H   UNL A   1      37.576  19.704  25.414  1.00  0.00     0.163 HD
ATOM     29  O   UNL A   1      39.935  19.785  25.850  1.00  0.00    -0.269 OA
BRANCH  27  30
ATOM     30  C   UNL A   1      39.711  22.016  26.553  1.00  0.00     0.039 A 
ATOM     31  C   UNL A   1      40.734  21.977  27.506  1.00  0.00     0.014 A 
ATOM     32  C   UNL A   1      39.218  23.249  26.122  1.00  0.00     0.014 A 
ATOM     33  C   UNL A   1      41.326  23.166  27.947  1.00  0.00     0.010 A 
ATOM     34  C   UNL A   1      39.867  24.425  26.491  1.00  0.00     0.010 A 
ATOM     35  C   UNL A   1      40.933  24.399  27.404  1.00  0.00    -0.014 A 
BRANCH  35  36
ATOM     36  C   UNL A   1      41.608  25.674  27.773  1.00  0.00     0.031 A 
ATOM     37  C   UNL A   1      40.858  26.722  28.552  1.00  0.00     0.074 A 
ATOM     38  C   UNL A   1      42.853  25.933  27.326  1.00  0.00     0.049 A 
ATOM     39  N   UNL A   1      41.190  27.961  28.813  1.00  0.00    -0.248 NA
ATOM     40  C   UNL A   1      39.537  26.333  29.066  1.00  0.00     0.031 C 
ATOM     41  C   UNL A   1      43.673  25.026  26.520  1.00  0.00     0.029 A 
ATOM     42  N   UNL A   1      43.641  27.049  27.470  1.00  0.00    -0.354 N 
ATOM     43  C   UNL A   1      40.100  28.514  29.477  1.00  0.00     0.074 A 
ATOM     44  C   UNL A   1      39.085  27.482  29.544  1.00  0.00     0.031 C 
ATOM     45  C   UNL A   1      44.851  25.614  26.256  1.00  0.00     0.029 A 
ATOM     46  C   UNL A   1      44.855  26.954  26.833  1.00  0.00     0.049 A 
ATOM     47  H   UNL A   1      43.361  27.843  27.980  1.00  0.00     0.167 HD
ATOM     48  C   UNL A   1      39.960  29.762  29.992  1.00  0.00     0.034 A 
ATOM     49  C   UNL A   1      45.854  27.850  26.713  1.00  0.00     0.034 A 
ATOM     50  C   UNL A   1      40.996  30.765  29.965  1.00  0.00     0.049 A 
ATOM     51  C   UNL A   1      45.706  29.206  27.349  1.00  0.00     0.074 A 
ATOM     52  C   UNL A   1      40.982  32.039  30.508  1.00  0.00     0.029 A 
ATOM     53  N   UNL A   1      42.241  30.602  29.372  1.00  0.00    -0.354 N 
ATOM     54  N   UNL A   1      44.672  29.709  27.981  1.00  0.00    -0.248 NA
ATOM     55  C   UNL A   1      46.860  30.110  27.260  1.00  0.00     0.031 C 
ATOM     56  C   UNL A   1      42.206  32.656  30.217  1.00  0.00     0.029 A 
ATOM     57  C   UNL A   1      43.000  31.750  29.531  1.00  0.00     0.049 A 
ATOM     58  H   UNL A   1      42.541  29.788  28.906  1.00  0.00     0.167 HD
ATOM     59  C   UNL A   1      45.060  30.982  28.383  1.00  0.00     0.074 A 
ATOM     60  C   UNL A   1      46.425  31.166  27.930  1.00  0.00     0.031 C 
ATOM     61  C   UNL A   1      44.355  31.915  29.070  1.00  0.00     0.034 A 
BRANCH  48  62
ATOM     62  C   UNL A   1      38.624  30.108  30.600  1.00  0.00     0.023 A 
ATOM     63  C   UNL A   1      37.628  30.772  29.863  1.00  0.00     0.031 A 
ATOM     64  C   UNL A   1      38.363  29.820  31.951  1.00  0.00     0.131 A 
ATOM     65  C   UNL A   1      36.457  31.204  30.502  1.00  0.00     0.055 A 
ATOM     66  C   UNL A   1      37.159  30.180  32.561  1.00  0.00     0.041 A 
ATOM     67  F   UNL A   1      39.283  29.203  32.708  1.00  0.00    -0.206 F 
ATOM     68  C   UNL A   1      36.205  30.893  31.840  1.00  0.00     0.022 A 
BRANCH  65  69
ATOM     69  S   UNL A   1      35.336  32.306  29.598  1.00  0.00     0.124 S 
ATOM     70  O   UNL A   1      34.358  32.641  30.631  1.00  0.00    -0.237 OA
ATOM     71  O   UNL A   1      36.222  33.388  29.183  1.00  0.00    -0.237 OA
ATOM     72  O   UNL A   1      34.828  31.466  28.516  1.00  0.00    -0.744 OA
ENDBRANCH  65  69
ENDBRANCH  48  62
BRANCH  49  73
ATOM     73  C   UNL A   1      47.084  27.506  25.949  1.00  0.00     0.023 A 
ATOM     74  C   UNL A   1      47.183  27.792  24.579  1.00  0.00     0.031 A 
ATOM     75  C   UNL A   1      48.165  26.861  26.573  1.00  0.00     0.131 A 
ATOM     76  C   UNL A   1      48.325  27.401  23.865  1.00  0.00     0.055 A 
ATOM     77  C   UNL A   1      49.314  26.504  25.867  1.00  0.00     0.041 A 
ATOM     78  F   UNL A   1      48.120  26.579  27.886  1.00  0.00    -0.206 F 
ATOM     79  C   UNL A   1      49.395  26.764  24.502  1.00  0.00     0.022 A 
BRANCH  76  80
ATOM     80  S   UNL A   1      48.370  27.683  22.075  1.00  0.00     0.124 S 
ATOM     81  O   UNL A   1      47.056  28.267  21.831  1.00  0.00    -0.237 OA
ATOM     82  O   UNL A   1      49.508  28.586  21.941  1.00  0.00    -0.237 OA
ATOM     83  O   UNL A   1      48.570  26.345  21.524  1.00  0.00    -0.744 OA
ENDBRANCH  76  80
ENDBRANCH  49  73
BRANCH  61  84
ATOM     84  C   UNL A   1      45.074  33.193  29.408  1.00  0.00     0.023 A 
ATOM     85  C   UNL A   1      45.043  34.305  28.550  1.00  0.00     0.031 A 
ATOM     86  C   UNL A   1      45.814  33.287  30.600  1.00  0.00     0.131 A 
ATOM     87  C   UNL A   1      45.776  35.455  28.877  1.00  0.00     0.055 A 
ATOM     88  C   UNL A   1      46.509  34.448  30.938  1.00  0.00     0.041 A 
ATOM     89  F   UNL A   1      45.872  32.249  31.449  1.00  0.00    -0.206 F 
ATOM     90  C   UNL A   1      46.500  35.537  30.070  1.00  0.00     0.022 A 
BRANCH  87  91
ATOM     91  S   UNL A   1      45.823  36.827  27.691  1.00  0.00     0.124 S 
ATOM     92  O   UNL A   1      45.961  36.125  26.419  1.00  0.00    -0.237 OA
ATOM     93  O   UNL A   1      44.539  37.483  27.920  1.00  0.00    -0.237 OA
ATOM     94  O   UNL A   1      46.994  37.598  28.104  1.00  0.00    -0.744 OA
ENDBRANCH  87  91
ENDBRANCH  61  84
ENDBRANCH  35  36
ENDBRANCH  27  30
ENDBRANCH  25  26
ENDBRANCH   1  25
TORSDOF 15
ENDMDL
MODEL 2
REMARK VINA RESULT:     -12.6      0.579      7.419
REMARK SMILES Cc1cscc1C(=O)N1C[C@@H](C(=O)NCCCNC(=O)c2ccc(-c3c4nc(c(-c5cc(S(=O)(=O)[O-])ccc5F)c5ccc([nH]5)c(-c5cc(S(=O)(=O)[O-])ccc5F)c5nc(c(-c6cc(S(=O)(=O)[O-])ccc6F)c6ccc3[nH]6)C=C5)C=C4)cc2)Oc2ccccc21
REMARK SMILES IDX 16 1 15 2 14 3 12 4 13 5 11 7 9 8 10 9 90 10 85 11 89 12
REMARK SMILES IDX 84 13 86 14 88 15 87 16 7 17 8 18 6 19 1 20 2 21 3 22 4 23
REMARK SMILES IDX 5 24 17 25 18 26 19 27 20 29 21 30 22 31 83 32 23 33 82 34
REMARK SMILES IDX 24 35 25 36 26 37 76 38 27 39 81 40 75 41 77 42 28 43 80 44
REMARK SMILES IDX 74 45 73 46 29 48 61 49 41 50 60 51 42 52 45 53 59 54 78 55
REMARK SMILES IDX 43 56 44 57 58 59 79 60 46 61 30 62 31 63 39 64 32 65 38 66
REMARK SMILES IDX 40 67 37 68 33 69 34 70 35 71 36 72 62 73 63 74 71 75 64 76
REMARK SMILES IDX 70 77 72 78 69 79 65 80 66 81 67 82 68 83 47 84 48 85 56 86
REMARK SMILES IDX 49 87 55 88 57 89 54 90 50 91 51 92 52 93 53 94
REMARK H PARENT 14 6 18 28 77 47 45 58
REMARK Flexibility Score: inf
ROOT
ATOM      1  C   UNL A   1      36.452  22.097  24.331  1.00  0.00     0.042 C 
ENDROOT
BRANCH   1   2
ATOM      2  C   UNL A   1      35.813  23.474  24.218  1.00  0.00     0.118 C 
BRANCH   2   3
ATOM      3  N   UNL A   1      34.781  23.562  23.203  1.00  0.00    -0.353 N 
ATOM      4  C   UNL A   1      33.981  24.608  22.860  1.00  0.00     0.262 C 
ATOM      5  O   UNL A   1      33.287  24.467  21.845  1.00  0.00    -0.271 OA
ATOM      6  H   UNL A   1      34.636  22.739  22.682  1.00  0.00     0.163 HD
BRANCH   4   7
ATOM      7  C   UNL A   1      33.854  25.900  23.706  1.00  0.00     0.281 C 
ATOM      8  N   UNL A   1      32.152  25.177  25.352  1.00  0.00    -0.301 N 
ATOM      9  C   UNL A   1      33.567  25.524  25.166  1.00  0.00     0.181 C 
ATOM     10  C   UNL A   1      31.232  25.953  24.580  1.00  0.00     0.086 A 
ATOM     11  C   UNL A   1      31.725  26.884  23.654  1.00  0.00     0.144 A 
ATOM     12  C   UNL A   1      29.846  25.873  24.760  1.00  0.00     0.030 A 
ATOM     13  O   UNL A   1      33.049  27.000  23.313  1.00  0.00    -0.477 OA
ATOM     14  C   UNL A   1      30.861  27.741  22.965  1.00  0.00     0.049 A 
ATOM     15  C   UNL A   1      28.979  26.703  24.043  1.00  0.00     0.002 A 
ATOM     16  C   UNL A   1      29.486  27.644  23.152  1.00  0.00     0.004 A 
BRANCH   8  17
ATOM     17  C   UNL A   1      31.745  24.100  26.140  1.00  0.00     0.259 C 
ATOM     18  O   UNL A   1      30.996  24.228  27.107  1.00  0.00    -0.269 OA
BRANCH  17  19
ATOM     19  C   UNL A   1      32.259  22.762  25.803  1.00  0.00     0.053 A 
ATOM     20  C   UNL A   1      33.812  22.216  27.866  1.00  0.00     0.046 C 
ATOM     21  C   UNL A   1      33.158  21.904  26.558  1.00  0.00    -0.028 A 
ATOM     22  C   UNL A   1      33.315  20.677  25.936  1.00  0.00     0.069 A 
ATOM     23  S   UNL A   1      32.396  20.522  24.511  1.00  0.00    -0.151 S 
ATOM     24  C   UNL A   1      31.765  22.093  24.694  1.00  0.00     0.079 A 
ENDBRANCH  17  19
ENDBRANCH   8  17
ENDBRANCH   4   7
ENDBRANCH   2   3
ENDBRANCH   1   2
BRANCH   1  25
ATOM     25  C   UNL A   1      36.784  21.643  25.747  1.00  0.00     0.118 C 
BRANCH  25  26
ATOM     26  N   UNL A   1      37.937  20.761  25.826  1.00  0.00    -0.352 N 
ATOM     27  C   UNL A   1      39.250  21.034  26.139  1.00  0.00     0.251 C 
ATOM     28  H   UNL A   1      37.750  19.816  25.623  1.00  0.00     0.163 HD
ATOM     29  O   UNL A   1      40.091  20.145  26.031  1.00  0.00    -0.269 OA
BRANCH  27  30
ATOM     30  C   UNL A   1      39.666  22.396  26.557  1.00  0.00     0.039 A 
ATOM     31  C   UNL A   1      40.679  22.525  27.513  1.00  0.00     0.014 A 
ATOM     32  C   UNL A   1      39.073  23.540  26.022  1.00  0.00     0.014 A 
ATOM     33  C   UNL A   1      41.161  23.794  27.855  1.00  0.00     0.010 A 
ATOM     34  C   UNL A   1      39.613  24.796  26.294  1.00  0.00     0.010 A 
ATOM     35  C   UNL A   1      40.668  24.939  27.209  1.00  0.00    -0.014 A 
BRANCH  35  36
ATOM     36  C   UNL A   1      41.226  26.293  27.472  1.00  0.00     0.031 A 
ATOM     37  C   UNL A   1      42.603  26.648  26.976  1.00  0.00     0.074 A 
ATOM     38  C   UNL A   1      40.543  27.169  28.237  1.00  0.00     0.049 A 
ATOM     39  N   UNL A   1      43.344  27.691  27.252  1.00  0.00    -0.248 NA
ATOM     40  C   UNL A   1      43.249  25.670  26.088  1.00  0.00     0.031 C 
ATOM     41  C   UNL A   1      39.221  26.935  28.822  1.00  0.00     0.029 A 
ATOM     42  N   UNL A   1      40.878  28.428  28.672  1.00  0.00    -0.354 N 
ATOM     43  C   UNL A   1      44.560  27.473  26.612  1.00  0.00     0.074 A 
ATOM     44  C   UNL A   1      44.465  26.179  25.967  1.00  0.00     0.031 C 
ATOM     45  C   UNL A   1      38.852  28.019  29.524  1.00  0.00     0.029 A 
ATOM     46  C   UNL A   1      39.926  29.006  29.478  1.00  0.00     0.049 A 
ATOM     47  H   UNL A   1      41.722  28.873  28.431  1.00  0.00     0.167 HD
ATOM     48  C   UNL A   1      45.650  28.279  26.559  1.00  0.00     0.034 A 
ATOM     49  C   UNL A   1      39.922  30.190  30.120  1.00  0.00     0.034 A 
ATOM     50  C   UNL A   1      45.715  29.587  27.162  1.00  0.00     0.049 A 
ATOM     51  C   UNL A   1      41.116  31.098  29.993  1.00  0.00     0.074 A 
ATOM     52  C   UNL A   1      46.747  30.510  27.119  1.00  0.00     0.029 A 
ATOM     53  N   UNL A   1      44.699  30.166  27.910  1.00  0.00    -0.354 N 
ATOM     54  N   UNL A   1      42.253  30.880  29.376  1.00  0.00    -0.248 NA
ATOM     55  C   UNL A   1      41.021  32.412  30.642  1.00  0.00     0.031 C 
ATOM     56  C   UNL A   1      46.366  31.632  27.866  1.00  0.00     0.029 A 
ATOM     57  C   UNL A   1      45.079  31.428  28.336  1.00  0.00     0.049 A 
ATOM     58  H   UNL A   1      43.833  29.741  28.107  1.00  0.00     0.167 HD
ATOM     59  C   UNL A   1      43.002  32.039  29.548  1.00  0.00     0.074 A 
ATOM     60  C   UNL A   1      42.184  32.956  30.317  1.00  0.00     0.031 C 
ATOM     61  C   UNL A   1      44.252  32.324  29.105  1.00  0.00     0.034 A 
BRANCH  48  62
ATOM     62  C   UNL A   1      46.866  27.743  25.844  1.00  0.00     0.023 A 
ATOM     63  C   UNL A   1      47.141  28.075  24.506  1.00  0.00     0.031 A 
ATOM     64  C   UNL A   1      47.731  26.843  26.492  1.00  0.00     0.131 A 
ATOM     65  C   UNL A   1      48.198  27.445  23.833  1.00  0.00     0.055 A 
ATOM     66  C   UNL A   1      48.831  26.282  25.839  1.00  0.00     0.041 A 
ATOM     67  F   UNL A   1      47.508  26.476  27.763  1.00  0.00    -0.206 F 
ATOM     68  C   UNL A   1      49.059  26.568  24.496  1.00  0.00     0.022 A 
BRANCH  65  69
ATOM     69  S   UNL A   1      48.339  27.676  22.040  1.00  0.00     0.124 S 
ATOM     70  O   UNL A   1      47.028  28.234  21.713  1.00  0.00    -0.237 OA
ATOM     71  O   UNL A   1      49.468  28.592  21.927  1.00  0.00    -0.237 OA
ATOM     72  O   UNL A   1      48.578  26.325  21.538  1.00  0.00    -0.744 OA
ENDBRANCH  65  69
ENDBRANCH  48  62
BRANCH  49  73
ATOM     73  C   UNL A   1      38.757  30.588  30.955  1.00  0.00     0.023 A 
ATOM     74  C   UNL A   1      37.663  31.261  30.389  1.00  0.00     0.031 A 
ATOM     75  C   UNL A   1      38.734  30.326  32.335  1.00  0.00     0.131 A 
ATOM     76  C   UNL A   1      36.605  31.684  31.207  1.00  0.00     0.055 A 
ATOM     77  C   UNL A   1      37.664  30.718  33.140  1.00  0.00     0.041 A 
ATOM     78  F   UNL A   1      39.753  29.673  32.918  1.00  0.00    -0.206 F 
ATOM     79  C   UNL A   1      36.595  31.411  32.578  1.00  0.00     0.022 A 
BRANCH  76  80
ATOM     80  S   UNL A   1      35.265  32.651  30.462  1.00  0.00     0.124 S 
ATOM     81  O   UNL A   1      34.336  32.785  31.578  1.00  0.00    -0.237 OA
ATOM     82  O   UNL A   1      35.961  33.867  30.056  1.00  0.00    -0.237 OA
ATOM     83  O   UNL A   1      34.804  31.804  29.364  1.00  0.00    -0.744 OA
ENDBRANCH  76  80
ENDBRANCH  49  73
BRANCH  61  84
ATOM     84  C   UNL A   1      44.779  33.701  29.406  1.00  0.00     0.023 A 
ATOM     85  C   UNL A   1      44.605  34.768  28.508  1.00  0.00     0.031 A 
ATOM     86  C   UNL A   1      45.480  33.938  30.600  1.00  0.00     0.131 A 
ATOM     87  C   UNL A   1      45.164  36.020  28.802  1.00  0.00     0.055 A 
ATOM     88  C   UNL A   1      46.000  35.196  30.905  1.00  0.00     0.041 A 
ATOM     89  F   UNL A   1      45.671  32.948  31.487  1.00  0.00    -0.206 F 
ATOM     90  C   UNL A   1      45.852  36.243  29.999  1.00  0.00     0.022 A 
BRANCH  87  91
ATOM     91  S   UNL A   1      45.036  37.344  27.569  1.00  0.00     0.124 S 
ATOM     92  O   UNL A   1      43.683  37.152  27.055  1.00  0.00    -0.237 OA
ATOM     93  O   UNL A   1      45.247  38.543  28.374  1.00  0.00    -0.237 OA
ATOM     94  O   UNL A   1      46.107  37.038  26.623  1.00  0.00    -0.744 OA
ENDBRANCH  87  91
ENDBRANCH  61  84
ENDBRANCH  35  36
ENDBRANCH  27  30
ENDBRANCH  25  26
ENDBRANCH   1  25
TORSDOF 15
ENDMDL
MODEL 3
REMARK VINA RESULT:     -12.3      5.095      9.815
REMARK SMILES Cc1cscc1C(=O)N1C[C@@H](C(=O)NCCCNC(=O)c2ccc(-c3c4nc(c(-c5cc(S(=O)(=O)[O-])ccc5F)c5ccc([nH]5)c(-c5cc(S(=O)(=O)[O-])ccc5F)c5nc(c(-c6cc(S(=O)(=O)[O-])ccc6F)c6ccc3[nH]6)C=C5)C=C4)cc2)Oc2ccccc21
REMARK SMILES IDX 16 1 15 2 14 3 12 4 13 5 11 7 9 8 10 9 90 10 85 11 89 12
REMARK SMILES IDX 84 13 86 14 88 15 87 16 7 17 8 18 6 19 1 20 2 21 3 22 4 23
REMARK SMILES IDX 5 24 17 25 18 26 19 27 20 29 21 30 22 31 83 32 23 33 82 34
REMARK SMILES IDX 24 35 25 36 26 37 76 38 27 39 81 40 75 41 77 42 28 43 80 44
REMARK SMILES IDX 74 45 73 46 29 48 61 49 41 50 60 51 42 52 45 53 59 54 78 55
REMARK SMILES IDX 43 56 44 57 58 59 79 60 46 61 30 62 31 63 39 64 32 65 38 66
REMARK SMILES IDX 40 67 37 68 33 69 34 70 35 71 36 72 62 73 63 74 71 75 64 76
REMARK SMILES IDX 70 77 72 78 69 79 65 80 66 81 67 82 68 83 47 84 48 85 56 86
REMARK SMILES IDX 49 87 55 88 57 89 54 90 50 91 51 92 52 93 53 94
REMARK H PARENT 14 6 18 28 77 47 45 58
REMARK Flexibility Score: inf
ROOT
ATOM      1  C   UNL A   1      31.794  28.075  27.064  1.00  0.00     0.042 C 
ENDROOT
BRANCH   1   2
ATOM      2  C   UNL A   1      30.657  27.370  26.338  1.00  0.00     0.118 C 
BRANCH   2   3
ATOM      3  N   UNL A   1      30.659  25.929  26.501  1.00  0.00    -0.353 N 
ATOM      4  C   UNL A   1      30.560  24.945  25.566  1.00  0.00     0.262 C 
ATOM      5  O   UNL A   1      30.748  23.786  25.958  1.00  0.00    -0.271 OA
ATOM      6  H   UNL A   1      30.744  25.614  27.430  1.00  0.00     0.163 HD
BRANCH   4   7
ATOM      7  C   UNL A   1      30.162  25.204  24.092  1.00  0.00     0.281 C 
ATOM      8  N   UNL A   1      32.315  24.731  22.968  1.00  0.00    -0.301 N 
ATOM      9  C   UNL A   1      30.944  24.251  23.180  1.00  0.00     0.181 C 
ATOM     10  C   UNL A   1      32.450  26.150  22.865  1.00  0.00     0.086 A 
ATOM     11  C   UNL A   1      31.327  26.965  23.070  1.00  0.00     0.144 A 
ATOM     12  C   UNL A   1      33.652  26.766  22.495  1.00  0.00     0.030 A 
ATOM     13  O   UNL A   1      30.117  26.504  23.525  1.00  0.00    -0.477 OA
ATOM     14  C   UNL A   1      31.392  28.347  22.866  1.00  0.00     0.049 A 
ATOM     15  C   UNL A   1      33.728  28.153  22.328  1.00  0.00     0.002 A 
ATOM     16  C   UNL A   1      32.596  28.942  22.503  1.00  0.00     0.004 A 
BRANCH   8  17
ATOM     17  C   UNL A   1      33.417  23.874  22.976  1.00  0.00     0.259 C 
ATOM     18  O   UNL A   1      34.048  23.591  21.959  1.00  0.00    -0.269 OA
BRANCH  17  19
ATOM     19  C   UNL A   1      33.815  23.270  24.259  1.00  0.00     0.053 A 
ATOM     20  C   UNL A   1      34.352  25.388  25.739  1.00  0.00     0.046 C 
ATOM     21  C   UNL A   1      34.214  23.919  25.497  1.00  0.00    -0.028 A 
ATOM     22  C   UNL A   1      34.412  22.990  26.505  1.00  0.00     0.069 A 
ATOM     23  S   UNL A   1      34.101  21.389  26.015  1.00  0.00    -0.151 S 
ATOM     24  C   UNL A   1      33.692  21.901  24.444  1.00  0.00     0.079 A 
ENDBRANCH  17  19
ENDBRANCH   8  17
ENDBRANCH   4   7
ENDBRANCH   2   3
ENDBRANCH   1   2
BRANCH   1  25
ATOM     25  C   UNL A   1      32.642  29.005  26.206  1.00  0.00     0.118 C 
BRANCH  25  26
ATOM     26  N   UNL A   1      32.362  30.416  26.417  1.00  0.00    -0.352 N 
ATOM     27  C   UNL A   1      33.076  31.376  27.101  1.00  0.00     0.251 C 
ATOM     28  H   UNL A   1      31.529  30.739  26.004  1.00  0.00     0.163 HD
ATOM     29  O   UNL A   1      32.589  32.494  27.251  1.00  0.00    -0.269 OA
BRANCH  27  30
ATOM     30  C   UNL A   1      34.397  31.061  27.697  1.00  0.00     0.039 A 
ATOM     31  C   UNL A   1      35.288  32.111  27.949  1.00  0.00     0.014 A 
ATOM     32  C   UNL A   1      34.770  29.753  28.008  1.00  0.00     0.014 A 
ATOM     33  C   UNL A   1      36.501  31.858  28.600  1.00  0.00     0.010 A 
ATOM     34  C   UNL A   1      35.933  29.514  28.736  1.00  0.00     0.010 A 
ATOM     35  C   UNL A   1      36.811  30.564  29.047  1.00  0.00    -0.014 A 
BRANCH  35  36
ATOM     36  C   UNL A   1      38.043  30.276  29.832  1.00  0.00     0.031 A 
ATOM     37  C   UNL A   1      39.079  29.331  29.283  1.00  0.00     0.074 A 
ATOM     38  C   UNL A   1      38.187  30.780  31.074  1.00  0.00     0.049 A 
ATOM     39  N   UNL A   1      40.121  28.803  29.874  1.00  0.00    -0.248 NA
ATOM     40  C   UNL A   1      38.886  28.885  27.895  1.00  0.00     0.031 C 
ATOM     41  C   UNL A   1      37.236  31.669  31.746  1.00  0.00     0.029 A 
ATOM     42  N   UNL A   1      39.182  30.599  32.003  1.00  0.00    -0.354 N 
ATOM     43  C   UNL A   1      40.679  27.927  28.949  1.00  0.00     0.074 A 
ATOM     44  C   UNL A   1      39.835  27.970  27.772  1.00  0.00     0.031 C 
ATOM     45  C   UNL A   1      37.701  31.967  32.970  1.00  0.00     0.029 A 
ATOM     46  C   UNL A   1      38.957  31.259  33.189  1.00  0.00     0.049 A 
ATOM     47  H   UNL A   1      39.980  30.048  31.836  1.00  0.00     0.167 HD
ATOM     48  C   UNL A   1      41.796  27.165  29.065  1.00  0.00     0.034 A 
ATOM     49  C   UNL A   1      39.674  31.279  34.330  1.00  0.00     0.034 A 
ATOM     50  C   UNL A   1      42.657  27.169  30.221  1.00  0.00     0.049 A 
ATOM     51  C   UNL A   1      40.945  30.478  34.413  1.00  0.00     0.074 A 
ATOM     52  C   UNL A   1      43.843  26.481  30.420  1.00  0.00     0.029 A 
ATOM     53  N   UNL A   1      42.432  27.908  31.374  1.00  0.00    -0.354 N 
ATOM     54  N   UNL A   1      41.463  29.662  33.525  1.00  0.00    -0.248 NA
ATOM     55  C   UNL A   1      41.730  30.607  35.648  1.00  0.00     0.031 C 
ATOM     56  C   UNL A   1      44.317  26.782  31.703  1.00  0.00     0.029 A 
ATOM     57  C   UNL A   1      43.450  27.691  32.288  1.00  0.00     0.049 A 
ATOM     58  H   UNL A   1      41.659  28.501  31.521  1.00  0.00     0.167 HD
ATOM     59  C   UNL A   1      42.646  29.196  34.089  1.00  0.00     0.074 A 
ATOM     60  C   UNL A   1      42.769  29.828  35.387  1.00  0.00     0.031 C 
ATOM     61  C   UNL A   1      43.553  28.327  33.577  1.00  0.00     0.034 A 
BRANCH  48  62
ATOM     62  C   UNL A   1      42.122  26.246  27.914  1.00  0.00     0.023 A 
ATOM     63  C   UNL A   1      41.623  24.933  27.853  1.00  0.00     0.031 A 
ATOM     64  C   UNL A   1      42.989  26.670  26.891  1.00  0.00     0.131 A 
ATOM     65  C   UNL A   1      42.063  24.064  26.844  1.00  0.00     0.055 A 
ATOM     66  C   UNL A   1      43.359  25.824  25.843  1.00  0.00     0.041 A 
ATOM     67  F   UNL A   1      43.510  27.907  26.906  1.00  0.00    -0.206 F 
ATOM     68  C   UNL A   1      42.910  24.507  25.825  1.00  0.00     0.022 A 
BRANCH  65  69
ATOM     69  S   UNL A   1      41.630  22.308  26.968  1.00  0.00     0.124 S 
ATOM     70  O   UNL A   1      41.902  21.842  25.610  1.00  0.00    -0.237 OA
ATOM     71  O   UNL A   1      42.542  21.829  28.001  1.00  0.00    -0.237 OA
ATOM     72  O   UNL A   1      40.218  22.328  27.343  1.00  0.00    -0.744 OA
ENDBRANCH  65  69
ENDBRANCH  48  62
BRANCH  49  73
ATOM     73  C   UNL A   1      39.206  32.074  35.496  1.00  0.00     0.023 A 
ATOM     74  C   UNL A   1      38.510  31.463  36.551  1.00  0.00     0.031 A 
ATOM     75  C   UNL A   1      39.423  33.461  35.559  1.00  0.00     0.131 A 
ATOM     76  C   UNL A   1      38.022  32.243  37.609  1.00  0.00     0.055 A 
ATOM     77  C   UNL A   1      38.966  34.228  36.631  1.00  0.00     0.041 A 
ATOM     78  F   UNL A   1      40.096  34.087  34.579  1.00  0.00    -0.206 F 
ATOM     79  C   UNL A   1      38.251  33.621  37.660  1.00  0.00     0.022 A 
BRANCH  76  80
ATOM     80  S   UNL A   1      37.028  31.438  38.895  1.00  0.00     0.124 S 
ATOM     81  O   UNL A   1      35.810  32.239  38.877  1.00  0.00    -0.237 OA
ATOM     82  O   UNL A   1      36.911  30.078  38.377  1.00  0.00    -0.237 OA
ATOM     83  O   UNL A   1      37.849  31.576  40.096  1.00  0.00    -0.744 OA
ENDBRANCH  76  80
ENDBRANCH  49  73
BRANCH  61  84
ATOM     84  C   UNL A   1      44.776  28.056  34.411  1.00  0.00     0.023 A 
ATOM     85  C   UNL A   1      44.779  27.071  35.414  1.00  0.00     0.031 A 
ATOM     86  C   UNL A   1      45.945  28.808  34.208  1.00  0.00     0.131 A 
ATOM     87  C   UNL A   1      45.922  26.893  36.208  1.00  0.00     0.055 A 
ATOM     88  C   UNL A   1      47.091  28.600  34.975  1.00  0.00     0.041 A 
ATOM     89  F   UNL A   1      45.987  29.760  33.262  1.00  0.00    -0.206 F 
ATOM     90  C   UNL A   1      47.081  27.644  35.988  1.00  0.00     0.022 A 
BRANCH  87  91
ATOM     91  S   UNL A   1      45.856  25.706  37.578  1.00  0.00     0.124 S 
ATOM     92  O   UNL A   1      47.089  26.004  38.299  1.00  0.00    -0.237 OA
ATOM     93  O   UNL A   1      44.617  26.077  38.254  1.00  0.00    -0.237 OA
ATOM     94  O   UNL A   1      45.828  24.408  36.906  1.00  0.00    -0.744 OA
ENDBRANCH  87  91
ENDBRANCH  61  84
ENDBRANCH  35  36
ENDBRANCH  27  30
ENDBRANCH  25  26
ENDBRANCH   1  25
TORSDOF 15
ENDMDL
