MODEL 1
REMARK VINA RESULT:     -13.6      0.000      0.000
REMARK SMILES O=C(C[C@]12CSc3[nH]c(=O)sc3[C@H]1c1cc(Cl)ccc1OC2=O)NCCCNC(=O)c1ccc(-c2c3nc(c(-c4cc(S(=O)(=O)[O-])ccc4F)c4ccc([nH]4)c(-c4cc(S(=O)(=O)[O-])ccc4F)c4nc(c(-c5cc(S(=O)(=O)[O-])ccc5F)c5ccc2[nH]5)C=C4)C=C3)cc1
REMARK SMILES IDX 27 1 26 2 25 3 24 4 1 5 2 6 3 8 4 9 5 10 13 11 22 12 6 13
REMARK SMILES IDX 12 14 14 15 21 16 23 17 7 18 11 19 15 20 20 21 8 22 9 23
REMARK SMILES IDX 16 24 19 25 10 27 17 28 18 29 28 30 29 31 30 33 31 34 32 35
REMARK SMILES IDX 93 36 33 37 92 38 34 39 35 40 36 41 86 42 37 43 91 44 85 45
REMARK SMILES IDX 87 46 38 47 90 48 84 49 83 50 39 52 71 53 51 54 70 55 52 56
REMARK SMILES IDX 55 57 69 58 88 59 53 60 54 61 68 63 89 64 56 65 40 66 41 67
REMARK SMILES IDX 49 68 42 69 48 70 50 71 47 72 43 73 44 74 45 75 46 76 72 77
REMARK SMILES IDX 73 78 81 79 74 80 80 81 82 82 79 83 75 84 76 85 77 86 78 87
REMARK SMILES IDX 57 88 58 89 66 90 59 91 65 92 67 93 64 94 60 95 61 96 62 97
REMARK SMILES IDX 63 98
REMARK H PARENT 24 7 8 26 28 32 87 51 55 62
REMARK Flexibility Score: inf
ROOT
ATOM      1  C   UNL A   1      39.757  22.004  26.621  1.00  0.00     0.118 C 
ENDROOT
BRANCH   1   2
ATOM      2  C   UNL A   1      38.492  22.229  25.807  1.00  0.00     0.042 C 
BRANCH   2   3
ATOM      3  C   UNL A   1      37.880  23.612  25.993  1.00  0.00     0.117 C 
BRANCH   3   4
ATOM      4  N   UNL A   1      36.181  23.601  25.972  1.00  0.00    -0.356 N 
ATOM      5  O   UNL A   1      34.566  26.080  25.842  1.00  0.00    -0.275 OA
ATOM      6  C   UNL A   1      34.683  24.808  25.698  1.00  0.00     0.221 C 
ATOM      7  H   UNL A   1      35.850  22.693  26.160  1.00  0.00     0.163 HD
BRANCH   6   8
ATOM      8  C   UNL A   1      33.168  24.485  25.135  1.00  0.00     0.120 C 
BRANCH   8   9
ATOM      9  C   UNL A   1      32.430  23.146  25.251  1.00  0.00     0.098 C 
ATOM     10  C   UNL A   1      33.160  22.323  26.311  1.00  0.00     0.097 C 
ATOM     11  C   UNL A   1      32.433  22.784  23.785  1.00  0.00     0.085 C 
ATOM     12  C   UNL A   1      30.933  23.028  25.675  1.00  0.00     0.319 C 
ATOM     13  S   UNL A   1      33.437  20.594  25.953  1.00  0.00    -0.106 SA
ATOM     14  C   UNL A   1      32.186  21.318  23.582  1.00  0.00     0.049 A 
ATOM     15  C   UNL A   1      31.710  24.155  23.398  1.00  0.00     0.006 A 
ATOM     16  O   UNL A   1      30.215  24.162  25.772  1.00  0.00    -0.426 OA
ATOM     17  O   UNL A   1      30.399  21.945  25.910  1.00  0.00    -0.251 OA
ATOM     18  C   UNL A   1      32.663  20.393  24.448  1.00  0.00     0.090 A 
ATOM     19  S   UNL A   1      31.849  20.533  22.050  1.00  0.00    -0.077 S 
ATOM     20  C   UNL A   1      32.788  25.288  22.443  1.00  0.00     0.028 A 
ATOM     21  C   UNL A   1      30.692  24.930  24.743  1.00  0.00     0.134 A 
ATOM     22  N   UNL A   1      32.741  19.125  23.973  1.00  0.00    -0.307 N 
ATOM     23  C   UNL A   1      32.414  18.952  22.665  1.00  0.00     0.305 A 
ATOM     24  C   UNL A   1      32.830  27.081  22.781  1.00  0.00     0.041 A 
ATOM     25  C   UNL A   1      30.758  26.720  25.134  1.00  0.00     0.049 A 
ATOM     26  H   UNL A   1      33.020  18.373  24.543  1.00  0.00     0.171 HD
ATOM     27  O   UNL A   1      32.545  17.928  22.017  1.00  0.00    -0.257 OA
ATOM     28  Cl  UNL A   1      33.978  28.053  21.947  1.00  0.00    -0.084 Cl
ATOM     29  C   UNL A   1      31.831  27.822  24.121  1.00  0.00     0.024 A 
ENDBRANCH   8   9
ENDBRANCH   6   8
ENDBRANCH   3   4
ENDBRANCH   2   3
ENDBRANCH   1   2
BRANCH   1  30
ATOM     30  N   UNL A   1      40.982  22.111  25.856  1.00  0.00    -0.352 N 
ATOM     31  C   UNL A   1      42.036  22.983  25.835  1.00  0.00     0.251 C 
ATOM     32  H   UNL A   1      41.080  21.387  25.197  1.00  0.00     0.163 HD
ATOM     33  O   UNL A   1      42.992  22.632  25.137  1.00  0.00    -0.269 OA
BRANCH  31  34
ATOM     34  C   UNL A   1      42.075  24.320  26.490  1.00  0.00     0.039 A 
ATOM     35  C   UNL A   1      42.707  24.620  27.694  1.00  0.00     0.014 A 
ATOM     36  C   UNL A   1      41.302  25.324  25.874  1.00  0.00     0.014 A 
ATOM     37  C   UNL A   1      42.421  25.815  28.349  1.00  0.00     0.010 A 
ATOM     38  C   UNL A   1      41.054  26.540  26.501  1.00  0.00     0.010 A 
ATOM     39  C   UNL A   1      41.545  26.752  27.779  1.00  0.00    -0.014 A 
BRANCH  39  40
ATOM     40  C   UNL A   1      41.269  27.987  28.512  1.00  0.00     0.031 A 
ATOM     41  C   UNL A   1      42.222  29.083  28.188  1.00  0.00     0.074 A 
ATOM     42  C   UNL A   1      40.248  28.172  29.379  1.00  0.00     0.049 A 
ATOM     43  N   UNL A   1      43.196  29.503  28.925  1.00  0.00    -0.248 NA
ATOM     44  C   UNL A   1      42.230  29.633  26.825  1.00  0.00     0.031 C 
ATOM     45  C   UNL A   1      39.087  27.318  29.643  1.00  0.00     0.029 A 
ATOM     46  N   UNL A   1      40.020  29.233  30.209  1.00  0.00    -0.354 N 
ATOM     47  C   UNL A   1      43.819  30.522  28.210  1.00  0.00     0.074 A 
ATOM     48  C   UNL A   1      43.285  30.451  26.873  1.00  0.00     0.031 C 
ATOM     49  C   UNL A   1      38.177  27.999  30.384  1.00  0.00     0.029 A 
ATOM     50  C   UNL A   1      38.755  29.268  30.792  1.00  0.00     0.049 A 
ATOM     51  H   UNL A   1      40.700  29.923  30.382  1.00  0.00     0.167 HD
ATOM     52  C   UNL A   1      44.588  31.457  28.839  1.00  0.00     0.034 A 
ATOM     53  C   UNL A   1      38.223  30.262  31.558  1.00  0.00     0.034 A 
ATOM     54  C   UNL A   1      44.895  31.041  30.182  1.00  0.00     0.049 A 
ATOM     55  C   UNL A   1      39.348  31.074  32.080  1.00  0.00     0.074 A 
ATOM     56  C   UNL A   1      45.633  30.018  30.739  1.00  0.00     0.029 A 
ATOM     57  N   UNL A   1      44.078  31.511  31.182  1.00  0.00    -0.354 N 
ATOM     58  N   UNL A   1      40.191  30.639  32.973  1.00  0.00    -0.248 NA
ATOM     59  C   UNL A   1      39.816  32.171  31.246  1.00  0.00     0.031 C 
ATOM     60  C   UNL A   1      44.889  29.611  31.882  1.00  0.00     0.029 A 
ATOM     61  C   UNL A   1      43.790  30.462  32.015  1.00  0.00     0.049 A 
ATOM     62  H   UNL A   1      43.758  32.436  31.282  1.00  0.00     0.167 HD
ATOM     63  C   UNL A   1      41.424  31.052  32.499  1.00  0.00     0.074 A 
ATOM     64  C   UNL A   1      41.127  32.048  31.466  1.00  0.00     0.031 C 
ATOM     65  C   UNL A   1      42.557  30.343  32.765  1.00  0.00     0.034 A 
BRANCH  52  66
ATOM     66  C   UNL A   1      44.762  32.883  28.382  1.00  0.00     0.023 A 
ATOM     67  C   UNL A   1      45.910  33.344  27.714  1.00  0.00     0.031 A 
ATOM     68  C   UNL A   1      43.659  33.765  28.393  1.00  0.00     0.131 A 
ATOM     69  C   UNL A   1      45.937  34.599  27.089  1.00  0.00     0.055 A 
ATOM     70  C   UNL A   1      43.664  34.988  27.715  1.00  0.00     0.041 A 
ATOM     71  F   UNL A   1      42.514  33.435  29.014  1.00  0.00    -0.206 F 
ATOM     72  C   UNL A   1      44.807  35.409  27.052  1.00  0.00     0.022 A 
BRANCH  69  73
ATOM     73  S   UNL A   1      47.449  35.198  26.285  1.00  0.00     0.124 S 
ATOM     74  O   UNL A   1      48.482  34.755  27.216  1.00  0.00    -0.237 OA
ATOM     75  O   UNL A   1      47.401  34.490  25.008  1.00  0.00    -0.237 OA
ATOM     76  O   UNL A   1      47.241  36.641  26.201  1.00  0.00    -0.744 OA
ENDBRANCH  69  73
ENDBRANCH  52  66
BRANCH  53  77
ATOM     77  C   UNL A   1      36.884  30.891  31.385  1.00  0.00     0.023 A 
ATOM     78  C   UNL A   1      36.385  31.089  30.088  1.00  0.00     0.031 A 
ATOM     79  C   UNL A   1      36.279  31.627  32.426  1.00  0.00     0.131 A 
ATOM     80  C   UNL A   1      35.386  32.042  29.846  1.00  0.00     0.055 A 
ATOM     81  C   UNL A   1      35.255  32.556  32.186  1.00  0.00     0.041 A 
ATOM     82  F   UNL A   1      36.733  31.525  33.685  1.00  0.00    -0.206 F 
ATOM     83  C   UNL A   1      34.818  32.782  30.885  1.00  0.00     0.022 A 
BRANCH  80  84
ATOM     84  S   UNL A   1      34.902  32.435  28.142  1.00  0.00     0.124 S 
ATOM     85  O   UNL A   1      33.626  33.119  28.334  1.00  0.00    -0.237 OA
ATOM     86  O   UNL A   1      36.010  33.279  27.709  1.00  0.00    -0.237 OA
ATOM     87  O   UNL A   1      34.812  31.126  27.503  1.00  0.00    -0.744 OA
ENDBRANCH  80  84
ENDBRANCH  53  77
BRANCH  65  88
ATOM     88  C   UNL A   1      42.495  29.210  33.764  1.00  0.00     0.023 A 
ATOM     89  C   UNL A   1      43.129  29.434  34.995  1.00  0.00     0.031 A 
ATOM     90  C   UNL A   1      42.076  27.896  33.476  1.00  0.00     0.131 A 
ATOM     91  C   UNL A   1      43.394  28.369  35.860  1.00  0.00     0.055 A 
ATOM     92  C   UNL A   1      42.271  26.846  34.382  1.00  0.00     0.041 A 
ATOM     93  F   UNL A   1      41.552  27.569  32.288  1.00  0.00    -0.206 F 
ATOM     94  C   UNL A   1      42.953  27.076  35.573  1.00  0.00     0.022 A 
BRANCH  91  95
ATOM     95  S   UNL A   1      44.478  28.622  37.288  1.00  0.00     0.124 S 
ATOM     96  O   UNL A   1      45.801  28.626  36.674  1.00  0.00    -0.237 OA
ATOM     97  O   UNL A   1      44.017  29.911  37.799  1.00  0.00    -0.237 OA
ATOM     98  O   UNL A   1      44.194  27.480  38.154  1.00  0.00    -0.744 OA
ENDBRANCH  91  95
ENDBRANCH  65  88
ENDBRANCH  39  40
ENDBRANCH  31  34
ENDBRANCH   1  30
TORSDOF 14
ENDMDL
MODEL 2
REMARK VINA RESULT:     -13.5      3.031      8.805
REMARK SMILES O=C(C[C@]12CSc3[nH]c(=O)sc3[C@H]1c1cc(Cl)ccc1OC2=O)NCCCNC(=O)c1ccc(-c2c3nc(c(-c4cc(S(=O)(=O)[O-])ccc4F)c4ccc([nH]4)c(-c4cc(S(=O)(=O)[O-])ccc4F)c4nc(c(-c5cc(S(=O)(=O)[O-])ccc5F)c5ccc2[nH]5)C=C4)C=C3)cc1
REMARK SMILES IDX 27 1 26 2 25 3 24 4 1 5 2 6 3 8 4 9 5 10 13 11 22 12 6 13
REMARK SMILES IDX 12 14 14 15 21 16 23 17 7 18 11 19 15 20 20 21 8 22 9 23
REMARK SMILES IDX 16 24 19 25 10 27 17 28 18 29 28 30 29 31 30 33 31 34 32 35
REMARK SMILES IDX 93 36 33 37 92 38 34 39 35 40 36 41 86 42 37 43 91 44 85 45
REMARK SMILES IDX 87 46 38 47 90 48 84 49 83 50 39 52 71 53 51 54 70 55 52 56
REMARK SMILES IDX 55 57 69 58 88 59 53 60 54 61 68 63 89 64 56 65 40 66 41 67
REMARK SMILES IDX 49 68 42 69 48 70 50 71 47 72 43 73 44 74 45 75 46 76 72 77
REMARK SMILES IDX 73 78 81 79 74 80 80 81 82 82 79 83 75 84 76 85 77 86 78 87
REMARK SMILES IDX 57 88 58 89 66 90 59 91 65 92 67 93 64 94 60 95 61 96 62 97
REMARK SMILES IDX 63 98
REMARK H PARENT 24 7 8 26 28 32 87 51 55 62
REMARK Flexibility Score: inf
ROOT
ATOM      1  C   UNL A   1      34.671  31.686  27.737  1.00  0.00     0.118 C 
ENDROOT
BRANCH   1   2
ATOM      2  C   UNL A   1      33.758  30.528  27.361  1.00  0.00     0.042 C 
BRANCH   2   3
ATOM      3  C   UNL A   1      34.453  29.172  27.364  1.00  0.00     0.117 C 
BRANCH   3   4
ATOM      4  N   UNL A   1      34.031  28.201  26.034  1.00  0.00    -0.356 N 
ATOM      5  O   UNL A   1      34.888  25.378  25.779  1.00  0.00    -0.275 OA
ATOM      6  C   UNL A   1      34.111  26.349  25.453  1.00  0.00     0.221 C 
ATOM      7  H   UNL A   1      33.614  28.754  25.335  1.00  0.00     0.163 HD
BRANCH   6   8
ATOM      8  C   UNL A   1      33.126  25.535  24.412  1.00  0.00     0.120 C 
BRANCH   8   9
ATOM      9  C   UNL A   1      32.254  26.164  23.319  1.00  0.00     0.098 C 
ATOM     10  C   UNL A   1      32.851  27.535  23.003  1.00  0.00     0.097 C 
ATOM     11  C   UNL A   1      30.916  25.990  23.999  1.00  0.00     0.085 C 
ATOM     12  C   UNL A   1      32.055  25.527  21.909  1.00  0.00     0.319 C 
ATOM     13  S   UNL A   1      31.710  28.896  22.804  1.00  0.00    -0.106 SA
ATOM     14  C   UNL A   1      29.879  26.899  23.410  1.00  0.00     0.049 A 
ATOM     15  C   UNL A   1      31.145  24.415  24.143  1.00  0.00     0.006 A 
ATOM     16  O   UNL A   1      32.531  24.284  21.708  1.00  0.00    -0.426 OA
ATOM     17  O   UNL A   1      31.478  26.116  20.996  1.00  0.00    -0.251 OA
ATOM     18  C   UNL A   1      30.192  28.142  22.973  1.00  0.00     0.090 A 
ATOM     19  S   UNL A   1      28.154  26.830  23.721  1.00  0.00    -0.077 S 
ATOM     20  C   UNL A   1      31.358  23.879  25.882  1.00  0.00     0.028 A 
ATOM     21  C   UNL A   1      32.300  23.658  22.903  1.00  0.00     0.134 A 
ATOM     22  N   UNL A   1      29.151  29.003  22.849  1.00  0.00    -0.307 N 
ATOM     23  C   UNL A   1      27.939  28.543  23.259  1.00  0.00     0.305 A 
ATOM     24  C   UNL A   1      32.617  22.645  26.357  1.00  0.00     0.041 A 
ATOM     25  C   UNL A   1      33.606  22.457  23.366  1.00  0.00     0.049 A 
ATOM     26  H   UNL A   1      29.268  29.909  22.484  1.00  0.00     0.171 HD
ATOM     27  O   UNL A   1      26.914  29.196  23.355  1.00  0.00    -0.257 OA
ATOM     28  Cl  UNL A   1      32.857  22.309  28.026  1.00  0.00    -0.084 Cl
ATOM     29  C   UNL A   1      33.755  21.923  25.121  1.00  0.00     0.024 A 
ENDBRANCH   8   9
ENDBRANCH   6   8
ENDBRANCH   3   4
ENDBRANCH   2   3
ENDBRANCH   1   2
BRANCH   1  30
ATOM     30  N   UNL A   1      34.548  32.116  29.115  1.00  0.00    -0.352 N 
ATOM     31  C   UNL A   1      35.381  32.134  30.200  1.00  0.00     0.251 C 
ATOM     32  H   UNL A   1      33.657  32.480  29.318  1.00  0.00     0.163 HD
ATOM     33  O   UNL A   1      34.950  32.748  31.180  1.00  0.00    -0.269 OA
BRANCH  31  34
ATOM     34  C   UNL A   1      36.679  31.414  30.315  1.00  0.00     0.039 A 
ATOM     35  C   UNL A   1      37.942  31.983  30.175  1.00  0.00     0.014 A 
ATOM     36  C   UNL A   1      36.590  30.016  30.467  1.00  0.00     0.014 A 
ATOM     37  C   UNL A   1      39.057  31.165  30.004  1.00  0.00     0.010 A 
ATOM     38  C   UNL A   1      37.708  29.198  30.347  1.00  0.00     0.010 A 
ATOM     39  C   UNL A   1      38.929  29.767  30.030  1.00  0.00    -0.014 A 
BRANCH  39  40
ATOM     40  C   UNL A   1      40.129  28.953  29.834  1.00  0.00     0.031 A 
ATOM     41  C   UNL A   1      40.843  28.652  31.105  1.00  0.00     0.074 A 
ATOM     42  C   UNL A   1      40.565  28.473  28.648  1.00  0.00     0.049 A 
ATOM     43  N   UNL A   1      41.939  29.193  31.521  1.00  0.00    -0.248 NA
ATOM     44  C   UNL A   1      40.173  27.818  32.112  1.00  0.00     0.031 C 
ATOM     45  C   UNL A   1      39.887  28.453  27.348  1.00  0.00     0.029 A 
ATOM     46  N   UNL A   1      41.745  27.844  28.367  1.00  0.00    -0.354 N 
ATOM     47  C   UNL A   1      42.217  28.616  32.757  1.00  0.00     0.074 A 
ATOM     48  C   UNL A   1      41.025  27.900  33.138  1.00  0.00     0.031 C 
ATOM     49  C   UNL A   1      40.563  27.646  26.492  1.00  0.00     0.029 A 
ATOM     50  C   UNL A   1      41.806  27.229  27.119  1.00  0.00     0.049 A 
ATOM     51  H   UNL A   1      42.497  27.827  29.002  1.00  0.00     0.167 HD
ATOM     52  C   UNL A   1      43.480  28.628  33.273  1.00  0.00     0.034 A 
ATOM     53  C   UNL A   1      42.805  26.439  26.634  1.00  0.00     0.034 A 
ATOM     54  C   UNL A   1      44.314  29.554  32.552  1.00  0.00     0.049 A 
ATOM     55  C   UNL A   1      44.025  26.723  27.427  1.00  0.00     0.074 A 
ATOM     56  C   UNL A   1      44.335  30.923  32.394  1.00  0.00     0.029 A 
ATOM     57  N   UNL A   1      45.082  29.039  31.536  1.00  0.00    -0.354 N 
ATOM     58  N   UNL A   1      44.680  27.847  27.353  1.00  0.00    -0.248 NA
ATOM     59  C   UNL A   1      44.215  25.955  28.648  1.00  0.00     0.031 C 
ATOM     60  C   UNL A   1      44.703  31.128  31.034  1.00  0.00     0.029 A 
ATOM     61  C   UNL A   1      44.976  29.884  30.462  1.00  0.00     0.049 A 
ATOM     62  H   UNL A   1      45.614  28.212  31.573  1.00  0.00     0.167 HD
ATOM     63  C   UNL A   1      44.959  28.158  28.673  1.00  0.00     0.074 A 
ATOM     64  C   UNL A   1      44.706  26.925  29.422  1.00  0.00     0.031 C 
ATOM     65  C   UNL A   1      45.076  29.452  29.084  1.00  0.00     0.034 A 
BRANCH  52  66
ATOM     66  C   UNL A   1      44.055  27.566  34.175  1.00  0.00     0.023 A 
ATOM     67  C   UNL A   1      44.165  27.714  35.570  1.00  0.00     0.031 A 
ATOM     68  C   UNL A   1      44.286  26.266  33.673  1.00  0.00     0.131 A 
ATOM     69  C   UNL A   1      44.470  26.625  36.398  1.00  0.00     0.055 A 
ATOM     70  C   UNL A   1      44.527  25.168  34.506  1.00  0.00     0.041 A 
ATOM     71  F   UNL A   1      44.223  26.010  32.356  1.00  0.00    -0.206 F 
ATOM     72  C   UNL A   1      44.614  25.343  35.879  1.00  0.00     0.022 A 
BRANCH  69  73
ATOM     73  S   UNL A   1      44.665  26.853  38.187  1.00  0.00     0.124 S 
ATOM     74  O   UNL A   1      44.887  28.292  38.287  1.00  0.00    -0.237 OA
ATOM     75  O   UNL A   1      43.377  26.375  38.685  1.00  0.00    -0.237 OA
ATOM     76  O   UNL A   1      45.808  26.007  38.516  1.00  0.00    -0.744 OA
ENDBRANCH  69  73
ENDBRANCH  52  66
BRANCH  53  77
ATOM     77  C   UNL A   1      42.645  25.105  25.990  1.00  0.00     0.023 A 
ATOM     78  C   UNL A   1      41.610  24.259  26.421  1.00  0.00     0.031 A 
ATOM     79  C   UNL A   1      43.692  24.515  25.252  1.00  0.00     0.131 A 
ATOM     80  C   UNL A   1      41.677  22.877  26.191  1.00  0.00     0.055 A 
ATOM     81  C   UNL A   1      43.740  23.136  24.994  1.00  0.00     0.041 A 
ATOM     82  F   UNL A   1      44.738  25.252  24.847  1.00  0.00    -0.206 F 
ATOM     83  C   UNL A   1      42.737  22.307  25.485  1.00  0.00     0.022 A 
BRANCH  80  84
ATOM     84  S   UNL A   1      40.443  21.775  26.936  1.00  0.00     0.124 S 
ATOM     85  O   UNL A   1      39.195  22.485  26.668  1.00  0.00    -0.237 OA
ATOM     86  O   UNL A   1      40.646  20.548  26.175  1.00  0.00    -0.237 OA
ATOM     87  O   UNL A   1      40.836  21.725  28.341  1.00  0.00    -0.744 OA
ENDBRANCH  80  84
ENDBRANCH  53  77
BRANCH  65  88
ATOM     88  C   UNL A   1      45.112  30.551  28.046  1.00  0.00     0.023 A 
ATOM     89  C   UNL A   1      46.382  31.035  27.698  1.00  0.00     0.031 A 
ATOM     90  C   UNL A   1      43.991  31.275  27.592  1.00  0.00     0.131 A 
ATOM     91  C   UNL A   1      46.514  32.233  26.992  1.00  0.00     0.055 A 
ATOM     92  C   UNL A   1      44.128  32.432  26.815  1.00  0.00     0.041 A 
ATOM     93  F   UNL A   1      42.745  30.945  27.957  1.00  0.00    -0.206 F 
ATOM     94  C   UNL A   1      45.395  32.929  26.529  1.00  0.00     0.022 A 
BRANCH  91  95
ATOM     95  S   UNL A   1      48.146  32.998  26.822  1.00  0.00     0.124 S 
ATOM     96  O   UNL A   1      47.924  33.964  25.751  1.00  0.00    -0.237 OA
ATOM     97  O   UNL A   1      48.356  33.571  28.151  1.00  0.00    -0.237 OA
ATOM     98  O   UNL A   1      49.027  31.883  26.487  1.00  0.00    -0.744 OA
ENDBRANCH  91  95
ENDBRANCH  65  88
ENDBRANCH  39  40
ENDBRANCH  31  34
ENDBRANCH   1  30
TORSDOF 14
ENDMDL
MODEL 3
REMARK VINA RESULT:     -13.4      2.826      4.048
REMARK SMILES O=C(C[C@]12CSc3[nH]c(=O)sc3[C@H]1c1cc(Cl)ccc1OC2=O)NCCCNC(=O)c1ccc(-c2c3nc(c(-c4cc(S(=O)(=O)[O-])ccc4F)c4ccc([nH]4)c(-c4cc(S(=O)(=O)[O-])ccc4F)c4nc(c(-c5cc(S(=O)(=O)[O-])ccc5F)c5ccc2[nH]5)C=C4)C=C3)cc1
REMARK SMILES IDX 27 1 26 2 25 3 24 4 1 5 2 6 3 8 4 9 5 10 13 11 22 12 6 13
REMARK SMILES IDX 12 14 14 15 21 16 23 17 7 18 11 19 15 20 20 21 8 22 9 23
REMARK SMILES IDX 16 24 19 25 10 27 17 28 18 29 28 30 29 31 30 33 31 34 32 35
REMARK SMILES IDX 93 36 33 37 92 38 34 39 35 40 36 41 86 42 37 43 91 44 85 45
REMARK SMILES IDX 87 46 38 47 90 48 84 49 83 50 39 52 71 53 51 54 70 55 52 56
REMARK SMILES IDX 55 57 69 58 88 59 53 60 54 61 68 63 89 64 56 65 40 66 41 67
REMARK SMILES IDX 49 68 42 69 48 70 50 71 47 72 43 73 44 74 45 75 46 76 72 77
REMARK SMILES IDX 73 78 81 79 74 80 80 81 82 82 79 83 75 84 76 85 77 86 78 87
REMARK SMILES IDX 57 88 58 89 66 90 59 91 65 92 67 93 64 94 60 95 61 96 62 97
REMARK SMILES IDX 63 98
REMARK H PARENT 24 7 8 26 28 32 87 51 55 62
REMARK Flexibility Score: inf
ROOT
ATOM      1  C   UNL A   1      37.845  21.840  25.761  1.00  0.00     0.118 C 
ENDROOT
BRANCH   1   2
ATOM      2  C   UNL A   1      37.242  21.484  24.411  1.00  0.00     0.042 C 
BRANCH   2   3
ATOM      3  C   UNL A   1      36.991  22.689  23.513  1.00  0.00     0.117 C 
BRANCH   3   4
ATOM      4  N   UNL A   1      35.395  23.265  23.596  1.00  0.00    -0.356 N 
ATOM      5  O   UNL A   1      34.184  24.267  26.106  1.00  0.00    -0.275 OA
ATOM      6  C   UNL A   1      34.200  24.184  24.823  1.00  0.00     0.221 C 
ATOM      7  H   UNL A   1      34.924  23.070  22.754  1.00  0.00     0.163 HD
BRANCH   6   8
ATOM      8  C   UNL A   1      32.914  25.161  24.497  1.00  0.00     0.120 C 
BRANCH   8   9
ATOM      9  C   UNL A   1      32.725  26.011  23.235  1.00  0.00     0.098 C 
ATOM     10  C   UNL A   1      33.899  26.987  23.173  1.00  0.00     0.097 C 
ATOM     11  C   UNL A   1      31.304  26.453  23.498  1.00  0.00     0.085 C 
ATOM     12  C   UNL A   1      32.683  25.410  21.797  1.00  0.00     0.319 C 
ATOM     13  S   UNL A   1      33.531  28.679  22.728  1.00  0.00    -0.106 SA
ATOM     14  C   UNL A   1      30.948  27.662  22.685  1.00  0.00     0.049 A 
ATOM     15  C   UNL A   1      30.809  24.939  23.619  1.00  0.00     0.006 A 
ATOM     16  O   UNL A   1      32.636  24.070  21.675  1.00  0.00    -0.426 OA
ATOM     17  O   UNL A   1      32.683  26.115  20.789  1.00  0.00    -0.251 OA
ATOM     18  C   UNL A   1      31.857  28.630  22.420  1.00  0.00     0.090 A 
ATOM     19  S   UNL A   1      29.339  28.332  22.489  1.00  0.00    -0.077 S 
ATOM     20  C   UNL A   1      30.285  24.492  25.318  1.00  0.00     0.028 A 
ATOM     21  C   UNL A   1      31.842  23.684  22.722  1.00  0.00     0.134 A 
ATOM     22  N   UNL A   1      31.347  29.832  22.049  1.00  0.00    -0.307 N 
ATOM     23  C   UNL A   1      29.992  29.943  22.073  1.00  0.00     0.305 A 
ATOM     24  C   UNL A   1      30.731  22.888  26.066  1.00  0.00     0.041 A 
ATOM     25  C   UNL A   1      32.346  22.090  23.475  1.00  0.00     0.049 A 
ATOM     26  H   UNL A   1      31.926  30.580  21.779  1.00  0.00     0.171 HD
ATOM     27  O   UNL A   1      29.349  30.965  21.907  1.00  0.00    -0.257 OA
ATOM     28  Cl  UNL A   1      30.333  22.606  27.716  1.00  0.00    -0.084 Cl
ATOM     29  C   UNL A   1      31.763  21.673  25.171  1.00  0.00     0.024 A 
ENDBRANCH   8   9
ENDBRANCH   6   8
ENDBRANCH   3   4
ENDBRANCH   2   3
ENDBRANCH   1   2
BRANCH   1  30
ATOM     30  N   UNL A   1      39.288  21.719  25.818  1.00  0.00    -0.352 N 
ATOM     31  C   UNL A   1      40.289  22.383  26.471  1.00  0.00     0.251 C 
ATOM     32  H   UNL A   1      39.627  20.986  25.255  1.00  0.00     0.163 HD
ATOM     33  O   UNL A   1      41.405  21.861  26.388  1.00  0.00    -0.269 OA
BRANCH  31  34
ATOM     34  C   UNL A   1      40.157  23.692  27.168  1.00  0.00     0.039 A 
ATOM     35  C   UNL A   1      39.148  24.629  26.959  1.00  0.00     0.014 A 
ATOM     36  C   UNL A   1      41.222  24.037  28.024  1.00  0.00     0.014 A 
ATOM     37  C   UNL A   1      39.297  25.928  27.440  1.00  0.00     0.010 A 
ATOM     38  C   UNL A   1      41.349  25.319  28.548  1.00  0.00     0.010 A 
ATOM     39  C   UNL A   1      40.431  26.289  28.186  1.00  0.00    -0.014 A 
BRANCH  39  40
ATOM     40  C   UNL A   1      40.544  27.669  28.659  1.00  0.00     0.031 A 
ATOM     41  C   UNL A   1      41.720  28.385  28.094  1.00  0.00     0.074 A 
ATOM     42  C   UNL A   1      39.677  28.284  29.496  1.00  0.00     0.049 A 
ATOM     43  N   UNL A   1      42.824  28.659  28.705  1.00  0.00    -0.248 NA
ATOM     44  C   UNL A   1      41.762  28.644  26.647  1.00  0.00     0.031 C 
ATOM     45  C   UNL A   1      38.359  27.841  29.958  1.00  0.00     0.029 A 
ATOM     46  N   UNL A   1      39.799  29.504  30.097  1.00  0.00    -0.354 N 
ATOM     47  C   UNL A   1      43.631  29.317  27.780  1.00  0.00     0.074 A 
ATOM     48  C   UNL A   1      42.993  29.140  26.500  1.00  0.00     0.031 C 
ATOM     49  C   UNL A   1      37.719  28.870  30.568  1.00  0.00     0.029 A 
ATOM     50  C   UNL A   1      38.637  29.989  30.694  1.00  0.00     0.049 A 
ATOM     51  H   UNL A   1      40.646  30.005  30.108  1.00  0.00     0.167 HD
ATOM     52  C   UNL A   1      44.663  30.111  28.186  1.00  0.00     0.034 A 
ATOM     53  C   UNL A   1      38.443  31.217  31.253  1.00  0.00     0.034 A 
ATOM     54  C   UNL A   1      44.958  29.891  29.577  1.00  0.00     0.049 A 
ATOM     55  C   UNL A   1      39.778  31.778  31.569  1.00  0.00     0.074 A 
ATOM     56  C   UNL A   1      45.447  28.831  30.312  1.00  0.00     0.029 A 
ATOM     57  N   UNL A   1      44.373  30.744  30.480  1.00  0.00    -0.354 N 
ATOM     58  N   UNL A   1      40.546  31.310  32.511  1.00  0.00    -0.248 NA
ATOM     59  C   UNL A   1      40.446  32.530  30.518  1.00  0.00     0.031 C 
ATOM     60  C   UNL A   1      44.715  28.865  31.532  1.00  0.00     0.029 A 
ATOM     61  C   UNL A   1      43.889  29.990  31.518  1.00  0.00     0.049 A 
ATOM     62  H   UNL A   1      44.312  31.724  30.398  1.00  0.00     0.167 HD
ATOM     63  C   UNL A   1      41.803  31.278  31.931  1.00  0.00     0.074 A 
ATOM     64  C   UNL A   1      41.693  32.102  30.725  1.00  0.00     0.031 C 
ATOM     65  C   UNL A   1      42.731  30.352  32.307  1.00  0.00     0.034 A 
BRANCH  52  66
ATOM     66  C   UNL A   1      45.164  31.324  27.443  1.00  0.00     0.023 A 
ATOM     67  C   UNL A   1      44.415  32.506  27.301  1.00  0.00     0.031 A 
ATOM     68  C   UNL A   1      46.522  31.405  27.063  1.00  0.00     0.131 A 
ATOM     69  C   UNL A   1      45.000  33.689  26.826  1.00  0.00     0.055 A 
ATOM     70  C   UNL A   1      47.120  32.600  26.650  1.00  0.00     0.041 A 
ATOM     71  F   UNL A   1      47.329  30.334  27.142  1.00  0.00    -0.206 F 
ATOM     72  C   UNL A   1      46.359  33.753  26.535  1.00  0.00     0.022 A 
BRANCH  69  73
ATOM     73  S   UNL A   1      44.000  35.184  26.595  1.00  0.00     0.124 S 
ATOM     74  O   UNL A   1      43.143  35.161  27.775  1.00  0.00    -0.237 OA
ATOM     75  O   UNL A   1      45.028  36.223  26.579  1.00  0.00    -0.237 OA
ATOM     76  O   UNL A   1      43.333  34.954  25.317  1.00  0.00    -0.744 OA
ENDBRANCH  69  73
ENDBRANCH  52  66
BRANCH  53  77
ATOM     77  C   UNL A   1      37.303  32.139  30.990  1.00  0.00     0.023 A 
ATOM     78  C   UNL A   1      36.620  32.708  32.077  1.00  0.00     0.031 A 
ATOM     79  C   UNL A   1      36.653  32.165  29.738  1.00  0.00     0.131 A 
ATOM     80  C   UNL A   1      35.316  33.197  31.922  1.00  0.00     0.055 A 
ATOM     81  C   UNL A   1      35.360  32.687  29.579  1.00  0.00     0.041 A 
ATOM     82  F   UNL A   1      37.224  31.599  28.663  1.00  0.00    -0.206 F 
ATOM     83  C   UNL A   1      34.677  33.188  30.681  1.00  0.00     0.022 A 
BRANCH  80  84
ATOM     84  S   UNL A   1      34.371  33.733  33.376  1.00  0.00     0.124 S 
ATOM     85  O   UNL A   1      35.229  33.300  34.477  1.00  0.00    -0.237 OA
ATOM     86  O   UNL A   1      34.297  35.174  33.165  1.00  0.00    -0.237 OA
ATOM     87  O   UNL A   1      33.112  33.005  33.251  1.00  0.00    -0.744 OA
ENDBRANCH  80  84
ENDBRANCH  53  77
BRANCH  65  88
ATOM     88  C   UNL A   1      42.457  29.490  33.517  1.00  0.00     0.023 A 
ATOM     89  C   UNL A   1      43.141  29.835  34.693  1.00  0.00     0.031 A 
ATOM     90  C   UNL A   1      41.777  28.255  33.497  1.00  0.00     0.131 A 
ATOM     91  C   UNL A   1      43.199  28.944  35.767  1.00  0.00     0.055 A 
ATOM     92  C   UNL A   1      41.771  27.401  34.607  1.00  0.00     0.041 A 
ATOM     93  F   UNL A   1      41.182  27.798  32.388  1.00  0.00    -0.206 F 
ATOM     94  C   UNL A   1      42.502  27.733  35.742  1.00  0.00     0.022 A 
BRANCH  91  95
ATOM     95  S   UNL A   1      44.332  29.268  37.141  1.00  0.00     0.124 S 
ATOM     96  O   UNL A   1      43.679  30.381  37.823  1.00  0.00    -0.237 OA
ATOM     97  O   UNL A   1      44.315  27.994  37.859  1.00  0.00    -0.237 OA
ATOM     98  O   UNL A   1      45.598  29.589  36.488  1.00  0.00    -0.744 OA
ENDBRANCH  91  95
ENDBRANCH  65  88
ENDBRANCH  39  40
ENDBRANCH  31  34
ENDBRANCH   1  30
TORSDOF 14
ENDMDL
