MODEL 1
REMARK VINA RESULT:     -12.4      0.000      0.000
REMARK SMILES COc1ccc(NC(=O)[C@@H]2[C@@H](C(=O)NCCCNC(=O)c3ccc(-c4c5nc(c(-c6cc(S(=O)(=O)[O-])ccc6F)c6ccc([nH]6)c(-c6cc(S(=O)(=O)[O-])ccc6F)c6nc(c(-c7cc(S(=O)(=O)[O-])ccc7F)c7ccc4[nH]7)C=C6)C=C5)cc3)[C@@H]3CC[C@H]2C3=C(C)C)cc1
REMARK SMILES IDX 16 1 15 2 14 3 12 4 13 5 11 7 10 8 87 9 84 10 86 11 88 12
REMARK SMILES IDX 85 13 89 14 90 15 91 16 8 17 7 18 9 20 6 21 3 22 4 23 93 24
REMARK SMILES IDX 5 25 92 26 2 27 1 28 17 29 18 30 19 31 20 33 21 34 22 35
REMARK SMILES IDX 83 36 23 37 82 38 24 39 25 40 26 41 76 42 27 43 81 44 75 45
REMARK SMILES IDX 77 46 28 47 80 48 74 49 73 50 29 52 61 53 41 54 60 55 42 56
REMARK SMILES IDX 45 57 59 58 78 59 43 60 44 61 58 63 79 64 46 65 30 66 31 67
REMARK SMILES IDX 39 68 32 69 38 70 40 71 37 72 33 73 34 74 35 75 36 76 62 77
REMARK SMILES IDX 63 78 71 79 64 80 70 81 72 82 69 83 65 84 66 85 67 86 68 87
REMARK SMILES IDX 47 88 48 89 56 90 49 91 55 92 57 93 54 94 50 95 51 96 52 97
REMARK SMILES IDX 53 98
REMARK H PARENT 14 6 7 19 18 32 77 51 45 62
REMARK Flexibility Score: inf
ROOT
ATOM      1  C   UNL A   1      34.536  21.879  27.249  1.00  0.00     0.042 C 
ENDROOT
BRANCH   1   2
ATOM      2  C   UNL A   1      33.453  22.923  27.523  1.00  0.00     0.117 C 
BRANCH   2   3
ATOM      3  N   UNL A   1      32.171  22.452  27.041  1.00  0.00    -0.356 N 
ATOM      4  C   UNL A   1      31.226  23.047  26.269  1.00  0.00     0.224 C 
ATOM      5  O   UNL A   1      30.143  22.457  26.207  1.00  0.00    -0.275 OA
ATOM      6  H   UNL A   1      31.943  21.538  27.327  1.00  0.00     0.163 HD
BRANCH   4   7
ATOM      7  C   UNL A   1      31.546  24.214  25.318  1.00  0.00     0.098 C 
ATOM      8  C   UNL A   1      30.607  24.596  24.191  1.00  0.00     0.099 C 
ATOM      9  C   UNL A   1      31.319  24.122  22.904  1.00  0.00     0.028 C 
ATOM     10  C   UNL A   1      32.864  23.895  24.546  1.00  0.00     0.028 C 
ATOM     11  C   UNL A   1      32.380  25.123  22.475  1.00  0.00     0.009 C 
ATOM     12  C   UNL A   1      32.228  23.051  23.476  1.00  0.00    -0.064 C 
ATOM     13  C   UNL A   1      33.460  24.911  23.541  1.00  0.00     0.009 C 
ATOM     14  C   UNL A   1      32.480  21.772  23.156  1.00  0.00    -0.077 C 
ATOM     15  C   UNL A   1      33.518  20.945  23.875  1.00  0.00     0.039 C 
ATOM     16  C   UNL A   1      31.778  21.077  22.029  1.00  0.00     0.039 C 
BRANCH   8  17
ATOM     17  C   UNL A   1      30.068  26.034  24.225  1.00  0.00     0.228 C 
ATOM     18  N   UNL A   1      30.607  27.182  24.717  1.00  0.00    -0.326 N 
ATOM     19  H   UNL A   1      29.997  27.929  24.514  1.00  0.00     0.169 HD
ATOM     20  O   UNL A   1      28.969  26.217  23.665  1.00  0.00    -0.274 OA
BRANCH  18  21
ATOM     21  C   UNL A   1      31.729  27.691  25.414  1.00  0.00     0.041 A 
ATOM     22  C   UNL A   1      33.743  28.870  27.056  1.00  0.00     0.119 A 
ATOM     23  C   UNL A   1      33.868  28.858  25.683  1.00  0.00     0.048 A 
ATOM     24  C   UNL A   1      32.630  28.265  27.626  1.00  0.00     0.048 A 
ATOM     25  C   UNL A   1      32.898  28.232  24.895  1.00  0.00     0.030 A 
ATOM     26  C   UNL A   1      31.646  27.668  26.816  1.00  0.00     0.030 A 
BRANCH  22  27
ATOM     27  O   UNL A   1      34.625  29.491  27.887  1.00  0.00    -0.497 OA
ATOM     28  C   UNL A   1      35.925  29.705  27.339  1.00  0.00     0.278 C 
ENDBRANCH  22  27
ENDBRANCH  18  21
ENDBRANCH   8  17
ENDBRANCH   4   7
ENDBRANCH   2   3
ENDBRANCH   1   2
BRANCH   1  29
ATOM     29  C   UNL A   1      35.699  22.435  26.441  1.00  0.00     0.118 C 
BRANCH  29  30
ATOM     30  N   UNL A   1      36.599  21.383  25.997  1.00  0.00    -0.352 N 
ATOM     31  C   UNL A   1      37.945  21.457  25.751  1.00  0.00     0.251 C 
ATOM     32  H   UNL A   1      36.186  20.501  25.854  1.00  0.00     0.163 HD
ATOM     33  O   UNL A   1      38.503  20.548  25.138  1.00  0.00    -0.269 OA
BRANCH  31  34
ATOM     34  C   UNL A   1      38.708  22.636  26.210  1.00  0.00     0.039 A 
ATOM     35  C   UNL A   1      39.804  22.452  27.055  1.00  0.00     0.014 A 
ATOM     36  C   UNL A   1      38.340  23.922  25.801  1.00  0.00     0.014 A 
ATOM     37  C   UNL A   1      40.560  23.556  27.453  1.00  0.00     0.010 A 
ATOM     38  C   UNL A   1      39.145  25.007  26.125  1.00  0.00     0.010 A 
ATOM     39  C   UNL A   1      40.254  24.838  26.968  1.00  0.00    -0.014 A 
BRANCH  39  40
ATOM     40  C   UNL A   1      41.058  26.026  27.354  1.00  0.00     0.031 A 
ATOM     41  C   UNL A   1      40.427  27.110  28.186  1.00  0.00     0.074 A 
ATOM     42  C   UNL A   1      42.321  26.157  26.905  1.00  0.00     0.049 A 
ATOM     43  N   UNL A   1      40.911  28.272  28.539  1.00  0.00    -0.248 NA
ATOM     44  C   UNL A   1      39.053  26.865  28.654  1.00  0.00     0.031 C 
ATOM     45  C   UNL A   1      43.027  25.182  26.071  1.00  0.00     0.029 A 
ATOM     46  N   UNL A   1      43.233  27.167  27.077  1.00  0.00    -0.354 N 
ATOM     47  C   UNL A   1      39.899  28.902  29.255  1.00  0.00     0.074 A 
ATOM     48  C   UNL A   1      38.753  28.019  29.227  1.00  0.00     0.031 C 
ATOM     49  C   UNL A   1      44.268  25.631  25.825  1.00  0.00     0.029 A 
ATOM     50  C   UNL A   1      44.429  26.949  26.433  1.00  0.00     0.049 A 
ATOM     51  H   UNL A   1      43.050  27.974  27.612  1.00  0.00     0.167 HD
ATOM     52  C   UNL A   1      39.932  30.096  29.896  1.00  0.00     0.034 A 
ATOM     53  C   UNL A   1      45.522  27.730  26.327  1.00  0.00     0.034 A 
ATOM     54  C   UNL A   1      41.090  30.955  29.920  1.00  0.00     0.049 A 
ATOM     55  C   UNL A   1      45.521  29.075  27.011  1.00  0.00     0.074 A 
ATOM     56  C   UNL A   1      41.253  32.163  30.573  1.00  0.00     0.029 A 
ATOM     57  N   UNL A   1      42.282  30.702  29.250  1.00  0.00    -0.354 N 
ATOM     58  N   UNL A   1      44.569  29.641  27.718  1.00  0.00    -0.248 NA
ATOM     59  C   UNL A   1      46.742  29.882  26.892  1.00  0.00     0.031 C 
ATOM     60  C   UNL A   1      42.509  32.677  30.237  1.00  0.00     0.029 A 
ATOM     61  C   UNL A   1      43.170  31.748  29.449  1.00  0.00     0.049 A 
ATOM     62  H   UNL A   1      42.468  29.898  28.714  1.00  0.00     0.167 HD
ATOM     63  C   UNL A   1      45.095  30.852  28.161  1.00  0.00     0.074 A 
ATOM     64  C   UNL A   1      46.447  30.930  27.647  1.00  0.00     0.031 C 
ATOM     65  C   UNL A   1      44.517  31.810  28.929  1.00  0.00     0.034 A 
BRANCH  52  66
ATOM     66  C   UNL A   1      38.671  30.548  30.594  1.00  0.00     0.023 A 
ATOM     67  C   UNL A   1      37.726  31.372  29.957  1.00  0.00     0.031 A 
ATOM     68  C   UNL A   1      38.420  30.173  31.926  1.00  0.00     0.131 A 
ATOM     69  C   UNL A   1      36.623  31.859  30.673  1.00  0.00     0.055 A 
ATOM     70  C   UNL A   1      37.272  30.587  32.605  1.00  0.00     0.041 A 
ATOM     71  F   UNL A   1      39.294  29.407  32.597  1.00  0.00    -0.206 F 
ATOM     72  C   UNL A   1      36.373  31.448  31.984  1.00  0.00     0.022 A 
BRANCH  69  73
ATOM     73  S   UNL A   1      35.603  33.156  29.918  1.00  0.00     0.124 S 
ATOM     74  O   UNL A   1      35.408  34.068  31.042  1.00  0.00    -0.237 OA
ATOM     75  O   UNL A   1      36.458  33.643  28.841  1.00  0.00    -0.237 OA
ATOM     76  O   UNL A   1      34.403  32.442  29.488  1.00  0.00    -0.744 OA
ENDBRANCH  69  73
ENDBRANCH  52  66
BRANCH  53  77
ATOM     77  C   UNL A   1      46.703  27.278  25.533  1.00  0.00     0.023 A 
ATOM     78  C   UNL A   1      46.953  27.793  24.252  1.00  0.00     0.031 A 
ATOM     79  C   UNL A   1      47.575  26.291  26.027  1.00  0.00     0.131 A 
ATOM     80  C   UNL A   1      48.013  27.282  23.487  1.00  0.00     0.055 A 
ATOM     81  C   UNL A   1      48.666  25.831  25.287  1.00  0.00     0.041 A 
ATOM     82  F   UNL A   1      47.385  25.765  27.248  1.00  0.00    -0.206 F 
ATOM     83  C   UNL A   1      48.880  26.317  24.002  1.00  0.00     0.022 A 
BRANCH  80  84
ATOM     84  S   UNL A   1      48.181  27.828  21.764  1.00  0.00     0.124 S 
ATOM     85  O   UNL A   1      46.944  28.575  21.569  1.00  0.00    -0.237 OA
ATOM     86  O   UNL A   1      49.407  28.617  21.815  1.00  0.00    -0.237 OA
ATOM     87  O   UNL A   1      48.278  26.574  21.019  1.00  0.00    -0.744 OA
ENDBRANCH  80  84
ENDBRANCH  53  77
BRANCH  65  88
ATOM     88  C   UNL A   1      45.368  32.995  29.317  1.00  0.00     0.023 A 
ATOM     89  C   UNL A   1      45.393  34.177  28.556  1.00  0.00     0.031 A 
ATOM     90  C   UNL A   1      46.158  32.939  30.479  1.00  0.00     0.131 A 
ATOM     91  C   UNL A   1      46.229  35.236  28.941  1.00  0.00     0.055 A 
ATOM     92  C   UNL A   1      46.937  34.020  30.892  1.00  0.00     0.041 A 
ATOM     93  F   UNL A   1      46.176  31.834  31.242  1.00  0.00    -0.206 F 
ATOM     94  C   UNL A   1      46.985  35.173  30.115  1.00  0.00     0.022 A 
BRANCH  91  95
ATOM     95  S   UNL A   1      46.385  36.670  27.840  1.00  0.00     0.124 S 
ATOM     96  O   UNL A   1      47.516  37.381  28.428  1.00  0.00    -0.237 OA
ATOM     97  O   UNL A   1      46.630  36.044  26.544  1.00  0.00    -0.237 OA
ATOM     98  O   UNL A   1      45.094  37.342  27.968  1.00  0.00    -0.744 OA
ENDBRANCH  91  95
ENDBRANCH  65  88
ENDBRANCH  39  40
ENDBRANCH  31  34
ENDBRANCH  29  30
ENDBRANCH   1  29
TORSDOF 16
ENDMDL
MODEL 2
REMARK VINA RESULT:     -12.1      4.831      9.792
REMARK SMILES COc1ccc(NC(=O)[C@@H]2[C@@H](C(=O)NCCCNC(=O)c3ccc(-c4c5nc(c(-c6cc(S(=O)(=O)[O-])ccc6F)c6ccc([nH]6)c(-c6cc(S(=O)(=O)[O-])ccc6F)c6nc(c(-c7cc(S(=O)(=O)[O-])ccc7F)c7ccc4[nH]7)C=C6)C=C5)cc3)[C@@H]3CC[C@H]2C3=C(C)C)cc1
REMARK SMILES IDX 16 1 15 2 14 3 12 4 13 5 11 7 10 8 87 9 84 10 86 11 88 12
REMARK SMILES IDX 85 13 89 14 90 15 91 16 8 17 7 18 9 20 6 21 3 22 4 23 93 24
REMARK SMILES IDX 5 25 92 26 2 27 1 28 17 29 18 30 19 31 20 33 21 34 22 35
REMARK SMILES IDX 83 36 23 37 82 38 24 39 25 40 26 41 76 42 27 43 81 44 75 45
REMARK SMILES IDX 77 46 28 47 80 48 74 49 73 50 29 52 61 53 41 54 60 55 42 56
REMARK SMILES IDX 45 57 59 58 78 59 43 60 44 61 58 63 79 64 46 65 30 66 31 67
REMARK SMILES IDX 39 68 32 69 38 70 40 71 37 72 33 73 34 74 35 75 36 76 62 77
REMARK SMILES IDX 63 78 71 79 64 80 70 81 72 82 69 83 65 84 66 85 67 86 68 87
REMARK SMILES IDX 47 88 48 89 56 90 49 91 55 92 57 93 54 94 50 95 51 96 52 97
REMARK SMILES IDX 53 98
REMARK H PARENT 14 6 7 19 18 32 77 51 45 62
REMARK Flexibility Score: inf
ROOT
ATOM      1  C   UNL A   1      33.493  29.153  23.410  1.00  0.00     0.042 C 
ENDROOT
BRANCH   1   2
ATOM      2  C   UNL A   1      34.021  27.854  22.801  1.00  0.00     0.117 C 
BRANCH   2   3
ATOM      3  N   UNL A   1      33.048  27.300  21.883  1.00  0.00    -0.356 N 
ATOM      4  C   UNL A   1      32.563  26.040  21.738  1.00  0.00     0.224 C 
ATOM      5  O   UNL A   1      31.892  25.843  20.719  1.00  0.00    -0.275 OA
ATOM      6  H   UNL A   1      32.672  27.953  21.250  1.00  0.00     0.163 HD
BRANCH   4   7
ATOM      7  C   UNL A   1      32.600  25.001  22.872  1.00  0.00     0.098 C 
ATOM      8  C   UNL A   1      31.666  23.806  22.882  1.00  0.00     0.099 C 
ATOM      9  C   UNL A   1      30.636  24.116  23.990  1.00  0.00     0.028 C 
ATOM     10  C   UNL A   1      32.238  25.704  24.218  1.00  0.00     0.028 C 
ATOM     11  C   UNL A   1      31.206  23.791  25.362  1.00  0.00     0.009 C 
ATOM     12  C   UNL A   1      30.745  25.629  24.047  1.00  0.00    -0.064 C 
ATOM     13  C   UNL A   1      32.233  24.912  25.549  1.00  0.00     0.009 C 
ATOM     14  C   UNL A   1      29.854  26.631  24.018  1.00  0.00    -0.077 C 
ATOM     15  C   UNL A   1      30.253  28.078  24.170  1.00  0.00     0.039 C 
ATOM     16  C   UNL A   1      28.382  26.387  23.873  1.00  0.00     0.039 C 
BRANCH   8  17
ATOM     17  C   UNL A   1      32.342  22.427  22.895  1.00  0.00     0.228 C 
ATOM     18  N   UNL A   1      33.513  22.007  23.448  1.00  0.00    -0.326 N 
ATOM     19  H   UNL A   1      33.599  21.037  23.302  1.00  0.00     0.169 HD
ATOM     20  O   UNL A   1      31.703  21.502  22.357  1.00  0.00    -0.274 OA
BRANCH  18  21
ATOM     21  C   UNL A   1      34.649  22.462  24.158  1.00  0.00     0.041 A 
ATOM     22  C   UNL A   1      36.699  23.501  25.850  1.00  0.00     0.119 A 
ATOM     23  C   UNL A   1      36.773  23.644  24.481  1.00  0.00     0.048 A 
ATOM     24  C   UNL A   1      35.620  22.810  26.387  1.00  0.00     0.048 A 
ATOM     25  C   UNL A   1      35.787  23.086  23.662  1.00  0.00     0.030 A 
ATOM     26  C   UNL A   1      34.619  22.283  25.551  1.00  0.00     0.030 A 
BRANCH  22  27
ATOM     27  O   UNL A   1      37.598  24.048  26.714  1.00  0.00    -0.497 OA
ATOM     28  C   UNL A   1      38.951  24.040  26.263  1.00  0.00     0.278 C 
ENDBRANCH  22  27
ENDBRANCH  18  21
ENDBRANCH   8  17
ENDBRANCH   4   7
ENDBRANCH   2   3
ENDBRANCH   1   2
BRANCH   1  29
ATOM     29  C   UNL A   1      33.578  29.169  24.929  1.00  0.00     0.118 C 
BRANCH  29  30
ATOM     30  N   UNL A   1      32.834  30.281  25.499  1.00  0.00    -0.352 N 
ATOM     31  C   UNL A   1      33.053  30.937  26.682  1.00  0.00     0.251 C 
ATOM     32  H   UNL A   1      32.074  30.604  24.965  1.00  0.00     0.163 HD
ATOM     33  O   UNL A   1      32.183  31.680  27.136  1.00  0.00    -0.269 OA
BRANCH  31  34
ATOM     34  C   UNL A   1      34.323  30.733  27.407  1.00  0.00     0.039 A 
ATOM     35  C   UNL A   1      35.185  31.816  27.590  1.00  0.00     0.014 A 
ATOM     36  C   UNL A   1      34.658  29.471  27.910  1.00  0.00     0.014 A 
ATOM     37  C   UNL A   1      36.364  31.643  28.318  1.00  0.00     0.010 A 
ATOM     38  C   UNL A   1      35.786  29.323  28.708  1.00  0.00     0.010 A 
ATOM     39  C   UNL A   1      36.659  30.403  28.907  1.00  0.00    -0.014 A 
BRANCH  39  40
ATOM     40  C   UNL A   1      37.893  30.197  29.708  1.00  0.00     0.031 A 
ATOM     41  C   UNL A   1      39.018  29.374  29.141  1.00  0.00     0.074 A 
ATOM     42  C   UNL A   1      37.972  30.693  30.958  1.00  0.00     0.049 A 
ATOM     43  N   UNL A   1      40.128  28.983  29.710  1.00  0.00    -0.248 NA
ATOM     44  C   UNL A   1      38.853  28.900  27.757  1.00  0.00     0.031 C 
ATOM     45  C   UNL A   1      36.932  31.484  31.621  1.00  0.00     0.029 A 
ATOM     46  N   UNL A   1      38.965  30.597  31.900  1.00  0.00    -0.354 N 
ATOM     47  C   UNL A   1      40.785  28.206  28.763  1.00  0.00     0.074 A 
ATOM     48  C   UNL A   1      39.917  28.127  27.609  1.00  0.00     0.031 C 
ATOM     49  C   UNL A   1      37.354  31.820  32.850  1.00  0.00     0.029 A 
ATOM     50  C   UNL A   1      38.664  31.223  33.088  1.00  0.00     0.049 A 
ATOM     51  H   UNL A   1      39.814  30.124  31.741  1.00  0.00     0.167 HD
ATOM     52  C   UNL A   1      42.011  27.631  28.842  1.00  0.00     0.034 A 
ATOM     53  C   UNL A   1      39.357  31.290  34.242  1.00  0.00     0.034 A 
ATOM     54  C   UNL A   1      42.864  27.732  30.000  1.00  0.00     0.049 A 
ATOM     55  C   UNL A   1      40.700  30.605  34.323  1.00  0.00     0.074 A 
ATOM     56  C   UNL A   1      44.142  27.230  30.175  1.00  0.00     0.029 A 
ATOM     57  N   UNL A   1      42.523  28.370  31.187  1.00  0.00    -0.354 N 
ATOM     58  N   UNL A   1      41.326  29.905  33.404  1.00  0.00    -0.248 NA
ATOM     59  C   UNL A   1      41.431  30.727  35.590  1.00  0.00     0.031 C 
ATOM     60  C   UNL A   1      44.540  27.495  31.488  1.00  0.00     0.029 A 
ATOM     61  C   UNL A   1      43.552  28.245  32.107  1.00  0.00     0.049 A 
ATOM     62  H   UNL A   1      41.675  28.843  31.349  1.00  0.00     0.167 HD
ATOM     63  C   UNL A   1      42.544  29.539  33.972  1.00  0.00     0.074 A 
ATOM     64  C   UNL A   1      42.564  30.101  35.307  1.00  0.00     0.031 C 
ATOM     65  C   UNL A   1      43.557  28.812  33.437  1.00  0.00     0.034 A 
BRANCH  52  66
ATOM     66  C   UNL A   1      42.480  26.822  27.655  1.00  0.00     0.023 A 
ATOM     67  C   UNL A   1      42.299  25.429  27.591  1.00  0.00     0.031 A 
ATOM     68  C   UNL A   1      43.142  27.447  26.584  1.00  0.00     0.131 A 
ATOM     69  C   UNL A   1      42.843  24.700  26.524  1.00  0.00     0.055 A 
ATOM     70  C   UNL A   1      43.602  26.727  25.480  1.00  0.00     0.041 A 
ATOM     71  F   UNL A   1      43.366  28.770  26.597  1.00  0.00    -0.206 F 
ATOM     72  C   UNL A   1      43.468  25.341  25.452  1.00  0.00     0.022 A 
BRANCH  69  73
ATOM     73  S   UNL A   1      42.859  22.889  26.631  1.00  0.00     0.124 S 
ATOM     74  O   UNL A   1      42.118  22.661  27.870  1.00  0.00    -0.237 OA
ATOM     75  O   UNL A   1      42.182  22.493  25.402  1.00  0.00    -0.237 OA
ATOM     76  O   UNL A   1      44.281  22.561  26.695  1.00  0.00    -0.744 OA
ENDBRANCH  69  73
ENDBRANCH  52  66
BRANCH  53  77
ATOM     77  C   UNL A   1      38.797  32.014  35.421  1.00  0.00     0.023 A 
ATOM     78  C   UNL A   1      38.313  31.314  36.536  1.00  0.00     0.031 A 
ATOM     79  C   UNL A   1      38.695  33.417  35.430  1.00  0.00     0.131 A 
ATOM     80  C   UNL A   1      37.704  32.011  37.591  1.00  0.00     0.055 A 
ATOM     81  C   UNL A   1      38.145  34.111  36.509  1.00  0.00     0.041 A 
ATOM     82  F   UNL A   1      39.144  34.138  34.390  1.00  0.00    -0.206 F 
ATOM     83  C   UNL A   1      37.631  33.406  37.592  1.00  0.00     0.022 A 
BRANCH  80  84
ATOM     84  S   UNL A   1      36.913  31.060  38.918  1.00  0.00     0.124 S 
ATOM     85  O   UNL A   1      36.814  29.737  38.314  1.00  0.00    -0.237 OA
ATOM     86  O   UNL A   1      37.876  31.199  40.005  1.00  0.00    -0.237 OA
ATOM     87  O   UNL A   1      35.641  31.751  39.121  1.00  0.00    -0.744 OA
ENDBRANCH  80  84
ENDBRANCH  53  77
BRANCH  65  88
ATOM     88  C   UNL A   1      44.802  28.638  34.272  1.00  0.00     0.023 A 
ATOM     89  C   UNL A   1      44.979  27.537  35.129  1.00  0.00     0.031 A 
ATOM     90  C   UNL A   1      45.835  29.590  34.196  1.00  0.00     0.131 A 
ATOM     91  C   UNL A   1      46.140  27.442  35.910  1.00  0.00     0.055 A 
ATOM     92  C   UNL A   1      47.015  29.456  34.926  1.00  0.00     0.041 A 
ATOM     93  F   UNL A   1      45.718  30.664  33.397  1.00  0.00    -0.206 F 
ATOM     94  C   UNL A   1      47.168  28.384  35.799  1.00  0.00     0.022 A 
BRANCH  91  95
ATOM     95  S   UNL A   1      46.257  26.117  37.143  1.00  0.00     0.124 S 
ATOM     96  O   UNL A   1      47.547  26.394  37.766  1.00  0.00    -0.237 OA
ATOM     97  O   UNL A   1      45.082  26.359  37.975  1.00  0.00    -0.237 OA
ATOM     98  O   UNL A   1      46.204  24.896  36.340  1.00  0.00    -0.744 OA
ENDBRANCH  91  95
ENDBRANCH  65  88
ENDBRANCH  39  40
ENDBRANCH  31  34
ENDBRANCH  29  30
ENDBRANCH   1  29
TORSDOF 16
ENDMDL
MODEL 3
REMARK VINA RESULT:     -12.0      4.996      9.756
REMARK SMILES COc1ccc(NC(=O)[C@@H]2[C@@H](C(=O)NCCCNC(=O)c3ccc(-c4c5nc(c(-c6cc(S(=O)(=O)[O-])ccc6F)c6ccc([nH]6)c(-c6cc(S(=O)(=O)[O-])ccc6F)c6nc(c(-c7cc(S(=O)(=O)[O-])ccc7F)c7ccc4[nH]7)C=C6)C=C5)cc3)[C@@H]3CC[C@H]2C3=C(C)C)cc1
REMARK SMILES IDX 16 1 15 2 14 3 12 4 13 5 11 7 10 8 87 9 84 10 86 11 88 12
REMARK SMILES IDX 85 13 89 14 90 15 91 16 8 17 7 18 9 20 6 21 3 22 4 23 93 24
REMARK SMILES IDX 5 25 92 26 2 27 1 28 17 29 18 30 19 31 20 33 21 34 22 35
REMARK SMILES IDX 83 36 23 37 82 38 24 39 25 40 26 41 76 42 27 43 81 44 75 45
REMARK SMILES IDX 77 46 28 47 80 48 74 49 73 50 29 52 61 53 41 54 60 55 42 56
REMARK SMILES IDX 45 57 59 58 78 59 43 60 44 61 58 63 79 64 46 65 30 66 31 67
REMARK SMILES IDX 39 68 32 69 38 70 40 71 37 72 33 73 34 74 35 75 36 76 62 77
REMARK SMILES IDX 63 78 71 79 64 80 70 81 72 82 69 83 65 84 66 85 67 86 68 87
REMARK SMILES IDX 47 88 48 89 56 90 49 91 55 92 57 93 54 94 50 95 51 96 52 97
REMARK SMILES IDX 53 98
REMARK H PARENT 14 6 7 19 18 32 77 51 45 62
REMARK Flexibility Score: inf
ROOT
ATOM      1  C   UNL A   1      33.552  28.609  24.789  1.00  0.00     0.042 C 
ENDROOT
BRANCH   1   2
ATOM      2  C   UNL A   1      33.809  27.112  24.619  1.00  0.00     0.117 C 
BRANCH   2   3
ATOM      3  N   UNL A   1      33.717  26.743  23.221  1.00  0.00    -0.356 N 
ATOM      4  C   UNL A   1      33.453  25.556  22.619  1.00  0.00     0.224 C 
ATOM      5  O   UNL A   1      33.653  25.522  21.401  1.00  0.00    -0.275 OA
ATOM      6  H   UNL A   1      33.877  27.487  22.596  1.00  0.00     0.163 HD
BRANCH   4   7
ATOM      7  C   UNL A   1      32.700  24.415  23.328  1.00  0.00     0.098 C 
ATOM      8  C   UNL A   1      32.414  24.461  24.816  1.00  0.00     0.099 C 
ATOM      9  C   UNL A   1      33.376  23.425  25.438  1.00  0.00     0.028 C 
ATOM     10  C   UNL A   1      33.530  23.101  23.199  1.00  0.00     0.028 C 
ATOM     11  C   UNL A   1      32.822  22.017  25.286  1.00  0.00     0.009 C 
ATOM     12  C   UNL A   1      34.446  23.369  24.363  1.00  0.00    -0.064 C 
ATOM     13  C   UNL A   1      33.001  21.769  23.785  1.00  0.00     0.009 C 
ATOM     14  C   UNL A   1      35.784  23.463  24.372  1.00  0.00    -0.077 C 
ATOM     15  C   UNL A   1      36.619  23.293  23.126  1.00  0.00     0.039 C 
ATOM     16  C   UNL A   1      36.560  23.703  25.632  1.00  0.00     0.039 C 
BRANCH   8  17
ATOM     17  C   UNL A   1      30.932  24.396  25.217  1.00  0.00     0.228 C 
ATOM     18  N   UNL A   1      29.886  25.212  24.919  1.00  0.00    -0.326 N 
ATOM     19  H   UNL A   1      29.066  24.828  25.306  1.00  0.00     0.169 HD
ATOM     20  O   UNL A   1      30.594  23.403  25.891  1.00  0.00    -0.274 OA
BRANCH  18  21
ATOM     21  C   UNL A   1      29.550  26.414  24.251  1.00  0.00     0.041 A 
ATOM     22  C   UNL A   1      28.590  28.644  22.751  1.00  0.00     0.119 A 
ATOM     23  C   UNL A   1      29.942  28.407  22.877  1.00  0.00     0.048 A 
ATOM     24  C   UNL A   1      27.704  27.791  23.398  1.00  0.00     0.048 A 
ATOM     25  C   UNL A   1      30.398  27.340  23.657  1.00  0.00     0.030 A 
ATOM     26  C   UNL A   1      28.179  26.703  24.152  1.00  0.00     0.030 A 
BRANCH  22  27
ATOM     27  O   UNL A   1      28.069  29.637  21.980  1.00  0.00    -0.497 OA
ATOM     28  C   UNL A   1      28.986  30.672  21.626  1.00  0.00     0.278 C 
ENDBRANCH  22  27
ENDBRANCH  18  21
ENDBRANCH   8  17
ENDBRANCH   4   7
ENDBRANCH   2   3
ENDBRANCH   1   2
BRANCH   1  29
ATOM     29  C   UNL A   1      32.844  28.941  26.094  1.00  0.00     0.118 C 
BRANCH  29  30
ATOM     30  N   UNL A   1      32.544  30.360  26.198  1.00  0.00    -0.352 N 
ATOM     31  C   UNL A   1      33.129  31.299  27.007  1.00  0.00     0.251 C 
ATOM     32  H   UNL A   1      31.826  30.689  25.611  1.00  0.00     0.163 HD
ATOM     33  O   UNL A   1      32.587  32.394  27.159  1.00  0.00    -0.269 OA
BRANCH  31  34
ATOM     34  C   UNL A   1      34.393  30.981  27.701  1.00  0.00     0.039 A 
ATOM     35  C   UNL A   1      35.358  31.979  27.850  1.00  0.00     0.014 A 
ATOM     36  C   UNL A   1      34.621  29.697  28.207  1.00  0.00     0.014 A 
ATOM     37  C   UNL A   1      36.535  31.700  28.548  1.00  0.00     0.010 A 
ATOM     38  C   UNL A   1      35.751  29.448  28.977  1.00  0.00     0.010 A 
ATOM     39  C   UNL A   1      36.727  30.443  29.141  1.00  0.00    -0.014 A 
BRANCH  39  40
ATOM     40  C   UNL A   1      37.957  30.127  29.912  1.00  0.00     0.031 A 
ATOM     41  C   UNL A   1      38.967  29.170  29.338  1.00  0.00     0.074 A 
ATOM     42  C   UNL A   1      38.131  30.647  31.142  1.00  0.00     0.049 A 
ATOM     43  N   UNL A   1      40.047  28.677  29.887  1.00  0.00    -0.248 NA
ATOM     44  C   UNL A   1      38.707  28.676  27.976  1.00  0.00     0.031 C 
ATOM     45  C   UNL A   1      37.206  31.566  31.809  1.00  0.00     0.029 A 
ATOM     46  N   UNL A   1      39.138  30.471  32.056  1.00  0.00    -0.354 N 
ATOM     47  C   UNL A   1      40.585  27.805  28.946  1.00  0.00     0.074 A 
ATOM     48  C   UNL A   1      39.675  27.788  27.822  1.00  0.00     0.031 C 
ATOM     49  C   UNL A   1      37.701  31.890  33.014  1.00  0.00     0.029 A 
ATOM     50  C   UNL A   1      38.947  31.161  33.232  1.00  0.00     0.049 A 
ATOM     51  H   UNL A   1      39.926  29.904  31.888  1.00  0.00     0.167 HD
ATOM     52  C   UNL A   1      41.743  27.103  29.007  1.00  0.00     0.034 A 
ATOM     53  C   UNL A   1      39.680  31.185  34.362  1.00  0.00     0.034 A 
ATOM     54  C   UNL A   1      42.640  27.144  30.136  1.00  0.00     0.049 A 
ATOM     55  C   UNL A   1      40.943  30.361  34.425  1.00  0.00     0.074 A 
ATOM     56  C   UNL A   1      43.861  26.511  30.289  1.00  0.00     0.029 A 
ATOM     57  N   UNL A   1      42.409  27.850  31.311  1.00  0.00    -0.354 N 
ATOM     58  N   UNL A   1      41.459  29.570  33.512  1.00  0.00    -0.248 NA
ATOM     59  C   UNL A   1      41.725  30.439  35.665  1.00  0.00     0.031 C 
ATOM     60  C   UNL A   1      44.329  26.770  31.581  1.00  0.00     0.029 A 
ATOM     61  C   UNL A   1      43.448  27.640  32.204  1.00  0.00     0.049 A 
ATOM     62  H   UNL A   1      41.623  28.417  31.483  1.00  0.00     0.167 HD
ATOM     63  C   UNL A   1      42.648  29.090  34.055  1.00  0.00     0.074 A 
ATOM     64  C   UNL A   1      42.774  29.685  35.369  1.00  0.00     0.031 C 
ATOM     65  C   UNL A   1      43.559  28.241  33.513  1.00  0.00     0.034 A 
BRANCH  52  66
ATOM     66  C   UNL A   1      42.082  26.213  27.835  1.00  0.00     0.023 A 
ATOM     67  C   UNL A   1      41.624  24.887  27.754  1.00  0.00     0.031 A 
ATOM     68  C   UNL A   1      42.898  26.688  26.793  1.00  0.00     0.131 A 
ATOM     69  C   UNL A   1      42.048  24.060  26.704  1.00  0.00     0.055 A 
ATOM     70  C   UNL A   1      43.244  25.887  25.702  1.00  0.00     0.041 A 
ATOM     71  F   UNL A   1      43.387  27.938  26.823  1.00  0.00    -0.206 F 
ATOM     72  C   UNL A   1      42.832  24.559  25.661  1.00  0.00     0.022 A 
BRANCH  69  73
ATOM     73  S   UNL A   1      41.690  22.284  26.801  1.00  0.00     0.124 S 
ATOM     74  O   UNL A   1      40.251  22.287  27.056  1.00  0.00    -0.237 OA
ATOM     75  O   UNL A   1      42.104  21.806  25.487  1.00  0.00    -0.237 OA
ATOM     76  O   UNL A   1      42.512  21.828  27.919  1.00  0.00    -0.744 OA
ENDBRANCH  69  73
ENDBRANCH  52  66
BRANCH  53  77
ATOM     77  C   UNL A   1      39.241  32.000  35.533  1.00  0.00     0.023 A 
ATOM     78  C   UNL A   1      38.561  31.411  36.609  1.00  0.00     0.031 A 
ATOM     79  C   UNL A   1      39.456  33.390  35.572  1.00  0.00     0.131 A 
ATOM     80  C   UNL A   1      38.073  32.213  37.653  1.00  0.00     0.055 A 
ATOM     81  C   UNL A   1      39.024  34.175  36.643  1.00  0.00     0.041 A 
ATOM     82  F   UNL A   1      40.104  34.006  34.570  1.00  0.00    -0.206 F 
ATOM     83  C   UNL A   1      38.315  33.588  37.685  1.00  0.00     0.022 A 
BRANCH  80  84
ATOM     84  S   UNL A   1      37.028  31.445  38.922  1.00  0.00     0.124 S 
ATOM     85  O   UNL A   1      37.860  31.578  40.111  1.00  0.00    -0.237 OA
ATOM     86  O   UNL A   1      35.834  32.280  38.876  1.00  0.00    -0.237 OA
ATOM     87  O   UNL A   1      36.850  30.078  38.433  1.00  0.00    -0.744 OA
ENDBRANCH  80  84
ENDBRANCH  53  77
BRANCH  65  88
ATOM     88  C   UNL A   1      44.805  27.957  34.316  1.00  0.00     0.023 A 
ATOM     89  C   UNL A   1      44.894  26.864  35.196  1.00  0.00     0.031 A 
ATOM     90  C   UNL A   1      45.928  28.794  34.185  1.00  0.00     0.131 A 
ATOM     91  C   UNL A   1      46.063  26.666  35.946  1.00  0.00     0.055 A 
ATOM     92  C   UNL A   1      47.111  28.553  34.885  1.00  0.00     0.041 A 
ATOM     93  F   UNL A   1      45.898  29.856  33.363  1.00  0.00    -0.206 F 
ATOM     94  C   UNL A   1      47.179  27.492  35.780  1.00  0.00     0.022 A 
BRANCH  91  95
ATOM     95  S   UNL A   1      46.080  25.364  37.209  1.00  0.00     0.124 S 
ATOM     96  O   UNL A   1      46.613  26.073  38.368  1.00  0.00    -0.237 OA
ATOM     97  O   UNL A   1      44.672  24.985  37.286  1.00  0.00    -0.237 OA
ATOM     98  O   UNL A   1      46.964  24.347  36.642  1.00  0.00    -0.744 OA
ENDBRANCH  91  95
ENDBRANCH  65  88
ENDBRANCH  39  40
ENDBRANCH  31  34
ENDBRANCH  29  30
ENDBRANCH   1  29
TORSDOF 16
ENDMDL
