MODEL 1
REMARK VINA RESULT:     -13.1      0.000      0.000
REMARK SMILES O=C(NCCCNC(=O)c1cccn2c(=O)c3ccc(Cl)cc3nc12)c1ccc(-c2c3nc(c(-c4cc(S(=O)(=O)[O-])ccc4F)c4ccc([nH]4)c(-c4cc(S(=O)(=O)[O-])ccc4F)c4nc(c(-c5cc(S(=O)(=O)[O-])ccc5F)c5ccc2[nH]5)C=C4)C=C3)cc1
REMARK SMILES IDX 1 1 2 2 3 3 26 5 27 6 88 7 28 8 87 9 29 10 30 11 31 12 81 13
REMARK SMILES IDX 32 14 86 15 80 16 82 17 33 18 85 19 79 20 78 21 34 23 66 24
REMARK SMILES IDX 46 25 65 26 47 27 50 28 64 29 83 30 48 31 49 32 63 34 84 35
REMARK SMILES IDX 51 36 35 37 36 38 44 39 37 40 43 41 45 42 42 43 38 44 39 45
REMARK SMILES IDX 40 46 41 47 67 48 68 49 76 50 69 51 75 52 77 53 74 54 70 55
REMARK SMILES IDX 71 56 72 57 73 58 52 59 53 60 61 61 54 62 60 63 62 64 59 65
REMARK SMILES IDX 55 66 56 67 57 68 58 69 4 70 5 71 6 72 7 73 8 74 9 76 10 77
REMARK SMILES IDX 11 78 25 79 12 80 14 81 24 82 13 83 15 84 23 85 16 86 17 87
REMARK SMILES IDX 22 88 18 89 20 90 19 91 21 92
REMARK H PARENT 3 4 82 22 50 33 7 75
REMARK Flexibility Score: inf
ROOT
ATOM      1  O   UNL A   1      38.781  20.083  25.351  1.00  0.00    -0.269 OA
ATOM      2  C   UNL A   1      38.131  21.055  25.732  1.00  0.00     0.251 C 
ATOM      3  N   UNL A   1      36.760  20.967  25.734  1.00  0.00    -0.352 N 
ATOM      4  H   UNL A   1      36.408  20.063  25.570  1.00  0.00     0.163 HD
ENDROOT
BRANCH   2   5
ATOM      5  C   UNL A   1      38.833  22.284  26.174  1.00  0.00     0.039 A 
ATOM      6  C   UNL A   1      38.328  23.526  25.772  1.00  0.00     0.014 A 
ATOM      7  C   UNL A   1      40.022  22.230  26.905  1.00  0.00     0.014 A 
ATOM      8  C   UNL A   1      38.996  24.702  26.125  1.00  0.00     0.010 A 
ATOM      9  C   UNL A   1      40.637  23.405  27.333  1.00  0.00     0.010 A 
ATOM     10  C   UNL A   1      40.151  24.653  26.919  1.00  0.00    -0.014 A 
BRANCH  10  11
ATOM     11  C   UNL A   1      40.911  25.883  27.266  1.00  0.00     0.031 A 
ATOM     12  C   UNL A   1      40.264  26.944  28.116  1.00  0.00     0.074 A 
ATOM     13  C   UNL A   1      42.156  26.070  26.786  1.00  0.00     0.049 A 
ATOM     14  N   UNL A   1      40.725  28.117  28.468  1.00  0.00    -0.248 NA
ATOM     15  C   UNL A   1      38.908  26.661  28.616  1.00  0.00     0.031 C 
ATOM     16  C   UNL A   1      42.875  25.128  25.929  1.00  0.00     0.029 A 
ATOM     17  N   UNL A   1      43.034  27.115  26.943  1.00  0.00    -0.354 N 
ATOM     18  C   UNL A   1      39.712  28.715  29.210  1.00  0.00     0.074 A 
ATOM     19  C   UNL A   1      38.591  27.805  29.206  1.00  0.00     0.031 C 
ATOM     20  C   UNL A   1      44.092  25.624  25.658  1.00  0.00     0.029 A 
ATOM     21  C   UNL A   1      44.227  26.940  26.281  1.00  0.00     0.049 A 
ATOM     22  H   UNL A   1      42.828  27.915  27.480  1.00  0.00     0.167 HD
ATOM     23  C   UNL A   1      39.728  29.900  29.864  1.00  0.00     0.034 A 
ATOM     24  C   UNL A   1      45.305  27.746  26.183  1.00  0.00     0.034 A 
ATOM     25  C   UNL A   1      40.867  30.780  29.894  1.00  0.00     0.049 A 
ATOM     26  C   UNL A   1      45.303  29.062  26.922  1.00  0.00     0.074 A 
ATOM     27  C   UNL A   1      41.002  31.976  30.573  1.00  0.00     0.029 A 
ATOM     28  N   UNL A   1      42.066  30.556  29.233  1.00  0.00    -0.354 N 
ATOM     29  N   UNL A   1      44.365  29.580  27.680  1.00  0.00    -0.248 NA
ATOM     30  C   UNL A   1      46.505  29.901  26.806  1.00  0.00     0.031 C 
ATOM     31  C   UNL A   1      42.259  32.503  30.280  1.00  0.00     0.029 A 
ATOM     32  C   UNL A   1      42.938  31.603  29.474  1.00  0.00     0.049 A 
ATOM     33  H   UNL A   1      42.267  29.769  28.676  1.00  0.00     0.167 HD
ATOM     34  C   UNL A   1      44.873  30.789  28.152  1.00  0.00     0.074 A 
ATOM     35  C   UNL A   1      46.210  30.914  27.612  1.00  0.00     0.031 C 
ATOM     36  C   UNL A   1      44.281  31.709  28.953  1.00  0.00     0.034 A 
BRANCH  23  37
ATOM     37  C   UNL A   1      38.499  30.315  30.635  1.00  0.00     0.023 A 
ATOM     38  C   UNL A   1      37.494  31.074  30.007  1.00  0.00     0.031 A 
ATOM     39  C   UNL A   1      38.380  30.064  32.015  1.00  0.00     0.131 A 
ATOM     40  C   UNL A   1      36.430  31.580  30.765  1.00  0.00     0.055 A 
ATOM     41  C   UNL A   1      37.295  30.532  32.754  1.00  0.00     0.041 A 
ATOM     42  F   UNL A   1      39.314  29.346  32.660  1.00  0.00    -0.206 F 
ATOM     43  C   UNL A   1      36.320  31.305  32.132  1.00  0.00     0.022 A 
BRANCH  40  44
ATOM     44  S   UNL A   1      35.182  32.664  30.019  1.00  0.00     0.124 S 
ATOM     45  O   UNL A   1      35.962  33.871  29.743  1.00  0.00    -0.237 OA
ATOM     46  O   UNL A   1      34.783  31.899  28.837  1.00  0.00    -0.237 OA
ATOM     47  O   UNL A   1      34.170  32.803  31.053  1.00  0.00    -0.744 OA
ENDBRANCH  40  44
ENDBRANCH  23  37
BRANCH  24  48
ATOM     48  C   UNL A   1      46.494  27.279  25.409  1.00  0.00     0.023 A 
ATOM     49  C   UNL A   1      46.817  27.841  24.160  1.00  0.00     0.031 A 
ATOM     50  C   UNL A   1      47.259  26.189  25.859  1.00  0.00     0.131 A 
ATOM     51  C   UNL A   1      47.828  27.267  23.377  1.00  0.00     0.055 A 
ATOM     52  C   UNL A   1      48.312  25.665  25.107  1.00  0.00     0.041 A 
ATOM     53  F   UNL A   1      46.982  25.610  27.038  1.00  0.00    -0.206 F 
ATOM     54  C   UNL A   1      48.590  26.194  23.851  1.00  0.00     0.022 A 
BRANCH  51  55
ATOM     55  S   UNL A   1      48.099  27.806  21.666  1.00  0.00     0.124 S 
ATOM     56  O   UNL A   1      46.870  28.539  21.378  1.00  0.00    -0.237 OA
ATOM     57  O   UNL A   1      49.305  28.621  21.798  1.00  0.00    -0.237 OA
ATOM     58  O   UNL A   1      48.275  26.556  20.934  1.00  0.00    -0.744 OA
ENDBRANCH  51  55
ENDBRANCH  24  48
BRANCH  36  59
ATOM     59  C   UNL A   1      45.053  32.951  29.331  1.00  0.00     0.023 A 
ATOM     60  C   UNL A   1      44.990  34.094  28.509  1.00  0.00     0.031 A 
ATOM     61  C   UNL A   1      45.976  32.944  30.390  1.00  0.00     0.131 A 
ATOM     62  C   UNL A   1      45.871  35.160  28.728  1.00  0.00     0.055 A 
ATOM     63  C   UNL A   1      46.818  34.030  30.635  1.00  0.00     0.041 A 
ATOM     64  F   UNL A   1      46.083  31.874  31.194  1.00  0.00    -0.206 F 
ATOM     65  C   UNL A   1      46.780  35.138  29.792  1.00  0.00     0.022 A 
BRANCH  62  66
ATOM     66  S   UNL A   1      45.941  36.568  27.585  1.00  0.00     0.124 S 
ATOM     67  O   UNL A   1      47.130  36.255  26.795  1.00  0.00    -0.237 OA
ATOM     68  O   UNL A   1      44.671  36.450  26.874  1.00  0.00    -0.237 OA
ATOM     69  O   UNL A   1      46.065  37.728  28.461  1.00  0.00    -0.744 OA
ENDBRANCH  62  66
ENDBRANCH  36  59
ENDBRANCH  10  11
ENDBRANCH   2   5
BRANCH   3  70
ATOM     70  C   UNL A   1      35.741  21.987  25.937  1.00  0.00     0.118 C 
BRANCH  70  71
ATOM     71  C   UNL A   1      34.555  21.486  26.750  1.00  0.00     0.042 C 
BRANCH  71  72
ATOM     72  C   UNL A   1      33.710  22.575  27.393  1.00  0.00     0.118 C 
BRANCH  72  73
ATOM     73  N   UNL A   1      32.279  22.390  27.191  1.00  0.00    -0.352 N 
ATOM     74  C   UNL A   1      31.515  22.556  26.069  1.00  0.00     0.255 C 
ATOM     75  H   UNL A   1      31.784  22.096  27.990  1.00  0.00     0.163 HD
ATOM     76  O   UNL A   1      30.309  22.322  26.125  1.00  0.00    -0.269 OA
BRANCH  74  77
ATOM     77  C   UNL A   1      32.161  22.966  24.799  1.00  0.00     0.083 A 
ATOM     78  C   UNL A   1      32.267  22.054  23.817  1.00  0.00     0.019 A 
ATOM     79  C   UNL A   1      32.555  24.390  24.524  1.00  0.00     0.153 A 
ATOM     80  C   UNL A   1      32.890  22.381  22.566  1.00  0.00     0.019 A 
ATOM     81  N   UNL A   1      33.114  24.652  23.265  1.00  0.00    -0.267 N 
ATOM     82  N   UNL A   1      32.378  25.310  25.421  1.00  0.00    -0.229 NA
ATOM     83  C   UNL A   1      33.289  23.634  22.333  1.00  0.00     0.096 A 
ATOM     84  C   UNL A   1      33.512  25.943  22.907  1.00  0.00     0.265 A 
ATOM     85  C   UNL A   1      32.701  26.636  25.117  1.00  0.00     0.080 A 
ATOM     86  O   UNL A   1      34.024  26.248  21.830  1.00  0.00    -0.268 OA
ATOM     87  C   UNL A   1      33.261  27.003  23.897  1.00  0.00     0.066 A 
ATOM     88  C   UNL A   1      32.420  27.630  26.058  1.00  0.00     0.049 A 
ATOM     89  C   UNL A   1      33.551  28.342  23.606  1.00  0.00     0.017 A 
ATOM     90  C   UNL A   1      32.697  28.968  25.771  1.00  0.00     0.043 A 
ATOM     91  C   UNL A   1      33.263  29.329  24.549  1.00  0.00     0.021 A 
ATOM     92  Cl  UNL A   1      32.324  30.189  26.925  1.00  0.00    -0.084 Cl
ENDBRANCH  74  77
ENDBRANCH  72  73
ENDBRANCH  71  72
ENDBRANCH  70  71
ENDBRANCH   3  70
TORSDOF 13
ENDMDL
MODEL 2
REMARK VINA RESULT:     -12.9      2.155      3.349
REMARK SMILES O=C(NCCCNC(=O)c1cccn2c(=O)c3ccc(Cl)cc3nc12)c1ccc(-c2c3nc(c(-c4cc(S(=O)(=O)[O-])ccc4F)c4ccc([nH]4)c(-c4cc(S(=O)(=O)[O-])ccc4F)c4nc(c(-c5cc(S(=O)(=O)[O-])ccc5F)c5ccc2[nH]5)C=C4)C=C3)cc1
REMARK SMILES IDX 1 1 2 2 3 3 26 5 27 6 88 7 28 8 87 9 29 10 30 11 31 12 81 13
REMARK SMILES IDX 32 14 86 15 80 16 82 17 33 18 85 19 79 20 78 21 34 23 66 24
REMARK SMILES IDX 46 25 65 26 47 27 50 28 64 29 83 30 48 31 49 32 63 34 84 35
REMARK SMILES IDX 51 36 35 37 36 38 44 39 37 40 43 41 45 42 42 43 38 44 39 45
REMARK SMILES IDX 40 46 41 47 67 48 68 49 76 50 69 51 75 52 77 53 74 54 70 55
REMARK SMILES IDX 71 56 72 57 73 58 52 59 53 60 61 61 54 62 60 63 62 64 59 65
REMARK SMILES IDX 55 66 56 67 57 68 58 69 4 70 5 71 6 72 7 73 8 74 9 76 10 77
REMARK SMILES IDX 11 78 25 79 12 80 14 81 24 82 13 83 15 84 23 85 16 86 17 87
REMARK SMILES IDX 22 88 18 89 20 90 19 91 21 92
REMARK H PARENT 3 4 82 22 50 33 7 75
REMARK Flexibility Score: inf
ROOT
ATOM      1  O   UNL A   1      39.545  19.644  25.769  1.00  0.00    -0.269 OA
ATOM      2  C   UNL A   1      38.867  20.671  25.809  1.00  0.00     0.251 C 
ATOM      3  N   UNL A   1      37.546  20.598  25.440  1.00  0.00    -0.352 N 
ATOM      4  H   UNL A   1      37.205  19.683  25.318  1.00  0.00     0.163 HD
ENDROOT
BRANCH   2   5
ATOM      5  C   UNL A   1      39.485  21.945  26.246  1.00  0.00     0.039 A 
ATOM      6  C   UNL A   1      38.905  23.149  25.830  1.00  0.00     0.014 A 
ATOM      7  C   UNL A   1      40.668  21.974  26.987  1.00  0.00     0.014 A 
ATOM      8  C   UNL A   1      39.492  24.369  26.179  1.00  0.00     0.010 A 
ATOM      9  C   UNL A   1      41.203  23.189  27.411  1.00  0.00     0.010 A 
ATOM     10  C   UNL A   1      40.642  24.400  26.983  1.00  0.00    -0.014 A 
BRANCH  10  11
ATOM     11  C   UNL A   1      41.318  25.680  27.325  1.00  0.00     0.031 A 
ATOM     12  C   UNL A   1      40.599  26.700  28.167  1.00  0.00     0.074 A 
ATOM     13  C   UNL A   1      42.550  25.945  26.849  1.00  0.00     0.049 A 
ATOM     14  N   UNL A   1      40.980  27.902  28.514  1.00  0.00    -0.248 NA
ATOM     15  C   UNL A   1      39.262  26.332  28.663  1.00  0.00     0.031 C 
ATOM     16  C   UNL A   1      43.333  25.048  26.000  1.00  0.00     0.029 A 
ATOM     17  N   UNL A   1      43.356  27.046  27.003  1.00  0.00    -0.354 N 
ATOM     18  C   UNL A   1      39.927  28.437  29.249  1.00  0.00     0.074 A 
ATOM     19  C   UNL A   1      38.868  27.455  29.246  1.00  0.00     0.031 C 
ATOM     20  C   UNL A   1      44.515  25.621  25.730  1.00  0.00     0.029 A 
ATOM     21  C   UNL A   1      44.561  26.947  26.347  1.00  0.00     0.049 A 
ATOM     22  H   UNL A   1      43.096  27.834  27.535  1.00  0.00     0.167 HD
ATOM     23  C   UNL A   1      39.862  29.624  29.897  1.00  0.00     0.034 A 
ATOM     24  C   UNL A   1      45.584  27.821  26.249  1.00  0.00     0.034 A 
ATOM     25  C   UNL A   1      40.941  30.576  29.926  1.00  0.00     0.049 A 
ATOM     26  C   UNL A   1      45.493  29.138  26.980  1.00  0.00     0.074 A 
ATOM     27  C   UNL A   1      40.995  31.783  30.599  1.00  0.00     0.029 A 
ATOM     28  N   UNL A   1      42.155  30.428  29.270  1.00  0.00    -0.354 N 
ATOM     29  N   UNL A   1      44.520  29.597  27.732  1.00  0.00    -0.248 NA
ATOM     30  C   UNL A   1      46.637  30.053  26.864  1.00  0.00     0.031 C 
ATOM     31  C   UNL A   1      42.216  32.390  30.308  1.00  0.00     0.029 A 
ATOM     32  C   UNL A   1      42.956  31.531  29.509  1.00  0.00     0.049 A 
ATOM     33  H   UNL A   1      42.409  29.653  28.719  1.00  0.00     0.167 HD
ATOM     34  C   UNL A   1      44.945  30.839  28.199  1.00  0.00     0.074 A 
ATOM     35  C   UNL A   1      46.273  31.049  27.663  1.00  0.00     0.031 C 
ATOM     36  C   UNL A   1      44.291  31.723  28.993  1.00  0.00     0.034 A 
BRANCH  23  37
ATOM     37  C   UNL A   1      38.606  29.962  30.661  1.00  0.00     0.023 A 
ATOM     38  C   UNL A   1      37.638  30.808  30.089  1.00  0.00     0.031 A 
ATOM     39  C   UNL A   1      38.424  29.545  31.992  1.00  0.00     0.131 A 
ATOM     40  C   UNL A   1      36.548  31.235  30.859  1.00  0.00     0.055 A 
ATOM     41  C   UNL A   1      37.313  29.936  32.738  1.00  0.00     0.041 A 
ATOM     42  F   UNL A   1      39.321  28.738  32.583  1.00  0.00    -0.206 F 
ATOM     43  C   UNL A   1      36.375  30.796  32.176  1.00  0.00     0.022 A 
BRANCH  40  44
ATOM     44  S   UNL A   1      35.346  32.423  30.200  1.00  0.00     0.124 S 
ATOM     45  O   UNL A   1      34.829  31.708  29.033  1.00  0.00    -0.237 OA
ATOM     46  O   UNL A   1      34.407  32.554  31.315  1.00  0.00    -0.237 OA
ATOM     47  O   UNL A   1      36.141  33.603  29.903  1.00  0.00    -0.744 OA
ENDBRANCH  40  44
ENDBRANCH  23  37
BRANCH  24  48
ATOM     48  C   UNL A   1      46.805  27.429  25.482  1.00  0.00     0.023 A 
ATOM     49  C   UNL A   1      47.021  27.891  24.170  1.00  0.00     0.031 A 
ATOM     50  C   UNL A   1      47.715  26.499  26.011  1.00  0.00     0.131 A 
ATOM     51  C   UNL A   1      48.078  27.370  23.413  1.00  0.00     0.055 A 
ATOM     52  C   UNL A   1      48.809  26.036  25.277  1.00  0.00     0.041 A 
ATOM     53  F   UNL A   1      47.545  26.018  27.253  1.00  0.00    -0.206 F 
ATOM     54  C   UNL A   1      48.985  26.459  23.964  1.00  0.00     0.022 A 
BRANCH  51  55
ATOM     55  S   UNL A   1      48.234  27.754  21.646  1.00  0.00     0.124 S 
ATOM     56  O   UNL A   1      46.919  28.305  21.335  1.00  0.00    -0.237 OA
ATOM     57  O   UNL A   1      49.337  28.713  21.646  1.00  0.00    -0.237 OA
ATOM     58  O   UNL A   1      48.539  26.463  21.037  1.00  0.00    -0.744 OA
ENDBRANCH  51  55
ENDBRANCH  24  48
BRANCH  36  59
ATOM     59  C   UNL A   1      44.978  33.015  29.367  1.00  0.00     0.023 A 
ATOM     60  C   UNL A   1      44.924  34.118  28.491  1.00  0.00     0.031 A 
ATOM     61  C   UNL A   1      45.822  33.096  30.487  1.00  0.00     0.131 A 
ATOM     62  C   UNL A   1      45.739  35.232  28.722  1.00  0.00     0.055 A 
ATOM     63  C   UNL A   1      46.596  34.231  30.741  1.00  0.00     0.041 A 
ATOM     64  F   UNL A   1      45.918  32.067  31.345  1.00  0.00    -0.206 F 
ATOM     65  C   UNL A   1      46.569  35.298  29.847  1.00  0.00     0.022 A 
BRANCH  62  66
ATOM     66  S   UNL A   1      45.830  36.592  27.524  1.00  0.00     0.124 S 
ATOM     67  O   UNL A   1      44.699  37.425  27.928  1.00  0.00    -0.237 OA
ATOM     68  O   UNL A   1      47.148  37.156  27.798  1.00  0.00    -0.237 OA
ATOM     69  O   UNL A   1      45.685  35.933  26.231  1.00  0.00    -0.744 OA
ENDBRANCH  62  66
ENDBRANCH  36  59
ENDBRANCH  10  11
ENDBRANCH   2   5
BRANCH   3  70
ATOM     70  C   UNL A   1      36.566  21.647  25.201  1.00  0.00     0.118 C 
BRANCH  70  71
ATOM     71  C   UNL A   1      35.566  21.795  26.340  1.00  0.00     0.042 C 
BRANCH  71  72
ATOM     72  C   UNL A   1      35.039  23.207  26.554  1.00  0.00     0.118 C 
BRANCH  72  73
ATOM     73  N   UNL A   1      33.798  23.249  27.317  1.00  0.00    -0.352 N 
ATOM     74  C   UNL A   1      32.498  23.239  26.893  1.00  0.00     0.255 C 
ATOM     75  H   UNL A   1      33.915  23.290  28.293  1.00  0.00     0.163 HD
ATOM     76  O   UNL A   1      31.596  23.265  27.728  1.00  0.00    -0.269 OA
BRANCH  74  77
ATOM     77  C   UNL A   1      32.203  23.149  25.443  1.00  0.00     0.083 A 
ATOM     78  C   UNL A   1      32.010  24.292  24.761  1.00  0.00     0.019 A 
ATOM     79  C   UNL A   1      32.265  21.849  24.692  1.00  0.00     0.153 A 
ATOM     80  C   UNL A   1      31.711  24.277  23.357  1.00  0.00     0.019 A 
ATOM     81  N   UNL A   1      32.010  21.910  23.314  1.00  0.00    -0.267 N 
ATOM     82  N   UNL A   1      32.541  20.742  25.309  1.00  0.00    -0.229 NA
ATOM     83  C   UNL A   1      31.716  23.119  22.692  1.00  0.00     0.096 A 
ATOM     84  C   UNL A   1      32.046  20.758  22.523  1.00  0.00     0.265 A 
ATOM     85  C   UNL A   1      32.648  19.556  24.576  1.00  0.00     0.080 A 
ATOM     86  O   UNL A   1      31.818  20.728  21.313  1.00  0.00    -0.268 OA
ATOM     87  C   UNL A   1      32.415  19.507  23.205  1.00  0.00     0.066 A 
ATOM     88  C   UNL A   1      33.035  18.388  25.238  1.00  0.00     0.049 A 
ATOM     89  C   UNL A   1      32.556  18.311  22.488  1.00  0.00     0.017 A 
ATOM     90  C   UNL A   1      33.188  17.195  24.529  1.00  0.00     0.043 A 
ATOM     91  C   UNL A   1      32.947  17.151  23.155  1.00  0.00     0.021 A 
ATOM     92  Cl  UNL A   1      33.691  15.767  25.347  1.00  0.00    -0.084 Cl
ENDBRANCH  74  77
ENDBRANCH  72  73
ENDBRANCH  71  72
ENDBRANCH  70  71
ENDBRANCH   3  70
TORSDOF 13
ENDMDL
MODEL 3
REMARK VINA RESULT:     -12.9      5.038      9.958
REMARK SMILES O=C(NCCCNC(=O)c1cccn2c(=O)c3ccc(Cl)cc3nc12)c1ccc(-c2c3nc(c(-c4cc(S(=O)(=O)[O-])ccc4F)c4ccc([nH]4)c(-c4cc(S(=O)(=O)[O-])ccc4F)c4nc(c(-c5cc(S(=O)(=O)[O-])ccc5F)c5ccc2[nH]5)C=C4)C=C3)cc1
REMARK SMILES IDX 1 1 2 2 3 3 26 5 27 6 88 7 28 8 87 9 29 10 30 11 31 12 81 13
REMARK SMILES IDX 32 14 86 15 80 16 82 17 33 18 85 19 79 20 78 21 34 23 66 24
REMARK SMILES IDX 46 25 65 26 47 27 50 28 64 29 83 30 48 31 49 32 63 34 84 35
REMARK SMILES IDX 51 36 35 37 36 38 44 39 37 40 43 41 45 42 42 43 38 44 39 45
REMARK SMILES IDX 40 46 41 47 67 48 68 49 76 50 69 51 75 52 77 53 74 54 70 55
REMARK SMILES IDX 71 56 72 57 73 58 52 59 53 60 61 61 54 62 60 63 62 64 59 65
REMARK SMILES IDX 55 66 56 67 57 68 58 69 4 70 5 71 6 72 7 73 8 74 9 76 10 77
REMARK SMILES IDX 11 78 25 79 12 80 14 81 24 82 13 83 15 84 23 85 16 86 17 87
REMARK SMILES IDX 22 88 18 89 20 90 19 91 21 92
REMARK H PARENT 3 4 82 22 50 33 7 75
REMARK Flexibility Score: inf
ROOT
ATOM      1  O   UNL A   1      32.366  32.217  27.252  1.00  0.00    -0.269 OA
ATOM      2  C   UNL A   1      33.028  31.261  26.849  1.00  0.00     0.251 C 
ATOM      3  N   UNL A   1      32.544  30.524  25.796  1.00  0.00    -0.352 N 
ATOM      4  H   UNL A   1      31.765  30.921  25.343  1.00  0.00     0.163 HD
ENDROOT
BRANCH   2   5
ATOM      5  C   UNL A   1      34.317  30.931  27.503  1.00  0.00     0.039 A 
ATOM      6  C   UNL A   1      34.492  29.645  28.028  1.00  0.00     0.014 A 
ATOM      7  C   UNL A   1      35.319  31.887  27.681  1.00  0.00     0.014 A 
ATOM      8  C   UNL A   1      35.674  29.316  28.699  1.00  0.00     0.010 A 
ATOM      9  C   UNL A   1      36.532  31.533  28.269  1.00  0.00     0.010 A 
ATOM     10  C   UNL A   1      36.710  30.254  28.816  1.00  0.00    -0.014 A 
BRANCH  10  11
ATOM     11  C   UNL A   1      37.955  29.950  29.569  1.00  0.00     0.031 A 
ATOM     12  C   UNL A   1      38.961  28.991  28.989  1.00  0.00     0.074 A 
ATOM     13  C   UNL A   1      38.163  30.493  30.784  1.00  0.00     0.049 A 
ATOM     14  N   UNL A   1      40.069  28.537  29.516  1.00  0.00    -0.248 NA
ATOM     15  C   UNL A   1      38.671  28.451  27.650  1.00  0.00     0.031 C 
ATOM     16  C   UNL A   1      37.248  31.411  31.462  1.00  0.00     0.029 A 
ATOM     17  N   UNL A   1      39.205  30.348  31.668  1.00  0.00    -0.354 N 
ATOM     18  C   UNL A   1      40.594  27.647  28.584  1.00  0.00     0.074 A 
ATOM     19  C   UNL A   1      39.655  27.578  27.490  1.00  0.00     0.031 C 
ATOM     20  C   UNL A   1      37.779  31.768  32.641  1.00  0.00     0.029 A 
ATOM     21  C   UNL A   1      39.051  31.071  32.829  1.00  0.00     0.049 A 
ATOM     22  H   UNL A   1      39.990  29.780  31.487  1.00  0.00     0.167 HD
ATOM     23  C   UNL A   1      41.769  26.975  28.623  1.00  0.00     0.034 A 
ATOM     24  C   UNL A   1      39.839  31.161  33.920  1.00  0.00     0.034 A 
ATOM     25  C   UNL A   1      42.715  27.085  29.702  1.00  0.00     0.049 A 
ATOM     26  C   UNL A   1      41.146  30.405  33.942  1.00  0.00     0.074 A 
ATOM     27  C   UNL A   1      43.958  26.488  29.810  1.00  0.00     0.029 A 
ATOM     28  N   UNL A   1      42.535  27.847  30.848  1.00  0.00    -0.354 N 
ATOM     29  N   UNL A   1      41.663  29.626  33.021  1.00  0.00    -0.248 NA
ATOM     30  C   UNL A   1      41.985  30.547  35.141  1.00  0.00     0.031 C 
ATOM     31  C   UNL A   1      44.506  26.843  31.042  1.00  0.00     0.029 A 
ATOM     32  C   UNL A   1      43.637  27.719  31.676  1.00  0.00     0.049 A 
ATOM     33  H   UNL A   1      41.742  28.397  31.043  1.00  0.00     0.167 HD
ATOM     34  C   UNL A   1      42.895  29.207  33.517  1.00  0.00     0.074 A 
ATOM     35  C   UNL A   1      43.057  29.838  34.809  1.00  0.00     0.031 C 
ATOM     36  C   UNL A   1      43.804  28.372  32.953  1.00  0.00     0.034 A 
BRANCH  23  37
ATOM     37  C   UNL A   1      42.130  26.085  27.460  1.00  0.00     0.023 A 
ATOM     38  C   UNL A   1      41.759  24.728  27.466  1.00  0.00     0.031 A 
ATOM     39  C   UNL A   1      42.940  26.549  26.406  1.00  0.00     0.131 A 
ATOM     40  C   UNL A   1      42.224  23.876  26.456  1.00  0.00     0.055 A 
ATOM     41  C   UNL A   1      43.362  25.706  25.379  1.00  0.00     0.041 A 
ATOM     42  F   UNL A   1      43.323  27.836  26.356  1.00  0.00    -0.206 F 
ATOM     43  C   UNL A   1      43.014  24.360  25.408  1.00  0.00     0.022 A 
BRANCH  40  44
ATOM     44  S   UNL A   1      41.871  22.098  26.496  1.00  0.00     0.124 S 
ATOM     45  O   UNL A   1      42.675  21.609  25.375  1.00  0.00    -0.237 OA
ATOM     46  O   UNL A   1      42.360  21.721  27.822  1.00  0.00    -0.237 OA
ATOM     47  O   UNL A   1      40.432  22.018  26.307  1.00  0.00    -0.744 OA
ENDBRANCH  40  44
ENDBRANCH  23  37
BRANCH  24  48
ATOM     48  C   UNL A   1      39.432  32.061  35.040  1.00  0.00     0.023 A 
ATOM     49  C   UNL A   1      38.816  31.551  36.199  1.00  0.00     0.031 A 
ATOM     50  C   UNL A   1      39.551  33.456  34.917  1.00  0.00     0.131 A 
ATOM     51  C   UNL A   1      38.286  32.431  37.151  1.00  0.00     0.055 A 
ATOM     52  C   UNL A   1      39.084  34.327  35.903  1.00  0.00     0.041 A 
ATOM     53  F   UNL A   1      40.118  33.992  33.825  1.00  0.00    -0.206 F 
ATOM     54  C   UNL A   1      38.432  33.815  37.020  1.00  0.00     0.022 A 
BRANCH  51  55
ATOM     55  S   UNL A   1      37.271  31.814  38.524  1.00  0.00     0.124 S 
ATOM     56  O   UNL A   1      37.028  30.430  38.126  1.00  0.00    -0.237 OA
ATOM     57  O   UNL A   1      38.169  31.996  39.663  1.00  0.00    -0.237 OA
ATOM     58  O   UNL A   1      36.104  32.690  38.511  1.00  0.00    -0.744 OA
ENDBRANCH  51  55
ENDBRANCH  24  48
BRANCH  36  59
ATOM     59  C   UNL A   1      45.083  28.075  33.699  1.00  0.00     0.023 A 
ATOM     60  C   UNL A   1      45.131  27.001  34.610  1.00  0.00     0.031 A 
ATOM     61  C   UNL A   1      46.181  28.949  33.642  1.00  0.00     0.131 A 
ATOM     62  C   UNL A   1      46.231  26.860  35.464  1.00  0.00     0.055 A 
ATOM     63  C   UNL A   1      47.299  28.775  34.462  1.00  0.00     0.041 A 
ATOM     64  F   UNL A   1      46.179  29.994  32.799  1.00  0.00    -0.206 F 
ATOM     65  C   UNL A   1      47.319  27.737  35.390  1.00  0.00     0.022 A 
BRANCH  62  66
ATOM     66  S   UNL A   1      46.249  25.599  36.769  1.00  0.00     0.124 S 
ATOM     67  O   UNL A   1      46.939  24.493  36.109  1.00  0.00    -0.237 OA
ATOM     68  O   UNL A   1      47.006  26.263  37.827  1.00  0.00    -0.237 OA
ATOM     69  O   UNL A   1      44.838  25.369  37.057  1.00  0.00    -0.744 OA
ENDBRANCH  62  66
ENDBRANCH  36  59
ENDBRANCH  10  11
ENDBRANCH   2   5
BRANCH   3  70
ATOM     70  C   UNL A   1      32.988  29.256  25.237  1.00  0.00     0.118 C 
BRANCH  70  71
ATOM     71  C   UNL A   1      33.010  29.254  23.715  1.00  0.00     0.042 C 
BRANCH  71  72
ATOM     72  C   UNL A   1      33.854  28.156  23.084  1.00  0.00     0.118 C 
BRANCH  72  73
ATOM     73  N   UNL A   1      33.174  27.456  22.002  1.00  0.00    -0.352 N 
ATOM     74  C   UNL A   1      32.149  26.552  22.039  1.00  0.00     0.255 C 
ATOM     75  H   UNL A   1      33.506  27.669  21.100  1.00  0.00     0.163 HD
ATOM     76  O   UNL A   1      31.714  26.096  20.983  1.00  0.00    -0.269 OA
BRANCH  74  77
ATOM     77  C   UNL A   1      31.549  26.180  23.343  1.00  0.00     0.083 A 
ATOM     78  C   UNL A   1      30.313  26.627  23.625  1.00  0.00     0.019 A 
ATOM     79  C   UNL A   1      32.207  25.206  24.278  1.00  0.00     0.153 A 
ATOM     80  C   UNL A   1      29.677  26.313  24.873  1.00  0.00     0.019 A 
ATOM     81  N   UNL A   1      31.512  24.904  25.458  1.00  0.00    -0.267 N 
ATOM     82  N   UNL A   1      33.360  24.686  23.988  1.00  0.00    -0.229 NA
ATOM     83  C   UNL A   1      30.279  25.487  25.732  1.00  0.00     0.096 A 
ATOM     84  C   UNL A   1      32.036  24.008  26.395  1.00  0.00     0.265 A 
ATOM     85  C   UNL A   1      33.923  23.740  24.849  1.00  0.00     0.080 A 
ATOM     86  O   UNL A   1      31.494  23.706  27.458  1.00  0.00    -0.268 OA
ATOM     87  C   UNL A   1      33.315  23.370  26.045  1.00  0.00     0.066 A 
ATOM     88  C   UNL A   1      35.120  23.120  24.479  1.00  0.00     0.049 A 
ATOM     89  C   UNL A   1      33.886  22.399  26.878  1.00  0.00     0.017 A 
ATOM     90  C   UNL A   1      35.689  22.144  25.300  1.00  0.00     0.043 A 
ATOM     91  C   UNL A   1      35.078  21.781  26.500  1.00  0.00     0.021 A 
ATOM     92  Cl  UNL A   1      37.149  21.367  24.824  1.00  0.00    -0.084 Cl
ENDBRANCH  74  77
ENDBRANCH  72  73
ENDBRANCH  71  72
ENDBRANCH  70  71
ENDBRANCH   3  70
TORSDOF 13
ENDMDL
