MODEL 1
REMARK VINA RESULT:     -12.5      0.000      0.000
REMARK SMILES C=CCn1nc(C(=O)NCCCNC(=O)c2ccc(-c3c4nc(c(-c5cc(S(=O)(=O)[O-])ccc5F)c5ccc([nH]5)c(-c5cc(S(=O)(=O)[O-])ccc5F)c5nc(c(-c6cc(S(=O)(=O)[O-])ccc6F)c6ccc3[nH]6)C=C5)C=C4)cc2)c2c1CC[C@@H]([NH+]1CCC(C(C)(C)O)CC1)C2
REMARK SMILES IDX 11 1 10 2 9 3 7 4 8 5 6 7 4 8 5 9 80 10 79 11 81 12 94 13
REMARK SMILES IDX 82 14 83 15 3 16 2 17 1 18 84 19 85 20 93 21 86 23 92 24
REMARK SMILES IDX 87 25 88 26 89 27 90 28 91 29 12 31 13 32 14 33 15 35 16 36
REMARK SMILES IDX 17 37 78 38 18 39 77 40 19 41 20 42 21 43 71 44 22 45 76 46
REMARK SMILES IDX 70 47 72 48 23 49 75 50 69 51 68 52 24 54 56 55 36 56 55 57
REMARK SMILES IDX 37 58 40 59 54 60 73 61 38 62 39 63 53 65 74 66 41 67 25 68
REMARK SMILES IDX 26 69 34 70 27 71 33 72 35 73 32 74 28 75 29 76 30 77 31 78
REMARK SMILES IDX 57 79 58 80 66 81 59 82 65 83 67 84 64 85 60 86 61 87 62 88
REMARK SMILES IDX 63 89 42 90 43 91 51 92 44 93 50 94 52 95 49 96 45 97 46 98
REMARK SMILES IDX 47 99 48 100
REMARK H PARENT 9 6 84 22 91 30 13 34 72 53 40 64
REMARK Flexibility Score: inf
ROOT
ATOM      1  C   UNL A   1      33.309  33.234  27.886  1.00  0.00     0.042 C 
ENDROOT
BRANCH   1   2
ATOM      2  C   UNL A   1      32.685  31.994  27.220  1.00  0.00     0.118 C 
BRANCH   2   3
ATOM      3  N   UNL A   1      33.580  30.839  27.223  1.00  0.00    -0.351 N 
ATOM      4  C   UNL A   1      33.582  29.587  26.628  1.00  0.00     0.272 C 
ATOM      5  O   UNL A   1      34.636  28.958  26.780  1.00  0.00    -0.267 OA
ATOM      6  H   UNL A   1      34.375  30.985  27.784  1.00  0.00     0.163 HD
BRANCH   4   7
ATOM      7  C   UNL A   1      32.447  29.003  25.857  1.00  0.00     0.153 A 
ATOM      8  N   UNL A   1      30.855  28.970  24.393  1.00  0.00    -0.265 N 
ATOM      9  N   UNL A   1      31.718  29.792  25.030  1.00  0.00    -0.167 NA
ATOM     10  C   UNL A   1      30.859  27.711  24.916  1.00  0.00     0.043 A 
ATOM     11  C   UNL A   1      31.980  27.671  25.705  1.00  0.00     0.012 A 
ATOM     12  C   UNL A   1      30.001  26.548  24.575  1.00  0.00     0.062 C 
ATOM     13  C   UNL A   1      32.538  26.396  26.153  1.00  0.00     0.105 C 
ATOM     14  C   UNL A   1      30.569  25.251  25.198  1.00  0.00     0.072 C 
ATOM     15  C   UNL A   1      32.103  25.148  25.386  1.00  0.00     0.189 C 
BRANCH   8  16
ATOM     16  C   UNL A   1      30.239  29.409  23.144  1.00  0.00     0.171 C 
BRANCH  16  17
ATOM     17  C   UNL A   1      28.978  30.194  23.351  1.00  0.00    -0.011 C 
ATOM     18  C   UNL A   1      27.831  29.946  22.704  1.00  0.00     0.006 C 
ENDBRANCH  16  17
ENDBRANCH   8  16
BRANCH  15  19
ATOM     19  N   UNL A   1      33.115  24.835  24.357  1.00  0.00    -0.332 N 
ATOM     20  C   UNL A   1      32.768  24.036  23.200  1.00  0.00     0.262 C 
ATOM     21  C   UNL A   1      34.440  24.477  24.829  1.00  0.00     0.262 C 
ATOM     22  H   UNL A   1      33.136  25.789  23.996  1.00  0.00     0.348 HD
ATOM     23  C   UNL A   1      32.704  22.553  23.509  1.00  0.00     0.068 C 
ATOM     24  C   UNL A   1      34.474  23.064  25.373  1.00  0.00     0.068 C 
ATOM     25  C   UNL A   1      33.766  21.998  24.492  1.00  0.00     0.031 C 
BRANCH  25  26
ATOM     26  C   UNL A   1      33.222  20.818  25.373  1.00  0.00     0.062 C 
ATOM     27  C   UNL A   1      33.630  19.435  24.859  1.00  0.00     0.042 C 
ATOM     28  C   UNL A   1      33.652  20.994  26.832  1.00  0.00     0.042 C 
BRANCH  26  29
ATOM     29  O   UNL A   1      31.792  20.824  25.375  1.00  0.00    -0.390 OA
ATOM     30  H   UNL A   1      31.471  21.413  24.674  1.00  0.00     0.211 HD
ENDBRANCH  26  29
ENDBRANCH  25  26
ENDBRANCH  15  19
ENDBRANCH   4   7
ENDBRANCH   2   3
ENDBRANCH   1   2
BRANCH   1  31
ATOM     31  C   UNL A   1      34.695  33.121  28.448  1.00  0.00     0.118 C 
BRANCH  31  32
ATOM     32  N   UNL A   1      34.722  33.236  29.903  1.00  0.00    -0.352 N 
ATOM     33  C   UNL A   1      35.357  32.369  30.780  1.00  0.00     0.251 C 
ATOM     34  H   UNL A   1      34.245  34.000  30.299  1.00  0.00     0.163 HD
ATOM     35  O   UNL A   1      34.976  32.249  31.928  1.00  0.00    -0.269 OA
BRANCH  33  36
ATOM     36  C   UNL A   1      36.474  31.575  30.232  1.00  0.00     0.039 A 
ATOM     37  C   UNL A   1      37.759  32.097  30.160  1.00  0.00     0.014 A 
ATOM     38  C   UNL A   1      36.232  30.226  29.979  1.00  0.00     0.014 A 
ATOM     39  C   UNL A   1      38.812  31.209  29.958  1.00  0.00     0.010 A 
ATOM     40  C   UNL A   1      37.281  29.342  30.023  1.00  0.00     0.010 A 
ATOM     41  C   UNL A   1      38.580  29.815  29.961  1.00  0.00    -0.014 A 
BRANCH  41  42
ATOM     42  C   UNL A   1      39.698  28.866  30.025  1.00  0.00     0.031 A 
ATOM     43  C   UNL A   1      40.104  28.518  31.406  1.00  0.00     0.074 A 
ATOM     44  C   UNL A   1      40.313  28.271  28.977  1.00  0.00     0.049 A 
ATOM     45  N   UNL A   1      41.055  29.089  32.065  1.00  0.00    -0.248 NA
ATOM     46  C   UNL A   1      39.267  27.631  32.225  1.00  0.00     0.031 C 
ATOM     47  C   UNL A   1      39.964  28.298  27.552  1.00  0.00     0.029 A 
ATOM     48  N   UNL A   1      41.409  27.454  28.990  1.00  0.00    -0.354 N 
ATOM     49  C   UNL A   1      41.125  28.438  33.282  1.00  0.00     0.074 A 
ATOM     50  C   UNL A   1      39.881  27.723  33.410  1.00  0.00     0.031 C 
ATOM     51  C   UNL A   1      40.694  27.382  26.876  1.00  0.00     0.029 A 
ATOM     52  C   UNL A   1      41.695  26.837  27.773  1.00  0.00     0.049 A 
ATOM     53  H   UNL A   1      41.955  27.313  29.797  1.00  0.00     0.167 HD
ATOM     54  C   UNL A   1      42.317  28.347  33.931  1.00  0.00     0.034 A 
ATOM     55  C   UNL A   1      42.723  25.993  27.482  1.00  0.00     0.034 A 
ATOM     56  C   UNL A   1      43.274  29.297  33.388  1.00  0.00     0.049 A 
ATOM     57  C   UNL A   1      43.814  26.322  28.427  1.00  0.00     0.074 A 
ATOM     58  C   UNL A   1      43.269  30.669  33.197  1.00  0.00     0.029 A 
ATOM     59  N   UNL A   1      44.259  28.823  32.547  1.00  0.00    -0.354 N 
ATOM     60  N   UNL A   1      44.451  27.459  28.400  1.00  0.00    -0.248 NA
ATOM     61  C   UNL A   1      43.861  25.617  29.698  1.00  0.00     0.031 C 
ATOM     62  C   UNL A   1      43.849  30.863  31.906  1.00  0.00     0.029 A 
ATOM     63  C   UNL A   1      44.273  29.623  31.427  1.00  0.00     0.049 A 
ATOM     64  H   UNL A   1      44.846  28.052  32.718  1.00  0.00     0.167 HD
ATOM     65  C   UNL A   1      44.566  27.833  29.729  1.00  0.00     0.074 A 
ATOM     66  C   UNL A   1      44.280  26.613  30.485  1.00  0.00     0.031 C 
ATOM     67  C   UNL A   1      44.611  29.150  30.094  1.00  0.00     0.034 A 
BRANCH  54  68
ATOM     68  C   UNL A   1      42.747  27.152  34.750  1.00  0.00     0.023 A 
ATOM     69  C   UNL A   1      43.612  26.232  34.129  1.00  0.00     0.031 A 
ATOM     70  C   UNL A   1      42.139  26.714  35.948  1.00  0.00     0.131 A 
ATOM     71  C   UNL A   1      43.743  24.923  34.622  1.00  0.00     0.055 A 
ATOM     72  C   UNL A   1      42.329  25.432  36.472  1.00  0.00     0.041 A 
ATOM     73  F   UNL A   1      41.258  27.452  36.632  1.00  0.00    -0.206 F 
ATOM     74  C   UNL A   1      43.106  24.515  35.789  1.00  0.00     0.022 A 
BRANCH  71  75
ATOM     75  S   UNL A   1      44.612  23.713  33.594  1.00  0.00     0.124 S 
ATOM     76  O   UNL A   1      45.663  24.536  33.005  1.00  0.00    -0.237 OA
ATOM     77  O   UNL A   1      45.041  22.732  34.586  1.00  0.00    -0.237 OA
ATOM     78  O   UNL A   1      43.580  23.254  32.668  1.00  0.00    -0.744 OA
ENDBRANCH  71  75
ENDBRANCH  54  68
BRANCH  55  79
ATOM     79  C   UNL A   1      42.689  24.747  26.665  1.00  0.00     0.023 A 
ATOM     80  C   UNL A   1      43.753  24.352  25.822  1.00  0.00     0.031 A 
ATOM     81  C   UNL A   1      41.697  23.776  26.926  1.00  0.00     0.131 A 
ATOM     82  C   UNL A   1      43.806  23.036  25.303  1.00  0.00     0.055 A 
ATOM     83  C   UNL A   1      41.758  22.477  26.417  1.00  0.00     0.041 A 
ATOM     84  F   UNL A   1      40.681  24.029  27.767  1.00  0.00    -0.206 F 
ATOM     85  C   UNL A   1      42.821  22.096  25.613  1.00  0.00     0.022 A 
BRANCH  82  86
ATOM     86  S   UNL A   1      45.222  22.482  24.291  1.00  0.00     0.124 S 
ATOM     87  O   UNL A   1      44.565  21.783  23.193  1.00  0.00    -0.237 OA
ATOM     88  O   UNL A   1      45.885  23.738  23.958  1.00  0.00    -0.237 OA
ATOM     89  O   UNL A   1      45.976  21.621  25.203  1.00  0.00    -0.744 OA
ENDBRANCH  82  86
ENDBRANCH  55  79
BRANCH  67  90
ATOM     90  C   UNL A   1      44.848  30.192  29.009  1.00  0.00     0.023 A 
ATOM     91  C   UNL A   1      46.114  30.665  28.586  1.00  0.00     0.031 A 
ATOM     92  C   UNL A   1      43.719  30.684  28.329  1.00  0.00     0.131 A 
ATOM     93  C   UNL A   1      46.208  31.612  27.544  1.00  0.00     0.055 A 
ATOM     94  C   UNL A   1      43.817  31.600  27.282  1.00  0.00     0.041 A 
ATOM     95  F   UNL A   1      42.486  30.268  28.662  1.00  0.00    -0.206 F 
ATOM     96  C   UNL A   1      45.062  32.078  26.893  1.00  0.00     0.022 A 
BRANCH  93  97
ATOM     97  S   UNL A   1      47.822  32.298  27.044  1.00  0.00     0.124 S 
ATOM     98  O   UNL A   1      47.475  33.320  26.064  1.00  0.00    -0.237 OA
ATOM     99  O   UNL A   1      48.364  32.786  28.309  1.00  0.00    -0.237 OA
ATOM    100  O   UNL A   1      48.527  31.140  26.490  1.00  0.00    -0.744 OA
ENDBRANCH  93  97
ENDBRANCH  67  90
ENDBRANCH  41  42
ENDBRANCH  33  36
ENDBRANCH  31  32
ENDBRANCH   1  31
TORSDOF 18
ENDMDL
MODEL 2
REMARK VINA RESULT:     -12.2      4.133      9.313
REMARK SMILES C=CCn1nc(C(=O)NCCCNC(=O)c2ccc(-c3c4nc(c(-c5cc(S(=O)(=O)[O-])ccc5F)c5ccc([nH]5)c(-c5cc(S(=O)(=O)[O-])ccc5F)c5nc(c(-c6cc(S(=O)(=O)[O-])ccc6F)c6ccc3[nH]6)C=C5)C=C4)cc2)c2c1CC[C@@H]([NH+]1CCC(C(C)(C)O)CC1)C2
REMARK SMILES IDX 11 1 10 2 9 3 7 4 8 5 6 7 4 8 5 9 80 10 79 11 81 12 94 13
REMARK SMILES IDX 82 14 83 15 3 16 2 17 1 18 84 19 85 20 93 21 86 23 92 24
REMARK SMILES IDX 87 25 88 26 89 27 90 28 91 29 12 31 13 32 14 33 15 35 16 36
REMARK SMILES IDX 17 37 78 38 18 39 77 40 19 41 20 42 21 43 71 44 22 45 76 46
REMARK SMILES IDX 70 47 72 48 23 49 75 50 69 51 68 52 24 54 56 55 36 56 55 57
REMARK SMILES IDX 37 58 40 59 54 60 73 61 38 62 39 63 53 65 74 66 41 67 25 68
REMARK SMILES IDX 26 69 34 70 27 71 33 72 35 73 32 74 28 75 29 76 30 77 31 78
REMARK SMILES IDX 57 79 58 80 66 81 59 82 65 83 67 84 64 85 60 86 61 87 62 88
REMARK SMILES IDX 63 89 42 90 43 91 51 92 44 93 50 94 52 95 49 96 45 97 46 98
REMARK SMILES IDX 47 99 48 100
REMARK H PARENT 9 6 84 22 91 30 13 34 72 53 40 64
REMARK Flexibility Score: inf
ROOT
ATOM      1  C   UNL A   1      38.193  24.575  26.505  1.00  0.00     0.042 C 
ENDROOT
BRANCH   1   2
ATOM      2  C   UNL A   1      37.044  23.585  26.240  1.00  0.00     0.118 C 
BRANCH   2   3
ATOM      3  N   UNL A   1      37.512  22.291  25.746  1.00  0.00    -0.351 N 
ATOM      4  C   UNL A   1      36.960  21.252  25.016  1.00  0.00     0.272 C 
ATOM      5  O   UNL A   1      37.774  20.384  24.678  1.00  0.00    -0.267 OA
ATOM      6  H   UNL A   1      38.449  22.116  25.993  1.00  0.00     0.163 HD
BRANCH   4   7
ATOM      7  C   UNL A   1      35.522  21.141  24.636  1.00  0.00     0.153 A 
ATOM      8  N   UNL A   1      33.575  20.210  24.501  1.00  0.00    -0.265 N 
ATOM      9  N   UNL A   1      34.865  19.970  24.822  1.00  0.00    -0.167 NA
ATOM     10  C   UNL A   1      33.404  21.433  23.926  1.00  0.00     0.043 A 
ATOM     11  C   UNL A   1      34.579  22.096  24.175  1.00  0.00     0.012 A 
ATOM     12  C   UNL A   1      32.177  22.038  23.347  1.00  0.00     0.062 C 
ATOM     13  C   UNL A   1      34.664  23.549  24.041  1.00  0.00     0.105 C 
ATOM     14  C   UNL A   1      32.382  23.551  23.097  1.00  0.00     0.072 C 
ATOM     15  C   UNL A   1      33.343  24.318  24.037  1.00  0.00     0.189 C 
BRANCH   8  16
ATOM     16  C   UNL A   1      32.536  19.310  24.995  1.00  0.00     0.171 C 
BRANCH  16  17
ATOM     17  C   UNL A   1      32.529  17.979  24.302  1.00  0.00    -0.011 C 
ATOM     18  C   UNL A   1      32.561  17.833  22.971  1.00  0.00     0.006 C 
ENDBRANCH  16  17
ENDBRANCH   8  16
BRANCH  15  19
ATOM     19  N   UNL A   1      33.065  24.806  25.403  1.00  0.00    -0.332 N 
ATOM     20  C   UNL A   1      31.718  25.166  25.798  1.00  0.00     0.262 C 
ATOM     21  C   UNL A   1      34.015  25.745  25.970  1.00  0.00     0.262 C 
ATOM     22  H   UNL A   1      33.205  23.890  25.828  1.00  0.00     0.348 HD
ATOM     23  C   UNL A   1      31.301  26.530  25.284  1.00  0.00     0.068 C 
ATOM     24  C   UNL A   1      33.850  27.130  25.380  1.00  0.00     0.068 C 
ATOM     25  C   UNL A   1      32.386  27.637  25.283  1.00  0.00     0.031 C 
BRANCH  25  26
ATOM     26  C   UNL A   1      32.223  28.648  24.092  1.00  0.00     0.062 C 
ATOM     27  C   UNL A   1      32.445  28.011  22.717  1.00  0.00     0.042 C 
ATOM     28  C   UNL A   1      30.854  29.330  24.150  1.00  0.00     0.042 C 
BRANCH  26  29
ATOM     29  O   UNL A   1      33.194  29.691  24.197  1.00  0.00    -0.390 OA
ATOM     30  H   UNL A   1      32.766  30.500  24.522  1.00  0.00     0.211 HD
ENDBRANCH  26  29
ENDBRANCH  25  26
ENDBRANCH  15  19
ENDBRANCH   4   7
ENDBRANCH   2   3
ENDBRANCH   1   2
BRANCH   1  31
ATOM     31  C   UNL A   1      39.525  24.027  26.923  1.00  0.00     0.118 C 
BRANCH  31  32
ATOM     32  N   UNL A   1      40.640  24.693  26.258  1.00  0.00    -0.352 N 
ATOM     33  C   UNL A   1      40.914  26.052  26.284  1.00  0.00     0.251 C 
ATOM     34  H   UNL A   1      41.256  24.124  25.742  1.00  0.00     0.163 HD
ATOM     35  O   UNL A   1      41.537  26.584  25.385  1.00  0.00    -0.269 OA
BRANCH  33  36
ATOM     36  C   UNL A   1      40.370  26.815  27.424  1.00  0.00     0.039 A 
ATOM     37  C   UNL A   1      40.554  26.382  28.731  1.00  0.00     0.014 A 
ATOM     38  C   UNL A   1      39.845  28.076  27.153  1.00  0.00     0.014 A 
ATOM     39  C   UNL A   1      40.321  27.293  29.757  1.00  0.00     0.010 A 
ATOM     40  C   UNL A   1      39.852  29.028  28.143  1.00  0.00     0.010 A 
ATOM     41  C   UNL A   1      40.038  28.646  29.460  1.00  0.00    -0.014 A 
BRANCH  41  42
ATOM     42  C   UNL A   1      40.062  29.668  30.512  1.00  0.00     0.031 A 
ATOM     43  C   UNL A   1      38.740  30.284  30.773  1.00  0.00     0.074 A 
ATOM     44  C   UNL A   1      41.128  30.030  31.263  1.00  0.00     0.049 A 
ATOM     45  N   UNL A   1      38.319  31.385  30.248  1.00  0.00    -0.248 NA
ATOM     46  C   UNL A   1      37.699  29.533  31.488  1.00  0.00     0.031 C 
ATOM     47  C   UNL A   1      42.467  29.433  31.330  1.00  0.00     0.029 A 
ATOM     48  N   UNL A   1      41.212  31.033  32.187  1.00  0.00    -0.354 N 
ATOM     49  C   UNL A   1      37.067  31.615  30.789  1.00  0.00     0.074 A 
ATOM     50  C   UNL A   1      36.653  30.356  31.353  1.00  0.00     0.031 C 
ATOM     51  C   UNL A   1      43.153  29.946  32.376  1.00  0.00     0.029 A 
ATOM     52  C   UNL A   1      42.385  31.040  32.941  1.00  0.00     0.049 A 
ATOM     53  H   UNL A   1      40.499  31.701  32.311  1.00  0.00     0.167 HD
ATOM     54  C   UNL A   1      36.625  32.892  30.946  1.00  0.00     0.034 A 
ATOM     55  C   UNL A   1      42.754  31.919  33.912  1.00  0.00     0.034 A 
ATOM     56  C   UNL A   1      37.423  33.816  30.157  1.00  0.00     0.049 A 
ATOM     57  C   UNL A   1      42.049  33.188  33.616  1.00  0.00     0.074 A 
ATOM     58  C   UNL A   1      37.759  33.897  28.816  1.00  0.00     0.029 A 
ATOM     59  N   UNL A   1      38.363  34.587  30.808  1.00  0.00    -0.354 N 
ATOM     60  N   UNL A   1      42.308  33.908  32.560  1.00  0.00    -0.248 NA
ATOM     61  C   UNL A   1      40.736  33.400  34.202  1.00  0.00     0.031 C 
ATOM     62  C   UNL A   1      39.143  34.250  28.803  1.00  0.00     0.029 A 
ATOM     63  C   UNL A   1      39.549  34.470  30.121  1.00  0.00     0.049 A 
ATOM     64  H   UNL A   1      38.211  35.125  31.619  1.00  0.00     0.167 HD
ATOM     65  C   UNL A   1      41.067  34.293  32.080  1.00  0.00     0.074 A 
ATOM     66  C   UNL A   1      40.145  34.040  33.188  1.00  0.00     0.031 C 
ATOM     67  C   UNL A   1      40.861  34.519  30.748  1.00  0.00     0.034 A 
BRANCH  54  68
ATOM     68  C   UNL A   1      35.766  33.355  32.100  1.00  0.00     0.023 A 
ATOM     69  C   UNL A   1      34.612  34.092  31.780  1.00  0.00     0.031 A 
ATOM     70  C   UNL A   1      36.158  33.383  33.458  1.00  0.00     0.131 A 
ATOM     71  C   UNL A   1      33.984  34.900  32.742  1.00  0.00     0.055 A 
ATOM     72  C   UNL A   1      35.486  34.134  34.427  1.00  0.00     0.041 A 
ATOM     73  F   UNL A   1      37.256  32.771  33.913  1.00  0.00    -0.206 F 
ATOM     74  C   UNL A   1      34.414  34.928  34.064  1.00  0.00     0.022 A 
BRANCH  71  75
ATOM     75  S   UNL A   1      32.714  36.060  32.179  1.00  0.00     0.124 S 
ATOM     76  O   UNL A   1      31.493  35.361  32.568  1.00  0.00    -0.237 OA
ATOM     77  O   UNL A   1      33.043  37.258  32.944  1.00  0.00    -0.237 OA
ATOM     78  O   UNL A   1      32.954  36.151  30.741  1.00  0.00    -0.744 OA
ENDBRANCH  71  75
ENDBRANCH  54  68
BRANCH  55  79
ATOM     79  C   UNL A   1      43.411  31.629  35.217  1.00  0.00     0.023 A 
ATOM     80  C   UNL A   1      44.708  32.090  35.542  1.00  0.00     0.031 A 
ATOM     81  C   UNL A   1      42.640  31.114  36.282  1.00  0.00     0.131 A 
ATOM     82  C   UNL A   1      45.170  32.046  36.881  1.00  0.00     0.055 A 
ATOM     83  C   UNL A   1      43.097  31.080  37.601  1.00  0.00     0.041 A 
ATOM     84  F   UNL A   1      41.372  30.714  36.090  1.00  0.00    -0.206 F 
ATOM     85  C   UNL A   1      44.360  31.559  37.909  1.00  0.00     0.022 A 
BRANCH  82  86
ATOM     86  S   UNL A   1      46.804  32.724  37.332  1.00  0.00     0.124 S 
ATOM     87  O   UNL A   1      46.458  33.737  38.322  1.00  0.00    -0.237 OA
ATOM     88  O   UNL A   1      47.512  31.548  37.825  1.00  0.00    -0.237 OA
ATOM     89  O   UNL A   1      47.315  33.253  36.066  1.00  0.00    -0.744 OA
ENDBRANCH  82  86
ENDBRANCH  55  79
BRANCH  67  90
ATOM     90  C   UNL A   1      42.077  34.648  29.840  1.00  0.00     0.023 A 
ATOM     91  C   UNL A   1      42.738  35.859  29.518  1.00  0.00     0.031 A 
ATOM     92  C   UNL A   1      42.628  33.460  29.327  1.00  0.00     0.131 A 
ATOM     93  C   UNL A   1      43.879  35.848  28.689  1.00  0.00     0.055 A 
ATOM     94  C   UNL A   1      43.772  33.450  28.529  1.00  0.00     0.041 A 
ATOM     95  F   UNL A   1      42.067  32.272  29.604  1.00  0.00    -0.206 F 
ATOM     96  C   UNL A   1      44.396  34.646  28.197  1.00  0.00     0.022 A 
BRANCH  93  97
ATOM     97  S   UNL A   1      44.691  37.403  28.192  1.00  0.00     0.124 S 
ATOM     98  O   UNL A   1      46.097  37.036  28.070  1.00  0.00    -0.237 OA
ATOM     99  O   UNL A   1      44.008  37.732  26.943  1.00  0.00    -0.237 OA
ATOM    100  O   UNL A   1      44.394  38.312  29.301  1.00  0.00    -0.744 OA
ENDBRANCH  93  97
ENDBRANCH  67  90
ENDBRANCH  41  42
ENDBRANCH  33  36
ENDBRANCH  31  32
ENDBRANCH   1  31
TORSDOF 18
ENDMDL
MODEL 3
REMARK VINA RESULT:     -12.1      2.997      9.434
REMARK SMILES C=CCn1nc(C(=O)NCCCNC(=O)c2ccc(-c3c4nc(c(-c5cc(S(=O)(=O)[O-])ccc5F)c5ccc([nH]5)c(-c5cc(S(=O)(=O)[O-])ccc5F)c5nc(c(-c6cc(S(=O)(=O)[O-])ccc6F)c6ccc3[nH]6)C=C5)C=C4)cc2)c2c1CC[C@@H]([NH+]1CCC(C(C)(C)O)CC1)C2
REMARK SMILES IDX 11 1 10 2 9 3 7 4 8 5 6 7 4 8 5 9 80 10 79 11 81 12 94 13
REMARK SMILES IDX 82 14 83 15 3 16 2 17 1 18 84 19 85 20 93 21 86 23 92 24
REMARK SMILES IDX 87 25 88 26 89 27 90 28 91 29 12 31 13 32 14 33 15 35 16 36
REMARK SMILES IDX 17 37 78 38 18 39 77 40 19 41 20 42 21 43 71 44 22 45 76 46
REMARK SMILES IDX 70 47 72 48 23 49 75 50 69 51 68 52 24 54 56 55 36 56 55 57
REMARK SMILES IDX 37 58 40 59 54 60 73 61 38 62 39 63 53 65 74 66 41 67 25 68
REMARK SMILES IDX 26 69 34 70 27 71 33 72 35 73 32 74 28 75 29 76 30 77 31 78
REMARK SMILES IDX 57 79 58 80 66 81 59 82 65 83 67 84 64 85 60 86 61 87 62 88
REMARK SMILES IDX 63 89 42 90 43 91 51 92 44 93 50 94 52 95 49 96 45 97 46 98
REMARK SMILES IDX 47 99 48 100
REMARK H PARENT 9 6 84 22 91 30 13 34 72 53 40 64
REMARK Flexibility Score: inf
ROOT
ATOM      1  C   UNL A   1      40.707  19.596  26.115  1.00  0.00     0.042 C 
ENDROOT
BRANCH   1   2
ATOM      2  C   UNL A   1      39.426  20.139  25.454  1.00  0.00     0.118 C 
BRANCH   2   3
ATOM      3  N   UNL A   1      39.161  21.535  25.794  1.00  0.00    -0.351 N 
ATOM      4  C   UNL A   1      38.046  22.359  25.797  1.00  0.00     0.272 C 
ATOM      5  O   UNL A   1      38.238  23.465  26.316  1.00  0.00    -0.267 OA
ATOM      6  H   UNL A   1      39.971  22.006  26.094  1.00  0.00     0.163 HD
BRANCH   4   7
ATOM      7  C   UNL A   1      36.710  21.994  25.244  1.00  0.00     0.153 A 
ATOM      8  N   UNL A   1      34.989  20.733  24.891  1.00  0.00    -0.265 N 
ATOM      9  N   UNL A   1      36.251  20.726  25.375  1.00  0.00    -0.167 NA
ATOM     10  C   UNL A   1      34.680  21.906  24.271  1.00  0.00     0.043 A 
ATOM     11  C   UNL A   1      35.680  22.767  24.648  1.00  0.00     0.012 A 
ATOM     12  C   UNL A   1      33.449  22.284  23.531  1.00  0.00     0.062 C 
ATOM     13  C   UNL A   1      35.525  24.212  24.492  1.00  0.00     0.105 C 
ATOM     14  C   UNL A   1      33.415  23.809  23.273  1.00  0.00     0.072 C 
ATOM     15  C   UNL A   1      34.100  24.735  24.307  1.00  0.00     0.189 C 
BRANCH   8  16
ATOM     16  C   UNL A   1      34.071  19.663  25.274  1.00  0.00     0.171 C 
BRANCH  16  17
ATOM     17  C   UNL A   1      33.867  18.645  24.191  1.00  0.00    -0.011 C 
ATOM     18  C   UNL A   1      32.664  18.193  23.810  1.00  0.00     0.006 C 
ENDBRANCH  16  17
ENDBRANCH   8  16
BRANCH  15  19
ATOM     19  N   UNL A   1      33.570  25.167  25.617  1.00  0.00    -0.332 N 
ATOM     20  C   UNL A   1      32.349  24.593  26.144  1.00  0.00     0.262 C 
ATOM     21  C   UNL A   1      33.615  26.589  25.905  1.00  0.00     0.262 C 
ATOM     22  H   UNL A   1      34.307  24.697  26.142  1.00  0.00     0.348 HD
ATOM     23  C   UNL A   1      31.103  25.177  25.509  1.00  0.00     0.068 C 
ATOM     24  C   UNL A   1      32.536  27.342  25.155  1.00  0.00     0.068 C 
ATOM     25  C   UNL A   1      31.125  26.695  25.197  1.00  0.00     0.031 C 
BRANCH  25  26
ATOM     26  C   UNL A   1      30.303  27.064  23.911  1.00  0.00     0.062 C 
ATOM     27  C   UNL A   1      28.872  26.521  23.925  1.00  0.00     0.042 C 
ATOM     28  C   UNL A   1      30.297  28.580  23.695  1.00  0.00     0.042 C 
BRANCH  26  29
ATOM     29  O   UNL A   1      30.921  26.498  22.753  1.00  0.00    -0.390 OA
ATOM     30  H   UNL A   1      31.746  26.973  22.562  1.00  0.00     0.211 HD
ENDBRANCH  26  29
ENDBRANCH  25  26
ENDBRANCH  15  19
ENDBRANCH   4   7
ENDBRANCH   2   3
ENDBRANCH   1   2
BRANCH   1  31
ATOM     31  C   UNL A   1      41.941  20.449  26.087  1.00  0.00     0.118 C 
BRANCH  31  32
ATOM     32  N   UNL A   1      43.055  19.801  25.404  1.00  0.00    -0.352 N 
ATOM     33  C   UNL A   1      44.065  20.439  24.699  1.00  0.00     0.251 C 
ATOM     34  H   UNL A   1      43.095  18.818  25.446  1.00  0.00     0.163 HD
ATOM     35  O   UNL A   1      44.664  19.870  23.807  1.00  0.00    -0.269 OA
BRANCH  33  36
ATOM     36  C   UNL A   1      44.332  21.847  25.055  1.00  0.00     0.039 A 
ATOM     37  C   UNL A   1      43.704  22.888  24.384  1.00  0.00     0.014 A 
ATOM     38  C   UNL A   1      45.077  22.081  26.209  1.00  0.00     0.014 A 
ATOM     39  C   UNL A   1      43.732  24.151  24.971  1.00  0.00     0.010 A 
ATOM     40  C   UNL A   1      44.895  23.258  26.891  1.00  0.00     0.010 A 
ATOM     41  C   UNL A   1      44.268  24.323  26.268  1.00  0.00    -0.014 A 
BRANCH  41  42
ATOM     42  C   UNL A   1      44.061  25.573  27.007  1.00  0.00     0.031 A 
ATOM     43  C   UNL A   1      45.155  26.556  26.833  1.00  0.00     0.074 A 
ATOM     44  C   UNL A   1      42.978  25.903  27.748  1.00  0.00     0.049 A 
ATOM     45  N   UNL A   1      46.156  26.699  27.633  1.00  0.00    -0.248 NA
ATOM     46  C   UNL A   1      45.296  27.294  25.570  1.00  0.00     0.031 C 
ATOM     47  C   UNL A   1      41.703  25.194  27.903  1.00  0.00     0.029 A 
ATOM     48  N   UNL A   1      42.785  27.015  28.520  1.00  0.00    -0.354 N 
ATOM     49  C   UNL A   1      46.908  27.743  27.126  1.00  0.00     0.074 A 
ATOM     50  C   UNL A   1      46.466  27.912  25.766  1.00  0.00     0.031 C 
ATOM     51  C   UNL A   1      40.806  25.981  28.541  1.00  0.00     0.029 A 
ATOM     52  C   UNL A   1      41.490  27.171  29.011  1.00  0.00     0.049 A 
ATOM     53  H   UNL A   1      43.506  27.656  28.714  1.00  0.00     0.167 HD
ATOM     54  C   UNL A   1      47.626  28.530  27.972  1.00  0.00     0.034 A 
ATOM     55  C   UNL A   1      41.010  28.161  29.813  1.00  0.00     0.034 A 
ATOM     56  C   UNL A   1      47.774  27.893  29.270  1.00  0.00     0.049 A 
ATOM     57  C   UNL A   1      42.168  28.672  30.582  1.00  0.00     0.074 A 
ATOM     58  C   UNL A   1      48.261  26.668  29.694  1.00  0.00     0.029 A 
ATOM     59  N   UNL A   1      46.989  28.344  30.311  1.00  0.00    -0.354 N 
ATOM     60  N   UNL A   1      42.794  27.955  31.473  1.00  0.00    -0.248 NA
ATOM     61  C   UNL A   1      42.935  29.772  30.023  1.00  0.00     0.031 C 
ATOM     62  C   UNL A   1      47.339  26.229  30.692  1.00  0.00     0.029 A 
ATOM     63  C   UNL A   1      46.406  27.246  30.902  1.00  0.00     0.049 A 
ATOM     64  H   UNL A   1      46.868  29.283  30.582  1.00  0.00     0.167 HD
ATOM     65  C   UNL A   1      44.139  28.200  31.243  1.00  0.00     0.074 A 
ATOM     66  C   UNL A   1      44.160  29.404  30.412  1.00  0.00     0.031 C 
ATOM     67  C   UNL A   1      45.089  27.256  31.516  1.00  0.00     0.034 A 
BRANCH  54  68
ATOM     68  C   UNL A   1      47.835  30.014  27.776  1.00  0.00     0.023 A 
ATOM     69  C   UNL A   1      46.683  30.807  27.636  1.00  0.00     0.031 A 
ATOM     70  C   UNL A   1      49.056  30.633  27.422  1.00  0.00     0.131 A 
ATOM     71  C   UNL A   1      46.754  32.085  27.057  1.00  0.00     0.055 A 
ATOM     72  C   UNL A   1      49.129  31.932  26.911  1.00  0.00     0.041 A 
ATOM     73  F   UNL A   1      50.233  29.998  27.456  1.00  0.00    -0.206 F 
ATOM     74  C   UNL A   1      47.970  32.653  26.691  1.00  0.00     0.022 A 
BRANCH  71  75
ATOM     75  S   UNL A   1      45.203  32.905  26.615  1.00  0.00     0.124 S 
ATOM     76  O   UNL A   1      45.006  32.434  25.249  1.00  0.00    -0.237 OA
ATOM     77  O   UNL A   1      44.288  32.374  27.620  1.00  0.00    -0.237 OA
ATOM     78  O   UNL A   1      45.522  34.324  26.750  1.00  0.00    -0.744 OA
ENDBRANCH  71  75
ENDBRANCH  54  68
BRANCH  55  79
ATOM     79  C   UNL A   1      39.706  28.875  29.715  1.00  0.00     0.023 A 
ATOM     80  C   UNL A   1      38.951  29.252  30.850  1.00  0.00     0.031 A 
ATOM     81  C   UNL A   1      39.320  29.446  28.483  1.00  0.00     0.131 A 
ATOM     82  C   UNL A   1      37.884  30.175  30.726  1.00  0.00     0.055 A 
ATOM     83  C   UNL A   1      38.272  30.361  28.368  1.00  0.00     0.041 A 
ATOM     84  F   UNL A   1      40.014  29.204  27.358  1.00  0.00    -0.206 F 
ATOM     85  C   UNL A   1      37.557  30.741  29.492  1.00  0.00     0.022 A 
BRANCH  82  86
ATOM     86  S   UNL A   1      36.961  30.744  32.196  1.00  0.00     0.124 S 
ATOM     87  O   UNL A   1      36.750  29.501  32.930  1.00  0.00    -0.237 OA
ATOM     88  O   UNL A   1      37.878  31.705  32.796  1.00  0.00    -0.237 OA
ATOM     89  O   UNL A   1      35.747  31.334  31.629  1.00  0.00    -0.744 OA
ENDBRANCH  82  86
ENDBRANCH  55  79
BRANCH  67  90
ATOM     90  C   UNL A   1      44.690  26.055  32.363  1.00  0.00     0.023 A 
ATOM     91  C   UNL A   1      44.494  26.066  33.766  1.00  0.00     0.031 A 
ATOM     92  C   UNL A   1      44.438  24.846  31.689  1.00  0.00     0.131 A 
ATOM     93  C   UNL A   1      44.092  24.892  34.437  1.00  0.00     0.055 A 
ATOM     94  C   UNL A   1      44.015  23.694  32.352  1.00  0.00     0.041 A 
ATOM     95  F   UNL A   1      44.585  24.763  30.357  1.00  0.00    -0.206 F 
ATOM     96  C   UNL A   1      43.852  23.709  33.732  1.00  0.00     0.022 A 
BRANCH  93  97
ATOM     97  S   UNL A   1      43.919  24.863  36.253  1.00  0.00     0.124 S 
ATOM     98  O   UNL A   1      44.943  23.918  36.683  1.00  0.00    -0.237 OA
ATOM     99  O   UNL A   1      44.148  26.259  36.615  1.00  0.00    -0.237 OA
ATOM    100  O   UNL A   1      42.543  24.403  36.456  1.00  0.00    -0.744 OA
ENDBRANCH  93  97
ENDBRANCH  67  90
ENDBRANCH  41  42
ENDBRANCH  33  36
ENDBRANCH  31  32
ENDBRANCH   1  31
TORSDOF 18
ENDMDL
