MODEL 1
REMARK VINA RESULT:     -12.0      0.000      0.000
REMARK SMILES CCc1ccsc1CNC(=O)N1[C@H]2CC[C@@H]1[C@H](C(=O)NCCCNC(=O)c1ccc(-c3c4nc(c(-c5cc(S(=O)(=O)[O-])ccc5F)c5ccc([nH]5)c(-c5cc(S(=O)(=O)[O-])ccc5F)c5nc(c(-c6cc(S(=O)(=O)[O-])ccc6F)c6ccc3[nH]6)C=C5)C=C4)cc1)C2
REMARK SMILES IDX 21 1 20 2 18 3 19 4 17 6 12 7 13 8 16 9 14 10 90 11 15 12
REMARK SMILES IDX 10 13 9 14 11 16 8 17 7 18 3 19 4 20 5 21 6 22 2 23 1 24
REMARK SMILES IDX 22 25 23 26 24 27 25 28 26 30 27 31 28 32 89 33 29 34 88 35
REMARK SMILES IDX 30 36 31 37 32 38 82 39 33 40 87 41 81 42 83 43 34 44 86 45
REMARK SMILES IDX 80 46 79 47 35 49 67 50 47 51 66 52 48 53 51 54 65 55 84 56
REMARK SMILES IDX 49 57 50 58 64 60 85 61 52 62 36 63 37 64 45 65 38 66 44 67
REMARK SMILES IDX 46 68 43 69 39 70 40 71 41 72 42 73 68 74 69 75 77 76 70 77
REMARK SMILES IDX 76 78 78 79 75 80 71 81 72 82 73 83 74 84 53 85 54 86 62 87
REMARK SMILES IDX 55 88 61 89 63 90 60 91 56 92 57 93 58 94 59 95
REMARK H PARENT 20 5 9 15 24 29 83 48 51 59
REMARK Flexibility Score: inf
ROOT
ATOM      1  C   UNL A   1      34.007  28.303  23.576  1.00  0.00     0.117 C 
ENDROOT
BRANCH   1   2
ATOM      2  N   UNL A   1      33.681  27.558  22.376  1.00  0.00    -0.356 N 
ATOM      3  C   UNL A   1      33.369  26.265  22.142  1.00  0.00     0.225 C 
ATOM      4  O   UNL A   1      33.272  25.952  20.947  1.00  0.00    -0.275 OA
ATOM      5  H   UNL A   1      33.689  28.111  21.561  1.00  0.00     0.163 HD
BRANCH   3   6
ATOM      6  C   UNL A   1      33.143  25.199  23.196  1.00  0.00     0.103 C 
ATOM      7  N   UNL A   1      32.128  24.213  24.965  1.00  0.00    -0.318 N 
ATOM      8  C   UNL A   1      31.751  23.361  23.853  1.00  0.00     0.088 C 
ATOM      9  C   UNL A   1      32.112  25.503  24.300  1.00  0.00     0.099 C 
ATOM     10  C   UNL A   1      30.426  24.022  23.437  1.00  0.00     0.027 C 
ATOM     11  C   UNL A   1      32.862  23.717  22.846  1.00  0.00     0.040 C 
ATOM     12  C   UNL A   1      30.666  25.502  23.798  1.00  0.00     0.028 C 
BRANCH   7  13
ATOM     13  C   UNL A   1      31.991  24.039  26.298  1.00  0.00     0.318 C 
ATOM     14  N   UNL A   1      32.973  23.400  26.974  1.00  0.00    -0.333 N 
ATOM     15  H   UNL A   1      32.732  23.077  27.872  1.00  0.00     0.165 HD
ATOM     16  O   UNL A   1      31.046  24.499  26.935  1.00  0.00    -0.249 OA
BRANCH  14  17
ATOM     17  C   UNL A   1      34.324  23.128  26.555  1.00  0.00     0.165 C 
BRANCH  17  18
ATOM     18  C   UNL A   1      34.456  21.812  25.837  1.00  0.00     0.027 A 
ATOM     19  C   UNL A   1      35.537  21.375  25.078  1.00  0.00    -0.033 A 
ATOM     20  C   UNL A   1      35.341  20.027  24.625  1.00  0.00     0.016 A 
ATOM     21  C   UNL A   1      34.155  19.486  25.061  1.00  0.00     0.065 A 
ATOM     22  S   UNL A   1      33.274  20.580  26.022  1.00  0.00    -0.147 S 
BRANCH  19  23
ATOM     23  C   UNL A   1      36.765  22.189  24.775  1.00  0.00     0.033 C 
ATOM     24  C   UNL A   1      36.657  22.956  23.463  1.00  0.00     0.009 C 
ENDBRANCH  19  23
ENDBRANCH  17  18
ENDBRANCH  14  17
ENDBRANCH   7  13
ENDBRANCH   3   6
ENDBRANCH   1   2
BRANCH   1  25
ATOM     25  C   UNL A   1      32.872  29.230  23.982  1.00  0.00     0.042 C 
BRANCH  25  26
ATOM     26  C   UNL A   1      32.715  29.363  25.485  1.00  0.00     0.118 C 
BRANCH  26  27
ATOM     27  N   UNL A   1      32.309  30.703  25.873  1.00  0.00    -0.352 N 
ATOM     28  C   UNL A   1      32.768  31.508  26.890  1.00  0.00     0.251 C 
ATOM     29  H   UNL A   1      31.593  31.096  25.323  1.00  0.00     0.163 HD
ATOM     30  O   UNL A   1      32.117  32.503  27.196  1.00  0.00    -0.269 OA
BRANCH  28  31
ATOM     31  C   UNL A   1      34.010  31.170  27.627  1.00  0.00     0.039 A 
ATOM     32  C   UNL A   1      34.891  32.197  27.979  1.00  0.00     0.014 A 
ATOM     33  C   UNL A   1      34.331  29.849  27.946  1.00  0.00     0.014 A 
ATOM     34  C   UNL A   1      36.053  31.902  28.697  1.00  0.00     0.010 A 
ATOM     35  C   UNL A   1      35.422  29.572  28.763  1.00  0.00     0.010 A 
ATOM     36  C   UNL A   1      36.313  30.590  29.126  1.00  0.00    -0.014 A 
BRANCH  36  37
ATOM     37  C   UNL A   1      37.534  30.249  29.904  1.00  0.00     0.031 A 
ATOM     38  C   UNL A   1      38.579  29.347  29.297  1.00  0.00     0.074 A 
ATOM     39  C   UNL A   1      37.675  30.695  31.168  1.00  0.00     0.049 A 
ATOM     40  N   UNL A   1      39.665  28.853  29.834  1.00  0.00    -0.248 NA
ATOM     41  C   UNL A   1      38.348  28.908  27.910  1.00  0.00     0.031 C 
ATOM     42  C   UNL A   1      36.709  31.533  31.882  1.00  0.00     0.029 A 
ATOM     43  N   UNL A   1      38.681  30.499  32.081  1.00  0.00    -0.354 N 
ATOM     44  C   UNL A   1      40.227  28.028  28.864  1.00  0.00     0.074 A 
ATOM     45  C   UNL A   1      39.324  28.033  27.735  1.00  0.00     0.031 C 
ATOM     46  C   UNL A   1      37.183  31.804  33.109  1.00  0.00     0.029 A 
ATOM     47  C   UNL A   1      38.461  31.122  33.288  1.00  0.00     0.049 A 
ATOM     48  H   UNL A   1      39.484  29.964  31.891  1.00  0.00     0.167 HD
ATOM     49  C   UNL A   1      41.404  27.354  28.899  1.00  0.00     0.034 A 
ATOM     50  C   UNL A   1      39.201  31.133  34.416  1.00  0.00     0.034 A 
ATOM     51  C   UNL A   1      42.307  27.387  30.023  1.00  0.00     0.049 A 
ATOM     52  C   UNL A   1      40.504  30.377  34.434  1.00  0.00     0.074 A 
ATOM     53  C   UNL A   1      43.552  26.799  30.147  1.00  0.00     0.029 A 
ATOM     54  N   UNL A   1      42.058  28.045  31.222  1.00  0.00    -0.354 N 
ATOM     55  N   UNL A   1      41.050  29.646  33.488  1.00  0.00    -0.248 NA
ATOM     56  C   UNL A   1      41.300  30.459  35.664  1.00  0.00     0.031 C 
ATOM     57  C   UNL A   1      44.028  27.045  31.440  1.00  0.00     0.029 A 
ATOM     58  C   UNL A   1      43.114  27.853  32.099  1.00  0.00     0.049 A 
ATOM     59  H   UNL A   1      41.249  28.570  31.420  1.00  0.00     0.167 HD
ATOM     60  C   UNL A   1      42.267  29.207  34.001  1.00  0.00     0.074 A 
ATOM     61  C   UNL A   1      42.380  29.769  35.332  1.00  0.00     0.031 C 
ATOM     62  C   UNL A   1      43.207  28.415  33.426  1.00  0.00     0.034 A 
BRANCH  49  63
ATOM     63  C   UNL A   1      41.761  26.513  27.696  1.00  0.00     0.023 A 
ATOM     64  C   UNL A   1      41.422  25.149  27.619  1.00  0.00     0.031 A 
ATOM     65  C   UNL A   1      42.482  27.070  26.625  1.00  0.00     0.131 A 
ATOM     66  C   UNL A   1      41.877  24.372  26.542  1.00  0.00     0.055 A 
ATOM     67  C   UNL A   1      42.855  26.310  25.512  1.00  0.00     0.041 A 
ATOM     68  F   UNL A   1      42.853  28.360  26.647  1.00  0.00    -0.206 F 
ATOM     69  C   UNL A   1      42.569  24.949  25.475  1.00  0.00     0.022 A 
BRANCH  66  70
ATOM     70  S   UNL A   1      41.687  22.570  26.635  1.00  0.00     0.124 S 
ATOM     71  O   UNL A   1      42.267  22.146  25.363  1.00  0.00    -0.237 OA
ATOM     72  O   UNL A   1      42.451  22.233  27.830  1.00  0.00    -0.237 OA
ATOM     73  O   UNL A   1      40.241  22.384  26.745  1.00  0.00    -0.744 OA
ENDBRANCH  66  70
ENDBRANCH  49  63
BRANCH  50  74
ATOM     74  C   UNL A   1      38.731  31.877  35.621  1.00  0.00     0.023 A 
ATOM     75  C   UNL A   1      38.146  31.204  36.704  1.00  0.00     0.031 A 
ATOM     76  C   UNL A   1      38.828  33.278  35.690  1.00  0.00     0.131 A 
ATOM     77  C   UNL A   1      37.640  31.932  37.792  1.00  0.00     0.055 A 
ATOM     78  C   UNL A   1      38.371  33.996  36.798  1.00  0.00     0.041 A 
ATOM     79  F   UNL A   1      39.386  33.971  34.685  1.00  0.00    -0.206 F 
ATOM     80  C   UNL A   1      37.760  33.323  37.852  1.00  0.00     0.022 A 
BRANCH  77  81
ATOM     81  S   UNL A   1      36.745  31.042  39.095  1.00  0.00     0.124 S 
ATOM     82  O   UNL A   1      36.594  29.719  38.501  1.00  0.00    -0.237 OA
ATOM     83  O   UNL A   1      37.672  31.141  40.217  1.00  0.00    -0.237 OA
ATOM     84  O   UNL A   1      35.508  31.807  39.242  1.00  0.00    -0.744 OA
ENDBRANCH  77  81
ENDBRANCH  50  74
BRANCH  62  85
ATOM     85  C   UNL A   1      44.462  28.153  34.221  1.00  0.00     0.023 A 
ATOM     86  C   UNL A   1      44.584  27.038  35.068  1.00  0.00     0.031 A 
ATOM     87  C   UNL A   1      45.551  29.040  34.132  1.00  0.00     0.131 A 
ATOM     88  C   UNL A   1      45.745  26.869  35.835  1.00  0.00     0.055 A 
ATOM     89  C   UNL A   1      46.728  28.833  34.851  1.00  0.00     0.041 A 
ATOM     90  F   UNL A   1      45.488  30.122  33.339  1.00  0.00    -0.206 F 
ATOM     91  C   UNL A   1      46.825  27.749  35.719  1.00  0.00     0.022 A 
BRANCH  88  92
ATOM     92  S   UNL A   1      45.793  25.532  37.060  1.00  0.00     0.124 S 
ATOM     93  O   UNL A   1      44.388  25.415  37.436  1.00  0.00    -0.237 OA
ATOM     94  O   UNL A   1      46.341  24.421  36.288  1.00  0.00    -0.237 OA
ATOM     95  O   UNL A   1      46.674  26.054  38.103  1.00  0.00    -0.744 OA
ENDBRANCH  88  92
ENDBRANCH  62  85
ENDBRANCH  36  37
ENDBRANCH  28  31
ENDBRANCH  26  27
ENDBRANCH  25  26
ENDBRANCH   1  25
TORSDOF 17
ENDMDL
MODEL 2
REMARK VINA RESULT:     -11.9      2.182      3.262
REMARK SMILES CCc1ccsc1CNC(=O)N1[C@H]2CC[C@@H]1[C@H](C(=O)NCCCNC(=O)c1ccc(-c3c4nc(c(-c5cc(S(=O)(=O)[O-])ccc5F)c5ccc([nH]5)c(-c5cc(S(=O)(=O)[O-])ccc5F)c5nc(c(-c6cc(S(=O)(=O)[O-])ccc6F)c6ccc3[nH]6)C=C5)C=C4)cc1)C2
REMARK SMILES IDX 21 1 20 2 18 3 19 4 17 6 12 7 13 8 16 9 14 10 90 11 15 12
REMARK SMILES IDX 10 13 9 14 11 16 8 17 7 18 3 19 4 20 5 21 6 22 2 23 1 24
REMARK SMILES IDX 22 25 23 26 24 27 25 28 26 30 27 31 28 32 89 33 29 34 88 35
REMARK SMILES IDX 30 36 31 37 32 38 82 39 33 40 87 41 81 42 83 43 34 44 86 45
REMARK SMILES IDX 80 46 79 47 35 49 67 50 47 51 66 52 48 53 51 54 65 55 84 56
REMARK SMILES IDX 49 57 50 58 64 60 85 61 52 62 36 63 37 64 45 65 38 66 44 67
REMARK SMILES IDX 46 68 43 69 39 70 40 71 41 72 42 73 68 74 69 75 77 76 70 77
REMARK SMILES IDX 76 78 78 79 75 80 71 81 72 82 73 83 74 84 53 85 54 86 62 87
REMARK SMILES IDX 55 88 61 89 63 90 60 91 56 92 57 93 58 94 59 95
REMARK H PARENT 20 5 9 15 24 29 83 48 51 59
REMARK Flexibility Score: inf
ROOT
ATOM      1  C   UNL A   1      31.495  30.592  25.760  1.00  0.00     0.117 C 
ENDROOT
BRANCH   1   2
ATOM      2  N   UNL A   1      30.601  30.455  24.628  1.00  0.00    -0.356 N 
ATOM      3  C   UNL A   1      30.412  29.488  23.704  1.00  0.00     0.225 C 
ATOM      4  O   UNL A   1      29.629  29.775  22.789  1.00  0.00    -0.275 OA
ATOM      5  H   UNL A   1      30.007  31.231  24.506  1.00  0.00     0.163 HD
BRANCH   3   6
ATOM      6  C   UNL A   1      31.071  28.122  23.700  1.00  0.00     0.103 C 
ATOM      7  N   UNL A   1      32.675  26.594  23.225  1.00  0.00    -0.318 N 
ATOM      8  C   UNL A   1      32.820  26.789  24.656  1.00  0.00     0.088 C 
ATOM      9  C   UNL A   1      32.330  27.946  22.828  1.00  0.00     0.099 C 
ATOM     10  C   UNL A   1      33.870  27.914  24.675  1.00  0.00     0.027 C 
ATOM     11  C   UNL A   1      31.428  27.356  24.997  1.00  0.00     0.040 C 
ATOM     12  C   UNL A   1      33.555  28.683  23.375  1.00  0.00     0.028 C 
BRANCH   7  13
ATOM     13  C   UNL A   1      33.215  25.670  22.401  1.00  0.00     0.318 C 
ATOM     14  N   UNL A   1      33.138  24.365  22.749  1.00  0.00    -0.333 N 
ATOM     15  H   UNL A   1      33.744  23.758  22.267  1.00  0.00     0.165 HD
ATOM     16  O   UNL A   1      33.710  25.957  21.314  1.00  0.00    -0.249 OA
BRANCH  14  17
ATOM     17  C   UNL A   1      32.288  23.745  23.733  1.00  0.00     0.165 C 
BRANCH  17  18
ATOM     18  C   UNL A   1      33.065  23.103  24.850  1.00  0.00     0.027 A 
ATOM     19  C   UNL A   1      32.774  23.149  26.210  1.00  0.00    -0.033 A 
ATOM     20  C   UNL A   1      33.689  22.341  26.964  1.00  0.00     0.016 A 
ATOM     21  C   UNL A   1      34.612  21.701  26.172  1.00  0.00     0.065 A 
ATOM     22  S   UNL A   1      34.386  22.056  24.523  1.00  0.00    -0.147 S 
BRANCH  19  23
ATOM     23  C   UNL A   1      31.643  23.928  26.825  1.00  0.00     0.033 C 
ATOM     24  C   UNL A   1      30.333  23.152  26.848  1.00  0.00     0.009 C 
ENDBRANCH  19  23
ENDBRANCH  17  18
ENDBRANCH  14  17
ENDBRANCH   7  13
ENDBRANCH   3   6
ENDBRANCH   1   2
BRANCH   1  25
ATOM     25  C   UNL A   1      31.343  31.948  26.430  1.00  0.00     0.042 C 
BRANCH  25  26
ATOM     26  C   UNL A   1      32.569  32.369  27.217  1.00  0.00     0.118 C 
BRANCH  26  27
ATOM     27  N   UNL A   1      32.538  33.780  27.561  1.00  0.00    -0.352 N 
ATOM     28  C   UNL A   1      33.241  34.475  28.518  1.00  0.00     0.251 C 
ATOM     29  H   UNL A   1      31.915  34.325  27.026  1.00  0.00     0.163 HD
ATOM     30  O   UNL A   1      32.881  35.613  28.806  1.00  0.00    -0.269 OA
BRANCH  28  31
ATOM     31  C   UNL A   1      34.396  33.856  29.212  1.00  0.00     0.039 A 
ATOM     32  C   UNL A   1      35.686  34.311  28.923  1.00  0.00     0.014 A 
ATOM     33  C   UNL A   1      34.224  32.810  30.122  1.00  0.00     0.014 A 
ATOM     34  C   UNL A   1      36.785  33.760  29.587  1.00  0.00     0.010 A 
ATOM     35  C   UNL A   1      35.303  32.348  30.869  1.00  0.00     0.010 A 
ATOM     36  C   UNL A   1      36.601  32.796  30.591  1.00  0.00    -0.014 A 
BRANCH  36  37
ATOM     37  C   UNL A   1      37.751  32.202  31.325  1.00  0.00     0.031 A 
ATOM     38  C   UNL A   1      38.553  31.096  30.686  1.00  0.00     0.074 A 
ATOM     39  C   UNL A   1      38.033  32.608  32.579  1.00  0.00     0.049 A 
ATOM     40  N   UNL A   1      39.529  30.382  31.186  1.00  0.00    -0.248 NA
ATOM     41  C   UNL A   1      38.178  30.716  29.314  1.00  0.00     0.031 C 
ATOM     42  C   UNL A   1      37.298  33.633  33.321  1.00  0.00     0.029 A 
ATOM     43  N   UNL A   1      39.009  32.202  33.454  1.00  0.00    -0.354 N 
ATOM     44  C   UNL A   1      39.862  29.455  30.203  1.00  0.00     0.074 A 
ATOM     45  C   UNL A   1      38.938  29.652  29.109  1.00  0.00     0.031 C 
ATOM     46  C   UNL A   1      37.868  33.798  34.526  1.00  0.00     0.029 A 
ATOM     47  C   UNL A   1      38.976  32.858  34.663  1.00  0.00     0.049 A 
ATOM     48  H   UNL A   1      39.671  31.507  33.238  1.00  0.00     0.167 HD
ATOM     49  C   UNL A   1      40.868  28.544  30.199  1.00  0.00     0.034 A 
ATOM     50  C   UNL A   1      39.745  32.711  35.761  1.00  0.00     0.034 A 
ATOM     51  C   UNL A   1      41.801  28.384  31.287  1.00  0.00     0.049 A 
ATOM     52  C   UNL A   1      40.857  31.694  35.735  1.00  0.00     0.074 A 
ATOM     53  C   UNL A   1      42.896  27.543  31.368  1.00  0.00     0.029 A 
ATOM     54  N   UNL A   1      41.746  29.080  32.488  1.00  0.00    -0.354 N 
ATOM     55  N   UNL A   1      41.195  30.862  34.776  1.00  0.00    -0.248 NA
ATOM     56  C   UNL A   1      41.700  31.604  36.934  1.00  0.00     0.031 C 
ATOM     57  C   UNL A   1      43.463  27.682  32.639  1.00  0.00     0.029 A 
ATOM     58  C   UNL A   1      42.771  28.667  33.325  1.00  0.00     0.049 A 
ATOM     59  H   UNL A   1      41.077  29.767  32.712  1.00  0.00     0.167 HD
ATOM     60  C   UNL A   1      42.309  30.173  35.246  1.00  0.00     0.074 A 
ATOM     61  C   UNL A   1      42.593  30.698  36.567  1.00  0.00     0.031 C 
ATOM     62  C   UNL A   1      43.034  29.197  34.643  1.00  0.00     0.034 A 
BRANCH  49  63
ATOM     63  C   UNL A   1      40.988  27.645  28.990  1.00  0.00     0.023 A 
ATOM     64  C   UNL A   1      41.989  27.838  28.020  1.00  0.00     0.031 A 
ATOM     65  C   UNL A   1      40.069  26.602  28.783  1.00  0.00     0.131 A 
ATOM     66  C   UNL A   1      41.994  27.061  26.851  1.00  0.00     0.055 A 
ATOM     67  C   UNL A   1      40.133  25.773  27.659  1.00  0.00     0.041 A 
ATOM     68  F   UNL A   1      39.077  26.378  29.660  1.00  0.00    -0.206 F 
ATOM     69  C   UNL A   1      41.089  26.012  26.676  1.00  0.00     0.022 A 
BRANCH  66  70
ATOM     70  S   UNL A   1      43.100  27.544  25.497  1.00  0.00     0.124 S 
ATOM     71  O   UNL A   1      43.565  26.245  25.018  1.00  0.00    -0.237 OA
ATOM     72  O   UNL A   1      42.207  28.272  24.604  1.00  0.00    -0.237 OA
ATOM     73  O   UNL A   1      44.119  28.356  26.160  1.00  0.00    -0.744 OA
ENDBRANCH  66  70
ENDBRANCH  49  63
BRANCH  50  74
ATOM     74  C   UNL A   1      39.493  33.539  36.976  1.00  0.00     0.023 A 
ATOM     75  C   UNL A   1      38.805  33.014  38.080  1.00  0.00     0.031 A 
ATOM     76  C   UNL A   1      39.907  34.882  37.036  1.00  0.00     0.131 A 
ATOM     77  C   UNL A   1      38.511  33.835  39.179  1.00  0.00     0.055 A 
ATOM     78  C   UNL A   1      39.660  35.681  38.154  1.00  0.00     0.041 A 
ATOM     79  F   UNL A   1      40.577  35.433  36.011  1.00  0.00    -0.206 F 
ATOM     80  C   UNL A   1      38.945  35.163  39.229  1.00  0.00     0.022 A 
BRANCH  77  81
ATOM     81  S   UNL A   1      37.479  33.168  40.513  1.00  0.00     0.124 S 
ATOM     82  O   UNL A   1      36.275  32.777  39.790  1.00  0.00    -0.237 OA
ATOM     83  O   UNL A   1      38.307  32.078  41.018  1.00  0.00    -0.237 OA
ATOM     84  O   UNL A   1      37.322  34.301  41.422  1.00  0.00    -0.744 OA
ENDBRANCH  77  81
ENDBRANCH  50  74
BRANCH  62  85
ATOM     85  C   UNL A   1      44.234  28.673  35.391  1.00  0.00     0.023 A 
ATOM     86  C   UNL A   1      44.123  27.650  36.347  1.00  0.00     0.031 A 
ATOM     87  C   UNL A   1      45.510  29.214  35.145  1.00  0.00     0.131 A 
ATOM     88  C   UNL A   1      45.256  27.237  37.063  1.00  0.00     0.055 A 
ATOM     89  C   UNL A   1      46.644  28.756  35.816  1.00  0.00     0.041 A 
ATOM     90  F   UNL A   1      45.674  30.194  34.242  1.00  0.00    -0.206 F 
ATOM     91  C   UNL A   1      46.519  27.771  36.791  1.00  0.00     0.022 A 
BRANCH  88  92
ATOM     92  S   UNL A   1      45.045  26.056  38.423  1.00  0.00     0.124 S 
ATOM     93  O   UNL A   1      44.312  24.974  37.774  1.00  0.00    -0.237 OA
ATOM     94  O   UNL A   1      46.424  25.758  38.795  1.00  0.00    -0.237 OA
ATOM     95  O   UNL A   1      44.285  26.810  39.418  1.00  0.00    -0.744 OA
ENDBRANCH  88  92
ENDBRANCH  62  85
ENDBRANCH  36  37
ENDBRANCH  28  31
ENDBRANCH  26  27
ENDBRANCH  25  26
ENDBRANCH   1  25
TORSDOF 17
ENDMDL
MODEL 3
REMARK VINA RESULT:     -11.8      2.086      2.779
REMARK SMILES CCc1ccsc1CNC(=O)N1[C@H]2CC[C@@H]1[C@H](C(=O)NCCCNC(=O)c1ccc(-c3c4nc(c(-c5cc(S(=O)(=O)[O-])ccc5F)c5ccc([nH]5)c(-c5cc(S(=O)(=O)[O-])ccc5F)c5nc(c(-c6cc(S(=O)(=O)[O-])ccc6F)c6ccc3[nH]6)C=C5)C=C4)cc1)C2
REMARK SMILES IDX 21 1 20 2 18 3 19 4 17 6 12 7 13 8 16 9 14 10 90 11 15 12
REMARK SMILES IDX 10 13 9 14 11 16 8 17 7 18 3 19 4 20 5 21 6 22 2 23 1 24
REMARK SMILES IDX 22 25 23 26 24 27 25 28 26 30 27 31 28 32 89 33 29 34 88 35
REMARK SMILES IDX 30 36 31 37 32 38 82 39 33 40 87 41 81 42 83 43 34 44 86 45
REMARK SMILES IDX 80 46 79 47 35 49 67 50 47 51 66 52 48 53 51 54 65 55 84 56
REMARK SMILES IDX 49 57 50 58 64 60 85 61 52 62 36 63 37 64 45 65 38 66 44 67
REMARK SMILES IDX 46 68 43 69 39 70 40 71 41 72 42 73 68 74 69 75 77 76 70 77
REMARK SMILES IDX 76 78 78 79 75 80 71 81 72 82 73 83 74 84 53 85 54 86 62 87
REMARK SMILES IDX 55 88 61 89 63 90 60 91 56 92 57 93 58 94 59 95
REMARK H PARENT 20 5 9 15 24 29 83 48 51 59
REMARK Flexibility Score: inf
ROOT
ATOM      1  C   UNL A   1      31.644  30.299  26.363  1.00  0.00     0.117 C 
ENDROOT
BRANCH   1   2
ATOM      2  N   UNL A   1      31.514  30.043  24.942  1.00  0.00    -0.356 N 
ATOM      3  C   UNL A   1      31.683  28.943  24.177  1.00  0.00     0.225 C 
ATOM      4  O   UNL A   1      31.606  29.131  22.955  1.00  0.00    -0.275 OA
ATOM      5  H   UNL A   1      31.248  30.840  24.427  1.00  0.00     0.163 HD
BRANCH   3   6
ATOM      6  C   UNL A   1      31.957  27.540  24.684  1.00  0.00     0.103 C 
ATOM      7  N   UNL A   1      31.443  25.433  25.335  1.00  0.00    -0.318 N 
ATOM      8  C   UNL A   1      32.109  25.230  24.062  1.00  0.00     0.088 C 
ATOM      9  C   UNL A   1      30.739  26.669  25.048  1.00  0.00     0.099 C 
ATOM     10  C   UNL A   1      30.900  25.252  23.111  1.00  0.00     0.027 C 
ATOM     11  C   UNL A   1      32.895  26.551  23.952  1.00  0.00     0.040 C 
ATOM     12  C   UNL A   1      29.931  26.215  23.829  1.00  0.00     0.028 C 
BRANCH   7  13
ATOM     13  C   UNL A   1      31.078  24.551  26.291  1.00  0.00     0.318 C 
ATOM     14  N   UNL A   1      32.015  23.716  26.795  1.00  0.00    -0.333 N 
ATOM     15  H   UNL A   1      31.672  22.939  27.293  1.00  0.00     0.165 HD
ATOM     16  O   UNL A   1      29.948  24.522  26.774  1.00  0.00    -0.249 OA
BRANCH  14  17
ATOM     17  C   UNL A   1      33.449  23.810  26.700  1.00  0.00     0.165 C 
BRANCH  17  18
ATOM     18  C   UNL A   1      34.057  22.667  25.933  1.00  0.00     0.027 A 
ATOM     19  C   UNL A   1      35.267  22.667  25.244  1.00  0.00    -0.033 A 
ATOM     20  C   UNL A   1      35.559  21.367  24.712  1.00  0.00     0.016 A 
ATOM     21  C   UNL A   1      34.599  20.435  25.023  1.00  0.00     0.065 A 
ATOM     22  S   UNL A   1      33.346  21.104  25.960  1.00  0.00    -0.147 S 
BRANCH  19  23
ATOM     23  C   UNL A   1      36.168  23.860  25.082  1.00  0.00     0.033 C 
ATOM     24  C   UNL A   1      37.506  23.693  25.790  1.00  0.00     0.009 C 
ENDBRANCH  19  23
ENDBRANCH  17  18
ENDBRANCH  14  17
ENDBRANCH   7  13
ENDBRANCH   3   6
ENDBRANCH   1   2
BRANCH   1  25
ATOM     25  C   UNL A   1      31.486  31.778  26.679  1.00  0.00     0.042 C 
BRANCH  25  26
ATOM     26  C   UNL A   1      32.791  32.453  27.054  1.00  0.00     0.118 C 
BRANCH  26  27
ATOM     27  N   UNL A   1      32.589  33.825  27.488  1.00  0.00    -0.352 N 
ATOM     28  C   UNL A   1      33.133  34.507  28.552  1.00  0.00     0.251 C 
ATOM     29  H   UNL A   1      31.964  34.348  26.935  1.00  0.00     0.163 HD
ATOM     30  O   UNL A   1      32.638  35.581  28.881  1.00  0.00    -0.269 OA
BRANCH  28  31
ATOM     31  C   UNL A   1      34.278  33.947  29.309  1.00  0.00     0.039 A 
ATOM     32  C   UNL A   1      34.030  33.047  30.349  1.00  0.00     0.014 A 
ATOM     33  C   UNL A   1      35.593  34.323  29.026  1.00  0.00     0.014 A 
ATOM     34  C   UNL A   1      35.096  32.487  31.057  1.00  0.00     0.010 A 
ATOM     35  C   UNL A   1      36.656  33.675  29.647  1.00  0.00     0.010 A 
ATOM     36  C   UNL A   1      36.422  32.770  30.690  1.00  0.00    -0.014 A 
BRANCH  36  37
ATOM     37  C   UNL A   1      37.578  32.177  31.415  1.00  0.00     0.031 A 
ATOM     38  C   UNL A   1      38.361  31.054  30.782  1.00  0.00     0.074 A 
ATOM     39  C   UNL A   1      37.883  32.600  32.658  1.00  0.00     0.049 A 
ATOM     40  N   UNL A   1      39.338  30.339  31.278  1.00  0.00    -0.248 NA
ATOM     41  C   UNL A   1      37.962  30.656  29.422  1.00  0.00     0.031 C 
ATOM     42  C   UNL A   1      37.169  33.644  33.396  1.00  0.00     0.029 A 
ATOM     43  N   UNL A   1      38.869  32.199  33.525  1.00  0.00    -0.354 N 
ATOM     44  C   UNL A   1      39.648  29.394  30.305  1.00  0.00     0.074 A 
ATOM     45  C   UNL A   1      38.709  29.583  29.222  1.00  0.00     0.031 C 
ATOM     46  C   UNL A   1      37.758  33.822  34.589  1.00  0.00     0.029 A 
ATOM     47  C   UNL A   1      38.860  32.875  34.723  1.00  0.00     0.049 A 
ATOM     48  H   UNL A   1      39.522  31.495  33.309  1.00  0.00     0.167 HD
ATOM     49  C   UNL A   1      40.646  28.474  30.300  1.00  0.00     0.034 A 
ATOM     50  C   UNL A   1      39.644  32.738  35.812  1.00  0.00     0.034 A 
ATOM     51  C   UNL A   1      41.594  28.323  31.376  1.00  0.00     0.049 A 
ATOM     52  C   UNL A   1      40.746  31.711  35.786  1.00  0.00     0.074 A 
ATOM     53  C   UNL A   1      42.682  27.473  31.454  1.00  0.00     0.029 A 
ATOM     54  N   UNL A   1      41.563  29.039  32.566  1.00  0.00    -0.354 N 
ATOM     55  N   UNL A   1      41.062  30.860  34.834  1.00  0.00    -0.248 NA
ATOM     56  C   UNL A   1      41.607  31.632  36.972  1.00  0.00     0.031 C 
ATOM     57  C   UNL A   1      43.270  27.627  32.713  1.00  0.00     0.029 A 
ATOM     58  C   UNL A   1      42.597  28.629  33.394  1.00  0.00     0.049 A 
ATOM     59  H   UNL A   1      40.904  29.735  32.790  1.00  0.00     0.167 HD
ATOM     60  C   UNL A   1      42.178  30.169  35.299  1.00  0.00     0.074 A 
ATOM     61  C   UNL A   1      42.486  30.712  36.606  1.00  0.00     0.031 C 
ATOM     62  C   UNL A   1      42.885  29.178  34.699  1.00  0.00     0.034 A 
BRANCH  49  63
ATOM     63  C   UNL A   1      40.740  27.555  29.104  1.00  0.00     0.023 A 
ATOM     64  C   UNL A   1      41.687  27.762  28.083  1.00  0.00     0.031 A 
ATOM     65  C   UNL A   1      39.847  26.479  28.960  1.00  0.00     0.131 A 
ATOM     66  C   UNL A   1      41.663  26.962  26.930  1.00  0.00     0.055 A 
ATOM     67  C   UNL A   1      39.887  25.630  27.850  1.00  0.00     0.041 A 
ATOM     68  F   UNL A   1      38.907  26.240  29.888  1.00  0.00    -0.206 F 
ATOM     69  C   UNL A   1      40.787  25.881  26.819  1.00  0.00     0.022 A 
BRANCH  66  70
ATOM     70  S   UNL A   1      42.687  27.454  25.516  1.00  0.00     0.124 S 
ATOM     71  O   UNL A   1      43.971  27.722  26.161  1.00  0.00    -0.237 OA
ATOM     72  O   UNL A   1      42.634  26.274  24.662  1.00  0.00    -0.237 OA
ATOM     73  O   UNL A   1      42.003  28.636  24.993  1.00  0.00    -0.744 OA
ENDBRANCH  66  70
ENDBRANCH  49  63
BRANCH  50  74
ATOM     74  C   UNL A   1      39.418  33.587  37.018  1.00  0.00     0.023 A 
ATOM     75  C   UNL A   1      38.786  33.071  38.159  1.00  0.00     0.031 A 
ATOM     76  C   UNL A   1      39.801  34.941  37.032  1.00  0.00     0.131 A 
ATOM     77  C   UNL A   1      38.513  33.910  39.250  1.00  0.00     0.055 A 
ATOM     78  C   UNL A   1      39.576  35.759  38.141  1.00  0.00     0.041 A 
ATOM     79  F   UNL A   1      40.418  35.484  35.971  1.00  0.00    -0.206 F 
ATOM     80  C   UNL A   1      38.916  35.248  39.254  1.00  0.00     0.022 A 
BRANCH  77  81
ATOM     81  S   UNL A   1      37.550  33.248  40.637  1.00  0.00     0.124 S 
ATOM     82  O   UNL A   1      37.314  34.446  41.434  1.00  0.00    -0.237 OA
ATOM     83  O   UNL A   1      36.385  32.691  39.956  1.00  0.00    -0.237 OA
ATOM     84  O   UNL A   1      38.448  32.264  41.237  1.00  0.00    -0.744 OA
ENDBRANCH  77  81
ENDBRANCH  50  74
BRANCH  62  85
ATOM     85  C   UNL A   1      44.092  28.655  35.437  1.00  0.00     0.023 A 
ATOM     86  C   UNL A   1      43.997  27.598  36.359  1.00  0.00     0.031 A 
ATOM     87  C   UNL A   1      45.357  29.230  35.217  1.00  0.00     0.131 A 
ATOM     88  C   UNL A   1      45.135  27.186  37.068  1.00  0.00     0.055 A 
ATOM     89  C   UNL A   1      46.497  28.775  35.880  1.00  0.00     0.041 A 
ATOM     90  F   UNL A   1      45.505  30.243  34.349  1.00  0.00    -0.206 F 
ATOM     91  C   UNL A   1      46.387  27.755  36.822  1.00  0.00     0.022 A 
BRANCH  88  92
ATOM     92  S   UNL A   1      44.942  25.956  38.387  1.00  0.00     0.124 S 
ATOM     93  O   UNL A   1      44.199  26.706  39.394  1.00  0.00    -0.237 OA
ATOM     94  O   UNL A   1      44.206  24.890  37.714  1.00  0.00    -0.237 OA
ATOM     95  O   UNL A   1      46.318  25.624  38.750  1.00  0.00    -0.744 OA
ENDBRANCH  88  92
ENDBRANCH  62  85
ENDBRANCH  36  37
ENDBRANCH  28  31
ENDBRANCH  26  27
ENDBRANCH  25  26
ENDBRANCH   1  25
TORSDOF 17
ENDMDL
