MODEL 1
REMARK VINA RESULT:     -11.7      0.000      0.000
REMARK SMILES C[C@H]1C[C@@H]1NC(=O)Cn1cccc1C(=O)NCCCNC(=O)c1ccc(-c2c3nc(c(-c4cc(S(=O)(=O)[O-])ccc4F)c4ccc([nH]4)c(-c4cc(S(=O)(=O)[O-])ccc4F)c4nc(c(-c5cc(S(=O)(=O)[O-])ccc5F)c5ccc2[nH]5)C=C4)C=C3)cc1
REMARK SMILES IDX 18 1 17 2 16 3 14 4 15 5 13 7 9 8 10 9 11 10 12 11 8 12 6 13
REMARK SMILES IDX 5 14 7 16 4 17 1 18 2 19 3 20 19 21 20 22 21 23 22 25 23 26
REMARK SMILES IDX 24 27 85 28 25 29 84 30 26 31 27 32 28 33 78 34 29 35 83 36
REMARK SMILES IDX 77 37 79 38 30 39 82 40 76 41 75 42 31 44 63 45 43 46 62 47
REMARK SMILES IDX 44 48 47 49 61 50 80 51 45 52 46 53 60 55 81 56 48 57 32 58
REMARK SMILES IDX 33 59 41 60 34 61 40 62 42 63 39 64 35 65 36 66 37 67 38 68
REMARK SMILES IDX 64 69 65 70 73 71 66 72 72 73 74 74 71 75 67 76 68 77 69 78
REMARK SMILES IDX 70 79 49 80 50 81 58 82 51 83 57 84 59 85 56 86 52 87 53 88
REMARK SMILES IDX 54 89 55 90
REMARK H PARENT 16 6 5 15 20 24 79 43 47 54
REMARK Flexibility Score: inf
ROOT
ATOM      1  C   UNL A   1      34.008  29.676  26.447  1.00  0.00     0.042 C 
ENDROOT
BRANCH   1   2
ATOM      2  C   UNL A   1      32.511  29.609  26.726  1.00  0.00     0.118 C 
BRANCH   2   3
ATOM      3  N   UNL A   1      31.819  28.264  26.638  1.00  0.00    -0.351 N 
ATOM      4  C   UNL A   1      31.738  26.915  26.335  1.00  0.00     0.267 C 
ATOM      5  O   UNL A   1      30.734  26.549  26.994  1.00  0.00    -0.268 OA
ATOM      6  H   UNL A   1      30.925  28.458  27.000  1.00  0.00     0.163 HD
BRANCH   4   7
ATOM      7  C   UNL A   1      32.463  25.783  25.577  1.00  0.00     0.107 A 
ATOM      8  N   UNL A   1      33.308  25.433  24.439  1.00  0.00    -0.334 N 
ATOM      9  C   UNL A   1      33.645  24.068  24.545  1.00  0.00     0.087 A 
ATOM     10  C   UNL A   1      33.092  23.511  25.654  1.00  0.00     0.020 A 
ATOM     11  C   UNL A   1      32.381  24.540  26.268  1.00  0.00     0.033 A 
BRANCH   8  12
ATOM     12  C   UNL A   1      33.753  26.083  23.141  1.00  0.00     0.222 C 
BRANCH  12  13
ATOM     13  C   UNL A   1      32.857  26.340  21.853  1.00  0.00     0.240 C 
ATOM     14  N   UNL A   1      31.541  26.770  21.865  1.00  0.00    -0.352 N 
ATOM     15  H   UNL A   1      30.950  26.435  21.152  1.00  0.00     0.163 HD
ATOM     16  O   UNL A   1      33.279  26.017  20.731  1.00  0.00    -0.273 OA
BRANCH  14  17
ATOM     17  C   UNL A   1      30.972  27.650  22.820  1.00  0.00     0.085 C 
ATOM     18  C   UNL A   1      29.375  29.847  22.812  1.00  0.00     0.010 C 
ATOM     19  C   UNL A   1      30.369  28.914  22.248  1.00  0.00     0.010 C 
ATOM     20  C   UNL A   1      31.657  28.909  23.016  1.00  0.00     0.030 C 
ENDBRANCH  14  17
ENDBRANCH  12  13
ENDBRANCH   8  12
ENDBRANCH   4   7
ENDBRANCH   2   3
ENDBRANCH   1   2
BRANCH   1  21
ATOM     21  C   UNL A   1      34.965  29.371  27.601  1.00  0.00     0.118 C 
BRANCH  21  22
ATOM     22  N   UNL A   1      35.251  30.516  28.473  1.00  0.00    -0.352 N 
ATOM     23  C   UNL A   1      36.152  30.532  29.515  1.00  0.00     0.251 C 
ATOM     24  H   UNL A   1      34.754  31.347  28.299  1.00  0.00     0.163 HD
ATOM     25  O   UNL A   1      35.916  31.219  30.525  1.00  0.00    -0.269 OA
BRANCH  23  26
ATOM     26  C   UNL A   1      37.396  29.749  29.431  1.00  0.00     0.039 A 
ATOM     27  C   UNL A   1      38.423  30.142  28.566  1.00  0.00     0.014 A 
ATOM     28  C   UNL A   1      37.525  28.597  30.218  1.00  0.00     0.014 A 
ATOM     29  C   UNL A   1      39.609  29.417  28.553  1.00  0.00     0.010 A 
ATOM     30  C   UNL A   1      38.723  27.910  30.252  1.00  0.00     0.010 A 
ATOM     31  C   UNL A   1      39.762  28.320  29.420  1.00  0.00    -0.014 A 
BRANCH  31  32
ATOM     32  C   UNL A   1      41.114  27.750  29.613  1.00  0.00     0.031 A 
ATOM     33  C   UNL A   1      41.299  26.603  28.555  1.00  0.00     0.074 A 
ATOM     34  C   UNL A   1      41.845  28.285  30.651  1.00  0.00     0.049 A 
ATOM     35  N   UNL A   1      41.713  25.377  28.681  1.00  0.00    -0.248 NA
ATOM     36  C   UNL A   1      40.761  26.821  27.170  1.00  0.00     0.031 C 
ATOM     37  C   UNL A   1      41.465  29.474  31.467  1.00  0.00     0.029 A 
ATOM     38  N   UNL A   1      43.048  27.982  31.250  1.00  0.00    -0.354 N 
ATOM     39  C   UNL A   1      41.735  24.794  27.381  1.00  0.00     0.074 A 
ATOM     40  C   UNL A   1      40.969  25.661  26.541  1.00  0.00     0.031 C 
ATOM     41  C   UNL A   1      42.325  29.683  32.497  1.00  0.00     0.029 A 
ATOM     42  C   UNL A   1      43.345  28.659  32.487  1.00  0.00     0.049 A 
ATOM     43  H   UNL A   1      43.674  27.335  30.852  1.00  0.00     0.167 HD
ATOM     44  C   UNL A   1      42.568  23.761  27.044  1.00  0.00     0.034 A 
ATOM     45  C   UNL A   1      44.268  28.319  33.461  1.00  0.00     0.034 A 
ATOM     46  C   UNL A   1      43.359  23.442  28.178  1.00  0.00     0.049 A 
ATOM     47  C   UNL A   1      44.828  27.075  32.908  1.00  0.00     0.074 A 
ATOM     48  C   UNL A   1      43.263  22.631  29.273  1.00  0.00     0.029 A 
ATOM     49  N   UNL A   1      44.513  24.181  28.275  1.00  0.00    -0.354 N 
ATOM     50  N   UNL A   1      45.621  26.980  31.890  1.00  0.00    -0.248 NA
ATOM     51  C   UNL A   1      44.139  25.862  33.335  1.00  0.00     0.031 C 
ATOM     52  C   UNL A   1      44.299  23.073  30.132  1.00  0.00     0.029 A 
ATOM     53  C   UNL A   1      44.834  24.248  29.595  1.00  0.00     0.049 A 
ATOM     54  H   UNL A   1      45.012  24.585  27.530  1.00  0.00     0.167 HD
ATOM     55  C   UNL A   1      45.338  25.739  31.370  1.00  0.00     0.074 A 
ATOM     56  C   UNL A   1      44.463  25.073  32.327  1.00  0.00     0.031 C 
ATOM     57  C   UNL A   1      45.491  25.444  30.055  1.00  0.00     0.034 A 
BRANCH  44  58
ATOM     58  C   UNL A   1      43.107  23.180  25.736  1.00  0.00     0.023 A 
ATOM     59  C   UNL A   1      43.066  21.758  25.641  1.00  0.00     0.031 A 
ATOM     60  C   UNL A   1      43.968  23.820  24.839  1.00  0.00     0.131 A 
ATOM     61  C   UNL A   1      43.993  21.036  24.880  1.00  0.00     0.055 A 
ATOM     62  C   UNL A   1      44.831  23.091  23.995  1.00  0.00     0.041 A 
ATOM     63  F   UNL A   1      44.074  25.154  24.798  1.00  0.00    -0.206 F 
ATOM     64  C   UNL A   1      44.887  21.698  24.051  1.00  0.00     0.022 A 
BRANCH  61  65
ATOM     65  S   UNL A   1      44.137  19.245  25.180  1.00  0.00     0.124 S 
ATOM     66  O   UNL A   1      43.114  19.023  26.195  1.00  0.00    -0.237 OA
ATOM     67  O   UNL A   1      43.856  18.689  23.859  1.00  0.00    -0.237 OA
ATOM     68  O   UNL A   1      45.516  19.087  25.636  1.00  0.00    -0.744 OA
ENDBRANCH  61  65
ENDBRANCH  44  58
BRANCH  45  69
ATOM     69  C   UNL A   1      44.629  28.604  34.929  1.00  0.00     0.023 A 
ATOM     70  C   UNL A   1      44.621  27.711  36.016  1.00  0.00     0.031 A 
ATOM     71  C   UNL A   1      45.050  29.935  35.284  1.00  0.00     0.131 A 
ATOM     72  C   UNL A   1      45.098  28.133  37.304  1.00  0.00     0.055 A 
ATOM     73  C   UNL A   1      45.615  30.306  36.505  1.00  0.00     0.041 A 
ATOM     74  F   UNL A   1      44.916  30.974  34.448  1.00  0.00    -0.206 F 
ATOM     75  C   UNL A   1      45.660  29.393  37.525  1.00  0.00     0.022 A 
BRANCH  72  76
ATOM     76  S   UNL A   1      44.960  27.065  38.777  1.00  0.00     0.124 S 
ATOM     77  O   UNL A   1      46.060  26.130  38.574  1.00  0.00    -0.237 OA
ATOM     78  O   UNL A   1      45.110  28.012  39.875  1.00  0.00    -0.237 OA
ATOM     79  O   UNL A   1      43.624  26.479  38.652  1.00  0.00    -0.744 OA
ENDBRANCH  72  76
ENDBRANCH  45  69
BRANCH  57  80
ATOM     80  C   UNL A   1      45.965  26.618  29.178  1.00  0.00     0.023 A 
ATOM     81  C   UNL A   1      45.056  27.495  28.563  1.00  0.00     0.031 A 
ATOM     82  C   UNL A   1      47.322  26.813  28.830  1.00  0.00     0.131 A 
ATOM     83  C   UNL A   1      45.505  28.495  27.667  1.00  0.00     0.055 A 
ATOM     84  C   UNL A   1      47.774  27.805  27.946  1.00  0.00     0.041 A 
ATOM     85  F   UNL A   1      48.274  26.031  29.340  1.00  0.00    -0.206 F 
ATOM     86  C   UNL A   1      46.858  28.657  27.358  1.00  0.00     0.022 A 
BRANCH  83  87
ATOM     87  S   UNL A   1      44.299  29.613  26.902  1.00  0.00     0.124 S 
ATOM     88  O   UNL A   1      45.150  30.618  26.276  1.00  0.00    -0.237 OA
ATOM     89  O   UNL A   1      43.577  28.727  25.997  1.00  0.00    -0.237 OA
ATOM     90  O   UNL A   1      43.511  30.097  28.038  1.00  0.00    -0.744 OA
ENDBRANCH  83  87
ENDBRANCH  57  80
ENDBRANCH  31  32
ENDBRANCH  23  26
ENDBRANCH  21  22
ENDBRANCH   1  21
TORSDOF 16
ENDMDL
MODEL 2
REMARK VINA RESULT:     -11.5      4.838     11.034
REMARK SMILES C[C@H]1C[C@@H]1NC(=O)Cn1cccc1C(=O)NCCCNC(=O)c1ccc(-c2c3nc(c(-c4cc(S(=O)(=O)[O-])ccc4F)c4ccc([nH]4)c(-c4cc(S(=O)(=O)[O-])ccc4F)c4nc(c(-c5cc(S(=O)(=O)[O-])ccc5F)c5ccc2[nH]5)C=C4)C=C3)cc1
REMARK SMILES IDX 18 1 17 2 16 3 14 4 15 5 13 7 9 8 10 9 11 10 12 11 8 12 6 13
REMARK SMILES IDX 5 14 7 16 4 17 1 18 2 19 3 20 19 21 20 22 21 23 22 25 23 26
REMARK SMILES IDX 24 27 85 28 25 29 84 30 26 31 27 32 28 33 78 34 29 35 83 36
REMARK SMILES IDX 77 37 79 38 30 39 82 40 76 41 75 42 31 44 63 45 43 46 62 47
REMARK SMILES IDX 44 48 47 49 61 50 80 51 45 52 46 53 60 55 81 56 48 57 32 58
REMARK SMILES IDX 33 59 41 60 34 61 40 62 42 63 39 64 35 65 36 66 37 67 38 68
REMARK SMILES IDX 64 69 65 70 73 71 66 72 72 73 74 74 71 75 67 76 68 77 69 78
REMARK SMILES IDX 70 79 49 80 50 81 58 82 51 83 57 84 59 85 56 86 52 87 53 88
REMARK SMILES IDX 54 89 55 90
REMARK H PARENT 16 6 5 15 20 24 79 43 47 54
REMARK Flexibility Score: inf
ROOT
ATOM      1  C   UNL A   1      43.418  26.419  25.291  1.00  0.00     0.042 C 
ENDROOT
BRANCH   1   2
ATOM      2  C   UNL A   1      44.917  26.224  25.100  1.00  0.00     0.118 C 
BRANCH   2   3
ATOM      3  N   UNL A   1      45.570  24.998  25.708  1.00  0.00    -0.351 N 
ATOM      4  C   UNL A   1      45.754  23.637  25.888  1.00  0.00     0.267 C 
ATOM      5  O   UNL A   1      46.886  23.586  26.431  1.00  0.00    -0.268 OA
ATOM      6  H   UNL A   1      46.238  25.389  26.316  1.00  0.00     0.163 HD
BRANCH   4   7
ATOM      7  C   UNL A   1      45.114  22.263  25.593  1.00  0.00     0.107 A 
ATOM      8  N   UNL A   1      43.878  21.490  25.529  1.00  0.00    -0.334 N 
ATOM      9  C   UNL A   1      44.183  20.214  25.012  1.00  0.00     0.087 A 
ATOM     10  C   UNL A   1      45.509  20.101  24.739  1.00  0.00     0.020 A 
ATOM     11  C   UNL A   1      46.065  21.328  25.092  1.00  0.00     0.033 A 
BRANCH   8  12
ATOM     12  C   UNL A   1      42.446  21.639  26.011  1.00  0.00     0.222 C 
BRANCH  12  13
ATOM     13  C   UNL A   1      41.900  21.325  27.471  1.00  0.00     0.240 C 
ATOM     14  N   UNL A   1      42.549  21.640  28.653  1.00  0.00    -0.352 N 
ATOM     15  H   UNL A   1      42.433  21.020  29.410  1.00  0.00     0.163 HD
ATOM     16  O   UNL A   1      40.883  20.627  27.616  1.00  0.00    -0.273 OA
BRANCH  14  17
ATOM     17  C   UNL A   1      43.366  22.778  28.865  1.00  0.00     0.085 C 
ATOM     18  C   UNL A   1      44.516  24.051  30.972  1.00  0.00     0.010 C 
ATOM     19  C   UNL A   1      43.498  23.215  30.308  1.00  0.00     0.010 C 
ATOM     20  C   UNL A   1      42.689  23.979  29.302  1.00  0.00     0.030 C 
ENDBRANCH  14  17
ENDBRANCH  12  13
ENDBRANCH   8  12
ENDBRANCH   4   7
ENDBRANCH   2   3
ENDBRANCH   1   2
BRANCH   1  21
ATOM     21  C   UNL A   1      42.687  25.460  26.234  1.00  0.00     0.118 C 
BRANCH  21  22
ATOM     22  N   UNL A   1      41.361  25.040  25.766  1.00  0.00    -0.352 N 
ATOM     23  C   UNL A   1      40.186  25.139  26.478  1.00  0.00     0.251 C 
ATOM     24  H   UNL A   1      41.306  24.652  24.863  1.00  0.00     0.163 HD
ATOM     25  O   UNL A   1      39.304  24.273  26.336  1.00  0.00    -0.269 OA
BRANCH  23  26
ATOM     26  C   UNL A   1      39.968  26.270  27.394  1.00  0.00     0.039 A 
ATOM     27  C   UNL A   1      39.399  26.060  28.655  1.00  0.00     0.014 A 
ATOM     28  C   UNL A   1      40.324  27.558  26.975  1.00  0.00     0.014 A 
ATOM     29  C   UNL A   1      39.262  27.139  29.521  1.00  0.00     0.010 A 
ATOM     30  C   UNL A   1      40.245  28.622  27.854  1.00  0.00     0.010 A 
ATOM     31  C   UNL A   1      39.714  28.411  29.125  1.00  0.00    -0.014 A 
BRANCH  31  32
ATOM     32  C   UNL A   1      39.838  29.472  30.149  1.00  0.00     0.031 A 
ATOM     33  C   UNL A   1      40.904  28.992  31.199  1.00  0.00     0.074 A 
ATOM     34  C   UNL A   1      39.002  30.555  29.991  1.00  0.00     0.049 A 
ATOM     35  N   UNL A   1      40.871  28.950  32.498  1.00  0.00    -0.248 NA
ATOM     36  C   UNL A   1      42.126  28.280  30.696  1.00  0.00     0.031 C 
ATOM     37  C   UNL A   1      38.126  30.820  28.813  1.00  0.00     0.029 A 
ATOM     38  N   UNL A   1      38.698  31.667  30.746  1.00  0.00    -0.354 N 
ATOM     39  C   UNL A   1      42.137  28.474  32.946  1.00  0.00     0.074 A 
ATOM     40  C   UNL A   1      42.780  27.910  31.801  1.00  0.00     0.031 C 
ATOM     41  C   UNL A   1      37.326  31.900  29.004  1.00  0.00     0.029 A 
ATOM     42  C   UNL A   1      37.568  32.452  30.317  1.00  0.00     0.049 A 
ATOM     43  H   UNL A   1      39.228  31.913  31.539  1.00  0.00     0.167 HD
ATOM     44  C   UNL A   1      42.653  28.781  34.177  1.00  0.00     0.034 A 
ATOM     45  C   UNL A   1      36.835  33.378  31.039  1.00  0.00     0.034 A 
ATOM     46  C   UNL A   1      41.733  29.631  34.844  1.00  0.00     0.049 A 
ATOM     47  C   UNL A   1      37.496  33.315  32.352  1.00  0.00     0.074 A 
ATOM     48  C   UNL A   1      40.641  29.491  35.653  1.00  0.00     0.029 A 
ATOM     49  N   UNL A   1      41.912  30.965  34.571  1.00  0.00    -0.354 N 
ATOM     50  N   UNL A   1      38.670  33.775  32.640  1.00  0.00    -0.248 NA
ATOM     51  C   UNL A   1      36.913  32.344  33.273  1.00  0.00     0.031 C 
ATOM     52  C   UNL A   1      40.050  30.777  35.675  1.00  0.00     0.029 A 
ATOM     53  C   UNL A   1      40.703  31.570  34.726  1.00  0.00     0.049 A 
ATOM     54  H   UNL A   1      42.755  31.400  34.311  1.00  0.00     0.167 HD
ATOM     55  C   UNL A   1      39.103  32.955  33.655  1.00  0.00     0.074 A 
ATOM     56  C   UNL A   1      37.965  32.131  34.043  1.00  0.00     0.031 C 
ATOM     57  C   UNL A   1      40.416  32.699  33.880  1.00  0.00     0.034 A 
BRANCH  44  58
ATOM     58  C   UNL A   1      44.047  28.772  34.805  1.00  0.00     0.023 A 
ATOM     59  C   UNL A   1      44.217  27.867  35.894  1.00  0.00     0.031 A 
ATOM     60  C   UNL A   1      45.004  29.788  34.710  1.00  0.00     0.131 A 
ATOM     61  C   UNL A   1      45.125  28.113  36.932  1.00  0.00     0.055 A 
ATOM     62  C   UNL A   1      45.986  29.974  35.705  1.00  0.00     0.041 A 
ATOM     63  F   UNL A   1      44.982  30.682  33.714  1.00  0.00    -0.206 F 
ATOM     64  C   UNL A   1      46.016  29.172  36.846  1.00  0.00     0.022 A 
BRANCH  61  65
ATOM     65  S   UNL A   1      44.946  27.153  38.469  1.00  0.00     0.124 S 
ATOM     66  O   UNL A   1      46.035  26.190  38.356  1.00  0.00    -0.237 OA
ATOM     67  O   UNL A   1      45.109  28.182  39.493  1.00  0.00    -0.237 OA
ATOM     68  O   UNL A   1      43.601  26.593  38.365  1.00  0.00    -0.744 OA
ENDBRANCH  61  65
ENDBRANCH  44  58
BRANCH  45  69
ATOM     69  C   UNL A   1      35.492  34.131  31.017  1.00  0.00     0.023 A 
ATOM     70  C   UNL A   1      35.043  35.134  31.895  1.00  0.00     0.031 A 
ATOM     71  C   UNL A   1      34.548  33.815  29.976  1.00  0.00     0.131 A 
ATOM     72  C   UNL A   1      33.796  35.804  31.652  1.00  0.00     0.055 A 
ATOM     73  C   UNL A   1      33.395  34.544  29.681  1.00  0.00     0.041 A 
ATOM     74  F   UNL A   1      34.691  32.747  29.179  1.00  0.00    -0.206 F 
ATOM     75  C   UNL A   1      33.019  35.565  30.515  1.00  0.00     0.022 A 
BRANCH  72  76
ATOM     76  S   UNL A   1      33.097  36.995  32.844  1.00  0.00     0.124 S 
ATOM     77  O   UNL A   1      33.918  36.755  34.025  1.00  0.00    -0.237 OA
ATOM     78  O   UNL A   1      33.290  38.274  32.171  1.00  0.00    -0.237 OA
ATOM     79  O   UNL A   1      31.700  36.575  32.971  1.00  0.00    -0.744 OA
ENDBRANCH  72  76
ENDBRANCH  45  69
BRANCH  57  80
ATOM     80  C   UNL A   1      41.386  33.361  32.883  1.00  0.00     0.023 A 
ATOM     81  C   UNL A   1      41.958  32.643  31.821  1.00  0.00     0.031 A 
ATOM     82  C   UNL A   1      41.861  34.684  33.043  1.00  0.00     0.131 A 
ATOM     83  C   UNL A   1      42.936  33.236  30.988  1.00  0.00     0.055 A 
ATOM     84  C   UNL A   1      42.827  35.279  32.218  1.00  0.00     0.041 A 
ATOM     85  F   UNL A   1      41.401  35.457  34.027  1.00  0.00    -0.206 F 
ATOM     86  C   UNL A   1      43.371  34.550  31.177  1.00  0.00     0.022 A 
BRANCH  83  87
ATOM     87  S   UNL A   1      43.643  32.275  29.620  1.00  0.00     0.124 S 
ATOM     88  O   UNL A   1      42.545  31.389  29.253  1.00  0.00    -0.237 OA
ATOM     89  O   UNL A   1      43.985  33.311  28.651  1.00  0.00    -0.237 OA
ATOM     90  O   UNL A   1      44.795  31.606  30.230  1.00  0.00    -0.744 OA
ENDBRANCH  83  87
ENDBRANCH  57  80
ENDBRANCH  31  32
ENDBRANCH  23  26
ENDBRANCH  21  22
ENDBRANCH   1  21
TORSDOF 16
ENDMDL
MODEL 3
REMARK VINA RESULT:     -11.4      3.097      8.402
REMARK SMILES C[C@H]1C[C@@H]1NC(=O)Cn1cccc1C(=O)NCCCNC(=O)c1ccc(-c2c3nc(c(-c4cc(S(=O)(=O)[O-])ccc4F)c4ccc([nH]4)c(-c4cc(S(=O)(=O)[O-])ccc4F)c4nc(c(-c5cc(S(=O)(=O)[O-])ccc5F)c5ccc2[nH]5)C=C4)C=C3)cc1
REMARK SMILES IDX 18 1 17 2 16 3 14 4 15 5 13 7 9 8 10 9 11 10 12 11 8 12 6 13
REMARK SMILES IDX 5 14 7 16 4 17 1 18 2 19 3 20 19 21 20 22 21 23 22 25 23 26
REMARK SMILES IDX 24 27 85 28 25 29 84 30 26 31 27 32 28 33 78 34 29 35 83 36
REMARK SMILES IDX 77 37 79 38 30 39 82 40 76 41 75 42 31 44 63 45 43 46 62 47
REMARK SMILES IDX 44 48 47 49 61 50 80 51 45 52 46 53 60 55 81 56 48 57 32 58
REMARK SMILES IDX 33 59 41 60 34 61 40 62 42 63 39 64 35 65 36 66 37 67 38 68
REMARK SMILES IDX 64 69 65 70 73 71 66 72 72 73 74 74 71 75 67 76 68 77 69 78
REMARK SMILES IDX 70 79 49 80 50 81 58 82 51 83 57 84 59 85 56 86 52 87 53 88
REMARK SMILES IDX 54 89 55 90
REMARK H PARENT 16 6 5 15 20 24 79 43 47 54
REMARK Flexibility Score: inf
ROOT
ATOM      1  C   UNL A   1      32.333  29.100  26.497  1.00  0.00     0.042 C 
ENDROOT
BRANCH   1   2
ATOM      2  C   UNL A   1      31.458  28.197  27.360  1.00  0.00     0.118 C 
BRANCH   2   3
ATOM      3  N   UNL A   1      31.019  26.861  26.794  1.00  0.00    -0.351 N 
ATOM      4  C   UNL A   1      31.010  25.840  25.859  1.00  0.00     0.267 C 
ATOM      5  O   UNL A   1      30.505  24.887  26.503  1.00  0.00    -0.268 OA
ATOM      6  H   UNL A   1      30.385  26.538  27.474  1.00  0.00     0.163 HD
BRANCH   4   7
ATOM      7  C   UNL A   1      31.452  25.488  24.422  1.00  0.00     0.107 A 
ATOM      8  N   UNL A   1      31.649  25.976  23.061  1.00  0.00    -0.334 N 
ATOM      9  C   UNL A   1      32.252  24.947  22.308  1.00  0.00     0.087 A 
ATOM     10  C   UNL A   1      32.460  23.840  23.069  1.00  0.00     0.020 A 
ATOM     11  C   UNL A   1      31.975  24.166  24.334  1.00  0.00     0.033 A 
BRANCH   8  12
ATOM     12  C   UNL A   1      31.236  27.185  22.241  1.00  0.00     0.222 C 
BRANCH  12  13
ATOM     13  C   UNL A   1      31.708  28.687  22.462  1.00  0.00     0.240 C 
ATOM     14  N   UNL A   1      30.982  29.813  22.111  1.00  0.00    -0.352 N 
ATOM     15  H   UNL A   1      31.491  30.604  21.816  1.00  0.00     0.163 HD
ATOM     16  O   UNL A   1      32.863  28.923  22.851  1.00  0.00    -0.273 OA
BRANCH  14  17
ATOM     17  C   UNL A   1      29.570  29.923  22.138  1.00  0.00     0.085 C 
ATOM     18  C   UNL A   1      27.713  31.568  23.245  1.00  0.00     0.010 C 
ATOM     19  C   UNL A   1      29.021  30.890  23.164  1.00  0.00     0.010 C 
ATOM     20  C   UNL A   1      28.911  29.402  23.315  1.00  0.00     0.030 C 
ENDBRANCH  14  17
ENDBRANCH  12  13
ENDBRANCH   8  12
ENDBRANCH   4   7
ENDBRANCH   2   3
ENDBRANCH   1   2
BRANCH   1  21
ATOM     21  C   UNL A   1      33.782  29.320  26.934  1.00  0.00     0.118 C 
BRANCH  21  22
ATOM     22  N   UNL A   1      34.130  30.718  27.207  1.00  0.00    -0.352 N 
ATOM     23  C   UNL A   1      35.100  31.153  28.084  1.00  0.00     0.251 C 
ATOM     24  H   UNL A   1      33.626  31.409  26.720  1.00  0.00     0.163 HD
ATOM     25  O   UNL A   1      34.934  32.215  28.710  1.00  0.00    -0.269 OA
BRANCH  23  26
ATOM     26  C   UNL A   1      36.332  30.370  28.274  1.00  0.00     0.039 A 
ATOM     27  C   UNL A   1      37.283  30.288  27.251  1.00  0.00     0.014 A 
ATOM     28  C   UNL A   1      36.526  29.697  29.487  1.00  0.00     0.014 A 
ATOM     29  C   UNL A   1      38.464  29.591  27.482  1.00  0.00     0.010 A 
ATOM     30  C   UNL A   1      37.723  29.056  29.742  1.00  0.00     0.010 A 
ATOM     31  C   UNL A   1      38.689  29.003  28.739  1.00  0.00    -0.014 A 
BRANCH  31  32
ATOM     32  C   UNL A   1      40.053  28.532  29.069  1.00  0.00     0.031 A 
ATOM     33  C   UNL A   1      40.895  29.786  29.500  1.00  0.00     0.074 A 
ATOM     34  C   UNL A   1      40.281  27.186  28.883  1.00  0.00     0.049 A 
ATOM     35  N   UNL A   1      42.069  30.202  29.127  1.00  0.00    -0.248 NA
ATOM     36  C   UNL A   1      40.230  30.830  30.351  1.00  0.00     0.031 C 
ATOM     37  C   UNL A   1      39.249  26.162  28.549  1.00  0.00     0.029 A 
ATOM     38  N   UNL A   1      41.390  26.372  28.937  1.00  0.00    -0.354 N 
ATOM     39  C   UNL A   1      42.372  31.372  29.883  1.00  0.00     0.074 A 
ATOM     40  C   UNL A   1      41.140  31.802  30.465  1.00  0.00     0.031 C 
ATOM     41  C   UNL A   1      39.798  24.944  28.306  1.00  0.00     0.029 A 
ATOM     42  C   UNL A   1      41.235  25.030  28.433  1.00  0.00     0.049 A 
ATOM     43  H   UNL A   1      42.247  26.690  29.303  1.00  0.00     0.167 HD
ATOM     44  C   UNL A   1      43.654  31.769  30.154  1.00  0.00     0.034 A 
ATOM     45  C   UNL A   1      42.214  24.133  28.043  1.00  0.00     0.034 A 
ATOM     46  C   UNL A   1      44.542  30.820  29.585  1.00  0.00     0.049 A 
ATOM     47  C   UNL A   1      43.436  24.927  28.251  1.00  0.00     0.074 A 
ATOM     48  C   UNL A   1      45.162  30.621  28.384  1.00  0.00     0.029 A 
ATOM     49  N   UNL A   1      44.825  29.760  30.410  1.00  0.00    -0.354 N 
ATOM     50  N   UNL A   1      43.953  25.250  29.392  1.00  0.00    -0.248 NA
ATOM     51  C   UNL A   1      43.865  25.688  27.082  1.00  0.00     0.031 C 
ATOM     52  C   UNL A   1      45.650  29.293  28.454  1.00  0.00     0.029 A 
ATOM     53  C   UNL A   1      45.130  28.702  29.610  1.00  0.00     0.049 A 
ATOM     54  H   UNL A   1      44.810  29.764  31.394  1.00  0.00     0.167 HD
ATOM     55  C   UNL A   1      44.591  26.441  29.136  1.00  0.00     0.074 A 
ATOM     56  C   UNL A   1      44.554  26.636  27.692  1.00  0.00     0.031 C 
ATOM     57  C   UNL A   1      44.778  27.390  30.087  1.00  0.00     0.034 A 
BRANCH  44  58
ATOM     58  C   UNL A   1      44.314  32.685  31.186  1.00  0.00     0.023 A 
ATOM     59  C   UNL A   1      43.632  32.784  32.434  1.00  0.00     0.031 A 
ATOM     60  C   UNL A   1      45.236  33.703  30.920  1.00  0.00     0.131 A 
ATOM     61  C   UNL A   1      43.694  33.936  33.228  1.00  0.00     0.055 A 
ATOM     62  C   UNL A   1      45.373  34.816  31.774  1.00  0.00     0.041 A 
ATOM     63  F   UNL A   1      45.970  33.710  29.800  1.00  0.00    -0.206 F 
ATOM     64  C   UNL A   1      44.565  34.965  32.901  1.00  0.00     0.022 A 
BRANCH  61  65
ATOM     65  S   UNL A   1      42.453  34.135  34.546  1.00  0.00     0.124 S 
ATOM     66  O   UNL A   1      41.667  35.262  34.058  1.00  0.00    -0.237 OA
ATOM     67  O   UNL A   1      41.784  32.838  34.535  1.00  0.00    -0.237 OA
ATOM     68  O   UNL A   1      43.261  34.403  35.734  1.00  0.00    -0.744 OA
ENDBRANCH  61  65
ENDBRANCH  44  58
BRANCH  45  69
ATOM     69  C   UNL A   1      42.406  22.834  27.241  1.00  0.00     0.023 A 
ATOM     70  C   UNL A   1      43.529  22.430  26.496  1.00  0.00     0.031 A 
ATOM     71  C   UNL A   1      41.335  21.871  27.233  1.00  0.00     0.131 A 
ATOM     72  C   UNL A   1      43.569  21.124  25.897  1.00  0.00     0.055 A 
ATOM     73  C   UNL A   1      41.425  20.565  26.746  1.00  0.00     0.041 A 
ATOM     74  F   UNL A   1      40.110  22.158  27.694  1.00  0.00    -0.206 F 
ATOM     75  C   UNL A   1      42.561  20.176  26.086  1.00  0.00     0.022 A 
BRANCH  72  76
ATOM     76  S   UNL A   1      44.930  20.615  24.793  1.00  0.00     0.124 S 
ATOM     77  O   UNL A   1      44.561  21.267  23.542  1.00  0.00    -0.237 OA
ATOM     78  O   UNL A   1      46.108  21.139  25.473  1.00  0.00    -0.237 OA
ATOM     79  O   UNL A   1      44.830  19.154  24.777  1.00  0.00    -0.744 OA
ENDBRANCH  72  76
ENDBRANCH  45  69
BRANCH  57  80
ATOM     80  C   UNL A   1      44.183  27.052  31.467  1.00  0.00     0.023 A 
ATOM     81  C   UNL A   1      43.063  27.730  31.975  1.00  0.00     0.031 A 
ATOM     82  C   UNL A   1      44.792  26.138  32.360  1.00  0.00     0.131 A 
ATOM     83  C   UNL A   1      42.603  27.486  33.292  1.00  0.00     0.055 A 
ATOM     84  C   UNL A   1      44.338  25.890  33.664  1.00  0.00     0.041 A 
ATOM     85  F   UNL A   1      45.871  25.447  31.993  1.00  0.00    -0.206 F 
ATOM     86  C   UNL A   1      43.231  26.569  34.137  1.00  0.00     0.022 A 
BRANCH  83  87
ATOM     87  S   UNL A   1      41.146  28.377  33.906  1.00  0.00     0.124 S 
ATOM     88  O   UNL A   1      41.244  28.190  35.349  1.00  0.00    -0.237 OA
ATOM     89  O   UNL A   1      41.376  29.732  33.416  1.00  0.00    -0.237 OA
ATOM     90  O   UNL A   1      40.025  27.681  33.271  1.00  0.00    -0.744 OA
ENDBRANCH  83  87
ENDBRANCH  57  80
ENDBRANCH  31  32
ENDBRANCH  23  26
ENDBRANCH  21  22
ENDBRANCH   1  21
TORSDOF 16
ENDMDL
