MODEL 1
REMARK VINA RESULT:     -12.3      0.000      0.000
REMARK SMILES CCCCc1cc(S(F)(F)(F)(F)F)cc2c1O[C@@H](C(F)(F)F)C(C(=O)NCCCNC(=O)c1ccc(-c3c4nc(c(-c5cc(S(=O)(=O)[O-])ccc5F)c5ccc([nH]5)c(-c5cc(S(=O)(=O)[O-])ccc5F)c5nc(c(-c6cc(S(=O)(=O)[O-])ccc6F)c6ccc3[nH]6)C=C5)C=C4)cc1)=C2
REMARK SMILES IDX 28 1 27 2 26 3 24 4 25 5 23 7 5 8 6 9 16 10 7 11 15 12 17 13
REMARK SMILES IDX 14 14 96 15 18 16 4 17 3 18 2 19 1 20 8 21 9 22 10 23 11 24
REMARK SMILES IDX 12 25 13 26 19 27 20 28 21 29 22 30 29 31 30 32 31 33 32 35
REMARK SMILES IDX 33 36 34 37 95 38 35 39 94 40 36 41 37 42 38 43 88 44 39 45
REMARK SMILES IDX 93 46 87 47 89 48 40 49 92 50 86 51 85 52 41 54 73 55 53 56
REMARK SMILES IDX 72 57 54 58 57 59 71 60 90 61 55 62 56 63 70 65 91 66 58 67
REMARK SMILES IDX 42 68 43 69 51 70 44 71 50 72 52 73 49 74 45 75 46 76 47 77
REMARK SMILES IDX 48 78 74 79 75 80 83 81 76 82 82 83 84 84 81 85 77 86 78 87
REMARK SMILES IDX 79 88 80 89 59 90 60 91 68 92 61 93 67 94 69 95 66 96 62 97
REMARK SMILES IDX 63 98 64 99 65 100
REMARK H PARENT 26 6 30 34 89 53 57 64
REMARK Flexibility Score: inf
ROOT
ATOM      1  C   UNL A   1      36.891  22.395  23.634  1.00  0.00     0.042 C 
ENDROOT
BRANCH   1   2
ATOM      2  C   UNL A   1      35.495  22.990  23.544  1.00  0.00     0.118 C 
BRANCH   2   3
ATOM      3  N   UNL A   1      34.497  21.916  23.645  1.00  0.00    -0.352 N 
ATOM      4  C   UNL A   1      33.138  22.217  24.116  1.00  0.00     0.251 C 
ATOM      5  O   UNL A   1      32.275  21.287  24.204  1.00  0.00    -0.270 OA
ATOM      6  H   UNL A   1      34.739  20.994  23.396  1.00  0.00     0.163 HD
BRANCH   4   7
ATOM      7  C   UNL A   1      32.764  23.639  24.500  1.00  0.00     0.067 C 
ATOM      8  C   UNL A   1      31.364  27.341  25.837  1.00  0.00    -0.004 A 
ATOM      9  C   UNL A   1      30.777  28.220  24.945  1.00  0.00     0.032 A 
ATOM     10  C   UNL A   1      31.768  26.109  25.382  1.00  0.00     0.131 A 
ATOM     11  C   UNL A   1      30.593  27.873  23.632  1.00  0.00     0.108 A 
ATOM     12  C   UNL A   1      31.615  25.732  24.059  1.00  0.00     0.019 A 
ATOM     13  O   UNL A   1      32.245  25.206  26.300  1.00  0.00    -0.475 OA
ATOM     14  C   UNL A   1      31.017  26.637  23.190  1.00  0.00     0.036 A 
ATOM     15  C   UNL A   1      32.038  24.393  23.684  1.00  0.00     0.025 C 
ATOM     16  C   UNL A   1      33.216  24.230  25.829  1.00  0.00     0.314 C 
BRANCH   8  17
ATOM     17  C   UNL A   1      31.560  27.731  27.293  1.00  0.00     0.039 C 
BRANCH  17  18
ATOM     18  C   UNL A   1      32.499  28.924  27.376  1.00  0.00     0.005 C 
BRANCH  18  19
ATOM     19  C   UNL A   1      33.844  28.553  26.773  1.00  0.00    -0.003 C 
ATOM     20  C   UNL A   1      34.957  29.193  27.586  1.00  0.00     0.004 C 
ENDBRANCH  18  19
ENDBRANCH  17  18
ENDBRANCH   8  17
BRANCH  11  21
ATOM     21  S   UNL A   1      29.800  29.028  22.486  1.00  0.00     0.310 S 
ATOM     22  F   UNL A   1      29.770  30.183  23.574  1.00  0.00    -0.094 F 
ATOM     23  F   UNL A   1      28.397  28.568  23.036  1.00  0.00    -0.094 F 
ATOM     24  F   UNL A   1      29.120  30.021  21.502  1.00  0.00    -0.094 F 
ATOM     25  F   UNL A   1      31.215  29.577  22.049  1.00  0.00    -0.094 F 
ATOM     26  F   UNL A   1      30.505  28.107  23.560  1.00  0.00    -0.094 F 
ENDBRANCH  11  21
BRANCH  16  27
ATOM     27  C   UNL A   1      33.335  23.115  26.854  1.00  0.00     0.429 C 
ATOM     28  F   UNL A   1      33.509  23.640  28.063  1.00  0.00    -0.167 F 
ATOM     29  F   UNL A   1      32.225  22.382  26.843  1.00  0.00    -0.167 F 
ATOM     30  F   UNL A   1      34.377  22.345  26.552  1.00  0.00    -0.167 F 
ENDBRANCH  16  27
ENDBRANCH   4   7
ENDBRANCH   2   3
ENDBRANCH   1   2
BRANCH   1  31
ATOM     31  C   UNL A   1      37.407  22.530  25.058  1.00  0.00     0.118 C 
BRANCH  31  32
ATOM     32  N   UNL A   1      38.135  21.309  25.433  1.00  0.00    -0.352 N 
ATOM     33  C   UNL A   1      39.371  21.404  26.224  1.00  0.00     0.251 C 
ATOM     34  H   UNL A   1      37.795  20.428  25.155  1.00  0.00     0.163 HD
ATOM     35  O   UNL A   1      40.000  20.349  26.548  1.00  0.00    -0.269 OA
BRANCH  33  36
ATOM     36  C   UNL A   1      39.895  22.764  26.653  1.00  0.00     0.039 A 
ATOM     37  C   UNL A   1      40.858  22.837  27.648  1.00  0.00     0.014 A 
ATOM     38  C   UNL A   1      39.426  23.859  26.067  1.00  0.00     0.014 A 
ATOM     39  C   UNL A   1      41.054  24.142  28.159  1.00  0.00     0.010 A 
ATOM     40  C   UNL A   1      39.770  25.105  26.534  1.00  0.00     0.010 A 
ATOM     41  C   UNL A   1      40.669  25.250  27.553  1.00  0.00    -0.014 A 
BRANCH  41  42
ATOM     42  C   UNL A   1      41.196  26.614  27.967  1.00  0.00     0.031 A 
ATOM     43  C   UNL A   1      40.309  27.504  28.575  1.00  0.00     0.074 A 
ATOM     44  C   UNL A   1      42.527  26.900  27.715  1.00  0.00     0.049 A 
ATOM     45  N   UNL A   1      40.573  28.727  29.037  1.00  0.00    -0.248 NA
ATOM     46  C   UNL A   1      38.887  27.215  28.814  1.00  0.00     0.031 C 
ATOM     47  C   UNL A   1      43.431  26.004  27.110  1.00  0.00     0.029 A 
ATOM     48  N   UNL A   1      43.209  28.065  27.989  1.00  0.00    -0.354 N 
ATOM     49  C   UNL A   1      39.473  29.265  29.568  1.00  0.00     0.074 A 
ATOM     50  C   UNL A   1      38.372  28.303  29.427  1.00  0.00     0.031 C 
ATOM     51  C   UNL A   1      44.637  26.625  27.010  1.00  0.00     0.029 A 
ATOM     52  C   UNL A   1      44.506  27.917  27.553  1.00  0.00     0.049 A 
ATOM     53  H   UNL A   1      42.833  28.865  28.423  1.00  0.00     0.167 HD
ATOM     54  C   UNL A   1      39.346  30.520  30.168  1.00  0.00     0.034 A 
ATOM     55  C   UNL A   1      45.533  28.847  27.612  1.00  0.00     0.034 A 
ATOM     56  C   UNL A   1      40.384  31.432  30.267  1.00  0.00     0.049 A 
ATOM     57  C   UNL A   1      45.391  30.124  28.159  1.00  0.00     0.074 A 
ATOM     58  C   UNL A   1      40.275  32.698  30.874  1.00  0.00     0.029 A 
ATOM     59  N   UNL A   1      41.675  31.295  29.808  1.00  0.00    -0.354 N 
ATOM     60  N   UNL A   1      44.303  30.647  28.726  1.00  0.00    -0.248 NA
ATOM     61  C   UNL A   1      46.462  31.128  28.199  1.00  0.00     0.031 C 
ATOM     62  C   UNL A   1      41.481  33.319  30.775  1.00  0.00     0.029 A 
ATOM     63  C   UNL A   1      42.363  32.452  30.102  1.00  0.00     0.049 A 
ATOM     64  H   UNL A   1      42.043  30.506  29.348  1.00  0.00     0.167 HD
ATOM     65  C   UNL A   1      44.555  31.887  29.151  1.00  0.00     0.074 A 
ATOM     66  C   UNL A   1      45.946  32.217  28.811  1.00  0.00     0.031 C 
ATOM     67  C   UNL A   1      43.683  32.754  29.811  1.00  0.00     0.034 A 
BRANCH  54  68
ATOM     68  C   UNL A   1      37.993  30.907  30.744  1.00  0.00     0.023 A 
ATOM     69  C   UNL A   1      37.045  31.463  29.901  1.00  0.00     0.031 A 
ATOM     70  C   UNL A   1      37.737  30.700  32.030  1.00  0.00     0.131 A 
ATOM     71  C   UNL A   1      35.944  32.038  30.579  1.00  0.00     0.055 A 
ATOM     72  C   UNL A   1      36.577  31.173  32.596  1.00  0.00     0.041 A 
ATOM     73  F   UNL A   1      38.609  30.030  32.776  1.00  0.00    -0.206 F 
ATOM     74  C   UNL A   1      35.621  31.785  31.834  1.00  0.00     0.022 A 
BRANCH  71  75
ATOM     75  S   UNL A   1      34.906  33.203  29.661  1.00  0.00     0.124 S 
ATOM     76  O   UNL A   1      33.919  33.873  30.620  1.00  0.00    -0.237 OA
ATOM     77  O   UNL A   1      35.790  34.270  29.010  1.00  0.00    -0.237 OA
ATOM     78  O   UNL A   1      34.041  32.363  28.449  1.00  0.00    -0.744 OA
ENDBRANCH  71  75
ENDBRANCH  54  68
BRANCH  55  79
ATOM     79  C   UNL A   1      46.890  28.454  27.051  1.00  0.00     0.023 A 
ATOM     80  C   UNL A   1      47.085  28.525  25.682  1.00  0.00     0.031 A 
ATOM     81  C   UNL A   1      47.860  28.057  27.866  1.00  0.00     0.131 A 
ATOM     82  C   UNL A   1      48.260  27.874  25.236  1.00  0.00     0.055 A 
ATOM     83  C   UNL A   1      49.037  27.557  27.361  1.00  0.00     0.041 A 
ATOM     84  F   UNL A   1      47.693  28.144  29.183  1.00  0.00    -0.206 F 
ATOM     85  C   UNL A   1      49.273  27.541  26.014  1.00  0.00     0.022 A 
BRANCH  82  86
ATOM     86  S   UNL A   1      48.380  27.469  23.476  1.00  0.00     0.124 S 
ATOM     87  O   UNL A   1      48.329  25.950  23.297  1.00  0.00    -0.237 OA
ATOM     88  O   UNL A   1      47.214  28.112  22.723  1.00  0.00    -0.237 OA
ATOM     89  O   UNL A   1      49.858  28.065  22.854  1.00  0.00    -0.744 OA
ENDBRANCH  82  86
ENDBRANCH  55  79
BRANCH  67  90
ATOM     90  C   UNL A   1      44.214  34.113  30.234  1.00  0.00     0.023 A 
ATOM     91  C   UNL A   1      44.832  34.248  31.467  1.00  0.00     0.031 A 
ATOM     92  C   UNL A   1      44.082  35.149  29.414  1.00  0.00     0.131 A 
ATOM     93  C   UNL A   1      45.023  35.591  31.869  1.00  0.00     0.055 A 
ATOM     94  C   UNL A   1      44.416  36.417  29.828  1.00  0.00     0.041 A 
ATOM     95  F   UNL A   1      43.623  34.959  28.180  1.00  0.00    -0.206 F 
ATOM     96  C   UNL A   1      44.976  36.631  31.056  1.00  0.00     0.022 A 
BRANCH  93  97
ATOM     97  S   UNL A   1      45.353  35.906  33.621  1.00  0.00     0.124 S 
ATOM     98  O   UNL A   1      46.520  35.032  34.086  1.00  0.00    -0.237 OA
ATOM     99  O   UNL A   1      45.713  37.382  33.815  1.00  0.00    -0.237 OA
ATOM    100  O   UNL A   1      43.960  35.534  34.540  1.00  0.00    -0.744 OA
ENDBRANCH  93  97
ENDBRANCH  67  90
ENDBRANCH  41  42
ENDBRANCH  33  36
ENDBRANCH  31  32
ENDBRANCH   1  31
TORSDOF 18
ENDMDL
MODEL 2
REMARK VINA RESULT:     -12.2      2.799      3.449
REMARK SMILES CCCCc1cc(S(F)(F)(F)(F)F)cc2c1O[C@@H](C(F)(F)F)C(C(=O)NCCCNC(=O)c1ccc(-c3c4nc(c(-c5cc(S(=O)(=O)[O-])ccc5F)c5ccc([nH]5)c(-c5cc(S(=O)(=O)[O-])ccc5F)c5nc(c(-c6cc(S(=O)(=O)[O-])ccc6F)c6ccc3[nH]6)C=C5)C=C4)cc1)=C2
REMARK SMILES IDX 28 1 27 2 26 3 24 4 25 5 23 7 5 8 6 9 16 10 7 11 15 12 17 13
REMARK SMILES IDX 14 14 96 15 18 16 4 17 3 18 2 19 1 20 8 21 9 22 10 23 11 24
REMARK SMILES IDX 12 25 13 26 19 27 20 28 21 29 22 30 29 31 30 32 31 33 32 35
REMARK SMILES IDX 33 36 34 37 95 38 35 39 94 40 36 41 37 42 38 43 88 44 39 45
REMARK SMILES IDX 93 46 87 47 89 48 40 49 92 50 86 51 85 52 41 54 73 55 53 56
REMARK SMILES IDX 72 57 54 58 57 59 71 60 90 61 55 62 56 63 70 65 91 66 58 67
REMARK SMILES IDX 42 68 43 69 51 70 44 71 50 72 52 73 49 74 45 75 46 76 47 77
REMARK SMILES IDX 48 78 74 79 75 80 83 81 76 82 82 83 84 84 81 85 77 86 78 87
REMARK SMILES IDX 79 88 80 89 59 90 60 91 68 92 61 93 67 94 69 95 66 96 62 97
REMARK SMILES IDX 63 98 64 99 65 100
REMARK H PARENT 26 6 30 34 89 53 57 64
REMARK Flexibility Score: inf
ROOT
ATOM      1  C   UNL A   1      37.057  23.688  24.681  1.00  0.00     0.042 C 
ENDROOT
BRANCH   1   2
ATOM      2  C   UNL A   1      35.955  22.920  23.970  1.00  0.00     0.118 C 
BRANCH   2   3
ATOM      3  N   UNL A   1      35.444  21.864  24.856  1.00  0.00    -0.352 N 
ATOM      4  C   UNL A   1      34.157  22.040  25.544  1.00  0.00     0.251 C 
ATOM      5  O   UNL A   1      33.716  21.127  26.310  1.00  0.00    -0.270 OA
ATOM      6  H   UNL A   1      35.963  21.037  24.987  1.00  0.00     0.163 HD
BRANCH   4   7
ATOM      7  C   UNL A   1      33.355  23.316  25.341  1.00  0.00     0.067 C 
ATOM      8  C   UNL A   1      31.392  26.862  24.333  1.00  0.00    -0.004 A 
ATOM      9  C   UNL A   1      31.640  28.017  25.053  1.00  0.00     0.032 A 
ATOM     10  C   UNL A   1      32.091  25.722  24.651  1.00  0.00     0.131 A 
ATOM     11  C   UNL A   1      32.566  28.032  26.062  1.00  0.00     0.108 A 
ATOM     12  C   UNL A   1      33.020  25.696  25.676  1.00  0.00     0.019 A 
ATOM     13  O   UNL A   1      31.917  24.616  23.856  1.00  0.00    -0.475 OA
ATOM     14  C   UNL A   1      33.248  26.875  26.377  1.00  0.00     0.036 A 
ATOM     15  C   UNL A   1      33.735  24.454  25.909  1.00  0.00     0.025 C 
ATOM     16  C   UNL A   1      32.098  23.315  24.481  1.00  0.00     0.314 C 
BRANCH   8  17
ATOM     17  C   UNL A   1      30.366  26.854  23.211  1.00  0.00     0.039 C 
BRANCH  17  18
ATOM     18  C   UNL A   1      29.245  27.825  23.543  1.00  0.00     0.005 C 
BRANCH  18  19
ATOM     19  C   UNL A   1      29.249  28.967  22.540  1.00  0.00    -0.003 C 
ATOM     20  C   UNL A   1      29.361  30.290  23.278  1.00  0.00     0.004 C 
ENDBRANCH  18  19
ENDBRANCH  17  18
ENDBRANCH   8  17
BRANCH  11  21
ATOM     21  S   UNL A   1      32.893  29.560  26.976  1.00  0.00     0.310 S 
ATOM     22  F   UNL A   1      32.431  30.462  25.756  1.00  0.00    -0.094 F 
ATOM     23  F   UNL A   1      34.343  29.587  26.359  1.00  0.00    -0.094 F 
ATOM     24  F   UNL A   1      33.172  30.872  27.762  1.00  0.00    -0.094 F 
ATOM     25  F   UNL A   1      31.394  29.592  27.472  1.00  0.00    -0.094 F 
ATOM     26  F   UNL A   1      32.559  28.290  26.096  1.00  0.00    -0.094 F 
ENDBRANCH  11  21
BRANCH  16  27
ATOM     27  C   UNL A   1      32.239  22.260  23.397  1.00  0.00     0.429 C 
ATOM     28  F   UNL A   1      32.337  21.058  23.958  1.00  0.00    -0.167 F 
ATOM     29  F   UNL A   1      31.172  22.293  22.603  1.00  0.00    -0.167 F 
ATOM     30  F   UNL A   1      33.332  22.504  22.680  1.00  0.00    -0.167 F 
ENDBRANCH  16  27
ENDBRANCH   4   7
ENDBRANCH   2   3
ENDBRANCH   1   2
BRANCH   1  31
ATOM     31  C   UNL A   1      37.258  23.111  26.074  1.00  0.00     0.118 C 
BRANCH  31  32
ATOM     32  N   UNL A   1      38.282  22.057  26.024  1.00  0.00    -0.352 N 
ATOM     33  C   UNL A   1      39.663  22.354  26.430  1.00  0.00     0.251 C 
ATOM     34  H   UNL A   1      38.042  21.152  25.719  1.00  0.00     0.163 HD
ATOM     35  O   UNL A   1      40.548  21.442  26.388  1.00  0.00    -0.269 OA
BRANCH  33  36
ATOM     36  C   UNL A   1      40.033  23.751  26.901  1.00  0.00     0.039 A 
ATOM     37  C   UNL A   1      40.078  24.020  28.260  1.00  0.00     0.014 A 
ATOM     38  C   UNL A   1      40.311  24.688  26.004  1.00  0.00     0.014 A 
ATOM     39  C   UNL A   1      40.146  25.399  28.568  1.00  0.00     0.010 A 
ATOM     40  C   UNL A   1      40.503  25.993  26.392  1.00  0.00     0.010 A 
ATOM     41  C   UNL A   1      40.500  26.341  27.714  1.00  0.00    -0.014 A 
BRANCH  41  42
ATOM     42  C   UNL A   1      40.883  27.738  28.174  1.00  0.00     0.031 A 
ATOM     43  C   UNL A   1      39.861  28.604  28.565  1.00  0.00     0.074 A 
ATOM     44  C   UNL A   1      42.226  28.075  28.177  1.00  0.00     0.049 A 
ATOM     45  N   UNL A   1      39.981  29.850  29.026  1.00  0.00    -0.248 NA
ATOM     46  C   UNL A   1      38.431  28.259  28.531  1.00  0.00     0.031 C 
ATOM     47  C   UNL A   1      43.265  27.204  27.793  1.00  0.00     0.029 A 
ATOM     48  N   UNL A   1      42.796  29.276  28.538  1.00  0.00    -0.354 N 
ATOM     49  C   UNL A   1      38.779  30.353  29.313  1.00  0.00     0.074 A 
ATOM     50  C   UNL A   1      37.765  29.339  28.993  1.00  0.00     0.031 C 
ATOM     51  C   UNL A   1      44.442  27.875  27.909  1.00  0.00     0.029 A 
ATOM     52  C   UNL A   1      44.158  29.175  28.370  1.00  0.00     0.049 A 
ATOM     53  H   UNL A   1      42.311  30.071  28.862  1.00  0.00     0.167 HD
ATOM     54  C   UNL A   1      38.489  31.617  29.831  1.00  0.00     0.034 A 
ATOM     55  C   UNL A   1      45.117  30.150  28.596  1.00  0.00     0.034 A 
ATOM     56  C   UNL A   1      39.452  32.576  30.099  1.00  0.00     0.049 A 
ATOM     57  C   UNL A   1      44.822  31.434  29.059  1.00  0.00     0.074 A 
ATOM     58  C   UNL A   1      39.177  33.852  30.628  1.00  0.00     0.029 A 
ATOM     59  N   UNL A   1      40.812  32.484  29.907  1.00  0.00    -0.354 N 
ATOM     60  N   UNL A   1      43.624  31.923  29.384  1.00  0.00    -0.248 NA
ATOM     61  C   UNL A   1      45.825  32.485  29.272  1.00  0.00     0.031 C 
ATOM     62  C   UNL A   1      40.355  34.523  30.745  1.00  0.00     0.029 A 
ATOM     63  C   UNL A   1      41.384  33.677  30.289  1.00  0.00     0.049 A 
ATOM     64  H   UNL A   1      41.293  31.699  29.556  1.00  0.00     0.167 HD
ATOM     65  C   UNL A   1      43.741  33.184  29.805  1.00  0.00     0.074 A 
ATOM     66  C   UNL A   1      45.157  33.566  29.733  1.00  0.00     0.031 C 
ATOM     67  C   UNL A   1      42.723  34.030  30.251  1.00  0.00     0.034 A 
BRANCH  54  68
ATOM     68  C   UNL A   1      37.036  31.959  30.117  1.00  0.00     0.023 A 
ATOM     69  C   UNL A   1      36.282  32.553  29.118  1.00  0.00     0.031 A 
ATOM     70  C   UNL A   1      36.509  31.678  31.304  1.00  0.00     0.131 A 
ATOM     71  C   UNL A   1      35.048  33.080  29.569  1.00  0.00     0.055 A 
ATOM     72  C   UNL A   1      35.244  32.108  31.627  1.00  0.00     0.041 A 
ATOM     73  F   UNL A   1      37.212  30.974  32.186  1.00  0.00    -0.206 F 
ATOM     74  C   UNL A   1      34.465  32.754  30.708  1.00  0.00     0.022 A 
BRANCH  71  75
ATOM     75  S   UNL A   1      34.211  34.285  28.510  1.00  0.00     0.124 S 
ATOM     76  O   UNL A   1      32.816  33.768  28.151  1.00  0.00    -0.237 OA
ATOM     77  O   UNL A   1      34.086  35.618  29.253  1.00  0.00    -0.237 OA
ATOM     78  O   UNL A   1      35.119  34.514  27.079  1.00  0.00    -0.744 OA
ENDBRANCH  71  75
ENDBRANCH  54  68
BRANCH  55  79
ATOM     79  C   UNL A   1      46.572  29.802  28.326  1.00  0.00     0.023 A 
ATOM     80  C   UNL A   1      47.304  29.194  29.332  1.00  0.00     0.031 A 
ATOM     81  C   UNL A   1      47.117  30.077  27.147  1.00  0.00     0.131 A 
ATOM     82  C   UNL A   1      48.699  29.176  29.094  1.00  0.00     0.055 A 
ATOM     83  C   UNL A   1      48.465  29.907  26.943  1.00  0.00     0.041 A 
ATOM     84  F   UNL A   1      46.351  30.521  26.153  1.00  0.00    -0.206 F 
ATOM     85  C   UNL A   1      49.261  29.366  27.915  1.00  0.00     0.022 A 
BRANCH  82  86
ATOM     86  S   UNL A   1      49.789  28.870  30.507  1.00  0.00     0.124 S 
ATOM     87  O   UNL A   1      49.090  29.310  31.795  1.00  0.00    -0.237 OA
ATOM     88  O   UNL A   1      50.114  27.377  30.587  1.00  0.00    -0.237 OA
ATOM     89  O   UNL A   1      51.237  29.759  30.312  1.00  0.00    -0.744 OA
ENDBRANCH  82  86
ENDBRANCH  55  79
BRANCH  67  90
ATOM     90  C   UNL A   1      43.109  35.422  30.722  1.00  0.00     0.023 A 
ATOM     91  C   UNL A   1      43.205  36.450  29.799  1.00  0.00     0.031 A 
ATOM     92  C   UNL A   1      43.343  35.632  32.012  1.00  0.00     0.131 A 
ATOM     93  C   UNL A   1      43.840  37.611  30.297  1.00  0.00     0.055 A 
ATOM     94  C   UNL A   1      43.837  36.839  32.446  1.00  0.00     0.041 A 
ATOM     95  F   UNL A   1      43.097  34.665  32.893  1.00  0.00    -0.206 F 
ATOM     96  C   UNL A   1      44.012  37.880  31.579  1.00  0.00     0.022 A 
BRANCH  93  97
ATOM     97  S   UNL A   1      44.462  38.813  29.094  1.00  0.00     0.124 S 
ATOM     98  O   UNL A   1      43.302  39.327  28.239  1.00  0.00    -0.237 OA
ATOM     99  O   UNL A   1      45.110  39.986  29.834  1.00  0.00    -0.237 OA
ATOM    100  O   UNL A   1      45.624  38.063  28.087  1.00  0.00    -0.744 OA
ENDBRANCH  93  97
ENDBRANCH  67  90
ENDBRANCH  41  42
ENDBRANCH  33  36
ENDBRANCH  31  32
ENDBRANCH   1  31
TORSDOF 18
ENDMDL
MODEL 3
REMARK VINA RESULT:     -12.1      1.847      2.156
REMARK SMILES CCCCc1cc(S(F)(F)(F)(F)F)cc2c1O[C@@H](C(F)(F)F)C(C(=O)NCCCNC(=O)c1ccc(-c3c4nc(c(-c5cc(S(=O)(=O)[O-])ccc5F)c5ccc([nH]5)c(-c5cc(S(=O)(=O)[O-])ccc5F)c5nc(c(-c6cc(S(=O)(=O)[O-])ccc6F)c6ccc3[nH]6)C=C5)C=C4)cc1)=C2
REMARK SMILES IDX 28 1 27 2 26 3 24 4 25 5 23 7 5 8 6 9 16 10 7 11 15 12 17 13
REMARK SMILES IDX 14 14 96 15 18 16 4 17 3 18 2 19 1 20 8 21 9 22 10 23 11 24
REMARK SMILES IDX 12 25 13 26 19 27 20 28 21 29 22 30 29 31 30 32 31 33 32 35
REMARK SMILES IDX 33 36 34 37 95 38 35 39 94 40 36 41 37 42 38 43 88 44 39 45
REMARK SMILES IDX 93 46 87 47 89 48 40 49 92 50 86 51 85 52 41 54 73 55 53 56
REMARK SMILES IDX 72 57 54 58 57 59 71 60 90 61 55 62 56 63 70 65 91 66 58 67
REMARK SMILES IDX 42 68 43 69 51 70 44 71 50 72 52 73 49 74 45 75 46 76 47 77
REMARK SMILES IDX 48 78 74 79 75 80 83 81 76 82 82 83 84 84 81 85 77 86 78 87
REMARK SMILES IDX 79 88 80 89 59 90 60 91 68 92 61 93 67 94 69 95 66 96 62 97
REMARK SMILES IDX 63 98 64 99 65 100
REMARK H PARENT 26 6 30 34 89 53 57 64
REMARK Flexibility Score: inf
ROOT
ATOM      1  C   UNL A   1      35.917  21.848  25.226  1.00  0.00     0.042 C 
ENDROOT
BRANCH   1   2
ATOM      2  C   UNL A   1      34.866  22.029  24.144  1.00  0.00     0.118 C 
BRANCH   2   3
ATOM      3  N   UNL A   1      33.760  21.089  24.372  1.00  0.00    -0.352 N 
ATOM      4  C   UNL A   1      32.460  21.582  24.848  1.00  0.00     0.251 C 
ATOM      5  O   UNL A   1      31.504  20.768  25.046  1.00  0.00    -0.270 OA
ATOM      6  H   UNL A   1      33.890  20.126  24.206  1.00  0.00     0.163 HD
BRANCH   4   7
ATOM      7  C   UNL A   1      32.259  23.067  25.104  1.00  0.00     0.067 C 
ATOM      8  C   UNL A   1      31.300  27.012  26.087  1.00  0.00    -0.004 A 
ATOM      9  C   UNL A   1      30.869  27.883  25.103  1.00  0.00     0.032 A 
ATOM     10  C   UNL A   1      31.557  25.706  25.747  1.00  0.00     0.131 A 
ATOM     11  C   UNL A   1      30.696  27.458  23.812  1.00  0.00     0.108 A 
ATOM     12  C   UNL A   1      31.412  25.246  24.450  1.00  0.00     0.019 A 
ATOM     13  O   UNL A   1      31.874  24.827  26.753  1.00  0.00    -0.475 OA
ATOM     14  C   UNL A   1      30.974  26.147  23.486  1.00  0.00     0.036 A 
ATOM     15  C   UNL A   1      31.672  23.839  24.198  1.00  0.00     0.025 C 
ATOM     16  C   UNL A   1      32.729  23.702  26.407  1.00  0.00     0.314 C 
BRANCH   8  17
ATOM     17  C   UNL A   1      31.484  27.490  27.518  1.00  0.00     0.039 C 
BRANCH  17  18
ATOM     18  C   UNL A   1      32.251  28.803  27.519  1.00  0.00     0.005 C 
BRANCH  18  19
ATOM     19  C   UNL A   1      33.731  28.525  27.314  1.00  0.00    -0.003 C 
ATOM     20  C   UNL A   1      34.216  29.255  26.073  1.00  0.00     0.004 C 
ENDBRANCH  18  19
ENDBRANCH  17  18
ENDBRANCH   8  17
BRANCH  11  21
ATOM     21  S   UNL A   1      30.109  28.608  22.544  1.00  0.00     0.310 S 
ATOM     22  F   UNL A   1      30.012  29.802  23.584  1.00  0.00    -0.094 F 
ATOM     23  F   UNL A   1      28.628  28.239  22.933  1.00  0.00    -0.094 F 
ATOM     24  F   UNL A   1      29.607  29.596  21.454  1.00  0.00    -0.094 F 
ATOM     25  F   UNL A   1      31.594  29.069  22.265  1.00  0.00    -0.094 F 
ATOM     26  F   UNL A   1      30.630  27.693  23.723  1.00  0.00    -0.094 F 
ENDBRANCH  11  21
BRANCH  16  27
ATOM     27  C   UNL A   1      32.658  22.666  27.517  1.00  0.00     0.429 C 
ATOM     28  F   UNL A   1      31.393  22.300  27.702  1.00  0.00    -0.167 F 
ATOM     29  F   UNL A   1      33.384  21.604  27.180  1.00  0.00    -0.167 F 
ATOM     30  F   UNL A   1      33.136  23.190  28.643  1.00  0.00    -0.167 F 
ENDBRANCH  16  27
ENDBRANCH   4   7
ENDBRANCH   2   3
ENDBRANCH   1   2
BRANCH   1  31
ATOM     31  C   UNL A   1      37.295  21.774  24.586  1.00  0.00     0.118 C 
BRANCH  31  32
ATOM     32  N   UNL A   1      37.961  20.531  25.000  1.00  0.00    -0.352 N 
ATOM     33  C   UNL A   1      39.216  20.589  25.765  1.00  0.00     0.251 C 
ATOM     34  H   UNL A   1      37.568  19.659  24.765  1.00  0.00     0.163 HD
ATOM     35  O   UNL A   1      39.792  19.514  26.123  1.00  0.00    -0.269 OA
BRANCH  33  36
ATOM     36  C   UNL A   1      39.823  21.934  26.128  1.00  0.00     0.039 A 
ATOM     37  C   UNL A   1      41.173  22.010  26.428  1.00  0.00     0.014 A 
ATOM     38  C   UNL A   1      39.051  23.014  26.147  1.00  0.00     0.014 A 
ATOM     39  C   UNL A   1      41.559  23.235  27.023  1.00  0.00     0.010 A 
ATOM     40  C   UNL A   1      39.535  24.212  26.615  1.00  0.00     0.010 A 
ATOM     41  C   UNL A   1      40.845  24.344  26.984  1.00  0.00    -0.014 A 
BRANCH  41  42
ATOM     42  C   UNL A   1      41.445  25.696  27.334  1.00  0.00     0.031 A 
ATOM     43  C   UNL A   1      40.675  26.580  28.093  1.00  0.00     0.074 A 
ATOM     44  C   UNL A   1      42.721  25.978  26.877  1.00  0.00     0.049 A 
ATOM     45  N   UNL A   1      41.022  27.791  28.530  1.00  0.00    -0.248 NA
ATOM     46  C   UNL A   1      39.307  26.296  28.551  1.00  0.00     0.031 C 
ATOM     47  C   UNL A   1      43.507  25.089  26.117  1.00  0.00     0.029 A 
ATOM     48  N   UNL A   1      43.449  27.133  27.060  1.00  0.00    -0.354 N 
ATOM     49  C   UNL A   1      40.027  28.326  29.241  1.00  0.00     0.074 A 
ATOM     50  C   UNL A   1      38.908  27.375  29.260  1.00  0.00     0.031 C 
ATOM     51  C   UNL A   1      44.687  25.703  25.837  1.00  0.00     0.029 A 
ATOM     52  C   UNL A   1      44.658  26.986  26.418  1.00  0.00     0.049 A 
ATOM     53  H   UNL A   1      43.156  27.927  27.563  1.00  0.00     0.167 HD
ATOM     54  C   UNL A   1      40.010  29.570  29.877  1.00  0.00     0.034 A 
ATOM     55  C   UNL A   1      45.690  27.907  26.329  1.00  0.00     0.034 A 
ATOM     56  C   UNL A   1      41.060  30.473  29.824  1.00  0.00     0.049 A 
ATOM     57  C   UNL A   1      45.651  29.173  26.916  1.00  0.00     0.074 A 
ATOM     58  C   UNL A   1      41.062  31.727  30.465  1.00  0.00     0.029 A 
ATOM     59  N   UNL A   1      42.259  30.336  29.162  1.00  0.00    -0.354 N 
ATOM     60  N   UNL A   1      44.673  29.692  27.660  1.00  0.00    -0.248 NA
ATOM     61  C   UNL A   1      46.724  30.169  26.802  1.00  0.00     0.031 C 
ATOM     62  C   UNL A   1      42.243  32.341  30.186  1.00  0.00     0.029 A 
ATOM     63  C   UNL A   1      42.996  31.482  29.364  1.00  0.00     0.049 A 
ATOM     64  H   UNL A   1      42.540  29.553  28.634  1.00  0.00     0.167 HD
ATOM     65  C   UNL A   1      45.002  30.922  28.062  1.00  0.00     0.074 A 
ATOM     66  C   UNL A   1      46.323  31.249  27.510  1.00  0.00     0.031 C 
ATOM     67  C   UNL A   1      44.256  31.781  28.870  1.00  0.00     0.034 A 
BRANCH  54  68
ATOM     68  C   UNL A   1      38.772  29.953  30.669  1.00  0.00     0.023 A 
ATOM     69  C   UNL A   1      37.692  30.499  29.995  1.00  0.00     0.031 A 
ATOM     70  C   UNL A   1      38.736  29.754  31.982  1.00  0.00     0.131 A 
ATOM     71  C   UNL A   1      36.717  31.074  30.845  1.00  0.00     0.055 A 
ATOM     72  C   UNL A   1      37.685  30.225  32.732  1.00  0.00     0.041 A 
ATOM     73  F   UNL A   1      39.725  29.093  32.575  1.00  0.00    -0.206 F 
ATOM     74  C   UNL A   1      36.611  30.828  32.138  1.00  0.00     0.022 A 
BRANCH  71  75
ATOM     75  S   UNL A   1      35.533  32.227  30.108  1.00  0.00     0.124 S 
ATOM     76  O   UNL A   1      34.928  31.603  28.848  1.00  0.00    -0.237 OA
ATOM     77  O   UNL A   1      34.419  32.527  31.114  1.00  0.00    -0.237 OA
ATOM     78  O   UNL A   1      36.334  33.681  29.695  1.00  0.00    -0.744 OA
ENDBRANCH  71  75
ENDBRANCH  54  68
BRANCH  55  79
ATOM     79  C   UNL A   1      46.936  27.516  25.550  1.00  0.00     0.023 A 
ATOM     80  C   UNL A   1      47.142  28.085  24.304  1.00  0.00     0.031 A 
ATOM     81  C   UNL A   1      47.802  26.650  26.064  1.00  0.00     0.131 A 
ATOM     82  C   UNL A   1      48.155  27.453  23.546  1.00  0.00     0.055 A 
ATOM     83  C   UNL A   1      48.848  26.177  25.310  1.00  0.00     0.041 A 
ATOM     84  F   UNL A   1      47.655  26.238  27.321  1.00  0.00    -0.206 F 
ATOM     85  C   UNL A   1      49.077  26.651  24.048  1.00  0.00     0.022 A 
BRANCH  82  86
ATOM     86  S   UNL A   1      48.190  27.764  21.764  1.00  0.00     0.124 S 
ATOM     87  O   UNL A   1      48.474  26.455  21.022  1.00  0.00    -0.237 OA
ATOM     88  O   UNL A   1      46.837  28.320  21.316  1.00  0.00    -0.237 OA
ATOM     89  O   UNL A   1      49.418  28.899  21.407  1.00  0.00    -0.744 OA
ENDBRANCH  82  86
ENDBRANCH  55  79
BRANCH  67  90
ATOM     90  C   UNL A   1      44.862  33.128  29.228  1.00  0.00     0.023 A 
ATOM     91  C   UNL A   1      44.584  34.230  28.438  1.00  0.00     0.031 A 
ATOM     92  C   UNL A   1      45.645  33.227  30.296  1.00  0.00     0.131 A 
ATOM     93  C   UNL A   1      45.417  35.345  28.693  1.00  0.00     0.055 A 
ATOM     94  C   UNL A   1      46.325  34.392  30.560  1.00  0.00     0.041 A 
ATOM     95  F   UNL A   1      45.772  32.189  31.119  1.00  0.00    -0.206 F 
ATOM     96  C   UNL A   1      46.143  35.503  29.785  1.00  0.00     0.022 A 
BRANCH  93  97
ATOM     97  S   UNL A   1      45.495  36.644  27.434  1.00  0.00     0.124 S 
ATOM     98  O   UNL A   1      46.211  36.109  26.192  1.00  0.00    -0.237 OA
ATOM     99  O   UNL A   1      44.076  37.076  27.058  1.00  0.00    -0.237 OA
ATOM    100  O   UNL A   1      46.354  37.987  28.054  1.00  0.00    -0.744 OA
ENDBRANCH  93  97
ENDBRANCH  67  90
ENDBRANCH  41  42
ENDBRANCH  33  36
ENDBRANCH  31  32
ENDBRANCH   1  31
TORSDOF 18
ENDMDL
