MODEL 1
REMARK VINA RESULT:     -13.0      0.000      0.000
REMARK SMILES C[C@H]1CCC[C@](Cc2cn3ccccc3n2)(C(=O)NCCCNC(=O)c2ccc(-c3c4nc(c(-c5cc(S(=O)(=O)[O-])ccc5F)c5ccc([nH]5)c(-c5cc(S(=O)(=O)[O-])ccc5F)c5nc(c(-c6cc(S(=O)(=O)[O-])ccc6F)c6ccc3[nH]6)C=C5)C=C4)cc2)C1
REMARK SMILES IDX 21 1 20 2 19 3 17 4 18 5 6 7 1 8 2 9 3 10 89 11 4 12 5 13
REMARK SMILES IDX 7 14 8 15 9 16 16 17 10 18 15 19 11 20 14 21 12 22 13 23
REMARK SMILES IDX 22 24 23 25 24 26 25 28 26 29 27 30 88 31 28 32 87 33 29 34
REMARK SMILES IDX 30 35 31 36 81 37 32 38 86 39 80 40 82 41 33 42 85 43 79 44
REMARK SMILES IDX 78 45 34 47 66 48 46 49 65 50 47 51 50 52 64 53 83 54 48 55
REMARK SMILES IDX 49 56 63 58 84 59 51 60 35 61 36 62 44 63 37 64 43 65 45 66
REMARK SMILES IDX 42 67 38 68 39 69 40 70 41 71 67 72 68 73 76 74 69 75 75 76
REMARK SMILES IDX 77 77 74 78 70 79 71 80 72 81 73 82 52 83 53 84 61 85 54 86
REMARK SMILES IDX 60 87 62 88 59 89 55 90 56 91 57 92 58 93
REMARK H PARENT 19 6 23 27 82 46 50 57
REMARK Flexibility Score: inf
ROOT
ATOM      1  C   UNL A   1      35.869  21.463  25.910  1.00  0.00     0.042 C 
ENDROOT
BRANCH   1   2
ATOM      2  C   UNL A   1      35.401  22.880  26.175  1.00  0.00     0.117 C 
BRANCH   2   3
ATOM      3  N   UNL A   1      34.231  22.978  27.008  1.00  0.00    -0.356 N 
ATOM      4  C   UNL A   1      32.922  23.187  26.711  1.00  0.00     0.226 C 
ATOM      5  O   UNL A   1      32.157  22.938  27.653  1.00  0.00    -0.274 OA
ATOM      6  H   UNL A   1      34.413  22.875  27.970  1.00  0.00     0.163 HD
BRANCH   4   7
ATOM      7  C   UNL A   1      32.372  23.668  25.317  1.00  0.00     0.055 C 
ATOM      8  C   UNL A   1      32.071  21.006  22.407  1.00  0.00     0.007 C 
ATOM      9  C   UNL A   1      32.831  21.880  23.410  1.00  0.00    -0.013 C 
ATOM     10  C   UNL A   1      33.639  22.950  22.666  1.00  0.00     0.003 C 
ATOM     11  C   UNL A   1      31.888  22.452  24.477  1.00  0.00     0.020 C 
ATOM     12  C   UNL A   1      34.279  24.027  23.534  1.00  0.00     0.001 C 
ATOM     13  C   UNL A   1      33.374  24.613  24.609  1.00  0.00     0.017 C 
BRANCH   7  14
ATOM     14  C   UNL A   1      31.094  24.524  25.720  1.00  0.00     0.074 C 
BRANCH  14  15
ATOM     15  C   UNL A   1      31.196  26.025  25.735  1.00  0.00     0.061 A 
ATOM     16  C   UNL A   1      30.937  26.970  24.763  1.00  0.00     0.116 A 
ATOM     17  N   UNL A   1      31.606  26.653  26.897  1.00  0.00    -0.234 NA
ATOM     18  N   UNL A   1      31.226  28.187  25.326  1.00  0.00    -0.307 N 
ATOM     19  C   UNL A   1      31.622  27.941  26.632  1.00  0.00     0.136 A 
ATOM     20  C   UNL A   1      31.166  29.459  24.761  1.00  0.00     0.093 A 
ATOM     21  C   UNL A   1      31.971  29.070  27.426  1.00  0.00     0.048 A 
ATOM     22  C   UNL A   1      31.504  30.522  25.511  1.00  0.00     0.018 A 
ATOM     23  C   UNL A   1      31.915  30.306  26.892  1.00  0.00     0.005 A 
ENDBRANCH  14  15
ENDBRANCH   7  14
ENDBRANCH   4   7
ENDBRANCH   2   3
ENDBRANCH   1   2
BRANCH   1  24
ATOM     24  C   UNL A   1      37.066  21.402  24.980  1.00  0.00     0.118 C 
BRANCH  24  25
ATOM     25  N   UNL A   1      38.090  20.470  25.447  1.00  0.00    -0.352 N 
ATOM     26  C   UNL A   1      39.319  20.684  26.035  1.00  0.00     0.251 C 
ATOM     27  H   UNL A   1      37.863  19.520  25.319  1.00  0.00     0.163 HD
ATOM     28  O   UNL A   1      40.094  19.745  26.156  1.00  0.00    -0.269 OA
BRANCH  26  29
ATOM     29  C   UNL A   1      39.711  22.040  26.484  1.00  0.00     0.039 A 
ATOM     30  C   UNL A   1      40.753  22.182  27.405  1.00  0.00     0.014 A 
ATOM     31  C   UNL A   1      39.059  23.172  25.999  1.00  0.00     0.014 A 
ATOM     32  C   UNL A   1      41.205  23.460  27.749  1.00  0.00     0.010 A 
ATOM     33  C   UNL A   1      39.589  24.433  26.240  1.00  0.00     0.010 A 
ATOM     34  C   UNL A   1      40.667  24.595  27.121  1.00  0.00    -0.014 A 
BRANCH  34  35
ATOM     35  C   UNL A   1      41.206  25.960  27.358  1.00  0.00     0.031 A 
ATOM     36  C   UNL A   1      42.567  26.329  26.825  1.00  0.00     0.074 A 
ATOM     37  C   UNL A   1      40.522  26.823  28.139  1.00  0.00     0.049 A 
ATOM     38  N   UNL A   1      43.276  27.407  27.040  1.00  0.00    -0.248 NA
ATOM     39  C   UNL A   1      43.239  25.335  25.970  1.00  0.00     0.031 C 
ATOM     40  C   UNL A   1      39.220  26.554  28.757  1.00  0.00     0.029 A 
ATOM     41  N   UNL A   1      40.830  28.091  28.565  1.00  0.00    -0.354 N 
ATOM     42  C   UNL A   1      44.484  27.205  26.381  1.00  0.00     0.074 A 
ATOM     43  C   UNL A   1      44.433  25.881  25.803  1.00  0.00     0.031 C 
ATOM     44  C   UNL A   1      38.835  27.629  29.463  1.00  0.00     0.029 A 
ATOM     45  C   UNL A   1      39.883  28.642  29.402  1.00  0.00     0.049 A 
ATOM     46  H   UNL A   1      41.651  28.563  28.298  1.00  0.00     0.167 HD
ATOM     47  C   UNL A   1      45.531  28.056  26.257  1.00  0.00     0.034 A 
ATOM     48  C   UNL A   1      39.873  29.815  30.066  1.00  0.00     0.034 A 
ATOM     49  C   UNL A   1      45.541  29.390  26.802  1.00  0.00     0.049 A 
ATOM     50  C   UNL A   1      41.054  30.742  29.908  1.00  0.00     0.074 A 
ATOM     51  C   UNL A   1      46.496  30.377  26.639  1.00  0.00     0.029 A 
ATOM     52  N   UNL A   1      44.556  29.919  27.626  1.00  0.00    -0.354 N 
ATOM     53  N   UNL A   1      42.149  30.571  29.202  1.00  0.00    -0.248 NA
ATOM     54  C   UNL A   1      41.000  32.020  30.630  1.00  0.00     0.031 C 
ATOM     55  C   UNL A   1      46.131  31.471  27.428  1.00  0.00     0.029 A 
ATOM     56  C   UNL A   1      44.908  31.201  28.019  1.00  0.00     0.049 A 
ATOM     57  H   UNL A   1      43.731  29.452  27.891  1.00  0.00     0.167 HD
ATOM     58  C   UNL A   1      42.899  31.730  29.378  1.00  0.00     0.074 A 
ATOM     59  C   UNL A   1      42.122  32.601  30.235  1.00  0.00     0.031 C 
ATOM     60  C   UNL A   1      44.121  32.049  28.882  1.00  0.00     0.034 A 
BRANCH  47  61
ATOM     61  C   UNL A   1      46.758  27.570  25.526  1.00  0.00     0.023 A 
ATOM     62  C   UNL A   1      47.024  27.926  24.193  1.00  0.00     0.031 A 
ATOM     63  C   UNL A   1      47.688  26.744  26.183  1.00  0.00     0.131 A 
ATOM     64  C   UNL A   1      48.158  27.415  23.544  1.00  0.00     0.055 A 
ATOM     65  C   UNL A   1      48.853  26.301  25.556  1.00  0.00     0.041 A 
ATOM     66  F   UNL A   1      47.477  26.352  27.450  1.00  0.00    -0.206 F 
ATOM     67  C   UNL A   1      49.090  26.627  24.225  1.00  0.00     0.022 A 
BRANCH  64  68
ATOM     68  S   UNL A   1      48.343  27.703  21.763  1.00  0.00     0.124 S 
ATOM     69  O   UNL A   1      48.653  26.360  21.278  1.00  0.00    -0.237 OA
ATOM     70  O   UNL A   1      47.035  28.229  21.390  1.00  0.00    -0.237 OA
ATOM     71  O   UNL A   1      49.446  28.657  21.682  1.00  0.00    -0.744 OA
ENDBRANCH  64  68
ENDBRANCH  47  61
BRANCH  48  72
ATOM     72  C   UNL A   1      38.740  30.177  30.969  1.00  0.00     0.023 A 
ATOM     73  C   UNL A   1      37.636  30.902  30.490  1.00  0.00     0.031 A 
ATOM     74  C   UNL A   1      38.773  29.865  32.339  1.00  0.00     0.131 A 
ATOM     75  C   UNL A   1      36.647  31.346  31.384  1.00  0.00     0.055 A 
ATOM     76  C   UNL A   1      37.754  30.251  33.213  1.00  0.00     0.041 A 
ATOM     77  F   UNL A   1      39.802  29.172  32.854  1.00  0.00    -0.206 F 
ATOM     78  C   UNL A   1      36.692  31.013  32.739  1.00  0.00     0.022 A 
BRANCH  75  79
ATOM     79  S   UNL A   1      35.365  32.473  30.768  1.00  0.00     0.124 S 
ATOM     80  O   UNL A   1      35.056  31.887  29.468  1.00  0.00    -0.237 OA
ATOM     81  O   UNL A   1      34.334  32.346  31.793  1.00  0.00    -0.237 OA
ATOM     82  O   UNL A   1      36.044  33.767  30.725  1.00  0.00    -0.744 OA
ENDBRANCH  75  79
ENDBRANCH  48  72
BRANCH  60  83
ATOM     83  C   UNL A   1      44.672  33.408  29.229  1.00  0.00     0.023 A 
ATOM     84  C   UNL A   1      44.412  34.533  28.427  1.00  0.00     0.031 A 
ATOM     85  C   UNL A   1      45.458  33.581  30.382  1.00  0.00     0.131 A 
ATOM     86  C   UNL A   1      44.974  35.773  28.765  1.00  0.00     0.055 A 
ATOM     87  C   UNL A   1      45.960  34.830  30.746  1.00  0.00     0.041 A 
ATOM     88  F   UNL A   1      45.738  32.539  31.181  1.00  0.00    -0.206 F 
ATOM     89  C   UNL A   1      45.729  35.933  29.929  1.00  0.00     0.022 A 
BRANCH  86  90
ATOM     90  S   UNL A   1      44.767  37.162  27.618  1.00  0.00     0.124 S 
ATOM     91  O   UNL A   1      44.790  38.308  28.523  1.00  0.00    -0.237 OA
ATOM     92  O   UNL A   1      45.926  37.021  26.741  1.00  0.00    -0.237 OA
ATOM     93  O   UNL A   1      43.478  36.896  26.985  1.00  0.00    -0.744 OA
ENDBRANCH  86  90
ENDBRANCH  60  83
ENDBRANCH  34  35
ENDBRANCH  26  29
ENDBRANCH  24  25
ENDBRANCH   1  24
TORSDOF 15
ENDMDL
MODEL 2
REMARK VINA RESULT:     -12.8      5.489      8.474
REMARK SMILES C[C@H]1CCC[C@](Cc2cn3ccccc3n2)(C(=O)NCCCNC(=O)c2ccc(-c3c4nc(c(-c5cc(S(=O)(=O)[O-])ccc5F)c5ccc([nH]5)c(-c5cc(S(=O)(=O)[O-])ccc5F)c5nc(c(-c6cc(S(=O)(=O)[O-])ccc6F)c6ccc3[nH]6)C=C5)C=C4)cc2)C1
REMARK SMILES IDX 21 1 20 2 19 3 17 4 18 5 6 7 1 8 2 9 3 10 89 11 4 12 5 13
REMARK SMILES IDX 7 14 8 15 9 16 16 17 10 18 15 19 11 20 14 21 12 22 13 23
REMARK SMILES IDX 22 24 23 25 24 26 25 28 26 29 27 30 88 31 28 32 87 33 29 34
REMARK SMILES IDX 30 35 31 36 81 37 32 38 86 39 80 40 82 41 33 42 85 43 79 44
REMARK SMILES IDX 78 45 34 47 66 48 46 49 65 50 47 51 50 52 64 53 83 54 48 55
REMARK SMILES IDX 49 56 63 58 84 59 51 60 35 61 36 62 44 63 37 64 43 65 45 66
REMARK SMILES IDX 42 67 38 68 39 69 40 70 41 71 67 72 68 73 76 74 69 75 75 76
REMARK SMILES IDX 77 77 74 78 70 79 71 80 72 81 73 82 52 83 53 84 61 85 54 86
REMARK SMILES IDX 60 87 62 88 59 89 55 90 56 91 57 92 58 93
REMARK H PARENT 19 6 23 27 82 46 50 57
REMARK Flexibility Score: inf
ROOT
ATOM      1  C   UNL A   1      32.171  30.937  26.942  1.00  0.00     0.042 C 
ENDROOT
BRANCH   1   2
ATOM      2  C   UNL A   1      32.599  29.587  26.403  1.00  0.00     0.117 C 
BRANCH   2   3
ATOM      3  N   UNL A   1      33.220  29.629  25.105  1.00  0.00    -0.356 N 
ATOM      4  C   UNL A   1      33.092  28.832  24.012  1.00  0.00     0.226 C 
ATOM      5  O   UNL A   1      33.571  29.327  22.983  1.00  0.00    -0.274 OA
ATOM      6  H   UNL A   1      33.854  30.373  24.987  1.00  0.00     0.163 HD
BRANCH   4   7
ATOM      7  C   UNL A   1      32.390  27.424  23.992  1.00  0.00     0.055 C 
ATOM      8  C   UNL A   1      34.190  24.412  25.818  1.00  0.00     0.007 C 
ATOM      9  C   UNL A   1      34.047  25.489  24.738  1.00  0.00    -0.013 C 
ATOM     10  C   UNL A   1      33.824  24.834  23.371  1.00  0.00     0.003 C 
ATOM     11  C   UNL A   1      32.968  26.514  25.113  1.00  0.00     0.020 C 
ATOM     12  C   UNL A   1      33.454  25.776  22.231  1.00  0.00     0.001 C 
ATOM     13  C   UNL A   1      32.390  26.812  22.569  1.00  0.00     0.017 C 
BRANCH   7  14
ATOM     14  C   UNL A   1      30.887  27.775  24.373  1.00  0.00     0.074 C 
BRANCH  14  15
ATOM     15  C   UNL A   1      30.171  28.851  23.603  1.00  0.00     0.061 A 
ATOM     16  C   UNL A   1      29.605  28.855  22.343  1.00  0.00     0.116 A 
ATOM     17  N   UNL A   1      29.996  30.089  24.194  1.00  0.00    -0.234 NA
ATOM     18  N   UNL A   1      29.111  30.119  22.150  1.00  0.00    -0.307 N 
ATOM     19  C   UNL A   1      29.367  30.833  23.312  1.00  0.00     0.136 A 
ATOM     20  C   UNL A   1      28.473  30.658  21.035  1.00  0.00     0.093 A 
ATOM     21  C   UNL A   1      28.932  32.188  23.348  1.00  0.00     0.048 A 
ATOM     22  C   UNL A   1      28.072  31.940  21.069  1.00  0.00     0.018 A 
ATOM     23  C   UNL A   1      28.312  32.720  22.276  1.00  0.00     0.005 A 
ENDBRANCH  14  15
ENDBRANCH   7  14
ENDBRANCH   4   7
ENDBRANCH   2   3
ENDBRANCH   1   2
BRANCH   1  24
ATOM     24  C   UNL A   1      33.317  31.927  27.026  1.00  0.00     0.118 C 
BRANCH  24  25
ATOM     25  N   UNL A   1      32.876  33.260  27.435  1.00  0.00    -0.352 N 
ATOM     26  C   UNL A   1      33.254  34.061  28.491  1.00  0.00     0.251 C 
ATOM     27  H   UNL A   1      32.186  33.655  26.854  1.00  0.00     0.163 HD
ATOM     28  O   UNL A   1      32.596  35.060  28.748  1.00  0.00    -0.269 OA
BRANCH  26  29
ATOM     29  C   UNL A   1      34.423  33.700  29.327  1.00  0.00     0.039 A 
ATOM     30  C   UNL A   1      34.252  32.819  30.399  1.00  0.00     0.014 A 
ATOM     31  C   UNL A   1      35.686  34.222  29.056  1.00  0.00     0.014 A 
ATOM     32  C   UNL A   1      35.366  32.385  31.124  1.00  0.00     0.010 A 
ATOM     33  C   UNL A   1      36.804  33.694  29.690  1.00  0.00     0.010 A 
ATOM     34  C   UNL A   1      36.659  32.771  30.734  1.00  0.00    -0.014 A 
BRANCH  34  35
ATOM     35  C   UNL A   1      37.878  32.230  31.393  1.00  0.00     0.031 A 
ATOM     36  C   UNL A   1      38.675  31.146  30.714  1.00  0.00     0.074 A 
ATOM     37  C   UNL A   1      38.201  32.636  32.639  1.00  0.00     0.049 A 
ATOM     38  N   UNL A   1      39.677  30.443  31.174  1.00  0.00    -0.248 NA
ATOM     39  C   UNL A   1      38.263  30.773  29.349  1.00  0.00     0.031 C 
ATOM     40  C   UNL A   1      37.469  33.639  33.419  1.00  0.00     0.029 A 
ATOM     41  N   UNL A   1      39.213  32.244  33.480  1.00  0.00    -0.354 N 
ATOM     42  C   UNL A   1      39.989  29.526  30.176  1.00  0.00     0.074 A 
ATOM     43  C   UNL A   1      39.037  29.726  29.107  1.00  0.00     0.031 C 
ATOM     44  C   UNL A   1      38.067  33.796  34.610  1.00  0.00     0.029 A 
ATOM     45  C   UNL A   1      39.187  32.866  34.709  1.00  0.00     0.049 A 
ATOM     46  H   UNL A   1      39.894  31.580  33.229  1.00  0.00     0.167 HD
ATOM     47  C   UNL A   1      40.991  28.613  30.150  1.00  0.00     0.034 A 
ATOM     48  C   UNL A   1      39.958  32.689  35.801  1.00  0.00     0.034 A 
ATOM     49  C   UNL A   1      41.957  28.463  31.208  1.00  0.00     0.049 A 
ATOM     50  C   UNL A   1      41.065  31.665  35.742  1.00  0.00     0.074 A 
ATOM     51  C   UNL A   1      43.079  27.655  31.236  1.00  0.00     0.029 A 
ATOM     52  N   UNL A   1      41.910  29.126  32.427  1.00  0.00    -0.354 N 
ATOM     53  N   UNL A   1      41.403  30.871  34.751  1.00  0.00    -0.248 NA
ATOM     54  C   UNL A   1      41.898  31.513  36.942  1.00  0.00     0.031 C 
ATOM     55  C   UNL A   1      43.663  27.766  32.501  1.00  0.00     0.029 A 
ATOM     56  C   UNL A   1      42.956  28.705  33.234  1.00  0.00     0.049 A 
ATOM     57  H   UNL A   1      41.234  29.795  32.681  1.00  0.00     0.167 HD
ATOM     58  C   UNL A   1      42.501  30.146  35.203  1.00  0.00     0.074 A 
ATOM     59  C   UNL A   1      42.784  30.613  36.544  1.00  0.00     0.031 C 
ATOM     60  C   UNL A   1      43.213  29.178  34.572  1.00  0.00     0.034 A 
BRANCH  47  61
ATOM     61  C   UNL A   1      41.081  27.694  28.957  1.00  0.00     0.023 A 
ATOM     62  C   UNL A   1      42.042  27.872  27.948  1.00  0.00     0.031 A 
ATOM     63  C   UNL A   1      40.196  26.607  28.837  1.00  0.00     0.131 A 
ATOM     64  C   UNL A   1      42.061  27.013  26.838  1.00  0.00     0.055 A 
ATOM     65  C   UNL A   1      40.268  25.712  27.770  1.00  0.00     0.041 A 
ATOM     66  F   UNL A   1      39.242  26.399  29.759  1.00  0.00    -0.206 F 
ATOM     67  C   UNL A   1      41.198  25.917  26.756  1.00  0.00     0.022 A 
BRANCH  64  68
ATOM     68  S   UNL A   1      43.155  27.414  25.448  1.00  0.00     0.124 S 
ATOM     69  O   UNL A   1      43.499  26.083  24.951  1.00  0.00    -0.237 OA
ATOM     70  O   UNL A   1      42.292  28.213  24.587  1.00  0.00    -0.237 OA
ATOM     71  O   UNL A   1      44.256  28.141  26.076  1.00  0.00    -0.744 OA
ENDBRANCH  64  68
ENDBRANCH  47  61
BRANCH  48  72
ATOM     72  C   UNL A   1      39.702  33.459  37.055  1.00  0.00     0.023 A 
ATOM     73  C   UNL A   1      38.984  32.889  38.120  1.00  0.00     0.031 A 
ATOM     74  C   UNL A   1      40.109  34.798  37.183  1.00  0.00     0.131 A 
ATOM     75  C   UNL A   1      38.640  33.673  39.234  1.00  0.00     0.055 A 
ATOM     76  C   UNL A   1      39.821  35.555  38.321  1.00  0.00     0.041 A 
ATOM     77  F   UNL A   1      40.799  35.397  36.199  1.00  0.00    -0.206 F 
ATOM     78  C   UNL A   1      39.066  34.998  39.347  1.00  0.00     0.022 A 
BRANCH  75  79
ATOM     79  S   UNL A   1      37.518  32.971  40.475  1.00  0.00     0.124 S 
ATOM     80  O   UNL A   1      36.302  32.770  39.695  1.00  0.00    -0.237 OA
ATOM     81  O   UNL A   1      38.232  31.763  40.876  1.00  0.00    -0.237 OA
ATOM     82  O   UNL A   1      37.442  34.016  41.493  1.00  0.00    -0.744 OA
ENDBRANCH  75  79
ENDBRANCH  48  72
BRANCH  60  83
ATOM     83  C   UNL A   1      44.383  28.588  35.317  1.00  0.00     0.023 A 
ATOM     84  C   UNL A   1      44.215  27.544  36.243  1.00  0.00     0.031 A 
ATOM     85  C   UNL A   1      45.684  29.073  35.092  1.00  0.00     0.131 A 
ATOM     86  C   UNL A   1      45.325  27.049  36.943  1.00  0.00     0.055 A 
ATOM     87  C   UNL A   1      46.791  28.532  35.744  1.00  0.00     0.041 A 
ATOM     88  F   UNL A   1      45.900  30.071  34.220  1.00  0.00    -0.206 F 
ATOM     89  C   UNL A   1      46.614  27.522  36.685  1.00  0.00     0.022 A 
BRANCH  86  90
ATOM     90  S   UNL A   1      45.051  25.827  38.255  1.00  0.00     0.124 S 
ATOM     91  O   UNL A   1      44.416  26.635  39.293  1.00  0.00    -0.237 OA
ATOM     92  O   UNL A   1      44.192  24.847  37.597  1.00  0.00    -0.237 OA
ATOM     93  O   UNL A   1      46.397  25.355  38.571  1.00  0.00    -0.744 OA
ENDBRANCH  86  90
ENDBRANCH  60  83
ENDBRANCH  34  35
ENDBRANCH  26  29
ENDBRANCH  24  25
ENDBRANCH   1  24
TORSDOF 15
ENDMDL
MODEL 3
REMARK VINA RESULT:     -12.8      4.891      7.900
REMARK SMILES C[C@H]1CCC[C@](Cc2cn3ccccc3n2)(C(=O)NCCCNC(=O)c2ccc(-c3c4nc(c(-c5cc(S(=O)(=O)[O-])ccc5F)c5ccc([nH]5)c(-c5cc(S(=O)(=O)[O-])ccc5F)c5nc(c(-c6cc(S(=O)(=O)[O-])ccc6F)c6ccc3[nH]6)C=C5)C=C4)cc2)C1
REMARK SMILES IDX 21 1 20 2 19 3 17 4 18 5 6 7 1 8 2 9 3 10 89 11 4 12 5 13
REMARK SMILES IDX 7 14 8 15 9 16 16 17 10 18 15 19 11 20 14 21 12 22 13 23
REMARK SMILES IDX 22 24 23 25 24 26 25 28 26 29 27 30 88 31 28 32 87 33 29 34
REMARK SMILES IDX 30 35 31 36 81 37 32 38 86 39 80 40 82 41 33 42 85 43 79 44
REMARK SMILES IDX 78 45 34 47 66 48 46 49 65 50 47 51 50 52 64 53 83 54 48 55
REMARK SMILES IDX 49 56 63 58 84 59 51 60 35 61 36 62 44 63 37 64 43 65 45 66
REMARK SMILES IDX 42 67 38 68 39 69 40 70 41 71 67 72 68 73 76 74 69 75 75 76
REMARK SMILES IDX 77 77 74 78 70 79 71 80 72 81 73 82 52 83 53 84 61 85 54 86
REMARK SMILES IDX 60 87 62 88 59 89 55 90 56 91 57 92 58 93
REMARK H PARENT 19 6 23 27 82 46 50 57
REMARK Flexibility Score: inf
ROOT
ATOM      1  C   UNL A   1      31.977  28.107  25.559  1.00  0.00     0.042 C 
ENDROOT
BRANCH   1   2
ATOM      2  C   UNL A   1      32.503  26.696  25.728  1.00  0.00     0.117 C 
BRANCH   2   3
ATOM      3  N   UNL A   1      31.586  25.788  26.365  1.00  0.00    -0.356 N 
ATOM      4  C   UNL A   1      31.572  24.432  26.461  1.00  0.00     0.226 C 
ATOM      5  O   UNL A   1      30.782  24.007  27.314  1.00  0.00    -0.274 OA
ATOM      6  H   UNL A   1      30.829  26.230  26.814  1.00  0.00     0.163 HD
BRANCH   4   7
ATOM      7  C   UNL A   1      32.469  23.453  25.617  1.00  0.00     0.055 C 
ATOM      8  C   UNL A   1      36.392  23.951  25.725  1.00  0.00     0.007 C 
ATOM      9  C   UNL A   1      34.954  24.355  25.381  1.00  0.00    -0.013 C 
ATOM     10  C   UNL A   1      34.760  24.357  23.860  1.00  0.00     0.003 C 
ATOM     11  C   UNL A   1      33.936  23.485  26.130  1.00  0.00     0.020 C 
ATOM     12  C   UNL A   1      33.328  24.532  23.370  1.00  0.00     0.001 C 
ATOM     13  C   UNL A   1      32.289  23.688  24.096  1.00  0.00     0.017 C 
BRANCH   7  14
ATOM     14  C   UNL A   1      31.859  22.027  25.967  1.00  0.00     0.074 C 
BRANCH  14  15
ATOM     15  C   UNL A   1      32.467  20.800  25.344  1.00  0.00     0.061 A 
ATOM     16  C   UNL A   1      33.606  20.084  25.653  1.00  0.00     0.116 A 
ATOM     17  N   UNL A   1      31.826  20.212  24.268  1.00  0.00    -0.234 NA
ATOM     18  N   UNL A   1      33.682  19.070  24.734  1.00  0.00    -0.307 N 
ATOM     19  C   UNL A   1      32.568  19.185  23.915  1.00  0.00     0.136 A 
ATOM     20  C   UNL A   1      34.655  18.085  24.582  1.00  0.00     0.093 A 
ATOM     21  C   UNL A   1      32.426  18.224  22.876  1.00  0.00     0.048 A 
ATOM     22  C   UNL A   1      34.523  17.183  23.594  1.00  0.00     0.018 A 
ATOM     23  C   UNL A   1      33.360  17.264  22.720  1.00  0.00     0.005 A 
ENDBRANCH  14  15
ENDBRANCH   7  14
ENDBRANCH   4   7
ENDBRANCH   2   3
ENDBRANCH   1   2
BRANCH   1  24
ATOM     24  C   UNL A   1      33.080  29.147  25.524  1.00  0.00     0.118 C 
BRANCH  24  25
ATOM     25  N   UNL A   1      32.649  30.439  26.056  1.00  0.00    -0.352 N 
ATOM     26  C   UNL A   1      33.191  31.250  27.030  1.00  0.00     0.251 C 
ATOM     27  H   UNL A   1      31.826  30.792  25.647  1.00  0.00     0.163 HD
ATOM     28  O   UNL A   1      32.538  32.196  27.451  1.00  0.00    -0.269 OA
BRANCH  26  29
ATOM     29  C   UNL A   1      34.534  30.962  27.587  1.00  0.00     0.039 A 
ATOM     30  C   UNL A   1      35.450  32.007  27.740  1.00  0.00     0.014 A 
ATOM     31  C   UNL A   1      34.891  29.669  27.963  1.00  0.00     0.014 A 
ATOM     32  C   UNL A   1      36.676  31.767  28.367  1.00  0.00     0.010 A 
ATOM     33  C   UNL A   1      36.050  29.457  28.698  1.00  0.00     0.010 A 
ATOM     34  C   UNL A   1      36.960  30.502  28.908  1.00  0.00    -0.014 A 
BRANCH  34  35
ATOM     35  C   UNL A   1      38.192  30.238  29.698  1.00  0.00     0.031 A 
ATOM     36  C   UNL A   1      39.219  29.265  29.177  1.00  0.00     0.074 A 
ATOM     37  C   UNL A   1      38.332  30.787  30.923  1.00  0.00     0.049 A 
ATOM     38  N   UNL A   1      40.283  28.789  29.769  1.00  0.00    -0.248 NA
ATOM     39  C   UNL A   1      38.997  28.724  27.825  1.00  0.00     0.031 C 
ATOM     40  C   UNL A   1      37.374  31.699  31.556  1.00  0.00     0.029 A 
ATOM     41  N   UNL A   1      39.319  30.646  31.866  1.00  0.00    -0.354 N 
ATOM     42  C   UNL A   1      40.833  27.870  28.882  1.00  0.00     0.074 A 
ATOM     43  C   UNL A   1      39.956  27.816  27.733  1.00  0.00     0.031 C 
ATOM     44  C   UNL A   1      37.830  32.049  32.769  1.00  0.00     0.029 A 
ATOM     45  C   UNL A   1      39.080  31.344  33.030  1.00  0.00     0.049 A 
ATOM     46  H   UNL A   1      40.124  30.097  31.725  1.00  0.00     0.167 HD
ATOM     47  C   UNL A   1      41.975  27.151  29.008  1.00  0.00     0.034 A 
ATOM     48  C   UNL A   1      39.774  31.389  34.186  1.00  0.00     0.034 A 
ATOM     49  C   UNL A   1      42.858  27.255  30.142  1.00  0.00     0.049 A 
ATOM     50  C   UNL A   1      41.041  30.577  34.298  1.00  0.00     0.074 A 
ATOM     51  C   UNL A   1      44.095  26.664  30.323  1.00  0.00     0.029 A 
ATOM     52  N   UNL A   1      42.592  27.988  31.292  1.00  0.00    -0.354 N 
ATOM     53  N   UNL A   1      41.594  29.784  33.408  1.00  0.00    -0.248 NA
ATOM     54  C   UNL A   1      41.780  30.666  35.564  1.00  0.00     0.031 C 
ATOM     55  C   UNL A   1      44.540  26.971  31.612  1.00  0.00     0.029 A 
ATOM     56  C   UNL A   1      43.621  27.821  32.206  1.00  0.00     0.049 A 
ATOM     57  H   UNL A   1      41.792  28.543  31.436  1.00  0.00     0.167 HD
ATOM     58  C   UNL A   1      42.757  29.302  34.001  1.00  0.00     0.074 A 
ATOM     59  C   UNL A   1      42.839  29.911  35.312  1.00  0.00     0.031 C 
ATOM     60  C   UNL A   1      43.677  28.432  33.512  1.00  0.00     0.034 A 
BRANCH  47  61
ATOM     61  C   UNL A   1      42.325  26.176  27.912  1.00  0.00     0.023 A 
ATOM     62  C   UNL A   1      41.787  24.878  27.867  1.00  0.00     0.031 A 
ATOM     63  C   UNL A   1      43.204  26.559  26.883  1.00  0.00     0.131 A 
ATOM     64  C   UNL A   1      42.174  23.994  26.848  1.00  0.00     0.055 A 
ATOM     65  C   UNL A   1      43.526  25.701  25.831  1.00  0.00     0.041 A 
ATOM     66  F   UNL A   1      43.766  27.778  26.885  1.00  0.00    -0.206 F 
ATOM     67  C   UNL A   1      43.019  24.406  25.814  1.00  0.00     0.022 A 
BRANCH  64  68
ATOM     68  S   UNL A   1      41.647  22.262  26.954  1.00  0.00     0.124 S 
ATOM     69  O   UNL A   1      41.971  21.773  25.616  1.00  0.00    -0.237 OA
ATOM     70  O   UNL A   1      42.473  21.746  28.039  1.00  0.00    -0.237 OA
ATOM     71  O   UNL A   1      40.218  22.356  27.247  1.00  0.00    -0.744 OA
ENDBRANCH  64  68
ENDBRANCH  47  61
BRANCH  48  72
ATOM     72  C   UNL A   1      39.282  32.192  35.346  1.00  0.00     0.023 A 
ATOM     73  C   UNL A   1      39.682  33.526  35.524  1.00  0.00     0.031 A 
ATOM     74  C   UNL A   1      38.460  31.618  36.332  1.00  0.00     0.131 A 
ATOM     75  C   UNL A   1      39.315  34.220  36.689  1.00  0.00     0.055 A 
ATOM     76  C   UNL A   1      38.043  32.332  37.457  1.00  0.00     0.041 A 
ATOM     77  F   UNL A   1      38.045  30.346  36.216  1.00  0.00    -0.206 F 
ATOM     78  C   UNL A   1      38.487  33.636  37.650  1.00  0.00     0.022 A 
BRANCH  75  79
ATOM     79  S   UNL A   1      40.042  35.855  36.990  1.00  0.00     0.124 S 
ATOM     80  O   UNL A   1      39.646  36.580  35.788  1.00  0.00    -0.237 OA
ATOM     81  O   UNL A   1      39.382  36.254  38.229  1.00  0.00    -0.237 OA
ATOM     82  O   UNL A   1      41.471  35.574  37.109  1.00  0.00    -0.744 OA
ENDBRANCH  75  79
ENDBRANCH  48  72
BRANCH  60  83
ATOM     83  C   UNL A   1      44.862  28.118  34.388  1.00  0.00     0.023 A 
ATOM     84  C   UNL A   1      44.848  27.034  35.283  1.00  0.00     0.031 A 
ATOM     85  C   UNL A   1      46.022  28.909  34.321  1.00  0.00     0.131 A 
ATOM     86  C   UNL A   1      45.957  26.798  36.108  1.00  0.00     0.055 A 
ATOM     87  C   UNL A   1      47.146  28.630  35.098  1.00  0.00     0.041 A 
ATOM     88  F   UNL A   1      46.088  29.957  33.485  1.00  0.00    -0.206 F 
ATOM     89  C   UNL A   1      47.113  27.576  36.008  1.00  0.00     0.022 A 
BRANCH  86  90
ATOM     90  S   UNL A   1      45.840  25.504  37.373  1.00  0.00     0.124 S 
ATOM     91  O   UNL A   1      45.198  24.419  36.638  1.00  0.00    -0.237 OA
ATOM     92  O   UNL A   1      47.239  25.289  37.733  1.00  0.00    -0.237 OA
ATOM     93  O   UNL A   1      45.021  26.117  38.417  1.00  0.00    -0.744 OA
ENDBRANCH  86  90
ENDBRANCH  60  83
ENDBRANCH  34  35
ENDBRANCH  26  29
ENDBRANCH  24  25
ENDBRANCH   1  24
TORSDOF 15
ENDMDL
