MODEL 1
REMARK VINA RESULT:     -12.0      0.000      0.000
REMARK SMILES O=C(Cn1c2ccccc2c(=O)c2ccccc21)N[C@@H](Cc1ccccc1)C(=O)NCCCNC(=O)c1ccc(-c2c3nc(c(-c4cc(S(=O)(=O)[O-])ccc4F)c4ccc([nH]4)c(-c4cc(S(=O)(=O)[O-])ccc4F)c4nc(c(-c5cc(S(=O)(=O)[O-])ccc5F)c5ccc2[nH]5)C=C4)C=C3)cc1
REMARK SMILES IDX 32 1 31 2 30 3 28 4 29 5 20 7 19 8 1 9 2 10 3 12 4 13 5 14
REMARK SMILES IDX 18 15 6 16 10 17 13 18 17 19 7 20 9 21 11 22 14 23 16 24
REMARK SMILES IDX 8 25 12 26 15 27 21 28 22 29 23 30 27 31 24 32 26 33 25 34
REMARK SMILES IDX 33 35 34 36 35 37 36 39 37 40 38 41 99 42 39 43 98 44 40 45
REMARK SMILES IDX 41 46 42 47 92 48 43 49 97 50 91 51 93 52 44 53 96 54 90 55
REMARK SMILES IDX 89 56 45 58 77 59 57 60 76 61 58 62 61 63 75 64 94 65 59 66
REMARK SMILES IDX 60 67 74 69 95 70 62 71 46 72 47 73 55 74 48 75 54 76 56 77
REMARK SMILES IDX 53 78 49 79 50 80 51 81 52 82 78 83 79 84 87 85 80 86 86 87
REMARK SMILES IDX 88 88 85 89 81 90 82 91 83 92 84 93 63 94 64 95 72 96 65 97
REMARK SMILES IDX 71 98 73 99 70 100 66 101 67 102 68 103 69 104
REMARK H PARENT 30 6 19 11 34 38 93 57 61 68
REMARK Flexibility Score: inf
ROOT
ATOM      1  C   UNL A   1      34.086  28.192  25.343  1.00  0.00     0.042 C 
ENDROOT
BRANCH   1   2
ATOM      2  C   UNL A   1      32.783  28.790  24.870  1.00  0.00     0.117 C 
BRANCH   2   3
ATOM      3  N   UNL A   1      31.622  28.356  25.625  1.00  0.00    -0.354 N 
ATOM      4  C   UNL A   1      31.168  27.081  25.812  1.00  0.00     0.242 C 
ATOM      5  O   UNL A   1      30.592  26.836  26.877  1.00  0.00    -0.273 OA
ATOM      6  H   UNL A   1      31.097  29.068  26.056  1.00  0.00     0.163 HD
BRANCH   4   7
ATOM      7  C   UNL A   1      31.426  25.965  24.780  1.00  0.00     0.175 C 
BRANCH   7   8
ATOM      8  N   UNL A   1      31.793  24.712  25.449  1.00  0.00    -0.342 N 
ATOM      9  O   UNL A   1      33.557  24.217  24.076  1.00  0.00    -0.273 OA
ATOM     10  C   UNL A   1      32.953  24.042  25.134  1.00  0.00     0.240 C 
ATOM     11  H   UNL A   1      31.196  24.342  26.139  1.00  0.00     0.164 HD
BRANCH  10  12
ATOM     12  C   UNL A   1      33.446  23.027  26.180  1.00  0.00     0.222 C 
BRANCH  12  13
ATOM     13  N   UNL A   1      34.550  22.146  25.700  1.00  0.00    -0.331 N 
ATOM     14  C   UNL A   1      34.225  20.804  25.343  1.00  0.00     0.053 A 
ATOM     15  C   UNL A   1      35.899  22.569  25.856  1.00  0.00     0.053 A 
ATOM     16  C   UNL A   1      32.920  20.280  25.339  1.00  0.00     0.027 A 
ATOM     17  C   UNL A   1      35.243  19.911  24.960  1.00  0.00     0.046 A 
ATOM     18  C   UNL A   1      36.954  21.694  25.513  1.00  0.00     0.046 A 
ATOM     19  C   UNL A   1      36.290  23.828  26.348  1.00  0.00     0.027 A 
ATOM     20  C   UNL A   1      32.647  18.963  24.935  1.00  0.00     0.002 A 
ATOM     21  C   UNL A   1      34.980  18.588  24.566  1.00  0.00     0.014 A 
ATOM     22  C   UNL A   1      36.644  20.362  24.965  1.00  0.00     0.197 A 
ATOM     23  C   UNL A   1      38.306  22.040  25.664  1.00  0.00     0.014 A 
ATOM     24  C   UNL A   1      37.640  24.181  26.504  1.00  0.00     0.002 A 
ATOM     25  C   UNL A   1      33.676  18.117  24.545  1.00  0.00     0.001 A 
ATOM     26  O   UNL A   1      37.524  19.649  24.494  1.00  0.00    -0.288 OA
ATOM     27  C   UNL A   1      38.645  23.287  26.164  1.00  0.00     0.001 A 
ENDBRANCH  12  13
ENDBRANCH  10  12
ENDBRANCH   7   8
BRANCH   7  28
ATOM     28  C   UNL A   1      30.383  25.879  23.645  1.00  0.00     0.070 C 
BRANCH  28  29
ATOM     29  C   UNL A   1      29.736  27.153  23.158  1.00  0.00    -0.045 A 
ATOM     30  C   UNL A   1      30.460  28.079  22.390  1.00  0.00     0.004 A 
ATOM     31  C   UNL A   1      28.408  27.450  23.498  1.00  0.00     0.004 A 
ATOM     32  C   UNL A   1      29.894  29.310  22.043  1.00  0.00     0.000 A 
ATOM     33  C   UNL A   1      27.840  28.673  23.134  1.00  0.00     0.000 A 
ATOM     34  C   UNL A   1      28.589  29.610  22.426  1.00  0.00     0.000 A 
ENDBRANCH  28  29
ENDBRANCH   7  28
ENDBRANCH   4   7
ENDBRANCH   2   3
ENDBRANCH   1   2
BRANCH   1  35
ATOM     35  C   UNL A   1      34.487  28.723  26.709  1.00  0.00     0.118 C 
BRANCH  35  36
ATOM     36  N   UNL A   1      34.336  30.178  26.819  1.00  0.00    -0.352 N 
ATOM     37  C   UNL A   1      34.953  31.093  27.647  1.00  0.00     0.251 C 
ATOM     38  H   UNL A   1      33.682  30.569  26.197  1.00  0.00     0.163 HD
ATOM     39  O   UNL A   1      34.521  32.242  27.712  1.00  0.00    -0.269 OA
BRANCH  37  40
ATOM     40  C   UNL A   1      36.095  30.671  28.483  1.00  0.00     0.039 A 
ATOM     41  C   UNL A   1      37.350  31.223  28.259  1.00  0.00     0.014 A 
ATOM     42  C   UNL A   1      35.935  29.675  29.450  1.00  0.00     0.014 A 
ATOM     43  C   UNL A   1      38.470  30.580  28.755  1.00  0.00     0.010 A 
ATOM     44  C   UNL A   1      37.063  29.140  30.084  1.00  0.00     0.010 A 
ATOM     45  C   UNL A   1      38.348  29.531  29.681  1.00  0.00    -0.014 A 
BRANCH  45  46
ATOM     46  C   UNL A   1      39.587  28.878  30.185  1.00  0.00     0.031 A 
ATOM     47  C   UNL A   1      40.250  27.765  29.413  1.00  0.00     0.074 A 
ATOM     48  C   UNL A   1      40.171  29.365  31.300  1.00  0.00     0.049 A 
ATOM     49  N   UNL A   1      41.340  27.103  29.705  1.00  0.00    -0.248 NA
ATOM     50  C   UNL A   1      39.609  27.326  28.162  1.00  0.00     0.031 C 
ATOM     51  C   UNL A   1      39.622  30.447  32.121  1.00  0.00     0.029 A 
ATOM     52  N   UNL A   1      41.364  29.066  31.909  1.00  0.00    -0.354 N 
ATOM     53  C   UNL A   1      41.493  26.150  28.705  1.00  0.00     0.074 A 
ATOM     54  C   UNL A   1      40.373  26.301  27.805  1.00  0.00     0.031 C 
ATOM     55  C   UNL A   1      40.516  30.790  33.055  1.00  0.00     0.029 A 
ATOM     56  C   UNL A   1      41.654  29.879  32.981  1.00  0.00     0.049 A 
ATOM     57  H   UNL A   1      41.956  28.339  31.608  1.00  0.00     0.167 HD
ATOM     58  C   UNL A   1      42.486  25.243  28.549  1.00  0.00     0.034 A 
ATOM     59  C   UNL A   1      42.703  29.888  33.829  1.00  0.00     0.034 A 
ATOM     60  C   UNL A   1      43.625  25.146  29.424  1.00  0.00     0.049 A 
ATOM     61  C   UNL A   1      43.802  28.883  33.618  1.00  0.00     0.074 A 
ATOM     62  C   UNL A   1      44.685  24.260  29.345  1.00  0.00     0.029 A 
ATOM     63  N   UNL A   1      43.872  25.972  30.509  1.00  0.00    -0.354 N 
ATOM     64  N   UNL A   1      43.917  27.982  32.670  1.00  0.00    -0.248 NA
ATOM     65  C   UNL A   1      44.905  28.879  34.587  1.00  0.00     0.031 C 
ATOM     66  C   UNL A   1      45.553  24.526  30.405  1.00  0.00     0.029 A 
ATOM     67  C   UNL A   1      45.064  25.611  31.114  1.00  0.00     0.049 A 
ATOM     68  H   UNL A   1      43.287  26.707  30.806  1.00  0.00     0.167 HD
ATOM     69  C   UNL A   1      45.105  27.306  32.927  1.00  0.00     0.074 A 
ATOM     70  C   UNL A   1      45.692  27.929  34.097  1.00  0.00     0.031 C 
ATOM     71  C   UNL A   1      45.648  26.255  32.265  1.00  0.00     0.034 A 
BRANCH  58  72
ATOM     72  C   UNL A   1      42.428  24.288  27.385  1.00  0.00     0.023 A 
ATOM     73  C   UNL A   1      41.947  22.977  27.569  1.00  0.00     0.031 A 
ATOM     74  C   UNL A   1      42.990  24.623  26.142  1.00  0.00     0.131 A 
ATOM     75  C   UNL A   1      42.063  22.043  26.530  1.00  0.00     0.055 A 
ATOM     76  C   UNL A   1      43.064  23.702  25.097  1.00  0.00     0.041 A 
ATOM     77  F   UNL A   1      43.487  25.851  25.933  1.00  0.00    -0.206 F 
ATOM     78  C   UNL A   1      42.610  22.401  25.293  1.00  0.00     0.022 A 
BRANCH  75  79
ATOM     79  S   UNL A   1      41.589  20.308  26.769  1.00  0.00     0.124 S 
ATOM     80  O   UNL A   1      41.002  19.981  25.472  1.00  0.00    -0.237 OA
ATOM     81  O   UNL A   1      42.876  19.676  27.048  1.00  0.00    -0.237 OA
ATOM     82  O   UNL A   1      40.651  20.351  27.884  1.00  0.00    -0.744 OA
ENDBRANCH  75  79
ENDBRANCH  58  72
BRANCH  59  83
ATOM     83  C   UNL A   1      42.742  30.903  34.924  1.00  0.00     0.023 A 
ATOM     84  C   UNL A   1      43.310  32.172  34.706  1.00  0.00     0.031 A 
ATOM     85  C   UNL A   1      42.348  30.576  36.232  1.00  0.00     0.131 A 
ATOM     86  C   UNL A   1      43.558  33.025  35.788  1.00  0.00     0.055 A 
ATOM     87  C   UNL A   1      42.518  31.464  37.296  1.00  0.00     0.041 A 
ATOM     88  F   UNL A   1      41.809  29.376  36.496  1.00  0.00    -0.206 F 
ATOM     89  C   UNL A   1      43.149  32.687  37.080  1.00  0.00     0.022 A 
BRANCH  86  90
ATOM     90  S   UNL A   1      44.576  34.514  35.578  1.00  0.00     0.124 S 
ATOM     91  O   UNL A   1      43.777  35.299  34.645  1.00  0.00    -0.237 OA
ATOM     92  O   UNL A   1      44.640  35.029  36.944  1.00  0.00    -0.237 OA
ATOM     93  O   UNL A   1      45.836  33.997  35.056  1.00  0.00    -0.744 OA
ENDBRANCH  86  90
ENDBRANCH  59  83
BRANCH  71  94
ATOM     94  C   UNL A   1      46.947  25.680  32.771  1.00  0.00     0.023 A 
ATOM     95  C   UNL A   1      46.933  24.674  33.754  1.00  0.00     0.031 A 
ATOM     96  C   UNL A   1      48.180  26.248  32.409  1.00  0.00     0.131 A 
ATOM     97  C   UNL A   1      48.129  24.299  34.379  1.00  0.00     0.055 A 
ATOM     98  C   UNL A   1      49.374  25.838  33.002  1.00  0.00     0.041 A 
ATOM     99  F   UNL A   1      48.237  27.220  31.485  1.00  0.00    -0.206 F 
ATOM    100  C   UNL A   1      49.349  24.870  34.003  1.00  0.00     0.022 A 
BRANCH  97 101
ATOM    101  S   UNL A   1      48.133  23.129  35.764  1.00  0.00     0.124 S 
ATOM    102  O   UNL A   1      48.553  21.890  35.113  1.00  0.00    -0.237 OA
ATOM    103  O   UNL A   1      49.117  23.724  36.665  1.00  0.00    -0.237 OA
ATOM    104  O   UNL A   1      46.755  23.143  36.243  1.00  0.00    -0.744 OA
ENDBRANCH  97 101
ENDBRANCH  71  94
ENDBRANCH  45  46
ENDBRANCH  37  40
ENDBRANCH  35  36
ENDBRANCH   1  35
TORSDOF 18
ENDMDL
MODEL 2
REMARK VINA RESULT:     -11.7      1.422      2.508
REMARK SMILES O=C(Cn1c2ccccc2c(=O)c2ccccc21)N[C@@H](Cc1ccccc1)C(=O)NCCCNC(=O)c1ccc(-c2c3nc(c(-c4cc(S(=O)(=O)[O-])ccc4F)c4ccc([nH]4)c(-c4cc(S(=O)(=O)[O-])ccc4F)c4nc(c(-c5cc(S(=O)(=O)[O-])ccc5F)c5ccc2[nH]5)C=C4)C=C3)cc1
REMARK SMILES IDX 32 1 31 2 30 3 28 4 29 5 20 7 19 8 1 9 2 10 3 12 4 13 5 14
REMARK SMILES IDX 18 15 6 16 10 17 13 18 17 19 7 20 9 21 11 22 14 23 16 24
REMARK SMILES IDX 8 25 12 26 15 27 21 28 22 29 23 30 27 31 24 32 26 33 25 34
REMARK SMILES IDX 33 35 34 36 35 37 36 39 37 40 38 41 99 42 39 43 98 44 40 45
REMARK SMILES IDX 41 46 42 47 92 48 43 49 97 50 91 51 93 52 44 53 96 54 90 55
REMARK SMILES IDX 89 56 45 58 77 59 57 60 76 61 58 62 61 63 75 64 94 65 59 66
REMARK SMILES IDX 60 67 74 69 95 70 62 71 46 72 47 73 55 74 48 75 54 76 56 77
REMARK SMILES IDX 53 78 49 79 50 80 51 81 52 82 78 83 79 84 87 85 80 86 86 87
REMARK SMILES IDX 88 88 85 89 81 90 82 91 83 92 84 93 63 94 64 95 72 96 65 97
REMARK SMILES IDX 71 98 73 99 70 100 66 101 67 102 68 103 69 104
REMARK H PARENT 30 6 19 11 34 38 93 57 61 68
REMARK Flexibility Score: inf
ROOT
ATOM      1  C   UNL A   1      34.653  28.389  25.853  1.00  0.00     0.042 C 
ENDROOT
BRANCH   1   2
ATOM      2  C   UNL A   1      33.688  27.418  25.215  1.00  0.00     0.117 C 
BRANCH   2   3
ATOM      3  N   UNL A   1      32.327  27.524  25.708  1.00  0.00    -0.354 N 
ATOM      4  C   UNL A   1      31.370  26.551  25.756  1.00  0.00     0.242 C 
ATOM      5  O   UNL A   1      30.548  26.611  26.677  1.00  0.00    -0.273 OA
ATOM      6  H   UNL A   1      32.061  28.408  26.051  1.00  0.00     0.163 HD
BRANCH   4   7
ATOM      7  C   UNL A   1      31.353  25.376  24.757  1.00  0.00     0.175 C 
BRANCH   7   8
ATOM      8  N   UNL A   1      31.374  24.091  25.465  1.00  0.00    -0.342 N 
ATOM      9  O   UNL A   1      32.201  22.869  23.714  1.00  0.00    -0.273 OA
ATOM     10  C   UNL A   1      31.974  22.980  24.919  1.00  0.00     0.240 C 
ATOM     11  H   UNL A   1      30.949  24.022  26.350  1.00  0.00     0.164 HD
BRANCH  10  12
ATOM     12  C   UNL A   1      32.328  21.855  25.907  1.00  0.00     0.222 C 
BRANCH  12  13
ATOM     13  N   UNL A   1      33.639  21.198  25.637  1.00  0.00    -0.331 N 
ATOM     14  C   UNL A   1      34.804  22.021  25.603  1.00  0.00     0.053 A 
ATOM     15  C   UNL A   1      33.665  19.853  25.174  1.00  0.00     0.053 A 
ATOM     16  C   UNL A   1      34.807  23.400  25.883  1.00  0.00     0.027 A 
ATOM     17  C   UNL A   1      36.053  21.462  25.275  1.00  0.00     0.046 A 
ATOM     18  C   UNL A   1      34.894  19.261  24.804  1.00  0.00     0.046 A 
ATOM     19  C   UNL A   1      32.531  19.033  25.038  1.00  0.00     0.027 A 
ATOM     20  C   UNL A   1      35.989  24.159  25.880  1.00  0.00     0.002 A 
ATOM     21  C   UNL A   1      37.238  22.217  25.257  1.00  0.00     0.014 A 
ATOM     22  C   UNL A   1      36.142  20.034  24.934  1.00  0.00     0.197 A 
ATOM     23  C   UNL A   1      34.986  17.947  24.317  1.00  0.00     0.014 A 
ATOM     24  C   UNL A   1      32.615  17.719  24.551  1.00  0.00     0.002 A 
ATOM     25  C   UNL A   1      37.205  23.568  25.570  1.00  0.00     0.001 A 
ATOM     26  O   UNL A   1      37.236  19.499  24.793  1.00  0.00    -0.288 OA
ATOM     27  C   UNL A   1      33.840  17.178  24.190  1.00  0.00     0.001 A 
ENDBRANCH  12  13
ENDBRANCH  10  12
ENDBRANCH   7   8
BRANCH   7  28
ATOM     28  C   UNL A   1      30.343  25.526  23.599  1.00  0.00     0.070 C 
BRANCH  28  29
ATOM     29  C   UNL A   1      29.817  26.903  23.271  1.00  0.00    -0.045 A 
ATOM     30  C   UNL A   1      28.500  27.265  23.595  1.00  0.00     0.004 A 
ATOM     31  C   UNL A   1      30.628  27.833  22.604  1.00  0.00     0.004 A 
ATOM     32  C   UNL A   1      27.981  28.497  23.185  1.00  0.00     0.000 A 
ATOM     33  C   UNL A   1      30.112  29.070  22.211  1.00  0.00     0.000 A 
ATOM     34  C   UNL A   1      28.784  29.393  22.483  1.00  0.00     0.000 A 
ENDBRANCH  28  29
ENDBRANCH   7  28
ENDBRANCH   4   7
ENDBRANCH   2   3
ENDBRANCH   1   2
BRANCH   1  35
ATOM     35  C   UNL A   1      34.039  29.085  27.056  1.00  0.00     0.118 C 
BRANCH  35  36
ATOM     36  N   UNL A   1      34.108  30.548  26.962  1.00  0.00    -0.352 N 
ATOM     37  C   UNL A   1      34.890  31.462  27.635  1.00  0.00     0.251 C 
ATOM     38  H   UNL A   1      33.490  30.944  26.307  1.00  0.00     0.163 HD
ATOM     39  O   UNL A   1      34.635  32.662  27.547  1.00  0.00    -0.269 OA
BRANCH  37  40
ATOM     40  C   UNL A   1      35.995  30.991  28.494  1.00  0.00     0.039 A 
ATOM     41  C   UNL A   1      37.235  31.613  28.421  1.00  0.00     0.014 A 
ATOM     42  C   UNL A   1      35.820  29.883  29.329  1.00  0.00     0.014 A 
ATOM     43  C   UNL A   1      38.349  30.961  28.917  1.00  0.00     0.010 A 
ATOM     44  C   UNL A   1      36.930  29.322  29.973  1.00  0.00     0.010 A 
ATOM     45  C   UNL A   1      38.218  29.807  29.707  1.00  0.00    -0.014 A 
BRANCH  45  46
ATOM     46  C   UNL A   1      39.452  29.148  30.217  1.00  0.00     0.031 A 
ATOM     47  C   UNL A   1      40.137  28.061  29.427  1.00  0.00     0.074 A 
ATOM     48  C   UNL A   1      40.010  29.608  31.356  1.00  0.00     0.049 A 
ATOM     49  N   UNL A   1      41.226  27.398  29.723  1.00  0.00    -0.248 NA
ATOM     50  C   UNL A   1      39.523  27.652  28.152  1.00  0.00     0.031 C 
ATOM     51  C   UNL A   1      39.438  30.664  32.195  1.00  0.00     0.029 A 
ATOM     52  N   UNL A   1      41.193  29.300  31.979  1.00  0.00    -0.354 N 
ATOM     53  C   UNL A   1      41.404  26.474  28.700  1.00  0.00     0.074 A 
ATOM     54  C   UNL A   1      40.301  26.642  27.783  1.00  0.00     0.031 C 
ATOM     55  C   UNL A   1      40.312  30.987  33.155  1.00  0.00     0.029 A 
ATOM     56  C   UNL A   1      41.457  30.085  33.079  1.00  0.00     0.049 A 
ATOM     57  H   UNL A   1      41.796  28.585  31.670  1.00  0.00     0.167 HD
ATOM     58  C   UNL A   1      42.406  25.578  28.539  1.00  0.00     0.034 A 
ATOM     59  C   UNL A   1      42.489  30.077  33.946  1.00  0.00     0.034 A 
ATOM     60  C   UNL A   1      43.528  25.464  29.432  1.00  0.00     0.049 A 
ATOM     61  C   UNL A   1      43.599  29.085  33.730  1.00  0.00     0.074 A 
ATOM     62  C   UNL A   1      44.596  24.587  29.351  1.00  0.00     0.029 A 
ATOM     63  N   UNL A   1      43.749  26.262  30.545  1.00  0.00    -0.354 N 
ATOM     64  N   UNL A   1      43.739  28.211  32.760  1.00  0.00    -0.248 NA
ATOM     65  C   UNL A   1      44.683  29.062  34.719  1.00  0.00     0.031 C 
ATOM     66  C   UNL A   1      45.441  24.829  30.433  1.00  0.00     0.029 A 
ATOM     67  C   UNL A   1      44.932  25.891  31.162  1.00  0.00     0.049 A 
ATOM     68  H   UNL A   1      43.154  26.984  30.850  1.00  0.00     0.167 HD
ATOM     69  C   UNL A   1      44.926  27.537  33.021  1.00  0.00     0.074 A 
ATOM     70  C   UNL A   1      45.486  28.130  34.219  1.00  0.00     0.031 C 
ATOM     71  C   UNL A   1      45.489  26.508  32.342  1.00  0.00     0.034 A 
BRANCH  58  72
ATOM     72  C   UNL A   1      42.377  24.654  27.348  1.00  0.00     0.023 A 
ATOM     73  C   UNL A   1      41.869  23.348  27.478  1.00  0.00     0.031 A 
ATOM     74  C   UNL A   1      42.991  25.012  26.137  1.00  0.00     0.131 A 
ATOM     75  C   UNL A   1      42.009  22.440  26.420  1.00  0.00     0.055 A 
ATOM     76  C   UNL A   1      43.090  24.118  25.071  1.00  0.00     0.041 A 
ATOM     77  F   UNL A   1      43.515  26.237  25.979  1.00  0.00    -0.206 F 
ATOM     78  C   UNL A   1      42.609  22.820  25.215  1.00  0.00     0.022 A 
BRANCH  75  79
ATOM     79  S   UNL A   1      41.499  20.707  26.594  1.00  0.00     0.124 S 
ATOM     80  O   UNL A   1      42.017  20.378  27.921  1.00  0.00    -0.237 OA
ATOM     81  O   UNL A   1      40.045  20.805  26.499  1.00  0.00    -0.237 OA
ATOM     82  O   UNL A   1      42.161  20.034  25.484  1.00  0.00    -0.744 OA
ENDBRANCH  75  79
ENDBRANCH  58  72
BRANCH  59  83
ATOM     83  C   UNL A   1      42.500  31.062  35.069  1.00  0.00     0.023 A 
ATOM     84  C   UNL A   1      43.162  32.297  34.934  1.00  0.00     0.031 A 
ATOM     85  C   UNL A   1      41.979  30.731  36.331  1.00  0.00     0.131 A 
ATOM     86  C   UNL A   1      43.372  33.107  36.056  1.00  0.00     0.055 A 
ATOM     87  C   UNL A   1      42.115  31.582  37.430  1.00  0.00     0.041 A 
ATOM     88  F   UNL A   1      41.347  29.562  36.517  1.00  0.00    -0.206 F 
ATOM     89  C   UNL A   1      42.837  32.766  37.301  1.00  0.00     0.022 A 
BRANCH  86  90
ATOM     90  S   UNL A   1      44.495  34.532  35.973  1.00  0.00     0.124 S 
ATOM     91  O   UNL A   1      43.675  35.597  36.538  1.00  0.00    -0.237 OA
ATOM     92  O   UNL A   1      45.610  34.084  36.804  1.00  0.00    -0.237 OA
ATOM     93  O   UNL A   1      44.795  34.649  34.550  1.00  0.00    -0.744 OA
ENDBRANCH  86  90
ENDBRANCH  59  83
BRANCH  71  94
ATOM     94  C   UNL A   1      46.782  25.927  32.857  1.00  0.00     0.023 A 
ATOM     95  C   UNL A   1      47.979  26.146  32.151  1.00  0.00     0.031 A 
ATOM     96  C   UNL A   1      46.793  25.024  33.932  1.00  0.00     0.131 A 
ATOM     97  C   UNL A   1      49.131  25.430  32.501  1.00  0.00     0.055 A 
ATOM     98  C   UNL A   1      47.954  24.348  34.306  1.00  0.00     0.041 A 
ATOM     99  F   UNL A   1      45.669  24.775  34.624  1.00  0.00    -0.206 F 
ATOM    100  C   UNL A   1      49.126  24.538  33.579  1.00  0.00     0.022 A 
BRANCH  97 101
ATOM    101  S   UNL A   1      50.647  25.558  31.515  1.00  0.00     0.124 S 
ATOM    102  O   UNL A   1      50.202  26.363  30.379  1.00  0.00    -0.237 OA
ATOM    103  O   UNL A   1      51.557  26.231  32.437  1.00  0.00    -0.237 OA
ATOM    104  O   UNL A   1      50.982  24.173  31.201  1.00  0.00    -0.744 OA
ENDBRANCH  97 101
ENDBRANCH  71  94
ENDBRANCH  45  46
ENDBRANCH  37  40
ENDBRANCH  35  36
ENDBRANCH   1  35
TORSDOF 18
ENDMDL
MODEL 3
REMARK VINA RESULT:     -11.5      4.540      9.685
REMARK SMILES O=C(Cn1c2ccccc2c(=O)c2ccccc21)N[C@@H](Cc1ccccc1)C(=O)NCCCNC(=O)c1ccc(-c2c3nc(c(-c4cc(S(=O)(=O)[O-])ccc4F)c4ccc([nH]4)c(-c4cc(S(=O)(=O)[O-])ccc4F)c4nc(c(-c5cc(S(=O)(=O)[O-])ccc5F)c5ccc2[nH]5)C=C4)C=C3)cc1
REMARK SMILES IDX 32 1 31 2 30 3 28 4 29 5 20 7 19 8 1 9 2 10 3 12 4 13 5 14
REMARK SMILES IDX 18 15 6 16 10 17 13 18 17 19 7 20 9 21 11 22 14 23 16 24
REMARK SMILES IDX 8 25 12 26 15 27 21 28 22 29 23 30 27 31 24 32 26 33 25 34
REMARK SMILES IDX 33 35 34 36 35 37 36 39 37 40 38 41 99 42 39 43 98 44 40 45
REMARK SMILES IDX 41 46 42 47 92 48 43 49 97 50 91 51 93 52 44 53 96 54 90 55
REMARK SMILES IDX 89 56 45 58 77 59 57 60 76 61 58 62 61 63 75 64 94 65 59 66
REMARK SMILES IDX 60 67 74 69 95 70 62 71 46 72 47 73 55 74 48 75 54 76 56 77
REMARK SMILES IDX 53 78 49 79 50 80 51 81 52 82 78 83 79 84 87 85 80 86 86 87
REMARK SMILES IDX 88 88 85 89 81 90 82 91 83 92 84 93 63 94 64 95 72 96 65 97
REMARK SMILES IDX 71 98 73 99 70 100 66 101 67 102 68 103 69 104
REMARK H PARENT 30 6 19 11 34 38 93 57 61 68
REMARK Flexibility Score: inf
ROOT
ATOM      1  C   UNL A   1      37.651  20.584  25.737  1.00  0.00     0.042 C 
ENDROOT
BRANCH   1   2
ATOM      2  C   UNL A   1      36.715  21.764  25.629  1.00  0.00     0.117 C 
BRANCH   2   3
ATOM      3  N   UNL A   1      35.944  21.800  24.400  1.00  0.00    -0.354 N 
ATOM      4  C   UNL A   1      34.630  22.131  24.239  1.00  0.00     0.242 C 
ATOM      5  O   UNL A   1      34.306  22.665  23.173  1.00  0.00    -0.273 OA
ATOM      6  H   UNL A   1      36.431  21.555  23.580  1.00  0.00     0.163 HD
BRANCH   4   7
ATOM      7  C   UNL A   1      33.595  21.927  25.364  1.00  0.00     0.175 C 
BRANCH   7   8
ATOM      8  N   UNL A   1      32.407  22.758  25.137  1.00  0.00    -0.342 N 
ATOM      9  O   UNL A   1      32.254  23.546  27.281  1.00  0.00    -0.273 OA
ATOM     10  C   UNL A   1      31.953  23.639  26.091  1.00  0.00     0.240 C 
ATOM     11  H   UNL A   1      31.924  22.684  24.282  1.00  0.00     0.164 HD
BRANCH  10  12
ATOM     12  C   UNL A   1      31.013  24.747  25.587  1.00  0.00     0.222 C 
BRANCH  12  13
ATOM     13  N   UNL A   1      31.717  25.907  24.966  1.00  0.00    -0.331 N 
ATOM     14  C   UNL A   1      31.807  27.114  25.720  1.00  0.00     0.053 A 
ATOM     15  C   UNL A   1      32.040  25.869  23.580  1.00  0.00     0.053 A 
ATOM     16  C   UNL A   1      31.344  27.259  27.040  1.00  0.00     0.027 A 
ATOM     17  C   UNL A   1      32.391  28.260  25.148  1.00  0.00     0.046 A 
ATOM     18  C   UNL A   1      32.600  27.007  22.958  1.00  0.00     0.046 A 
ATOM     19  C   UNL A   1      31.834  24.758  22.743  1.00  0.00     0.027 A 
ATOM     20  C   UNL A   1      31.497  28.458  27.757  1.00  0.00     0.002 A 
ATOM     21  C   UNL A   1      32.537  29.467  25.854  1.00  0.00     0.014 A 
ATOM     22  C   UNL A   1      32.875  28.212  23.760  1.00  0.00     0.197 A 
ATOM     23  C   UNL A   1      32.919  27.044  21.592  1.00  0.00     0.014 A 
ATOM     24  C   UNL A   1      32.149  24.787  21.375  1.00  0.00     0.002 A 
ATOM     25  C   UNL A   1      32.096  29.561  27.166  1.00  0.00     0.001 A 
ATOM     26  O   UNL A   1      33.518  29.148  23.297  1.00  0.00    -0.288 OA
ATOM     27  C   UNL A   1      32.689  25.929  20.801  1.00  0.00     0.001 A 
ENDBRANCH  12  13
ENDBRANCH  10  12
ENDBRANCH   7   8
BRANCH   7  28
ATOM     28  C   UNL A   1      33.358  20.455  25.767  1.00  0.00     0.070 C 
BRANCH  28  29
ATOM     29  C   UNL A   1      33.393  19.396  24.692  1.00  0.00    -0.045 A 
ATOM     30  C   UNL A   1      32.397  19.342  23.704  1.00  0.00     0.004 A 
ATOM     31  C   UNL A   1      34.405  18.426  24.684  1.00  0.00     0.004 A 
ATOM     32  C   UNL A   1      32.367  18.290  22.783  1.00  0.00     0.000 A 
ATOM     33  C   UNL A   1      34.383  17.386  23.751  1.00  0.00     0.000 A 
ATOM     34  C   UNL A   1      33.354  17.307  22.815  1.00  0.00     0.000 A 
ENDBRANCH  28  29
ENDBRANCH   7  28
ENDBRANCH   4   7
ENDBRANCH   2   3
ENDBRANCH   1   2
BRANCH   1  35
ATOM     35  C   UNL A   1      39.108  21.015  25.688  1.00  0.00     0.118 C 
BRANCH  35  36
ATOM     36  N   UNL A   1      40.036  19.915  25.976  1.00  0.00    -0.352 N 
ATOM     37  C   UNL A   1      41.383  19.921  26.271  1.00  0.00     0.251 C 
ATOM     38  H   UNL A   1      39.627  19.021  25.954  1.00  0.00     0.163 HD
ATOM     39  O   UNL A   1      42.009  18.863  26.272  1.00  0.00    -0.269 OA
BRANCH  37  40
ATOM     40  C   UNL A   1      42.070  21.201  26.534  1.00  0.00     0.039 A 
ATOM     41  C   UNL A   1      42.288  21.606  27.844  1.00  0.00     0.014 A 
ATOM     42  C   UNL A   1      42.442  22.036  25.476  1.00  0.00     0.014 A 
ATOM     43  C   UNL A   1      42.573  22.935  28.103  1.00  0.00     0.010 A 
ATOM     44  C   UNL A   1      42.898  23.332  25.747  1.00  0.00     0.010 A 
ATOM     45  C   UNL A   1      42.889  23.821  27.061  1.00  0.00    -0.014 A 
BRANCH  45  46
ATOM     46  C   UNL A   1      43.191  25.240  27.397  1.00  0.00     0.031 A 
ATOM     47  C   UNL A   1      42.147  26.131  28.022  1.00  0.00     0.074 A 
ATOM     48  C   UNL A   1      44.451  25.693  27.229  1.00  0.00     0.049 A 
ATOM     49  N   UNL A   1      42.253  27.382  28.390  1.00  0.00    -0.248 NA
ATOM     50  C   UNL A   1      40.810  25.558  28.254  1.00  0.00     0.031 C 
ATOM     51  C   UNL A   1      45.544  24.913  26.643  1.00  0.00     0.029 A 
ATOM     52  N   UNL A   1      45.045  26.881  27.573  1.00  0.00    -0.354 N 
ATOM     53  C   UNL A   1      40.998  27.756  28.855  1.00  0.00     0.074 A 
ATOM     54  C   UNL A   1      40.135  26.607  28.706  1.00  0.00     0.031 C 
ATOM     55  C   UNL A   1      46.687  25.596  26.764  1.00  0.00     0.029 A 
ATOM     56  C   UNL A   1      46.399  26.911  27.326  1.00  0.00     0.049 A 
ATOM     57  H   UNL A   1      44.550  27.640  27.960  1.00  0.00     0.167 HD
ATOM     58  C   UNL A   1      40.611  28.945  29.372  1.00  0.00     0.034 A 
ATOM     59  C   UNL A   1      47.312  27.887  27.509  1.00  0.00     0.034 A 
ATOM     60  C   UNL A   1      41.500  30.060  29.568  1.00  0.00     0.049 A 
ATOM     61  C   UNL A   1      46.856  29.191  28.105  1.00  0.00     0.074 A 
ATOM     62  C   UNL A   1      41.200  31.307  30.087  1.00  0.00     0.029 A 
ATOM     63  N   UNL A   1      42.857  30.059  29.286  1.00  0.00    -0.354 N 
ATOM     64  N   UNL A   1      45.658  29.525  28.527  1.00  0.00    -0.248 NA
ATOM     65  C   UNL A   1      47.859  30.254  28.243  1.00  0.00     0.031 C 
ATOM     66  C   UNL A   1      42.366  32.072  30.084  1.00  0.00     0.029 A 
ATOM     67  C   UNL A   1      43.407  31.287  29.614  1.00  0.00     0.049 A 
ATOM     68  H   UNL A   1      43.357  29.299  28.910  1.00  0.00     0.167 HD
ATOM     69  C   UNL A   1      45.764  30.834  28.981  1.00  0.00     0.074 A 
ATOM     70  C   UNL A   1      47.152  31.219  28.820  1.00  0.00     0.031 C 
ATOM     71  C   UNL A   1      44.796  31.648  29.469  1.00  0.00     0.034 A 
BRANCH  58  72
ATOM     72  C   UNL A   1      39.175  29.126  29.796  1.00  0.00     0.023 A 
ATOM     73  C   UNL A   1      38.306  29.924  29.029  1.00  0.00     0.031 A 
ATOM     74  C   UNL A   1      38.718  28.640  31.032  1.00  0.00     0.131 A 
ATOM     75  C   UNL A   1      37.031  30.232  29.522  1.00  0.00     0.055 A 
ATOM     76  C   UNL A   1      37.432  28.914  31.499  1.00  0.00     0.041 A 
ATOM     77  F   UNL A   1      39.523  27.900  31.809  1.00  0.00    -0.206 F 
ATOM     78  C   UNL A   1      36.586  29.725  30.748  1.00  0.00     0.022 A 
BRANCH  75  79
ATOM     79  S   UNL A   1      35.931  31.372  28.637  1.00  0.00     0.124 S 
ATOM     80  O   UNL A   1      36.829  32.490  28.354  1.00  0.00    -0.237 OA
ATOM     81  O   UNL A   1      35.539  30.579  27.476  1.00  0.00    -0.237 OA
ATOM     82  O   UNL A   1      34.871  31.654  29.597  1.00  0.00    -0.744 OA
ENDBRANCH  75  79
ENDBRANCH  58  72
BRANCH  59  83
ATOM     83  C   UNL A   1      48.734  27.630  27.134  1.00  0.00     0.023 A 
ATOM     84  C   UNL A   1      49.196  27.910  25.834  1.00  0.00     0.031 A 
ATOM     85  C   UNL A   1      49.610  26.974  28.015  1.00  0.00     0.131 A 
ATOM     86  C   UNL A   1      50.452  27.450  25.421  1.00  0.00     0.055 A 
ATOM     87  C   UNL A   1      50.897  26.593  27.626  1.00  0.00     0.041 A 
ATOM     88  F   UNL A   1      49.218  26.675  29.263  1.00  0.00    -0.206 F 
ATOM     89  C   UNL A   1      51.314  26.808  26.315  1.00  0.00     0.022 A 
BRANCH  86  90
ATOM     90  S   UNL A   1      50.931  27.511  23.671  1.00  0.00     0.124 S 
ATOM     91  O   UNL A   1      49.782  26.891  23.021  1.00  0.00    -0.237 OA
ATOM     92  O   UNL A   1      51.083  28.947  23.451  1.00  0.00    -0.237 OA
ATOM     93  O   UNL A   1      52.173  26.747  23.628  1.00  0.00    -0.744 OA
ENDBRANCH  86  90
ENDBRANCH  59  83
BRANCH  71  94
ATOM     94  C   UNL A   1      45.171  33.053  29.871  1.00  0.00     0.023 A 
ATOM     95  C   UNL A   1      45.152  34.084  28.914  1.00  0.00     0.031 A 
ATOM     96  C   UNL A   1      45.708  33.324  31.140  1.00  0.00     0.131 A 
ATOM     97  C   UNL A   1      45.708  35.331  29.228  1.00  0.00     0.055 A 
ATOM     98  C   UNL A   1      46.218  34.582  31.463  1.00  0.00     0.041 A 
ATOM     99  F   UNL A   1      45.758  32.365  32.078  1.00  0.00    -0.206 F 
ATOM    100  C   UNL A   1      46.233  35.587  30.499  1.00  0.00     0.022 A 
BRANCH  97 101
ATOM    101  S   UNL A   1      45.854  36.632  27.974  1.00  0.00     0.124 S 
ATOM    102  O   UNL A   1      46.940  36.125  27.138  1.00  0.00    -0.237 OA
ATOM    103  O   UNL A   1      44.531  36.613  27.356  1.00  0.00    -0.237 OA
ATOM    104  O   UNL A   1      46.171  37.831  28.743  1.00  0.00    -0.744 OA
ENDBRANCH  97 101
ENDBRANCH  71  94
ENDBRANCH  45  46
ENDBRANCH  37  40
ENDBRANCH  35  36
ENDBRANCH   1  35
TORSDOF 18
ENDMDL
