MODEL 1
REMARK VINA RESULT:     -12.7      0.000      0.000
REMARK SMILES C[C@]1(c2ccccc2C(=O)NCCCNC(=O)c2ccc(-c3c4nc(c(-c5cc(S(=O)(=O)[O-])ccc5F)c5ccc([nH]5)c(-c5cc(S(=O)(=O)[O-])ccc5F)c5nc(c(-c6cc(S(=O)(=O)[O-])ccc6F)c6ccc3[nH]6)C=C5)C=C4)cc2)NN=C(c2ccccc2)S1
REMARK SMILES IDX 13 1 12 2 11 3 9 4 10 5 8 7 3 8 4 9 5 10 7 11 6 12 2 13 1 14
REMARK SMILES IDX 81 15 90 16 82 17 83 19 84 20 85 21 89 22 86 23 88 24 87 25
REMARK SMILES IDX 14 26 15 27 16 28 17 30 18 31 19 32 80 33 20 34 79 35 21 36
REMARK SMILES IDX 22 37 23 38 73 39 24 40 78 41 72 42 74 43 25 44 77 45 71 46
REMARK SMILES IDX 70 47 26 49 58 50 38 51 57 52 39 53 42 54 56 55 75 56 40 57
REMARK SMILES IDX 41 58 55 60 76 61 43 62 27 63 28 64 36 65 29 66 35 67 37 68
REMARK SMILES IDX 34 69 30 70 31 71 32 72 33 73 59 74 60 75 68 76 61 77 67 78
REMARK SMILES IDX 69 79 66 80 62 81 63 82 64 83 65 84 44 85 45 86 53 87 46 88
REMARK SMILES IDX 52 89 54 90 51 91 47 92 48 93 49 94 50 95
REMARK H PARENT 11 6 81 18 15 29 74 48 42 59
REMARK Flexibility Score: inf
ROOT
ATOM      1  C   UNL A   1      32.624  29.017  25.267  1.00  0.00     0.042 C 
ENDROOT
BRANCH   1   2
ATOM      2  C   UNL A   1      33.533  27.775  25.437  1.00  0.00     0.118 C 
BRANCH   2   3
ATOM      3  N   UNL A   1      33.830  26.985  24.249  1.00  0.00    -0.352 N 
ATOM      4  C   UNL A   1      33.897  25.642  23.939  1.00  0.00     0.251 C 
ATOM      5  O   UNL A   1      33.838  25.376  22.731  1.00  0.00    -0.269 OA
ATOM      6  H   UNL A   1      34.036  27.553  23.472  1.00  0.00     0.163 HD
BRANCH   4   7
ATOM      7  C   UNL A   1      34.011  24.463  24.876  1.00  0.00     0.046 A 
ATOM      8  C   UNL A   1      33.011  23.898  25.725  1.00  0.00     0.002 A 
ATOM      9  C   UNL A   1      33.424  22.918  26.675  1.00  0.00     0.008 A 
ATOM     10  C   UNL A   1      34.760  22.580  26.873  1.00  0.00     0.000 A 
ATOM     11  C   UNL A   1      35.363  24.105  25.116  1.00  0.00     0.014 A 
ATOM     12  C   UNL A   1      35.735  23.189  26.105  1.00  0.00     0.001 A 
BRANCH   8  13
ATOM     13  C   UNL A   1      31.515  24.241  25.722  1.00  0.00     0.129 C 
ATOM     14  C   UNL A   1      30.770  23.025  26.301  1.00  0.00     0.054 C 
ATOM     15  N   UNL A   1      31.143  25.417  26.556  1.00  0.00    -0.288 NA
ATOM     16  S   UNL A   1      30.949  24.755  24.088  1.00  0.00    -0.070 SA
ATOM     17  N   UNL A   1      30.278  26.347  26.007  1.00  0.00    -0.171 NA
ATOM     18  H   UNL A   1      31.499  25.528  27.467  1.00  0.00     0.185 HD
ATOM     19  C   UNL A   1      30.149  26.133  24.740  1.00  0.00     0.126 C 
BRANCH  19  20
ATOM     20  C   UNL A   1      29.468  26.918  23.714  1.00  0.00     0.009 A 
ATOM     21  C   UNL A   1      28.089  27.089  23.876  1.00  0.00     0.011 A 
ATOM     22  C   UNL A   1      30.217  27.827  22.955  1.00  0.00     0.011 A 
ATOM     23  C   UNL A   1      27.466  28.204  23.317  1.00  0.00     0.001 A 
ATOM     24  C   UNL A   1      29.582  28.938  22.401  1.00  0.00     0.001 A 
ATOM     25  C   UNL A   1      28.215  29.134  22.597  1.00  0.00     0.000 A 
ENDBRANCH  19  20
ENDBRANCH   8  13
ENDBRANCH   4   7
ENDBRANCH   2   3
ENDBRANCH   1   2
BRANCH   1  26
ATOM     26  C   UNL A   1      31.976  29.645  26.511  1.00  0.00     0.118 C 
BRANCH  26  27
ATOM     27  N   UNL A   1      32.108  31.096  26.471  1.00  0.00    -0.352 N 
ATOM     28  C   UNL A   1      32.928  31.960  27.161  1.00  0.00     0.251 C 
ATOM     29  H   UNL A   1      31.501  31.539  25.834  1.00  0.00     0.163 HD
ATOM     30  O   UNL A   1      32.553  33.127  27.270  1.00  0.00    -0.269 OA
BRANCH  28  31
ATOM     31  C   UNL A   1      34.240  31.567  27.755  1.00  0.00     0.039 A 
ATOM     32  C   UNL A   1      34.383  30.260  28.248  1.00  0.00     0.014 A 
ATOM     33  C   UNL A   1      35.262  32.487  28.001  1.00  0.00     0.014 A 
ATOM     34  C   UNL A   1      35.535  29.871  28.951  1.00  0.00     0.010 A 
ATOM     35  C   UNL A   1      36.428  32.086  28.682  1.00  0.00     0.010 A 
ATOM     36  C   UNL A   1      36.583  30.777  29.169  1.00  0.00    -0.014 A 
BRANCH  36  37
ATOM     37  C   UNL A   1      37.819  30.380  29.914  1.00  0.00     0.031 A 
ATOM     38  C   UNL A   1      38.809  29.408  29.311  1.00  0.00     0.074 A 
ATOM     39  C   UNL A   1      38.052  30.860  31.154  1.00  0.00     0.049 A 
ATOM     40  N   UNL A   1      39.890  28.885  29.840  1.00  0.00    -0.248 NA
ATOM     41  C   UNL A   1      38.535  28.956  27.942  1.00  0.00     0.031 C 
ATOM     42  C   UNL A   1      37.189  31.800  31.869  1.00  0.00     0.029 A 
ATOM     43  N   UNL A   1      39.078  30.616  32.039  1.00  0.00    -0.354 N 
ATOM     44  C   UNL A   1      40.421  28.037  28.872  1.00  0.00     0.074 A 
ATOM     45  C   UNL A   1      39.512  28.081  27.744  1.00  0.00     0.031 C 
ATOM     46  C   UNL A   1      37.725  32.062  33.073  1.00  0.00     0.029 A 
ATOM     47  C   UNL A   1      38.944  31.275  33.242  1.00  0.00     0.049 A 
ATOM     48  H   UNL A   1      39.837  30.025  31.832  1.00  0.00     0.167 HD
ATOM     49  C   UNL A   1      41.564  27.304  28.909  1.00  0.00     0.034 A 
ATOM     50  C   UNL A   1      39.696  31.237  34.362  1.00  0.00     0.034 A 
ATOM     51  C   UNL A   1      42.477  27.270  30.028  1.00  0.00     0.049 A 
ATOM     52  C   UNL A   1      40.925  30.361  34.403  1.00  0.00     0.074 A 
ATOM     53  C   UNL A   1      43.685  26.599  30.134  1.00  0.00     0.029 A 
ATOM     54  N   UNL A   1      42.283  27.919  31.238  1.00  0.00    -0.354 N 
ATOM     55  N   UNL A   1      41.424  29.591  33.465  1.00  0.00    -0.248 NA
ATOM     56  C   UNL A   1      41.693  30.352  35.657  1.00  0.00     0.031 C 
ATOM     57  C   UNL A   1      44.186  26.790  31.426  1.00  0.00     0.029 A 
ATOM     58  C   UNL A   1      43.328  27.636  32.106  1.00  0.00     0.049 A 
ATOM     59  H   UNL A   1      41.515  28.499  31.449  1.00  0.00     0.167 HD
ATOM     60  C   UNL A   1      42.575  29.026  34.010  1.00  0.00     0.074 A 
ATOM     61  C   UNL A   1      42.707  29.557  35.349  1.00  0.00     0.031 C 
ATOM     62  C   UNL A   1      43.447  28.152  33.449  1.00  0.00     0.034 A 
BRANCH  49  63
ATOM     63  C   UNL A   1      41.884  26.452  27.701  1.00  0.00     0.023 A 
ATOM     64  C   UNL A   1      41.492  25.105  27.623  1.00  0.00     0.031 A 
ATOM     65  C   UNL A   1      42.592  26.996  26.613  1.00  0.00     0.131 A 
ATOM     66  C   UNL A   1      41.870  24.328  26.518  1.00  0.00     0.055 A 
ATOM     67  C   UNL A   1      42.899  26.237  25.481  1.00  0.00     0.041 A 
ATOM     68  F   UNL A   1      43.005  28.273  26.636  1.00  0.00    -0.206 F 
ATOM     69  C   UNL A   1      42.550  24.891  25.434  1.00  0.00     0.022 A 
BRANCH  66  70
ATOM     70  S   UNL A   1      41.577  22.539  26.570  1.00  0.00     0.124 S 
ATOM     71  O   UNL A   1      40.116  22.480  26.513  1.00  0.00    -0.237 OA
ATOM     72  O   UNL A   1      42.278  22.071  25.376  1.00  0.00    -0.237 OA
ATOM     73  O   UNL A   1      42.160  22.130  27.839  1.00  0.00    -0.744 OA
ENDBRANCH  66  70
ENDBRANCH  49  63
BRANCH  50  74
ATOM     74  C   UNL A   1      39.302  32.023  35.567  1.00  0.00     0.023 A 
ATOM     75  C   UNL A   1      38.573  31.431  36.612  1.00  0.00     0.031 A 
ATOM     76  C   UNL A   1      39.591  33.396  35.661  1.00  0.00     0.131 A 
ATOM     77  C   UNL A   1      38.116  32.219  37.680  1.00  0.00     0.055 A 
ATOM     78  C   UNL A   1      39.181  34.164  36.752  1.00  0.00     0.041 A 
ATOM     79  F   UNL A   1      40.283  34.012  34.688  1.00  0.00    -0.206 F 
ATOM     80  C   UNL A   1      38.428  33.578  37.764  1.00  0.00     0.022 A 
BRANCH  77  81
ATOM     81  S   UNL A   1      37.028  31.459  38.917  1.00  0.00     0.124 S 
ATOM     82  O   UNL A   1      36.866  30.112  38.382  1.00  0.00    -0.237 OA
ATOM     83  O   UNL A   1      37.825  31.576  40.134  1.00  0.00    -0.237 OA
ATOM     84  O   UNL A   1      35.830  32.295  38.876  1.00  0.00    -0.744 OA
ENDBRANCH  77  81
ENDBRANCH  50  74
BRANCH  62  85
ATOM     85  C   UNL A   1      44.641  27.742  34.278  1.00  0.00     0.023 A 
ATOM     86  C   UNL A   1      44.613  26.603  35.102  1.00  0.00     0.031 A 
ATOM     87  C   UNL A   1      45.820  28.509  34.252  1.00  0.00     0.131 A 
ATOM     88  C   UNL A   1      45.724  26.291  35.904  1.00  0.00     0.055 A 
ATOM     89  C   UNL A   1      46.940  28.164  35.009  1.00  0.00     0.041 A 
ATOM     90  F   UNL A   1      45.902  29.608  33.485  1.00  0.00    -0.206 F 
ATOM     91  C   UNL A   1      46.892  27.055  35.850  1.00  0.00     0.022 A 
BRANCH  88  92
ATOM     92  S   UNL A   1      45.596  24.911  37.075  1.00  0.00     0.124 S 
ATOM     93  O   UNL A   1      44.454  25.309  37.891  1.00  0.00    -0.237 OA
ATOM     94  O   UNL A   1      45.381  23.769  36.192  1.00  0.00    -0.237 OA
ATOM     95  O   UNL A   1      46.886  24.924  37.763  1.00  0.00    -0.744 OA
ENDBRANCH  88  92
ENDBRANCH  62  85
ENDBRANCH  36  37
ENDBRANCH  28  31
ENDBRANCH  26  27
ENDBRANCH   1  26
TORSDOF 15
ENDMDL
MODEL 2
REMARK VINA RESULT:     -12.7      2.246      7.791
REMARK SMILES C[C@]1(c2ccccc2C(=O)NCCCNC(=O)c2ccc(-c3c4nc(c(-c5cc(S(=O)(=O)[O-])ccc5F)c5ccc([nH]5)c(-c5cc(S(=O)(=O)[O-])ccc5F)c5nc(c(-c6cc(S(=O)(=O)[O-])ccc6F)c6ccc3[nH]6)C=C5)C=C4)cc2)NN=C(c2ccccc2)S1
REMARK SMILES IDX 13 1 12 2 11 3 9 4 10 5 8 7 3 8 4 9 5 10 7 11 6 12 2 13 1 14
REMARK SMILES IDX 81 15 90 16 82 17 83 19 84 20 85 21 89 22 86 23 88 24 87 25
REMARK SMILES IDX 14 26 15 27 16 28 17 30 18 31 19 32 80 33 20 34 79 35 21 36
REMARK SMILES IDX 22 37 23 38 73 39 24 40 78 41 72 42 74 43 25 44 77 45 71 46
REMARK SMILES IDX 70 47 26 49 58 50 38 51 57 52 39 53 42 54 56 55 75 56 40 57
REMARK SMILES IDX 41 58 55 60 76 61 43 62 27 63 28 64 36 65 29 66 35 67 37 68
REMARK SMILES IDX 34 69 30 70 31 71 32 72 33 73 59 74 60 75 68 76 61 77 67 78
REMARK SMILES IDX 69 79 66 80 62 81 63 82 64 83 65 84 44 85 45 86 53 87 46 88
REMARK SMILES IDX 52 89 54 90 51 91 47 92 48 93 49 94 50 95
REMARK H PARENT 11 6 81 18 15 29 74 48 42 59
REMARK Flexibility Score: inf
ROOT
ATOM      1  C   UNL A   1      32.770  28.210  27.136  1.00  0.00     0.042 C 
ENDROOT
BRANCH   1   2
ATOM      2  C   UNL A   1      31.444  27.622  26.596  1.00  0.00     0.118 C 
BRANCH   2   3
ATOM      3  N   UNL A   1      31.209  26.196  26.782  1.00  0.00    -0.352 N 
ATOM      4  C   UNL A   1      31.910  25.033  26.538  1.00  0.00     0.251 C 
ATOM      5  O   UNL A   1      31.514  24.038  27.160  1.00  0.00    -0.269 OA
ATOM      6  H   UNL A   1      30.328  26.017  27.182  1.00  0.00     0.163 HD
BRANCH   4   7
ATOM      7  C   UNL A   1      33.101  24.822  25.635  1.00  0.00     0.046 A 
ATOM      8  C   UNL A   1      33.141  24.769  24.208  1.00  0.00     0.002 A 
ATOM      9  C   UNL A   1      34.355  24.345  23.593  1.00  0.00     0.008 A 
ATOM     10  C   UNL A   1      35.448  23.887  24.326  1.00  0.00     0.000 A 
ATOM     11  C   UNL A   1      34.228  24.334  26.347  1.00  0.00     0.014 A 
ATOM     12  C   UNL A   1      35.378  23.862  25.706  1.00  0.00     0.001 A 
BRANCH   8  13
ATOM     13  C   UNL A   1      31.993  25.124  23.252  1.00  0.00     0.129 C 
ATOM     14  C   UNL A   1      32.205  24.305  21.966  1.00  0.00     0.054 C 
ATOM     15  N   UNL A   1      30.633  24.793  23.760  1.00  0.00    -0.288 NA
ATOM     16  S   UNL A   1      31.866  26.905  22.991  1.00  0.00    -0.070 SA
ATOM     17  N   UNL A   1      29.643  25.749  23.615  1.00  0.00    -0.171 NA
ATOM     18  H   UNL A   1      30.445  23.925  24.184  1.00  0.00     0.185 HD
ATOM     19  C   UNL A   1      30.169  26.879  23.274  1.00  0.00     0.126 C 
BRANCH  19  20
ATOM     20  C   UNL A   1      29.563  28.201  23.144  1.00  0.00     0.009 A 
ATOM     21  C   UNL A   1      30.298  29.152  22.427  1.00  0.00     0.011 A 
ATOM     22  C   UNL A   1      28.173  28.320  23.273  1.00  0.00     0.011 A 
ATOM     23  C   UNL A   1      29.630  30.201  21.796  1.00  0.00     0.001 A 
ATOM     24  C   UNL A   1      27.517  29.373  22.636  1.00  0.00     0.001 A 
ATOM     25  C   UNL A   1      28.242  30.299  21.886  1.00  0.00     0.000 A 
ENDBRANCH  19  20
ENDBRANCH   8  13
ENDBRANCH   4   7
ENDBRANCH   2   3
ENDBRANCH   1   2
BRANCH   1  26
ATOM     26  C   UNL A   1      33.643  29.065  26.203  1.00  0.00     0.118 C 
BRANCH  26  27
ATOM     27  N   UNL A   1      33.605  30.462  26.617  1.00  0.00    -0.352 N 
ATOM     28  C   UNL A   1      34.233  31.130  27.644  1.00  0.00     0.251 C 
ATOM     29  H   UNL A   1      33.024  31.032  26.063  1.00  0.00     0.163 HD
ATOM     30  O   UNL A   1      33.711  32.172  28.043  1.00  0.00    -0.269 OA
BRANCH  28  31
ATOM     31  C   UNL A   1      35.507  30.678  28.275  1.00  0.00     0.039 A 
ATOM     32  C   UNL A   1      36.717  31.013  27.645  1.00  0.00     0.014 A 
ATOM     33  C   UNL A   1      35.543  29.792  29.354  1.00  0.00     0.014 A 
ATOM     34  C   UNL A   1      37.941  30.495  28.100  1.00  0.00     0.010 A 
ATOM     35  C   UNL A   1      36.774  29.297  29.826  1.00  0.00     0.010 A 
ATOM     36  C   UNL A   1      37.990  29.637  29.208  1.00  0.00    -0.014 A 
BRANCH  36  37
ATOM     37  C   UNL A   1      39.285  29.077  29.708  1.00  0.00     0.031 A 
ATOM     38  C   UNL A   1      40.018  29.729  30.859  1.00  0.00     0.074 A 
ATOM     39  C   UNL A   1      39.836  27.997  29.116  1.00  0.00     0.049 A 
ATOM     40  N   UNL A   1      41.189  29.436  31.373  1.00  0.00    -0.248 NA
ATOM     41  C   UNL A   1      39.352  30.870  31.501  1.00  0.00     0.031 C 
ATOM     42  C   UNL A   1      39.250  27.261  27.994  1.00  0.00     0.029 A 
ATOM     43  N   UNL A   1      41.016  27.333  29.364  1.00  0.00    -0.354 N 
ATOM     44  C   UNL A   1      41.403  30.359  32.393  1.00  0.00     0.074 A 
ATOM     45  C   UNL A   1      40.261  31.252  32.388  1.00  0.00     0.031 C 
ATOM     46  C   UNL A   1      40.064  26.246  27.660  1.00  0.00     0.029 A 
ATOM     47  C   UNL A   1      41.254  26.280  28.508  1.00  0.00     0.049 A 
ATOM     48  H   UNL A   1      41.633  27.587  30.088  1.00  0.00     0.167 HD
ATOM     49  C   UNL A   1      42.442  30.449  33.264  1.00  0.00     0.034 A 
ATOM     50  C   UNL A   1      42.312  25.450  28.397  1.00  0.00     0.034 A 
ATOM     51  C   UNL A   1      43.575  29.553  33.278  1.00  0.00     0.049 A 
ATOM     52  C   UNL A   1      43.486  25.613  29.331  1.00  0.00     0.074 A 
ATOM     53  C   UNL A   1      44.648  29.532  34.157  1.00  0.00     0.029 A 
ATOM     54  N   UNL A   1      43.795  28.526  32.371  1.00  0.00    -0.354 N 
ATOM     55  N   UNL A   1      43.654  26.474  30.307  1.00  0.00    -0.248 NA
ATOM     56  C   UNL A   1      44.615  24.688  29.148  1.00  0.00     0.031 C 
ATOM     57  C   UNL A   1      45.543  28.541  33.741  1.00  0.00     0.029 A 
ATOM     58  C   UNL A   1      45.000  27.895  32.645  1.00  0.00     0.049 A 
ATOM     59  H   UNL A   1      43.183  28.282  31.638  1.00  0.00     0.167 HD
ATOM     60  C   UNL A   1      44.895  26.176  30.867  1.00  0.00     0.074 A 
ATOM     61  C   UNL A   1      45.424  25.047  30.133  1.00  0.00     0.031 C 
ATOM     62  C   UNL A   1      45.535  26.780  31.899  1.00  0.00     0.034 A 
BRANCH  49  63
ATOM     63  C   UNL A   1      42.414  31.578  34.269  1.00  0.00     0.023 A 
ATOM     64  C   UNL A   1      41.598  31.529  35.412  1.00  0.00     0.031 A 
ATOM     65  C   UNL A   1      43.214  32.721  34.080  1.00  0.00     0.131 A 
ATOM     66  C   UNL A   1      41.546  32.626  36.283  1.00  0.00     0.055 A 
ATOM     67  C   UNL A   1      43.214  33.778  34.992  1.00  0.00     0.041 A 
ATOM     68  F   UNL A   1      44.003  32.831  33.000  1.00  0.00    -0.206 F 
ATOM     69  C   UNL A   1      42.367  33.742  36.095  1.00  0.00     0.022 A 
BRANCH  66  70
ATOM     70  S   UNL A   1      40.295  32.637  37.597  1.00  0.00     0.124 S 
ATOM     71  O   UNL A   1      39.844  34.028  37.561  1.00  0.00    -0.237 OA
ATOM     72  O   UNL A   1      39.331  31.645  37.120  1.00  0.00    -0.237 OA
ATOM     73  O   UNL A   1      41.040  32.261  38.788  1.00  0.00    -0.744 OA
ENDBRANCH  66  70
ENDBRANCH  49  63
BRANCH  50  74
ATOM     74  C   UNL A   1      42.346  24.402  27.335  1.00  0.00     0.023 A 
ATOM     75  C   UNL A   1      41.623  23.206  27.475  1.00  0.00     0.031 A 
ATOM     76  C   UNL A   1      43.155  24.554  26.194  1.00  0.00     0.131 A 
ATOM     77  C   UNL A   1      41.761  22.189  26.517  1.00  0.00     0.055 A 
ATOM     78  C   UNL A   1      43.247  23.561  25.218  1.00  0.00     0.041 A 
ATOM     79  F   UNL A   1      43.869  25.677  26.014  1.00  0.00    -0.206 F 
ATOM     80  C   UNL A   1      42.557  22.365  25.382  1.00  0.00     0.022 A 
BRANCH  77  81
ATOM     81  S   UNL A   1      40.954  20.593  26.821  1.00  0.00     0.124 S 
ATOM     82  O   UNL A   1      40.835  20.593  28.275  1.00  0.00    -0.237 OA
ATOM     83  O   UNL A   1      39.709  20.736  26.074  1.00  0.00    -0.237 OA
ATOM     84  O   UNL A   1      41.900  19.623  26.272  1.00  0.00    -0.744 OA
ENDBRANCH  77  81
ENDBRANCH  50  74
BRANCH  62  85
ATOM     85  C   UNL A   1      46.868  26.206  32.314  1.00  0.00     0.023 A 
ATOM     86  C   UNL A   1      46.969  25.207  33.298  1.00  0.00     0.031 A 
ATOM     87  C   UNL A   1      48.056  26.675  31.726  1.00  0.00     0.131 A 
ATOM     88  C   UNL A   1      48.233  24.743  33.699  1.00  0.00     0.055 A 
ATOM     89  C   UNL A   1      49.306  26.173  32.090  1.00  0.00     0.041 A 
ATOM     90  F   UNL A   1      48.020  27.631  30.783  1.00  0.00    -0.206 F 
ATOM     91  C   UNL A   1      49.401  25.209  33.090  1.00  0.00     0.022 A 
BRANCH  88  92
ATOM     92  S   UNL A   1      48.337  23.574  35.082  1.00  0.00     0.124 S 
ATOM     93  O   UNL A   1      49.752  23.217  35.073  1.00  0.00    -0.237 OA
ATOM     94  O   UNL A   1      47.893  24.384  36.212  1.00  0.00    -0.237 OA
ATOM     95  O   UNL A   1      47.423  22.501  34.696  1.00  0.00    -0.744 OA
ENDBRANCH  88  92
ENDBRANCH  62  85
ENDBRANCH  36  37
ENDBRANCH  28  31
ENDBRANCH  26  27
ENDBRANCH   1  26
TORSDOF 15
ENDMDL
MODEL 3
REMARK VINA RESULT:     -12.7      3.525      8.687
REMARK SMILES C[C@]1(c2ccccc2C(=O)NCCCNC(=O)c2ccc(-c3c4nc(c(-c5cc(S(=O)(=O)[O-])ccc5F)c5ccc([nH]5)c(-c5cc(S(=O)(=O)[O-])ccc5F)c5nc(c(-c6cc(S(=O)(=O)[O-])ccc6F)c6ccc3[nH]6)C=C5)C=C4)cc2)NN=C(c2ccccc2)S1
REMARK SMILES IDX 13 1 12 2 11 3 9 4 10 5 8 7 3 8 4 9 5 10 7 11 6 12 2 13 1 14
REMARK SMILES IDX 81 15 90 16 82 17 83 19 84 20 85 21 89 22 86 23 88 24 87 25
REMARK SMILES IDX 14 26 15 27 16 28 17 30 18 31 19 32 80 33 20 34 79 35 21 36
REMARK SMILES IDX 22 37 23 38 73 39 24 40 78 41 72 42 74 43 25 44 77 45 71 46
REMARK SMILES IDX 70 47 26 49 58 50 38 51 57 52 39 53 42 54 56 55 75 56 40 57
REMARK SMILES IDX 41 58 55 60 76 61 43 62 27 63 28 64 36 65 29 66 35 67 37 68
REMARK SMILES IDX 34 69 30 70 31 71 32 72 33 73 59 74 60 75 68 76 61 77 67 78
REMARK SMILES IDX 69 79 66 80 62 81 63 82 64 83 65 84 44 85 45 86 53 87 46 88
REMARK SMILES IDX 52 89 54 90 51 91 47 92 48 93 49 94 50 95
REMARK H PARENT 11 6 81 18 15 29 74 48 42 59
REMARK Flexibility Score: inf
ROOT
ATOM      1  C   UNL A   1      33.230  27.710  26.575  1.00  0.00     0.042 C 
ENDROOT
BRANCH   1   2
ATOM      2  C   UNL A   1      31.783  28.016  27.032  1.00  0.00     0.118 C 
BRANCH   2   3
ATOM      3  N   UNL A   1      30.822  26.920  27.015  1.00  0.00    -0.352 N 
ATOM      4  C   UNL A   1      30.533  25.863  26.177  1.00  0.00     0.251 C 
ATOM      5  O   UNL A   1      29.872  24.949  26.689  1.00  0.00    -0.269 OA
ATOM      6  H   UNL A   1      30.228  26.940  27.800  1.00  0.00     0.163 HD
BRANCH   4   7
ATOM      7  C   UNL A   1      30.933  25.667  24.735  1.00  0.00     0.046 A 
ATOM      8  C   UNL A   1      31.852  24.723  24.183  1.00  0.00     0.002 A 
ATOM      9  C   UNL A   1      32.222  24.878  22.815  1.00  0.00     0.008 A 
ATOM     10  C   UNL A   1      31.808  25.962  22.043  1.00  0.00     0.000 A 
ATOM     11  C   UNL A   1      30.545  26.765  23.923  1.00  0.00     0.014 A 
ATOM     12  C   UNL A   1      30.984  26.919  22.604  1.00  0.00     0.001 A 
BRANCH   8  13
ATOM     13  C   UNL A   1      32.494  23.541  24.922  1.00  0.00     0.129 C 
ATOM     14  C   UNL A   1      33.344  24.128  26.063  1.00  0.00     0.054 C 
ATOM     15  N   UNL A   1      31.528  22.593  25.542  1.00  0.00    -0.288 NA
ATOM     16  S   UNL A   1      33.400  22.460  23.797  1.00  0.00    -0.070 SA
ATOM     17  N   UNL A   1      31.752  21.239  25.367  1.00  0.00    -0.171 NA
ATOM     18  H   UNL A   1      30.757  22.918  26.060  1.00  0.00     0.185 HD
ATOM     19  C   UNL A   1      32.654  21.057  24.459  1.00  0.00     0.126 C 
BRANCH  19  20
ATOM     20  C   UNL A   1      33.124  19.827  23.829  1.00  0.00     0.009 A 
ATOM     21  C   UNL A   1      34.092  19.101  24.531  1.00  0.00     0.011 A 
ATOM     22  C   UNL A   1      32.301  19.196  22.887  1.00  0.00     0.011 A 
ATOM     23  C   UNL A   1      34.203  17.727  24.323  1.00  0.00     0.001 A 
ATOM     24  C   UNL A   1      32.421  17.821  22.689  1.00  0.00     0.001 A 
ATOM     25  C   UNL A   1      33.357  17.087  23.418  1.00  0.00     0.000 A 
ENDBRANCH  19  20
ENDBRANCH   8  13
ENDBRANCH   4   7
ENDBRANCH   2   3
ENDBRANCH   1   2
BRANCH   1  26
ATOM     26  C   UNL A   1      33.985  28.754  25.737  1.00  0.00     0.118 C 
BRANCH  26  27
ATOM     27  N   UNL A   1      33.812  30.083  26.312  1.00  0.00    -0.352 N 
ATOM     28  C   UNL A   1      34.338  30.668  27.441  1.00  0.00     0.251 C 
ATOM     29  H   UNL A   1      33.208  30.668  25.799  1.00  0.00     0.163 HD
ATOM     30  O   UNL A   1      33.713  31.609  27.932  1.00  0.00    -0.269 OA
BRANCH  28  31
ATOM     31  C   UNL A   1      35.619  30.245  28.078  1.00  0.00     0.039 A 
ATOM     32  C   UNL A   1      36.791  30.279  27.302  1.00  0.00     0.014 A 
ATOM     33  C   UNL A   1      35.675  29.654  29.342  1.00  0.00     0.014 A 
ATOM     34  C   UNL A   1      37.999  29.755  27.790  1.00  0.00     0.010 A 
ATOM     35  C   UNL A   1      36.895  29.156  29.839  1.00  0.00     0.010 A 
ATOM     36  C   UNL A   1      38.074  29.196  29.073  1.00  0.00    -0.014 A 
BRANCH  36  37
ATOM     37  C   UNL A   1      39.354  28.635  29.611  1.00  0.00     0.031 A 
ATOM     38  C   UNL A   1      40.007  29.232  30.837  1.00  0.00     0.074 A 
ATOM     39  C   UNL A   1      39.962  27.605  28.987  1.00  0.00     0.049 A 
ATOM     40  N   UNL A   1      41.155  28.935  31.397  1.00  0.00    -0.248 NA
ATOM     41  C   UNL A   1      39.279  30.317  31.508  1.00  0.00     0.031 C 
ATOM     42  C   UNL A   1      39.457  26.927  27.792  1.00  0.00     0.029 A 
ATOM     43  N   UNL A   1      41.144  26.953  29.260  1.00  0.00    -0.354 N 
ATOM     44  C   UNL A   1      41.291  29.798  32.480  1.00  0.00     0.074 A 
ATOM     45  C   UNL A   1      40.128  30.664  32.465  1.00  0.00     0.031 C 
ATOM     46  C   UNL A   1      40.314  25.952  27.445  1.00  0.00     0.029 A 
ATOM     47  C   UNL A   1      41.454  25.960  28.357  1.00  0.00     0.049 A 
ATOM     48  H   UNL A   1      41.715  27.177  30.031  1.00  0.00     0.167 HD
ATOM     49  C   UNL A   1      42.278  29.857  33.411  1.00  0.00     0.034 A 
ATOM     50  C   UNL A   1      42.538  25.162  28.256  1.00  0.00     0.034 A 
ATOM     51  C   UNL A   1      43.431  28.987  33.435  1.00  0.00     0.049 A 
ATOM     52  C   UNL A   1      43.656  25.294  29.262  1.00  0.00     0.074 A 
ATOM     53  C   UNL A   1      44.455  28.937  34.369  1.00  0.00     0.029 A 
ATOM     54  N   UNL A   1      43.726  28.023  32.482  1.00  0.00    -0.354 N 
ATOM     55  N   UNL A   1      43.748  26.097  30.295  1.00  0.00    -0.248 NA
ATOM     56  C   UNL A   1      44.815  24.407  29.087  1.00  0.00     0.031 C 
ATOM     57  C   UNL A   1      45.397  27.994  33.945  1.00  0.00     0.029 A 
ATOM     58  C   UNL A   1      44.930  27.403  32.784  1.00  0.00     0.049 A 
ATOM     59  H   UNL A   1      43.161  27.810  31.703  1.00  0.00     0.167 HD
ATOM     60  C   UNL A   1      44.964  25.793  30.904  1.00  0.00     0.074 A 
ATOM     61  C   UNL A   1      45.561  24.723  30.135  1.00  0.00     0.031 C 
ATOM     62  C   UNL A   1      45.532  26.347  32.004  1.00  0.00     0.034 A 
BRANCH  49  63
ATOM     63  C   UNL A   1      42.167  30.923  34.479  1.00  0.00     0.023 A 
ATOM     64  C   UNL A   1      42.732  32.198  34.310  1.00  0.00     0.031 A 
ATOM     65  C   UNL A   1      41.488  30.658  35.682  1.00  0.00     0.131 A 
ATOM     66  C   UNL A   1      42.669  33.136  35.351  1.00  0.00     0.055 A 
ATOM     67  C   UNL A   1      41.364  31.621  36.685  1.00  0.00     0.041 A 
ATOM     68  F   UNL A   1      40.940  29.453  35.906  1.00  0.00    -0.206 F 
ATOM     69  C   UNL A   1      41.968  32.865  36.529  1.00  0.00     0.022 A 
BRANCH  66  70
ATOM     70  S   UNL A   1      43.628  34.668  35.202  1.00  0.00     0.124 S 
ATOM     71  O   UNL A   1      43.010  35.502  36.234  1.00  0.00    -0.237 OA
ATOM     72  O   UNL A   1      44.990  34.215  35.484  1.00  0.00    -0.237 OA
ATOM     73  O   UNL A   1      43.384  35.098  33.834  1.00  0.00    -0.744 OA
ENDBRANCH  66  70
ENDBRANCH  49  63
BRANCH  50  74
ATOM     74  C   UNL A   1      42.655  24.181  27.137  1.00  0.00     0.023 A 
ATOM     75  C   UNL A   1      42.056  22.914  27.219  1.00  0.00     0.031 A 
ATOM     76  C   UNL A   1      43.425  24.474  25.997  1.00  0.00     0.131 A 
ATOM     77  C   UNL A   1      42.276  21.969  26.204  1.00  0.00     0.055 A 
ATOM     78  C   UNL A   1      43.597  23.550  24.965  1.00  0.00     0.041 A 
ATOM     79  F   UNL A   1      44.022  25.670  25.870  1.00  0.00    -0.206 F 
ATOM     80  C   UNL A   1      43.031  22.284  25.072  1.00  0.00     0.022 A 
BRANCH  77  81
ATOM     81  S   UNL A   1      41.635  20.287  26.430  1.00  0.00     0.124 S 
ATOM     82  O   UNL A   1      42.301  19.568  25.349  1.00  0.00    -0.237 OA
ATOM     83  O   UNL A   1      42.081  19.971  27.782  1.00  0.00    -0.237 OA
ATOM     84  O   UNL A   1      40.191  20.449  26.273  1.00  0.00    -0.744 OA
ENDBRANCH  77  81
ENDBRANCH  50  74
BRANCH  62  85
ATOM     85  C   UNL A   1      46.855  25.779  32.458  1.00  0.00     0.023 A 
ATOM     86  C   UNL A   1      48.063  26.117  31.823  1.00  0.00     0.031 A 
ATOM     87  C   UNL A   1      46.906  24.874  33.534  1.00  0.00     0.131 A 
ATOM     88  C   UNL A   1      49.264  25.519  32.237  1.00  0.00     0.055 A 
ATOM     89  C   UNL A   1      48.109  24.323  33.976  1.00  0.00     0.041 A 
ATOM     90  F   UNL A   1      45.783  24.512  34.176  1.00  0.00    -0.206 F 
ATOM     91  C   UNL A   1      49.297  24.636  33.320  1.00  0.00     0.022 A 
BRANCH  88  92
ATOM     92  S   UNL A   1      50.777  25.852  31.294  1.00  0.00     0.124 S 
ATOM     93  O   UNL A   1      50.765  27.309  31.205  1.00  0.00    -0.237 OA
ATOM     94  O   UNL A   1      51.812  25.276  32.148  1.00  0.00    -0.237 OA
ATOM     95  O   UNL A   1      50.558  25.151  30.031  1.00  0.00    -0.744 OA
ENDBRANCH  88  92
ENDBRANCH  62  85
ENDBRANCH  36  37
ENDBRANCH  28  31
ENDBRANCH  26  27
ENDBRANCH   1  26
TORSDOF 15
ENDMDL
