MODEL 1
REMARK VINA RESULT:     -11.7      0.000      0.000
REMARK SMILES CC[C@@]1(CO)CCCN(c2nc(-c3ccc(C)s3)ccc2C(=O)NCCCNC(=O)c2ccc(-c3c4nc(c(-c5cc(S(=O)(=O)[O-])ccc5F)c5ccc([nH]5)c(-c5cc(S(=O)(=O)[O-])ccc5F)c5nc(c(-c6cc(S(=O)(=O)[O-])ccc6F)c6ccc3[nH]6)C=C5)C=C4)cc2)C1
REMARK SMILES IDX 26 1 25 2 24 3 22 4 23 5 21 7 10 8 11 9 12 10 20 11 19 12
REMARK SMILES IDX 9 13 3 14 6 15 94 16 7 17 8 18 2 19 1 20 4 21 5 22 13 24
REMARK SMILES IDX 14 25 18 26 15 27 16 28 17 29 27 30 28 31 29 32 30 34 31 35
REMARK SMILES IDX 32 36 93 37 33 38 92 39 34 40 35 41 36 42 86 43 37 44 91 45
REMARK SMILES IDX 85 46 87 47 38 48 90 49 84 50 83 51 39 53 71 54 51 55 70 56
REMARK SMILES IDX 52 57 55 58 69 59 88 60 53 61 54 62 68 64 89 65 56 66 40 67
REMARK SMILES IDX 41 68 49 69 42 70 48 71 50 72 47 73 43 74 44 75 45 76 46 77
REMARK SMILES IDX 72 78 73 79 81 80 74 81 80 82 82 83 79 84 75 85 76 86 77 87
REMARK SMILES IDX 78 88 57 89 58 90 66 91 59 92 65 93 67 94 64 95 60 96 61 97
REMARK SMILES IDX 62 98 63 99
REMARK H PARENT 24 6 5 23 28 33 87 52 55 63
REMARK Flexibility Score: inf
ROOT
ATOM      1  C   UNL A   1      32.440  28.237  26.820  1.00  0.00     0.042 C 
ENDROOT
BRANCH   1   2
ATOM      2  C   UNL A   1      32.497  26.724  26.603  1.00  0.00     0.118 C 
BRANCH   2   3
ATOM      3  N   UNL A   1      31.193  26.123  26.806  1.00  0.00    -0.352 N 
ATOM      4  C   UNL A   1      30.600  24.928  26.482  1.00  0.00     0.255 C 
ATOM      5  O   UNL A   1      29.423  24.870  26.829  1.00  0.00    -0.269 OA
ATOM      6  H   UNL A   1      30.583  26.719  27.298  1.00  0.00     0.163 HD
BRANCH   4   7
ATOM      7  C   UNL A   1      31.310  23.776  25.824  1.00  0.00     0.082 A 
ATOM      8  C   UNL A   1      31.331  23.611  24.420  1.00  0.00     0.142 A 
ATOM      9  N   UNL A   1      31.716  22.427  23.853  1.00  0.00    -0.229 NA
ATOM     10  C   UNL A   1      32.187  21.439  24.642  1.00  0.00     0.083 A 
ATOM     11  C   UNL A   1      31.903  22.765  26.590  1.00  0.00     0.020 A 
ATOM     12  C   UNL A   1      32.329  21.579  26.006  1.00  0.00     0.031 A 
BRANCH   8  13
ATOM     13  N   UNL A   1      30.997  24.580  23.502  1.00  0.00    -0.355 N 
ATOM     14  C   UNL A   1      32.276  26.207  22.141  1.00  0.00     0.011 C 
ATOM     15  C   UNL A   1      31.035  27.140  22.244  1.00  0.00     0.013 C 
ATOM     16  C   UNL A   1      31.824  24.740  22.321  1.00  0.00     0.127 C 
ATOM     17  C   UNL A   1      30.210  26.900  23.511  1.00  0.00     0.022 C 
ATOM     18  C   UNL A   1      29.822  25.430  23.649  1.00  0.00     0.118 C 
BRANCH  14  19
ATOM     19  C   UNL A   1      32.879  26.394  20.716  1.00  0.00     0.008 C 
ATOM     20  C   UNL A   1      32.435  25.369  19.678  1.00  0.00     0.004 C 
ENDBRANCH  14  19
BRANCH  14  21
ATOM     21  C   UNL A   1      33.310  26.563  23.238  1.00  0.00     0.164 C 
BRANCH  21  22
ATOM     22  O   UNL A   1      34.115  25.433  23.572  1.00  0.00    -0.396 OA
ATOM     23  H   UNL A   1      33.797  24.655  23.085  1.00  0.00     0.210 HD
ENDBRANCH  21  22
ENDBRANCH  14  21
ENDBRANCH   8  13
BRANCH  10  24
ATOM     24  C   UNL A   1      32.516  20.173  23.996  1.00  0.00     0.053 A 
ATOM     25  C   UNL A   1      32.065  19.688  22.783  1.00  0.00     0.022 A 
ATOM     26  S   UNL A   1      33.498  19.026  24.800  1.00  0.00    -0.139 S 
ATOM     27  C   UNL A   1      32.486  18.348  22.543  1.00  0.00     0.016 A 
ATOM     28  C   UNL A   1      33.246  17.850  23.580  1.00  0.00     0.002 A 
ATOM     29  C   UNL A   1      33.818  16.483  23.735  1.00  0.00     0.056 C 
ENDBRANCH  10  24
ENDBRANCH   4   7
ENDBRANCH   2   3
ENDBRANCH   1   2
BRANCH   1  30
ATOM     30  C   UNL A   1      33.735  28.957  26.446  1.00  0.00     0.118 C 
BRANCH  30  31
ATOM     31  N   UNL A   1      33.680  30.372  26.773  1.00  0.00    -0.352 N 
ATOM     32  C   UNL A   1      34.421  31.100  27.666  1.00  0.00     0.251 C 
ATOM     33  H   UNL A   1      33.005  30.887  26.276  1.00  0.00     0.163 HD
ATOM     34  O   UNL A   1      34.018  32.217  27.995  1.00  0.00    -0.269 OA
BRANCH  32  35
ATOM     35  C   UNL A   1      35.680  30.568  28.234  1.00  0.00     0.039 A 
ATOM     36  C   UNL A   1      36.886  30.886  27.602  1.00  0.00     0.014 A 
ATOM     37  C   UNL A   1      35.678  29.699  29.329  1.00  0.00     0.014 A 
ATOM     38  C   UNL A   1      38.087  30.358  28.084  1.00  0.00     0.010 A 
ATOM     39  C   UNL A   1      36.883  29.230  29.852  1.00  0.00     0.010 A 
ATOM     40  C   UNL A   1      38.098  29.539  29.224  1.00  0.00    -0.014 A 
BRANCH  40  41
ATOM     41  C   UNL A   1      39.371  28.974  29.742  1.00  0.00     0.031 A 
ATOM     42  C   UNL A   1      40.058  29.612  30.921  1.00  0.00     0.074 A 
ATOM     43  C   UNL A   1      39.928  27.915  29.124  1.00  0.00     0.049 A 
ATOM     44  N   UNL A   1      41.190  29.291  31.494  1.00  0.00    -0.248 NA
ATOM     45  C   UNL A   1      39.397  30.783  31.515  1.00  0.00     0.031 C 
ATOM     46  C   UNL A   1      39.381  27.243  27.942  1.00  0.00     0.029 A 
ATOM     47  N   UNL A   1      41.077  27.217  29.397  1.00  0.00    -0.354 N 
ATOM     48  C   UNL A   1      41.387  30.230  32.503  1.00  0.00     0.074 A 
ATOM     49  C   UNL A   1      40.283  31.164  32.422  1.00  0.00     0.031 C 
ATOM     50  C   UNL A   1      40.182  26.220  27.607  1.00  0.00     0.029 A 
ATOM     51  C   UNL A   1      41.317  26.182  28.524  1.00  0.00     0.049 A 
ATOM     52  H   UNL A   1      41.675  27.438  30.147  1.00  0.00     0.167 HD
ATOM     53  C   UNL A   1      42.382  30.295  33.422  1.00  0.00     0.034 A 
ATOM     54  C   UNL A   1      42.337  25.304  28.466  1.00  0.00     0.034 A 
ATOM     55  C   UNL A   1      43.464  29.342  33.498  1.00  0.00     0.049 A 
ATOM     56  C   UNL A   1      43.421  25.382  29.511  1.00  0.00     0.074 A 
ATOM     57  C   UNL A   1      44.493  29.275  34.423  1.00  0.00     0.029 A 
ATOM     58  N   UNL A   1      43.660  28.289  32.613  1.00  0.00    -0.354 N 
ATOM     59  N   UNL A   1      43.560  26.241  30.494  1.00  0.00    -0.248 NA
ATOM     60  C   UNL A   1      44.471  24.359  29.449  1.00  0.00     0.031 C 
ATOM     61  C   UNL A   1      45.341  28.221  34.061  1.00  0.00     0.029 A 
ATOM     62  C   UNL A   1      44.805  27.583  32.954  1.00  0.00     0.049 A 
ATOM     63  H   UNL A   1      43.072  28.074  31.853  1.00  0.00     0.167 HD
ATOM     64  C   UNL A   1      44.702  25.845  31.183  1.00  0.00     0.074 A 
ATOM     65  C   UNL A   1      45.196  24.656  30.517  1.00  0.00     0.031 C 
ATOM     66  C   UNL A   1      45.292  26.409  32.269  1.00  0.00     0.034 A 
BRANCH  53  67
ATOM     67  C   UNL A   1      42.356  31.450  34.396  1.00  0.00     0.023 A 
ATOM     68  C   UNL A   1      41.503  31.457  35.515  1.00  0.00     0.031 A 
ATOM     69  C   UNL A   1      43.173  32.576  34.189  1.00  0.00     0.131 A 
ATOM     70  C   UNL A   1      41.428  32.592  36.336  1.00  0.00     0.055 A 
ATOM     71  C   UNL A   1      43.154  33.671  35.057  1.00  0.00     0.041 A 
ATOM     72  F   UNL A   1      43.994  32.639  33.130  1.00  0.00    -0.206 F 
ATOM     73  C   UNL A   1      42.267  33.690  36.129  1.00  0.00     0.022 A 
BRANCH  70  74
ATOM     74  S   UNL A   1      40.120  32.673  37.590  1.00  0.00     0.124 S 
ATOM     75  O   UNL A   1      39.231  31.596  37.156  1.00  0.00    -0.237 OA
ATOM     76  O   UNL A   1      40.854  32.436  38.827  1.00  0.00    -0.237 OA
ATOM     77  O   UNL A   1      39.578  34.020  37.434  1.00  0.00    -0.744 OA
ENDBRANCH  70  74
ENDBRANCH  53  67
BRANCH  54  78
ATOM     78  C   UNL A   1      42.388  24.276  27.388  1.00  0.00     0.023 A 
ATOM     79  C   UNL A   1      41.629  23.098  27.473  1.00  0.00     0.031 A 
ATOM     80  C   UNL A   1      43.229  24.440  26.273  1.00  0.00     0.131 A 
ATOM     81  C   UNL A   1      41.761  22.107  26.488  1.00  0.00     0.055 A 
ATOM     82  C   UNL A   1      43.319  23.475  25.269  1.00  0.00     0.041 A 
ATOM     83  F   UNL A   1      43.968  25.553  26.137  1.00  0.00    -0.206 F 
ATOM     84  C   UNL A   1      42.593  22.293  25.380  1.00  0.00     0.022 A 
BRANCH  81  85
ATOM     85  S   UNL A   1      40.889  20.534  26.715  1.00  0.00     0.124 S 
ATOM     86  O   UNL A   1      40.907  20.390  28.166  1.00  0.00    -0.237 OA
ATOM     87  O   UNL A   1      39.590  20.820  26.115  1.00  0.00    -0.237 OA
ATOM     88  O   UNL A   1      41.715  19.578  25.982  1.00  0.00    -0.744 OA
ENDBRANCH  81  85
ENDBRANCH  54  78
BRANCH  66  89
ATOM     89  C   UNL A   1      46.516  25.714  32.814  1.00  0.00     0.023 A 
ATOM     90  C   UNL A   1      46.413  24.641  33.717  1.00  0.00     0.031 A 
ATOM     91  C   UNL A   1      47.801  26.155  32.453  1.00  0.00     0.131 A 
ATOM     92  C   UNL A   1      47.572  24.091  34.284  1.00  0.00     0.055 A 
ATOM     93  C   UNL A   1      48.953  25.562  32.972  1.00  0.00     0.041 A 
ATOM     94  F   UNL A   1      47.958  27.177  31.598  1.00  0.00    -0.206 F 
ATOM     95  C   UNL A   1      48.843  24.536  33.906  1.00  0.00     0.022 A 
BRANCH  92  96
ATOM     96  S   UNL A   1      47.395  22.868  35.611  1.00  0.00     0.124 S 
ATOM     97  O   UNL A   1      46.047  23.140  36.098  1.00  0.00    -0.237 OA
ATOM     98  O   UNL A   1      47.574  21.608  34.898  1.00  0.00    -0.237 OA
ATOM     99  O   UNL A   1      48.471  23.212  36.540  1.00  0.00    -0.744 OA
ENDBRANCH  92  96
ENDBRANCH  66  89
ENDBRANCH  40  41
ENDBRANCH  32  35
ENDBRANCH  30  31
ENDBRANCH   1  30
TORSDOF 18
ENDMDL
MODEL 2
REMARK VINA RESULT:     -11.7      5.054      9.935
REMARK SMILES CC[C@@]1(CO)CCCN(c2nc(-c3ccc(C)s3)ccc2C(=O)NCCCNC(=O)c2ccc(-c3c4nc(c(-c5cc(S(=O)(=O)[O-])ccc5F)c5ccc([nH]5)c(-c5cc(S(=O)(=O)[O-])ccc5F)c5nc(c(-c6cc(S(=O)(=O)[O-])ccc6F)c6ccc3[nH]6)C=C5)C=C4)cc2)C1
REMARK SMILES IDX 26 1 25 2 24 3 22 4 23 5 21 7 10 8 11 9 12 10 20 11 19 12
REMARK SMILES IDX 9 13 3 14 6 15 94 16 7 17 8 18 2 19 1 20 4 21 5 22 13 24
REMARK SMILES IDX 14 25 18 26 15 27 16 28 17 29 27 30 28 31 29 32 30 34 31 35
REMARK SMILES IDX 32 36 93 37 33 38 92 39 34 40 35 41 36 42 86 43 37 44 91 45
REMARK SMILES IDX 85 46 87 47 38 48 90 49 84 50 83 51 39 53 71 54 51 55 70 56
REMARK SMILES IDX 52 57 55 58 69 59 88 60 53 61 54 62 68 64 89 65 56 66 40 67
REMARK SMILES IDX 41 68 49 69 42 70 48 71 50 72 47 73 43 74 44 75 45 76 46 77
REMARK SMILES IDX 72 78 73 79 81 80 74 81 80 82 82 83 79 84 75 85 76 86 77 87
REMARK SMILES IDX 78 88 57 89 58 90 66 91 59 92 65 93 67 94 64 95 60 96 61 97
REMARK SMILES IDX 62 98 63 99
REMARK H PARENT 24 6 5 23 28 33 87 52 55 63
REMARK Flexibility Score: inf
ROOT
ATOM      1  C   UNL A   1      35.145  22.223  24.290  1.00  0.00     0.042 C 
ENDROOT
BRANCH   1   2
ATOM      2  C   UNL A   1      33.676  22.610  24.470  1.00  0.00     0.118 C 
BRANCH   2   3
ATOM      3  N   UNL A   1      33.214  23.415  23.356  1.00  0.00    -0.352 N 
ATOM      4  C   UNL A   1      32.887  24.736  23.166  1.00  0.00     0.255 C 
ATOM      5  O   UNL A   1      32.487  24.970  22.028  1.00  0.00    -0.269 OA
ATOM      6  H   UNL A   1      33.108  22.885  22.534  1.00  0.00     0.163 HD
BRANCH   4   7
ATOM      7  C   UNL A   1      33.049  25.810  24.207  1.00  0.00     0.082 A 
ATOM      8  C   UNL A   1      32.244  26.972  24.217  1.00  0.00     0.142 A 
ATOM      9  N   UNL A   1      32.585  28.063  24.970  1.00  0.00    -0.229 NA
ATOM     10  C   UNL A   1      33.647  27.987  25.798  1.00  0.00     0.083 A 
ATOM     11  C   UNL A   1      34.076  25.743  25.157  1.00  0.00     0.020 A 
ATOM     12  C   UNL A   1      34.395  26.839  25.948  1.00  0.00     0.031 A 
BRANCH   8  13
ATOM     13  N   UNL A   1      31.070  27.130  23.517  1.00  0.00    -0.355 N 
ATOM     14  C   UNL A   1      29.728  29.076  22.779  1.00  0.00     0.011 C 
ATOM     15  C   UNL A   1      28.477  28.160  22.921  1.00  0.00     0.013 C 
ATOM     16  C   UNL A   1      30.976  28.197  22.539  1.00  0.00     0.127 C 
ATOM     17  C   UNL A   1      28.662  27.053  23.962  1.00  0.00     0.022 C 
ATOM     18  C   UNL A   1      29.926  26.242  23.690  1.00  0.00     0.118 C 
BRANCH  14  19
ATOM     19  C   UNL A   1      29.492  29.993  21.541  1.00  0.00     0.008 C 
ATOM     20  C   UNL A   1      28.033  30.305  21.227  1.00  0.00     0.004 C 
ENDBRANCH  14  19
BRANCH  14  21
ATOM     21  C   UNL A   1      29.929  29.913  24.066  1.00  0.00     0.164 C 
BRANCH  21  22
ATOM     22  O   UNL A   1      29.887  31.311  23.782  1.00  0.00    -0.396 OA
ATOM     23  H   UNL A   1      30.101  31.457  22.846  1.00  0.00     0.210 HD
ENDBRANCH  21  22
ENDBRANCH  14  21
ENDBRANCH   8  13
BRANCH  10  24
ATOM     24  C   UNL A   1      34.010  29.199  26.525  1.00  0.00     0.053 A 
ATOM     25  C   UNL A   1      35.089  29.402  27.366  1.00  0.00     0.022 A 
ATOM     26  S   UNL A   1      32.989  30.570  26.479  1.00  0.00    -0.139 S 
ATOM     27  C   UNL A   1      35.041  30.670  28.015  1.00  0.00     0.016 A 
ATOM     28  C   UNL A   1      33.928  31.397  27.649  1.00  0.00     0.002 A 
ATOM     29  C   UNL A   1      33.490  32.732  28.146  1.00  0.00     0.056 C 
ENDBRANCH  10  24
ENDBRANCH   4   7
ENDBRANCH   2   3
ENDBRANCH   1   2
BRANCH   1  30
ATOM     30  C   UNL A   1      35.954  22.277  25.585  1.00  0.00     0.118 C 
BRANCH  30  31
ATOM     31  N   UNL A   1      36.924  21.198  25.661  1.00  0.00    -0.352 N 
ATOM     32  C   UNL A   1      38.286  21.246  25.798  1.00  0.00     0.251 C 
ATOM     33  H   UNL A   1      36.544  20.292  25.604  1.00  0.00     0.163 HD
ATOM     34  O   UNL A   1      38.940  20.231  25.550  1.00  0.00    -0.269 OA
BRANCH  32  35
ATOM     35  C   UNL A   1      38.972  22.483  26.234  1.00  0.00     0.039 A 
ATOM     36  C   UNL A   1      38.471  23.714  25.799  1.00  0.00     0.014 A 
ATOM     37  C   UNL A   1      40.144  22.440  26.995  1.00  0.00     0.014 A 
ATOM     38  C   UNL A   1      39.126  24.897  26.151  1.00  0.00     0.010 A 
ATOM     39  C   UNL A   1      40.756  23.624  27.404  1.00  0.00     0.010 A 
ATOM     40  C   UNL A   1      40.265  24.864  26.971  1.00  0.00    -0.014 A 
BRANCH  40  41
ATOM     41  C   UNL A   1      40.967  26.118  27.350  1.00  0.00     0.031 A 
ATOM     42  C   UNL A   1      42.347  26.403  26.819  1.00  0.00     0.074 A 
ATOM     43  C   UNL A   1      40.378  26.977  28.204  1.00  0.00     0.049 A 
ATOM     44  N   UNL A   1      43.136  27.418  27.063  1.00  0.00    -0.248 NA
ATOM     45  C   UNL A   1      42.927  25.397  25.917  1.00  0.00     0.031 C 
ATOM     46  C   UNL A   1      39.064  26.784  28.823  1.00  0.00     0.029 A 
ATOM     47  N   UNL A   1      40.805  28.181  28.705  1.00  0.00    -0.354 N 
ATOM     48  C   UNL A   1      44.311  27.166  26.361  1.00  0.00     0.074 A 
ATOM     49  C   UNL A   1      44.149  25.872  25.730  1.00  0.00     0.031 C 
ATOM     50  C   UNL A   1      38.785  27.841  29.602  1.00  0.00     0.029 A 
ATOM     51  C   UNL A   1      39.910  28.770  29.568  1.00  0.00     0.049 A 
ATOM     52  H   UNL A   1      41.671  28.585  28.469  1.00  0.00     0.167 HD
ATOM     53  C   UNL A   1      45.413  27.948  26.237  1.00  0.00     0.034 A 
ATOM     54  C   UNL A   1      39.990  29.925  30.257  1.00  0.00     0.034 A 
ATOM     55  C   UNL A   1      45.548  29.244  26.858  1.00  0.00     0.049 A 
ATOM     56  C   UNL A   1      41.214  30.787  30.087  1.00  0.00     0.074 A 
ATOM     57  C   UNL A   1      46.592  30.147  26.754  1.00  0.00     0.029 A 
ATOM     58  N   UNL A   1      44.609  29.821  27.705  1.00  0.00    -0.354 N 
ATOM     59  N   UNL A   1      42.292  30.560  29.372  1.00  0.00    -0.248 NA
ATOM     60  C   UNL A   1      41.221  32.070  30.800  1.00  0.00     0.031 C 
ATOM     61  C   UNL A   1      46.312  31.240  27.583  1.00  0.00     0.029 A 
ATOM     62  C   UNL A   1      45.060  31.056  28.149  1.00  0.00     0.049 A 
ATOM     63  H   UNL A   1      43.748  29.414  27.954  1.00  0.00     0.167 HD
ATOM     64  C   UNL A   1      43.095  31.685  29.532  1.00  0.00     0.074 A 
ATOM     65  C   UNL A   1      42.365  32.598  30.389  1.00  0.00     0.031 C 
ATOM     66  C   UNL A   1      44.326  31.946  29.017  1.00  0.00     0.034 A 
BRANCH  53  67
ATOM     67  C   UNL A   1      46.564  27.405  25.422  1.00  0.00     0.023 A 
ATOM     68  C   UNL A   1      46.878  27.919  24.151  1.00  0.00     0.031 A 
ATOM     69  C   UNL A   1      47.341  26.338  25.907  1.00  0.00     0.131 A 
ATOM     70  C   UNL A   1      47.884  27.318  23.378  1.00  0.00     0.055 A 
ATOM     71  C   UNL A   1      48.396  25.797  25.168  1.00  0.00     0.041 A 
ATOM     72  F   UNL A   1      47.080  25.792  27.104  1.00  0.00    -0.206 F 
ATOM     73  C   UNL A   1      48.662  26.276  23.888  1.00  0.00     0.022 A 
BRANCH  70  74
ATOM     74  S   UNL A   1      48.065  27.822  21.645  1.00  0.00     0.124 S 
ATOM     75  O   UNL A   1      49.198  28.743  21.724  1.00  0.00    -0.237 OA
ATOM     76  O   UNL A   1      48.319  26.553  20.972  1.00  0.00    -0.237 OA
ATOM     77  O   UNL A   1      46.783  28.448  21.334  1.00  0.00    -0.744 OA
ENDBRANCH  70  74
ENDBRANCH  53  67
BRANCH  54  78
ATOM     78  C   UNL A   1      38.884  30.339  31.167  1.00  0.00     0.023 A 
ATOM     79  C   UNL A   1      37.936  31.294  30.767  1.00  0.00     0.031 A 
ATOM     80  C   UNL A   1      38.784  29.813  32.466  1.00  0.00     0.131 A 
ATOM     81  C   UNL A   1      36.957  31.730  31.673  1.00  0.00     0.055 A 
ATOM     82  C   UNL A   1      37.777  30.211  33.347  1.00  0.00     0.041 A 
ATOM     83  F   UNL A   1      39.659  28.889  32.895  1.00  0.00    -0.206 F 
ATOM     84  C   UNL A   1      36.864  31.186  32.957  1.00  0.00     0.022 A 
BRANCH  81  85
ATOM     85  S   UNL A   1      35.851  33.079  31.175  1.00  0.00     0.124 S 
ATOM     86  O   UNL A   1      34.543  32.441  31.266  1.00  0.00    -0.237 OA
ATOM     87  O   UNL A   1      36.142  34.094  32.182  1.00  0.00    -0.237 OA
ATOM     88  O   UNL A   1      36.296  33.401  29.822  1.00  0.00    -0.744 OA
ENDBRANCH  81  85
ENDBRANCH  54  78
BRANCH  66  89
ATOM     89  C   UNL A   1      44.929  33.289  29.347  1.00  0.00     0.023 A 
ATOM     90  C   UNL A   1      44.768  34.398  28.499  1.00  0.00     0.031 A 
ATOM     91  C   UNL A   1      45.706  33.451  30.508  1.00  0.00     0.131 A 
ATOM     92  C   UNL A   1      45.432  35.600  28.785  1.00  0.00     0.055 A 
ATOM     93  C   UNL A   1      46.312  34.668  30.821  1.00  0.00     0.041 A 
ATOM     94  F   UNL A   1      45.895  32.425  31.353  1.00  0.00    -0.206 F 
ATOM     95  C   UNL A   1      46.192  35.746  29.949  1.00  0.00     0.022 A 
BRANCH  92  96
ATOM     96  S   UNL A   1      45.387  36.933  27.556  1.00  0.00     0.124 S 
ATOM     97  O   UNL A   1      44.007  36.870  27.088  1.00  0.00    -0.237 OA
ATOM     98  O   UNL A   1      45.737  38.103  28.354  1.00  0.00    -0.237 OA
ATOM     99  O   UNL A   1      46.394  36.529  26.576  1.00  0.00    -0.744 OA
ENDBRANCH  92  96
ENDBRANCH  66  89
ENDBRANCH  40  41
ENDBRANCH  32  35
ENDBRANCH  30  31
ENDBRANCH   1  30
TORSDOF 18
ENDMDL
MODEL 3
REMARK VINA RESULT:     -11.5      4.685      9.743
REMARK SMILES CC[C@@]1(CO)CCCN(c2nc(-c3ccc(C)s3)ccc2C(=O)NCCCNC(=O)c2ccc(-c3c4nc(c(-c5cc(S(=O)(=O)[O-])ccc5F)c5ccc([nH]5)c(-c5cc(S(=O)(=O)[O-])ccc5F)c5nc(c(-c6cc(S(=O)(=O)[O-])ccc6F)c6ccc3[nH]6)C=C5)C=C4)cc2)C1
REMARK SMILES IDX 26 1 25 2 24 3 22 4 23 5 21 7 10 8 11 9 12 10 20 11 19 12
REMARK SMILES IDX 9 13 3 14 6 15 94 16 7 17 8 18 2 19 1 20 4 21 5 22 13 24
REMARK SMILES IDX 14 25 18 26 15 27 16 28 17 29 27 30 28 31 29 32 30 34 31 35
REMARK SMILES IDX 32 36 93 37 33 38 92 39 34 40 35 41 36 42 86 43 37 44 91 45
REMARK SMILES IDX 85 46 87 47 38 48 90 49 84 50 83 51 39 53 71 54 51 55 70 56
REMARK SMILES IDX 52 57 55 58 69 59 88 60 53 61 54 62 68 64 89 65 56 66 40 67
REMARK SMILES IDX 41 68 49 69 42 70 48 71 50 72 47 73 43 74 44 75 45 76 46 77
REMARK SMILES IDX 72 78 73 79 81 80 74 81 80 82 82 83 79 84 75 85 76 86 77 87
REMARK SMILES IDX 78 88 57 89 58 90 66 91 59 92 65 93 67 94 64 95 60 96 61 97
REMARK SMILES IDX 62 98 63 99
REMARK H PARENT 24 6 5 23 28 33 87 52 55 63
REMARK Flexibility Score: inf
ROOT
ATOM      1  C   UNL A   1      36.292  23.129  24.409  1.00  0.00     0.042 C 
ENDROOT
BRANCH   1   2
ATOM      2  C   UNL A   1      35.222  24.167  24.068  1.00  0.00     0.118 C 
BRANCH   2   3
ATOM      3  N   UNL A   1      34.662  23.920  22.754  1.00  0.00    -0.352 N 
ATOM      4  C   UNL A   1      33.563  24.356  22.055  1.00  0.00     0.255 C 
ATOM      5  O   UNL A   1      33.459  23.825  20.952  1.00  0.00    -0.269 OA
ATOM      6  H   UNL A   1      35.203  23.281  22.235  1.00  0.00     0.163 HD
BRANCH   4   7
ATOM      7  C   UNL A   1      32.609  25.412  22.543  1.00  0.00     0.082 A 
ATOM      8  C   UNL A   1      31.437  25.088  23.264  1.00  0.00     0.142 A 
ATOM      9  N   UNL A   1      30.440  26.008  23.443  1.00  0.00    -0.229 NA
ATOM     10  C   UNL A   1      30.627  27.275  23.020  1.00  0.00     0.083 A 
ATOM     11  C   UNL A   1      32.800  26.760  22.216  1.00  0.00     0.020 A 
ATOM     12  C   UNL A   1      31.802  27.700  22.436  1.00  0.00     0.031 A 
BRANCH   8  13
ATOM     13  N   UNL A   1      31.179  23.872  23.854  1.00  0.00    -0.355 N 
ATOM     14  C   UNL A   1      31.494  22.936  26.125  1.00  0.00     0.011 C 
ATOM     15  C   UNL A   1      31.686  21.553  25.436  1.00  0.00     0.013 C 
ATOM     16  C   UNL A   1      30.652  23.849  25.206  1.00  0.00     0.127 C 
ATOM     17  C   UNL A   1      32.233  21.666  24.011  1.00  0.00     0.022 C 
ATOM     18  C   UNL A   1      31.378  22.604  23.163  1.00  0.00     0.118 C 
BRANCH  14  19
ATOM     19  C   UNL A   1      30.724  22.686  27.457  1.00  0.00     0.008 C 
ATOM     20  C   UNL A   1      29.204  22.658  27.338  1.00  0.00     0.004 C 
ENDBRANCH  14  19
BRANCH  14  21
ATOM     21  C   UNL A   1      32.868  23.600  26.388  1.00  0.00     0.164 C 
BRANCH  21  22
ATOM     22  O   UNL A   1      32.737  25.015  26.519  1.00  0.00    -0.396 OA
ATOM     23  H   UNL A   1      33.472  25.359  27.052  1.00  0.00     0.210 HD
ENDBRANCH  21  22
ENDBRANCH  14  21
ENDBRANCH   8  13
BRANCH  10  24
ATOM     24  C   UNL A   1      29.508  28.198  23.171  1.00  0.00     0.053 A 
ATOM     25  C   UNL A   1      28.155  27.913  23.158  1.00  0.00     0.022 A 
ATOM     26  S   UNL A   1      29.788  29.881  23.284  1.00  0.00    -0.139 S 
ATOM     27  C   UNL A   1      27.351  29.088  23.187  1.00  0.00     0.016 A 
ATOM     28  C   UNL A   1      28.113  30.237  23.222  1.00  0.00     0.002 A 
ATOM     29  C   UNL A   1      27.654  31.654  23.199  1.00  0.00     0.056 C 
ENDBRANCH  10  24
ENDBRANCH   4   7
ENDBRANCH   2   3
ENDBRANCH   1   2
BRANCH   1  30
ATOM     30  C   UNL A   1      36.746  23.176  25.868  1.00  0.00     0.118 C 
BRANCH  30  31
ATOM     31  N   UNL A   1      37.886  22.308  26.107  1.00  0.00    -0.352 N 
ATOM     32  C   UNL A   1      39.183  22.622  26.416  1.00  0.00     0.251 C 
ATOM     33  H   UNL A   1      37.698  21.345  26.036  1.00  0.00     0.163 HD
ATOM     34  O   UNL A   1      40.047  21.751  26.291  1.00  0.00    -0.269 OA
BRANCH  32  35
ATOM     35  C   UNL A   1      39.555  23.974  26.889  1.00  0.00     0.039 A 
ATOM     36  C   UNL A   1      40.016  24.907  25.955  1.00  0.00     0.014 A 
ATOM     37  C   UNL A   1      39.531  24.305  28.247  1.00  0.00     0.014 A 
ATOM     38  C   UNL A   1      40.423  26.175  26.378  1.00  0.00     0.010 A 
ATOM     39  C   UNL A   1      39.870  25.594  28.660  1.00  0.00     0.010 A 
ATOM     40  C   UNL A   1      40.337  26.536  27.732  1.00  0.00    -0.014 A 
BRANCH  40  41
ATOM     41  C   UNL A   1      40.768  27.883  28.189  1.00  0.00     0.031 A 
ATOM     42  C   UNL A   1      42.226  28.259  28.167  1.00  0.00     0.074 A 
ATOM     43  C   UNL A   1      39.851  28.748  28.664  1.00  0.00     0.049 A 
ATOM     44  N   UNL A   1      42.802  29.367  28.560  1.00  0.00    -0.248 NA
ATOM     45  C   UNL A   1      43.162  27.243  27.664  1.00  0.00     0.031 C 
ATOM     46  C   UNL A   1      38.416  28.477  28.780  1.00  0.00     0.029 A 
ATOM     47  N   UNL A   1      39.985  30.027  29.140  1.00  0.00    -0.354 N 
ATOM     48  C   UNL A   1      44.168  29.175  28.369  1.00  0.00     0.074 A 
ATOM     49  C   UNL A   1      44.333  27.822  27.879  1.00  0.00     0.031 C 
ATOM     50  C   UNL A   1      37.802  29.563  29.274  1.00  0.00     0.029 A 
ATOM     51  C   UNL A   1      38.798  30.595  29.542  1.00  0.00     0.049 A 
ATOM     52  H   UNL A   1      40.849  30.495  29.190  1.00  0.00     0.167 HD
ATOM     53  C   UNL A   1      45.185  30.051  28.564  1.00  0.00     0.034 A 
ATOM     54  C   UNL A   1      38.543  31.808  30.072  1.00  0.00     0.034 A 
ATOM     55  C   UNL A   1      44.997  31.403  29.034  1.00  0.00     0.049 A 
ATOM     56  C   UNL A   1      39.686  32.772  30.259  1.00  0.00     0.074 A 
ATOM     57  C   UNL A   1      45.947  32.395  29.211  1.00  0.00     0.029 A 
ATOM     58  N   UNL A   1      43.777  31.953  29.407  1.00  0.00    -0.354 N 
ATOM     59  N   UNL A   1      40.965  32.594  30.018  1.00  0.00    -0.248 NA
ATOM     60  C   UNL A   1      39.347  34.105  30.770  1.00  0.00     0.031 C 
ATOM     61  C   UNL A   1      45.311  33.522  29.747  1.00  0.00     0.029 A 
ATOM     62  C   UNL A   1      43.952  33.261  29.836  1.00  0.00     0.049 A 
ATOM     63  H   UNL A   1      42.913  31.483  29.371  1.00  0.00     0.167 HD
ATOM     64  C   UNL A   1      41.579  33.805  30.325  1.00  0.00     0.074 A 
ATOM     65  C   UNL A   1      40.526  34.709  30.743  1.00  0.00     0.031 C 
ATOM     66  C   UNL A   1      42.893  34.143  30.266  1.00  0.00     0.034 A 
BRANCH  53  67
ATOM     67  C   UNL A   1      46.589  29.560  28.293  1.00  0.00     0.023 A 
ATOM     68  C   UNL A   1      47.378  28.980  29.302  1.00  0.00     0.031 A 
ATOM     69  C   UNL A   1      47.160  29.700  27.015  1.00  0.00     0.131 A 
ATOM     70  C   UNL A   1      48.713  28.635  29.041  1.00  0.00     0.055 A 
ATOM     71  C   UNL A   1      48.462  29.279  26.739  1.00  0.00     0.041 A 
ATOM     72  F   UNL A   1      46.464  30.263  26.015  1.00  0.00    -0.206 F 
ATOM     73  C   UNL A   1      49.253  28.758  27.758  1.00  0.00     0.022 A 
BRANCH  70  74
ATOM     74  S   UNL A   1      49.775  28.159  30.432  1.00  0.00     0.124 S 
ATOM     75  O   UNL A   1      48.915  28.460  31.575  1.00  0.00    -0.237 OA
ATOM     76  O   UNL A   1      50.021  26.745  30.172  1.00  0.00    -0.237 OA
ATOM     77  O   UNL A   1      50.938  29.031  30.289  1.00  0.00    -0.744 OA
ENDBRANCH  70  74
ENDBRANCH  53  67
BRANCH  54  78
ATOM     78  C   UNL A   1      37.154  32.184  30.462  1.00  0.00     0.023 A 
ATOM     79  C   UNL A   1      36.274  32.763  29.535  1.00  0.00     0.031 A 
ATOM     80  C   UNL A   1      36.701  32.004  31.780  1.00  0.00     0.131 A 
ATOM     81  C   UNL A   1      35.002  33.188  29.949  1.00  0.00     0.055 A 
ATOM     82  C   UNL A   1      35.417  32.382  32.176  1.00  0.00     0.041 A 
ATOM     83  F   UNL A   1      37.500  31.445  32.703  1.00  0.00    -0.206 F 
ATOM     84  C   UNL A   1      34.563  32.991  31.261  1.00  0.00     0.022 A 
BRANCH  81  85
ATOM     85  S   UNL A   1      33.954  34.077  28.766  1.00  0.00     0.124 S 
ATOM     86  O   UNL A   1      33.591  33.017  27.833  1.00  0.00    -0.237 OA
ATOM     87  O   UNL A   1      32.883  34.573  29.624  1.00  0.00    -0.237 OA
ATOM     88  O   UNL A   1      34.844  35.105  28.229  1.00  0.00    -0.744 OA
ENDBRANCH  81  85
ENDBRANCH  54  78
BRANCH  66  89
ATOM     89  C   UNL A   1      43.245  35.565  30.632  1.00  0.00     0.023 A 
ATOM     90  C   UNL A   1      43.301  36.583  29.665  1.00  0.00     0.031 A 
ATOM     91  C   UNL A   1      43.564  35.895  31.961  1.00  0.00     0.131 A 
ATOM     92  C   UNL A   1      43.736  37.867  30.026  1.00  0.00     0.055 A 
ATOM     93  C   UNL A   1      43.934  37.190  32.326  1.00  0.00     0.041 A 
ATOM     94  F   UNL A   1      43.530  34.962  32.925  1.00  0.00    -0.206 F 
ATOM     95  C   UNL A   1      44.039  38.181  31.354  1.00  0.00     0.022 A 
BRANCH  92  96
ATOM     96  S   UNL A   1      44.014  39.091  28.717  1.00  0.00     0.124 S 
ATOM     97  O   UNL A   1      42.658  39.340  28.240  1.00  0.00    -0.237 OA
ATOM     98  O   UNL A   1      44.646  40.186  29.445  1.00  0.00    -0.237 OA
ATOM     99  O   UNL A   1      44.885  38.391  27.773  1.00  0.00    -0.744 OA
ENDBRANCH  92  96
ENDBRANCH  66  89
ENDBRANCH  40  41
ENDBRANCH  32  35
ENDBRANCH  30  31
ENDBRANCH   1  30
TORSDOF 18
ENDMDL
