MODEL 1
REMARK VINA RESULT:     -11.5      0.000      0.000
REMARK SMILES CC(C)C[C@H](CNC(=O)N[C@@H](C)C1CCCCC1)C(=O)NCCCNC(=O)c1ccc(-c2c3nc(c(-c4cc(S(=O)(=O)[O-])ccc4F)c4ccc([nH]4)c(-c4cc(S(=O)(=O)[O-])ccc4F)c4nc(c(-c5cc(S(=O)(=O)[O-])ccc5F)c5ccc2[nH]5)C=C4)C=C3)cc1
REMARK SMILES IDX 22 1 21 2 19 3 20 4 5 6 4 7 2 8 1 9 3 10 6 11 7 12 8 13 9 15
REMARK SMILES IDX 10 16 11 18 12 19 13 20 14 21 18 22 15 23 17 24 16 25 23 26
REMARK SMILES IDX 24 27 25 28 26 29 27 31 28 32 29 33 90 34 30 35 89 36 31 37
REMARK SMILES IDX 32 38 33 39 83 40 34 41 88 42 82 43 84 44 35 45 87 46 81 47
REMARK SMILES IDX 80 48 36 50 68 51 48 52 67 53 49 54 52 55 66 56 85 57 50 58
REMARK SMILES IDX 51 59 65 61 86 62 53 63 37 64 38 65 46 66 39 67 45 68 47 69
REMARK SMILES IDX 44 70 40 71 41 72 42 73 43 74 69 75 70 76 78 77 71 78 77 79
REMARK SMILES IDX 79 80 76 81 72 82 73 83 74 84 75 85 54 86 55 87 63 88 56 89
REMARK SMILES IDX 62 90 64 91 61 92 57 93 58 94 59 95 60 96
REMARK H PARENT 21 5 7 14 10 17 25 30 84 49 52 60
REMARK Flexibility Score: inf
ROOT
ATOM      1  C   UNL A   1      31.731  28.396  27.271  1.00  0.00     0.117 C 
ENDROOT
BRANCH   1   2
ATOM      2  N   UNL A   1      31.012  27.135  27.202  1.00  0.00    -0.356 N 
ATOM      3  C   UNL A   1      30.673  26.392  26.113  1.00  0.00     0.224 C 
ATOM      4  O   UNL A   1      30.070  25.332  26.288  1.00  0.00    -0.275 OA
ATOM      5  H   UNL A   1      30.729  26.764  28.069  1.00  0.00     0.163 HD
BRANCH   3   6
ATOM      6  C   UNL A   1      31.001  26.884  24.708  1.00  0.00     0.098 C 
BRANCH   6   7
ATOM      7  C   UNL A   1      29.798  26.905  23.722  1.00  0.00     0.018 C 
BRANCH   7   8
ATOM      8  C   UNL A   1      29.469  28.260  23.040  1.00  0.00    -0.017 C 
ATOM      9  C   UNL A   1      27.989  28.633  23.112  1.00  0.00     0.007 C 
ATOM     10  C   UNL A   1      30.324  29.387  23.627  1.00  0.00     0.007 C 
ENDBRANCH   7   8
ENDBRANCH   6   7
BRANCH   6  11
ATOM     11  C   UNL A   1      32.308  26.167  24.274  1.00  0.00     0.131 C 
BRANCH  11  12
ATOM     12  N   UNL A   1      32.586  26.136  22.847  1.00  0.00    -0.337 N 
ATOM     13  C   UNL A   1      33.030  25.247  21.960  1.00  0.00     0.315 C 
ATOM     14  H   UNL A   1      32.396  27.003  22.424  1.00  0.00     0.165 HD
ATOM     15  O   UNL A   1      33.222  25.645  20.809  1.00  0.00    -0.249 OA
ATOM     16  N   UNL A   1      33.287  23.969  22.229  1.00  0.00    -0.335 N 
ATOM     17  H   UNL A   1      33.726  23.500  21.483  1.00  0.00     0.165 HD
BRANCH  16  18
ATOM     18  C   UNL A   1      33.062  23.116  23.382  1.00  0.00     0.083 C 
ATOM     19  C   UNL A   1      32.247  21.895  22.959  1.00  0.00     0.031 C 
BRANCH  18  20
ATOM     20  C   UNL A   1      34.385  22.834  24.121  1.00  0.00     0.011 C 
ATOM     21  C   UNL A   1      34.469  21.351  24.524  1.00  0.00     0.006 C 
ATOM     22  C   UNL A   1      35.640  23.281  23.360  1.00  0.00     0.006 C 
ATOM     23  C   UNL A   1      35.745  21.044  25.296  1.00  0.00     0.000 C 
ATOM     24  C   UNL A   1      36.908  22.960  24.150  1.00  0.00     0.000 C 
ATOM     25  C   UNL A   1      36.978  21.481  24.513  1.00  0.00     0.000 C 
ENDBRANCH  18  20
ENDBRANCH  16  18
ENDBRANCH  11  12
ENDBRANCH   6  11
ENDBRANCH   3   6
ENDBRANCH   1   2
BRANCH   1  26
ATOM     26  C   UNL A   1      33.235  28.202  27.207  1.00  0.00     0.042 C 
BRANCH  26  27
ATOM     27  C   UNL A   1      33.891  29.153  26.227  1.00  0.00     0.118 C 
BRANCH  27  28
ATOM     28  N   UNL A   1      33.893  30.517  26.733  1.00  0.00    -0.352 N 
ATOM     29  C   UNL A   1      34.687  31.073  27.705  1.00  0.00     0.251 C 
ATOM     30  H   UNL A   1      33.234  31.124  26.322  1.00  0.00     0.163 HD
ATOM     31  O   UNL A   1      34.366  32.133  28.225  1.00  0.00    -0.269 OA
BRANCH  29  32
ATOM     32  C   UNL A   1      35.914  30.361  28.116  1.00  0.00     0.039 A 
ATOM     33  C   UNL A   1      37.047  30.425  27.306  1.00  0.00     0.014 A 
ATOM     34  C   UNL A   1      35.943  29.657  29.323  1.00  0.00     0.014 A 
ATOM     35  C   UNL A   1      38.234  29.837  27.745  1.00  0.00     0.010 A 
ATOM     36  C   UNL A   1      37.147  29.167  29.804  1.00  0.00     0.010 A 
ATOM     37  C   UNL A   1      38.304  29.243  29.016  1.00  0.00    -0.014 A 
BRANCH  37  38
ATOM     38  C   UNL A   1      39.570  28.677  29.542  1.00  0.00     0.031 A 
ATOM     39  C   UNL A   1      40.286  29.375  30.664  1.00  0.00     0.074 A 
ATOM     40  C   UNL A   1      40.105  27.587  28.959  1.00  0.00     0.049 A 
ATOM     41  N   UNL A   1      41.450  29.110  31.195  1.00  0.00    -0.248 NA
ATOM     42  C   UNL A   1      39.617  30.552  31.244  1.00  0.00     0.031 C 
ATOM     43  C   UNL A   1      39.515  26.851  27.838  1.00  0.00     0.029 A 
ATOM     44  N   UNL A   1      41.271  26.913  29.218  1.00  0.00    -0.354 N 
ATOM     45  C   UNL A   1      41.659  30.090  32.160  1.00  0.00     0.074 A 
ATOM     46  C   UNL A   1      40.533  30.995  32.090  1.00  0.00     0.031 C 
ATOM     47  C   UNL A   1      40.306  25.812  27.528  1.00  0.00     0.029 A 
ATOM     48  C   UNL A   1      41.488  25.841  28.383  1.00  0.00     0.049 A 
ATOM     49  H   UNL A   1      41.894  27.171  29.936  1.00  0.00     0.167 HD
ATOM     50  C   UNL A   1      42.684  30.207  33.038  1.00  0.00     0.034 A 
ATOM     51  C   UNL A   1      42.532  24.993  28.302  1.00  0.00     0.034 A 
ATOM     52  C   UNL A   1      43.792  29.286  33.094  1.00  0.00     0.049 A 
ATOM     53  C   UNL A   1      43.685  25.173  29.257  1.00  0.00     0.074 A 
ATOM     54  C   UNL A   1      44.857  29.274  33.977  1.00  0.00     0.029 A 
ATOM     55  N   UNL A   1      43.986  28.220  32.224  1.00  0.00    -0.354 N 
ATOM     56  N   UNL A   1      43.843  26.074  30.200  1.00  0.00    -0.248 NA
ATOM     57  C   UNL A   1      44.796  24.221  29.142  1.00  0.00     0.031 C 
ATOM     58  C   UNL A   1      45.735  28.255  33.591  1.00  0.00     0.029 A 
ATOM     59  C   UNL A   1      45.175  27.572  32.522  1.00  0.00     0.049 A 
ATOM     60  H   UNL A   1      43.370  27.964  31.500  1.00  0.00     0.167 HD
ATOM     61  C   UNL A   1      45.059  25.776  30.809  1.00  0.00     0.074 A 
ATOM     62  C   UNL A   1      45.582  24.604  30.137  1.00  0.00     0.031 C 
ATOM     63  C   UNL A   1      45.687  26.411  31.832  1.00  0.00     0.034 A 
BRANCH  50  64
ATOM     64  C   UNL A   1      42.662  31.384  33.984  1.00  0.00     0.023 A 
ATOM     65  C   UNL A   1      42.012  31.321  35.229  1.00  0.00     0.031 A 
ATOM     66  C   UNL A   1      43.277  32.597  33.625  1.00  0.00     0.131 A 
ATOM     67  C   UNL A   1      41.926  32.466  36.034  1.00  0.00     0.055 A 
ATOM     68  C   UNL A   1      43.263  33.707  34.471  1.00  0.00     0.041 A 
ATOM     69  F   UNL A   1      43.891  32.728  32.439  1.00  0.00    -0.206 F 
ATOM     70  C   UNL A   1      42.571  33.651  35.677  1.00  0.00     0.022 A 
BRANCH  67  71
ATOM     71  S   UNL A   1      40.829  32.426  37.479  1.00  0.00     0.124 S 
ATOM     72  O   UNL A   1      39.742  31.576  37.000  1.00  0.00    -0.237 OA
ATOM     73  O   UNL A   1      41.685  31.851  38.509  1.00  0.00    -0.237 OA
ATOM     74  O   UNL A   1      40.471  33.829  37.675  1.00  0.00    -0.744 OA
ENDBRANCH  67  71
ENDBRANCH  50  64
BRANCH  51  75
ATOM     75  C   UNL A   1      42.552  23.913  27.273  1.00  0.00     0.023 A 
ATOM     76  C   UNL A   1      41.963  22.664  27.525  1.00  0.00     0.031 A 
ATOM     77  C   UNL A   1      43.202  24.098  26.039  1.00  0.00     0.131 A 
ATOM     78  C   UNL A   1      42.079  21.632  26.580  1.00  0.00     0.055 A 
ATOM     79  C   UNL A   1      43.259  23.088  25.077  1.00  0.00     0.041 A 
ATOM     80  F   UNL A   1      43.783  25.272  25.745  1.00  0.00    -0.206 F 
ATOM     81  C   UNL A   1      42.708  21.840  25.351  1.00  0.00     0.022 A 
BRANCH  78  82
ATOM     82  S   UNL A   1      41.482  19.979  27.025  1.00  0.00     0.124 S 
ATOM     83  O   UNL A   1      40.713  19.614  25.841  1.00  0.00    -0.237 OA
ATOM     84  O   UNL A   1      42.730  19.250  27.230  1.00  0.00    -0.237 OA
ATOM     85  O   UNL A   1      40.695  20.215  28.234  1.00  0.00    -0.744 OA
ENDBRANCH  78  82
ENDBRANCH  51  75
BRANCH  63  86
ATOM     86  C   UNL A   1      46.992  25.821  32.310  1.00  0.00     0.023 A 
ATOM     87  C   UNL A   1      47.045  24.911  33.379  1.00  0.00     0.031 A 
ATOM     88  C   UNL A   1      48.199  26.175  31.681  1.00  0.00     0.131 A 
ATOM     89  C   UNL A   1      48.285  24.424  33.820  1.00  0.00     0.055 A 
ATOM     90  C   UNL A   1      49.422  25.636  32.081  1.00  0.00     0.041 A 
ATOM     91  F   UNL A   1      48.207  27.044  30.657  1.00  0.00    -0.206 F 
ATOM     92  C   UNL A   1      49.471  24.764  33.164  1.00  0.00     0.022 A 
BRANCH  89  93
ATOM     93  S   UNL A   1      48.337  23.407  35.321  1.00  0.00     0.124 S 
ATOM     94  O   UNL A   1      47.502  24.178  36.237  1.00  0.00    -0.237 OA
ATOM     95  O   UNL A   1      47.778  22.141  34.861  1.00  0.00    -0.237 OA
ATOM     96  O   UNL A   1      49.758  23.370  35.661  1.00  0.00    -0.744 OA
ENDBRANCH  89  93
ENDBRANCH  63  86
ENDBRANCH  37  38
ENDBRANCH  29  32
ENDBRANCH  27  28
ENDBRANCH  26  27
ENDBRANCH   1  26
TORSDOF 19
ENDMDL
MODEL 2
REMARK VINA RESULT:     -11.3      1.298      3.455
REMARK SMILES CC(C)C[C@H](CNC(=O)N[C@@H](C)C1CCCCC1)C(=O)NCCCNC(=O)c1ccc(-c2c3nc(c(-c4cc(S(=O)(=O)[O-])ccc4F)c4ccc([nH]4)c(-c4cc(S(=O)(=O)[O-])ccc4F)c4nc(c(-c5cc(S(=O)(=O)[O-])ccc5F)c5ccc2[nH]5)C=C4)C=C3)cc1
REMARK SMILES IDX 22 1 21 2 19 3 20 4 5 6 4 7 2 8 1 9 3 10 6 11 7 12 8 13 9 15
REMARK SMILES IDX 10 16 11 18 12 19 13 20 14 21 18 22 15 23 17 24 16 25 23 26
REMARK SMILES IDX 24 27 25 28 26 29 27 31 28 32 29 33 90 34 30 35 89 36 31 37
REMARK SMILES IDX 32 38 33 39 83 40 34 41 88 42 82 43 84 44 35 45 87 46 81 47
REMARK SMILES IDX 80 48 36 50 68 51 48 52 67 53 49 54 52 55 66 56 85 57 50 58
REMARK SMILES IDX 51 59 65 61 86 62 53 63 37 64 38 65 46 66 39 67 45 68 47 69
REMARK SMILES IDX 44 70 40 71 41 72 42 73 43 74 69 75 70 76 78 77 71 78 77 79
REMARK SMILES IDX 79 80 76 81 72 82 73 83 74 84 75 85 54 86 55 87 63 88 56 89
REMARK SMILES IDX 62 90 64 91 61 92 57 93 58 94 59 95 60 96
REMARK H PARENT 21 5 7 14 10 17 25 30 84 49 52 60
REMARK Flexibility Score: inf
ROOT
ATOM      1  C   UNL A   1      32.263  27.141  26.567  1.00  0.00     0.117 C 
ENDROOT
BRANCH   1   2
ATOM      2  N   UNL A   1      33.388  26.721  25.750  1.00  0.00    -0.356 N 
ATOM      3  C   UNL A   1      33.544  25.588  25.012  1.00  0.00     0.224 C 
ATOM      4  O   UNL A   1      34.587  25.441  24.373  1.00  0.00    -0.275 OA
ATOM      5  H   UNL A   1      34.149  27.346  25.726  1.00  0.00     0.163 HD
BRANCH   3   6
ATOM      6  C   UNL A   1      32.465  24.512  25.008  1.00  0.00     0.098 C 
BRANCH   6   7
ATOM      7  C   UNL A   1      32.975  23.071  25.296  1.00  0.00     0.018 C 
BRANCH   7   8
ATOM      8  C   UNL A   1      33.802  22.861  26.594  1.00  0.00    -0.017 C 
ATOM      9  C   UNL A   1      32.949  22.495  27.806  1.00  0.00     0.007 C 
ATOM     10  C   UNL A   1      34.890  21.804  26.380  1.00  0.00     0.007 C 
ENDBRANCH   7   8
ENDBRANCH   6   7
BRANCH   6  11
ATOM     11  C   UNL A   1      31.590  24.754  23.749  1.00  0.00     0.131 C 
BRANCH  11  12
ATOM     12  N   UNL A   1      32.288  24.810  22.476  1.00  0.00    -0.337 N 
ATOM     13  C   UNL A   1      32.538  25.723  21.540  1.00  0.00     0.315 C 
ATOM     14  H   UNL A   1      32.682  23.938  22.242  1.00  0.00     0.165 HD
ATOM     15  O   UNL A   1      33.115  25.344  20.518  1.00  0.00    -0.249 OA
ATOM     16  N   UNL A   1      32.202  27.009  21.625  1.00  0.00    -0.335 N 
ATOM     17  H   UNL A   1      32.354  27.502  20.786  1.00  0.00     0.165 HD
BRANCH  16  18
ATOM     18  C   UNL A   1      31.662  27.842  22.684  1.00  0.00     0.083 C 
ATOM     19  C   UNL A   1      32.643  28.973  22.992  1.00  0.00     0.031 C 
BRANCH  18  20
ATOM     20  C   UNL A   1      30.213  28.260  22.366  1.00  0.00     0.011 C 
ATOM     21  C   UNL A   1      29.269  27.832  23.504  1.00  0.00     0.006 C 
ATOM     22  C   UNL A   1      30.045  29.748  22.028  1.00  0.00     0.006 C 
ATOM     23  C   UNL A   1      27.820  28.190  23.204  1.00  0.00     0.000 C 
ATOM     24  C   UNL A   1      28.585  30.086  21.735  1.00  0.00     0.000 C 
ATOM     25  C   UNL A   1      27.676  29.675  22.888  1.00  0.00     0.000 C 
ENDBRANCH  18  20
ENDBRANCH  16  18
ENDBRANCH  11  12
ENDBRANCH   6  11
ENDBRANCH   3   6
ENDBRANCH   1   2
BRANCH   1  26
ATOM     26  C   UNL A   1      32.281  28.634  26.844  1.00  0.00     0.042 C 
BRANCH  26  27
ATOM     27  C   UNL A   1      33.560  29.288  26.362  1.00  0.00     0.118 C 
BRANCH  27  28
ATOM     28  N   UNL A   1      33.628  30.682  26.773  1.00  0.00    -0.352 N 
ATOM     29  C   UNL A   1      34.456  31.266  27.698  1.00  0.00     0.251 C 
ATOM     30  H   UNL A   1      32.995  31.289  26.325  1.00  0.00     0.163 HD
ATOM     31  O   UNL A   1      34.190  32.374  28.145  1.00  0.00    -0.269 OA
BRANCH  29  32
ATOM     32  C   UNL A   1      35.654  30.529  28.150  1.00  0.00     0.039 A 
ATOM     33  C   UNL A   1      36.843  30.648  27.431  1.00  0.00     0.014 A 
ATOM     34  C   UNL A   1      35.598  29.746  29.306  1.00  0.00     0.014 A 
ATOM     35  C   UNL A   1      37.998  30.032  27.915  1.00  0.00     0.010 A 
ATOM     36  C   UNL A   1      36.767  29.226  29.840  1.00  0.00     0.010 A 
ATOM     37  C   UNL A   1      37.977  29.354  29.146  1.00  0.00    -0.014 A 
BRANCH  37  38
ATOM     38  C   UNL A   1      39.205  28.755  29.724  1.00  0.00     0.031 A 
ATOM     39  C   UNL A   1      39.823  29.366  30.950  1.00  0.00     0.074 A 
ATOM     40  C   UNL A   1      39.795  27.716  29.102  1.00  0.00     0.049 A 
ATOM     41  N   UNL A   1      40.946  29.065  31.548  1.00  0.00    -0.248 NA
ATOM     42  C   UNL A   1      39.099  30.491  31.565  1.00  0.00     0.031 C 
ATOM     43  C   UNL A   1      39.302  27.066  27.885  1.00  0.00     0.029 A 
ATOM     44  N   UNL A   1      40.944  27.029  29.399  1.00  0.00    -0.354 N 
ATOM     45  C   UNL A   1      41.068  29.968  32.599  1.00  0.00     0.074 A 
ATOM     46  C   UNL A   1      39.942  30.870  32.511  1.00  0.00     0.031 C 
ATOM     47  C   UNL A   1      40.126  26.059  27.558  1.00  0.00     0.029 A 
ATOM     48  C   UNL A   1      41.237  26.027  28.503  1.00  0.00     0.049 A 
ATOM     49  H   UNL A   1      41.507  27.233  30.181  1.00  0.00     0.167 HD
ATOM     50  C   UNL A   1      42.020  30.020  33.562  1.00  0.00     0.034 A 
ATOM     51  C   UNL A   1      42.293  25.192  28.439  1.00  0.00     0.034 A 
ATOM     52  C   UNL A   1      43.131  29.103  33.633  1.00  0.00     0.049 A 
ATOM     53  C   UNL A   1      43.367  25.302  29.492  1.00  0.00     0.074 A 
ATOM     54  C   UNL A   1      44.124  29.027  34.594  1.00  0.00     0.029 A 
ATOM     55  N   UNL A   1      43.403  28.109  32.701  1.00  0.00    -0.354 N 
ATOM     56  N   UNL A   1      43.441  26.127  30.512  1.00  0.00    -0.248 NA
ATOM     57  C   UNL A   1      44.493  24.367  29.391  1.00  0.00     0.031 C 
ATOM     58  C   UNL A   1      45.039  28.045  34.199  1.00  0.00     0.029 A 
ATOM     59  C   UNL A   1      44.571  27.445  33.040  1.00  0.00     0.049 A 
ATOM     60  H   UNL A   1      42.848  27.907  31.913  1.00  0.00     0.167 HD
ATOM     61  C   UNL A   1      44.609  25.788  31.189  1.00  0.00     0.074 A 
ATOM     62  C   UNL A   1      45.195  24.675  30.472  1.00  0.00     0.031 C 
ATOM     63  C   UNL A   1      45.148  26.344  32.305  1.00  0.00     0.034 A 
BRANCH  50  64
ATOM     64  C   UNL A   1      41.912  31.120  34.591  1.00  0.00     0.023 A 
ATOM     65  C   UNL A   1      40.856  31.164  35.519  1.00  0.00     0.031 A 
ATOM     66  C   UNL A   1      42.863  32.155  34.630  1.00  0.00     0.131 A 
ATOM     67  C   UNL A   1      40.734  32.255  36.392  1.00  0.00     0.055 A 
ATOM     68  C   UNL A   1      42.784  33.192  35.561  1.00  0.00     0.041 A 
ATOM     69  F   UNL A   1      43.879  32.183  33.754  1.00  0.00    -0.206 F 
ATOM     70  C   UNL A   1      41.707  33.256  36.439  1.00  0.00     0.022 A 
BRANCH  67  71
ATOM     71  S   UNL A   1      39.206  32.424  37.355  1.00  0.00     0.124 S 
ATOM     72  O   UNL A   1      38.603  31.105  37.184  1.00  0.00    -0.237 OA
ATOM     73  O   UNL A   1      39.707  32.731  38.690  1.00  0.00    -0.237 OA
ATOM     74  O   UNL A   1      38.500  33.516  36.687  1.00  0.00    -0.744 OA
ENDBRANCH  67  71
ENDBRANCH  50  64
BRANCH  51  75
ATOM     75  C   UNL A   1      42.405  24.196  27.334  1.00  0.00     0.023 A 
ATOM     76  C   UNL A   1      41.621  23.031  27.328  1.00  0.00     0.031 A 
ATOM     77  C   UNL A   1      43.332  24.370  26.290  1.00  0.00     0.131 A 
ATOM     78  C   UNL A   1      41.813  22.063  26.331  1.00  0.00     0.055 A 
ATOM     79  C   UNL A   1      43.474  23.433  25.265  1.00  0.00     0.041 A 
ATOM     80  F   UNL A   1      44.108  25.465  26.245  1.00  0.00    -0.206 F 
ATOM     81  C   UNL A   1      42.722  22.263  25.290  1.00  0.00     0.022 A 
BRANCH  78  82
ATOM     82  S   UNL A   1      40.926  20.488  26.471  1.00  0.00     0.124 S 
ATOM     83  O   UNL A   1      40.998  20.234  27.905  1.00  0.00    -0.237 OA
ATOM     84  O   UNL A   1      39.609  20.832  25.945  1.00  0.00    -0.237 OA
ATOM     85  O   UNL A   1      41.710  19.580  25.635  1.00  0.00    -0.744 OA
ENDBRANCH  78  82
ENDBRANCH  51  75
BRANCH  63  86
ATOM     86  C   UNL A   1      46.418  25.725  32.837  1.00  0.00     0.023 A 
ATOM     87  C   UNL A   1      46.394  24.667  33.762  1.00  0.00     0.031 A 
ATOM     88  C   UNL A   1      47.669  26.200  32.406  1.00  0.00     0.131 A 
ATOM     89  C   UNL A   1      47.599  24.153  34.265  1.00  0.00     0.055 A 
ATOM     90  C   UNL A   1      48.864  25.640  32.859  1.00  0.00     0.041 A 
ATOM     91  F   UNL A   1      47.751  27.212  31.527  1.00  0.00    -0.206 F 
ATOM     92  C   UNL A   1      48.834  24.618  33.803  1.00  0.00     0.022 A 
BRANCH  89  93
ATOM     93  S   UNL A   1      47.533  22.926  35.599  1.00  0.00     0.124 S 
ATOM     94  O   UNL A   1      46.196  23.143  36.141  1.00  0.00    -0.237 OA
ATOM     95  O   UNL A   1      47.735  21.672  34.881  1.00  0.00    -0.237 OA
ATOM     96  O   UNL A   1      48.631  23.319  36.481  1.00  0.00    -0.744 OA
ENDBRANCH  89  93
ENDBRANCH  63  86
ENDBRANCH  37  38
ENDBRANCH  29  32
ENDBRANCH  27  28
ENDBRANCH  26  27
ENDBRANCH   1  26
TORSDOF 19
ENDMDL
MODEL 3
REMARK VINA RESULT:     -11.3      1.340      1.684
REMARK SMILES CC(C)C[C@H](CNC(=O)N[C@@H](C)C1CCCCC1)C(=O)NCCCNC(=O)c1ccc(-c2c3nc(c(-c4cc(S(=O)(=O)[O-])ccc4F)c4ccc([nH]4)c(-c4cc(S(=O)(=O)[O-])ccc4F)c4nc(c(-c5cc(S(=O)(=O)[O-])ccc5F)c5ccc2[nH]5)C=C4)C=C3)cc1
REMARK SMILES IDX 22 1 21 2 19 3 20 4 5 6 4 7 2 8 1 9 3 10 6 11 7 12 8 13 9 15
REMARK SMILES IDX 10 16 11 18 12 19 13 20 14 21 18 22 15 23 17 24 16 25 23 26
REMARK SMILES IDX 24 27 25 28 26 29 27 31 28 32 29 33 90 34 30 35 89 36 31 37
REMARK SMILES IDX 32 38 33 39 83 40 34 41 88 42 82 43 84 44 35 45 87 46 81 47
REMARK SMILES IDX 80 48 36 50 68 51 48 52 67 53 49 54 52 55 66 56 85 57 50 58
REMARK SMILES IDX 51 59 65 61 86 62 53 63 37 64 38 65 46 66 39 67 45 68 47 69
REMARK SMILES IDX 44 70 40 71 41 72 42 73 43 74 69 75 70 76 78 77 71 78 77 79
REMARK SMILES IDX 79 80 76 81 72 82 73 83 74 84 75 85 54 86 55 87 63 88 56 89
REMARK SMILES IDX 62 90 64 91 61 92 57 93 58 94 59 95 60 96
REMARK H PARENT 21 5 7 14 10 17 25 30 84 49 52 60
REMARK Flexibility Score: inf
ROOT
ATOM      1  C   UNL A   1      31.981  28.360  27.094  1.00  0.00     0.117 C 
ENDROOT
BRANCH   1   2
ATOM      2  N   UNL A   1      31.062  27.237  27.152  1.00  0.00    -0.356 N 
ATOM      3  C   UNL A   1      30.558  26.479  26.140  1.00  0.00     0.224 C 
ATOM      4  O   UNL A   1      29.797  25.552  26.422  1.00  0.00    -0.275 OA
ATOM      5  H   UNL A   1      30.760  26.986  28.056  1.00  0.00     0.163 HD
BRANCH   3   6
ATOM      6  C   UNL A   1      30.901  26.798  24.690  1.00  0.00     0.098 C 
BRANCH   6   7
ATOM      7  C   UNL A   1      29.678  26.914  23.736  1.00  0.00     0.018 C 
BRANCH   7   8
ATOM      8  C   UNL A   1      29.474  28.273  23.012  1.00  0.00    -0.017 C 
ATOM      9  C   UNL A   1      28.017  28.730  22.977  1.00  0.00     0.007 C 
ATOM     10  C   UNL A   1      30.350  29.361  23.640  1.00  0.00     0.007 C 
ENDBRANCH   7   8
ENDBRANCH   6   7
BRANCH   6  11
ATOM     11  C   UNL A   1      32.073  25.863  24.288  1.00  0.00     0.131 C 
BRANCH  11  12
ATOM     12  N   UNL A   1      32.371  25.771  22.868  1.00  0.00    -0.337 N 
ATOM     13  C   UNL A   1      33.177  25.056  22.086  1.00  0.00     0.315 C 
ATOM     14  H   UNL A   1      31.832  26.407  22.345  1.00  0.00     0.165 HD
ATOM     15  O   UNL A   1      33.204  25.345  20.887  1.00  0.00    -0.249 OA
ATOM     16  N   UNL A   1      33.957  24.062  22.505  1.00  0.00    -0.335 N 
ATOM     17  H   UNL A   1      34.573  23.738  21.809  1.00  0.00     0.165 HD
BRANCH  16  18
ATOM     18  C   UNL A   1      34.097  23.353  23.764  1.00  0.00     0.083 C 
ATOM     19  C   UNL A   1      33.255  22.079  23.725  1.00  0.00     0.031 C 
BRANCH  18  20
ATOM     20  C   UNL A   1      35.584  23.180  24.132  1.00  0.00     0.011 C 
ATOM     21  C   UNL A   1      35.939  24.046  25.354  1.00  0.00     0.006 C 
ATOM     22  C   UNL A   1      36.019  21.722  24.332  1.00  0.00     0.006 C 
ATOM     23  C   UNL A   1      37.412  23.935  25.720  1.00  0.00     0.000 C 
ATOM     24  C   UNL A   1      37.498  21.633  24.703  1.00  0.00     0.000 C 
ATOM     25  C   UNL A   1      37.816  22.479  25.931  1.00  0.00     0.000 C 
ENDBRANCH  18  20
ENDBRANCH  16  18
ENDBRANCH  11  12
ENDBRANCH   6  11
ENDBRANCH   3   6
ENDBRANCH   1   2
BRANCH   1  26
ATOM     26  C   UNL A   1      33.428  27.913  26.981  1.00  0.00     0.042 C 
BRANCH  26  27
ATOM     27  C   UNL A   1      34.278  28.917  26.230  1.00  0.00     0.118 C 
BRANCH  27  28
ATOM     28  N   UNL A   1      33.959  30.281  26.626  1.00  0.00    -0.352 N 
ATOM     29  C   UNL A   1      34.476  31.019  27.662  1.00  0.00     0.251 C 
ATOM     30  H   UNL A   1      33.281  30.735  26.076  1.00  0.00     0.163 HD
ATOM     31  O   UNL A   1      33.895  32.025  28.045  1.00  0.00    -0.269 OA
BRANCH  29  32
ATOM     32  C   UNL A   1      35.725  30.565  28.306  1.00  0.00     0.039 A 
ATOM     33  C   UNL A   1      35.657  29.792  29.465  1.00  0.00     0.014 A 
ATOM     34  C   UNL A   1      36.961  30.884  27.736  1.00  0.00     0.014 A 
ATOM     35  C   UNL A   1      36.834  29.281  30.014  1.00  0.00     0.010 A 
ATOM     36  C   UNL A   1      38.115  30.288  28.220  1.00  0.00     0.010 A 
ATOM     37  C   UNL A   1      38.066  29.489  29.370  1.00  0.00    -0.014 A 
BRANCH  37  38
ATOM     38  C   UNL A   1      39.323  28.894  29.887  1.00  0.00     0.031 A 
ATOM     39  C   UNL A   1      40.016  29.526  31.062  1.00  0.00     0.074 A 
ATOM     40  C   UNL A   1      39.872  27.841  29.252  1.00  0.00     0.049 A 
ATOM     41  N   UNL A   1      41.170  29.231  31.598  1.00  0.00    -0.248 NA
ATOM     42  C   UNL A   1      39.333  30.666  31.696  1.00  0.00     0.031 C 
ATOM     43  C   UNL A   1      39.304  27.171  28.078  1.00  0.00     0.029 A 
ATOM     44  N   UNL A   1      41.034  27.153  29.494  1.00  0.00    -0.354 N 
ATOM     45  C   UNL A   1      41.358  30.153  32.623  1.00  0.00     0.074 A 
ATOM     46  C   UNL A   1      40.232  31.060  32.584  1.00  0.00     0.031 C 
ATOM     47  C   UNL A   1      40.104  26.153  27.723  1.00  0.00     0.029 A 
ATOM     48  C   UNL A   1      41.268  26.133  28.601  1.00  0.00     0.049 A 
ATOM     49  H   UNL A   1      41.642  27.370  30.237  1.00  0.00     0.167 HD
ATOM     50  C   UNL A   1      42.366  30.219  33.526  1.00  0.00     0.034 A 
ATOM     51  C   UNL A   1      42.315  25.291  28.491  1.00  0.00     0.034 A 
ATOM     52  C   UNL A   1      43.475  29.298  33.549  1.00  0.00     0.049 A 
ATOM     53  C   UNL A   1      43.450  25.416  29.477  1.00  0.00     0.074 A 
ATOM     54  C   UNL A   1      44.522  29.235  34.451  1.00  0.00     0.029 A 
ATOM     55  N   UNL A   1      43.687  28.285  32.622  1.00  0.00    -0.354 N 
ATOM     56  N   UNL A   1      43.588  26.261  30.475  1.00  0.00    -0.248 NA
ATOM     57  C   UNL A   1      44.565  24.474  29.328  1.00  0.00     0.031 C 
ATOM     58  C   UNL A   1      45.409  28.241  34.023  1.00  0.00     0.029 A 
ATOM     59  C   UNL A   1      44.871  27.621  32.905  1.00  0.00     0.049 A 
ATOM     60  H   UNL A   1      43.086  28.071  31.873  1.00  0.00     0.167 HD
ATOM     61  C   UNL A   1      44.792  25.929  31.088  1.00  0.00     0.074 A 
ATOM     62  C   UNL A   1      45.330  24.799  30.359  1.00  0.00     0.031 C 
ATOM     63  C   UNL A   1      45.399  26.503  32.159  1.00  0.00     0.034 A 
BRANCH  50  64
ATOM     64  C   UNL A   1      42.323  31.339  34.539  1.00  0.00     0.023 A 
ATOM     65  C   UNL A   1      42.873  32.605  34.267  1.00  0.00     0.031 A 
ATOM     66  C   UNL A   1      41.747  31.132  35.805  1.00  0.00     0.131 A 
ATOM     67  C   UNL A   1      42.904  33.586  35.269  1.00  0.00     0.055 A 
ATOM     68  C   UNL A   1      41.703  32.142  36.768  1.00  0.00     0.041 A 
ATOM     69  F   UNL A   1      41.230  29.938  36.134  1.00  0.00    -0.206 F 
ATOM     70  C   UNL A   1      42.298  33.373  36.509  1.00  0.00     0.022 A 
BRANCH  67  71
ATOM     71  S   UNL A   1      43.884  35.085  34.980  1.00  0.00     0.124 S 
ATOM     72  O   UNL A   1      45.061  34.542  34.308  1.00  0.00    -0.237 OA
ATOM     73  O   UNL A   1      42.991  35.891  34.156  1.00  0.00    -0.237 OA
ATOM     74  O   UNL A   1      44.127  35.599  36.326  1.00  0.00    -0.744 OA
ENDBRANCH  67  71
ENDBRANCH  50  64
BRANCH  51  75
ATOM     75  C   UNL A   1      42.358  24.274  27.402  1.00  0.00     0.023 A 
ATOM     76  C   UNL A   1      41.794  23.001  27.579  1.00  0.00     0.031 A 
ATOM     77  C   UNL A   1      43.004  24.543  26.181  1.00  0.00     0.131 A 
ATOM     78  C   UNL A   1      41.931  22.028  26.577  1.00  0.00     0.055 A 
ATOM     79  C   UNL A   1      43.082  23.592  25.162  1.00  0.00     0.041 A 
ATOM     80  F   UNL A   1      43.562  25.744  25.956  1.00  0.00    -0.206 F 
ATOM     81  C   UNL A   1      42.557  22.320  25.363  1.00  0.00     0.022 A 
BRANCH  78  82
ATOM     82  S   UNL A   1      41.367  20.340  26.924  1.00  0.00     0.124 S 
ATOM     83  O   UNL A   1      40.380  20.135  25.870  1.00  0.00    -0.237 OA
ATOM     84  O   UNL A   1      42.604  19.575  26.803  1.00  0.00    -0.237 OA
ATOM     85  O   UNL A   1      40.825  20.434  28.278  1.00  0.00    -0.744 OA
ENDBRANCH  78  82
ENDBRANCH  51  75
BRANCH  63  86
ATOM     86  C   UNL A   1      46.695  25.888  32.627  1.00  0.00     0.023 A 
ATOM     87  C   UNL A   1      46.726  24.885  33.611  1.00  0.00     0.031 A 
ATOM     88  C   UNL A   1      47.918  26.311  32.074  1.00  0.00     0.131 A 
ATOM     89  C   UNL A   1      47.957  24.375  34.049  1.00  0.00     0.055 A 
ATOM     90  C   UNL A   1      49.134  25.751  32.466  1.00  0.00     0.041 A 
ATOM     91  F   UNL A   1      47.948  27.269  31.134  1.00  0.00    -0.206 F 
ATOM     92  C   UNL A   1      49.160  24.786  33.468  1.00  0.00     0.022 A 
BRANCH  89  93
ATOM     93  S   UNL A   1      47.974  23.227  35.453  1.00  0.00     0.124 S 
ATOM     94  O   UNL A   1      48.414  24.092  36.544  1.00  0.00    -0.237 OA
ATOM     95  O   UNL A   1      46.586  22.783  35.512  1.00  0.00    -0.237 OA
ATOM     96  O   UNL A   1      48.936  22.204  35.048  1.00  0.00    -0.744 OA
ENDBRANCH  89  93
ENDBRANCH  63  86
ENDBRANCH  37  38
ENDBRANCH  29  32
ENDBRANCH  27  28
ENDBRANCH  26  27
ENDBRANCH   1  26
TORSDOF 19
ENDMDL
