MODEL 1
REMARK VINA RESULT:     -11.0      0.000      0.000
REMARK SMILES C[C@H](C(=O)NCCCNC(=O)c1ccc(-c2c3nc(c(-c4cc(S(=O)(=O)[O-])ccc4F)c4ccc([nH]4)c(-c4cc(S(=O)(=O)[O-])ccc4F)c4nc(c(-c5cc(S(=O)(=O)[O-])ccc5F)c5ccc2[nH]5)C=C4)C=C3)cc1)c1ccc(-c2ccccc2)c(F)c1
REMARK SMILES IDX 7 1 6 2 5 3 3 4 4 5 2 7 1 8 75 9 76 10 87 11 77 12 85 13
REMARK SMILES IDX 78 14 86 15 79 16 80 17 84 18 81 19 83 20 82 21 8 22 9 23
REMARK SMILES IDX 10 24 11 26 12 27 13 28 74 29 14 30 73 31 15 32 16 33 17 34
REMARK SMILES IDX 67 35 18 36 72 37 66 38 68 39 19 40 71 41 65 42 64 43 20 45
REMARK SMILES IDX 52 46 32 47 51 48 33 49 36 50 50 51 69 52 34 53 35 54 49 56
REMARK SMILES IDX 70 57 37 58 21 59 22 60 30 61 23 62 29 63 31 64 28 65 24 66
REMARK SMILES IDX 25 67 26 68 27 69 53 70 54 71 62 72 55 73 61 74 63 75 60 76
REMARK SMILES IDX 56 77 57 78 58 79 59 80 38 81 39 82 47 83 40 84 46 85 48 86
REMARK SMILES IDX 45 87 41 88 42 89 43 90 44 91
REMARK H PARENT 5 6 9 25 68 44 36 55
REMARK Flexibility Score: inf
ROOT
ATOM      1  C   UNL A   1      42.615  18.975  26.498  1.00  0.00     0.042 C 
ENDROOT
BRANCH   1   2
ATOM      2  C   UNL A   1      43.688  19.592  25.608  1.00  0.00     0.117 C 
BRANCH   2   3
ATOM      3  N   UNL A   1      43.391  20.930  25.120  1.00  0.00    -0.356 N 
ATOM      4  C   UNL A   1      44.162  22.044  24.998  1.00  0.00     0.227 C 
ATOM      5  O   UNL A   1      43.694  22.928  24.264  1.00  0.00    -0.274 OA
ATOM      6  H   UNL A   1      42.460  21.052  24.822  1.00  0.00     0.163 HD
BRANCH   4   7
ATOM      7  C   UNL A   1      45.466  22.335  25.763  1.00  0.00     0.105 C 
ATOM      8  C   UNL A   1      46.399  23.043  24.765  1.00  0.00     0.023 C 
BRANCH   7   9
ATOM      9  C   UNL A   1      45.365  23.003  27.124  1.00  0.00    -0.033 A 
ATOM     10  C   UNL A   1      46.141  24.110  27.484  1.00  0.00     0.005 A 
ATOM     11  C   UNL A   1      44.433  22.542  28.062  1.00  0.00     0.044 A 
ATOM     12  C   UNL A   1      45.879  24.825  28.659  1.00  0.00     0.012 A 
ATOM     13  C   UNL A   1      44.138  23.296  29.206  1.00  0.00     0.131 A 
ATOM     14  C   UNL A   1      44.811  24.492  29.511  1.00  0.00     0.017 A 
ATOM     15  F   UNL A   1      43.108  22.869  29.952  1.00  0.00    -0.206 F 
BRANCH  14  16
ATOM     16  C   UNL A   1      44.399  25.414  30.606  1.00  0.00    -0.015 A 
ATOM     17  C   UNL A   1      43.624  26.564  30.335  1.00  0.00     0.009 A 
ATOM     18  C   UNL A   1      44.707  25.176  31.957  1.00  0.00     0.009 A 
ATOM     19  C   UNL A   1      43.195  27.430  31.346  1.00  0.00     0.001 A 
ATOM     20  C   UNL A   1      44.261  26.029  32.976  1.00  0.00     0.001 A 
ATOM     21  C   UNL A   1      43.512  27.159  32.669  1.00  0.00     0.000 A 
ENDBRANCH  14  16
ENDBRANCH   7   9
ENDBRANCH   4   7
ENDBRANCH   2   3
ENDBRANCH   1   2
BRANCH   1  22
ATOM     22  C   UNL A   1      41.611  19.951  27.097  1.00  0.00     0.118 C 
BRANCH  22  23
ATOM     23  N   UNL A   1      40.332  20.006  26.403  1.00  0.00    -0.352 N 
ATOM     24  C   UNL A   1      39.467  21.047  26.146  1.00  0.00     0.251 C 
ATOM     25  H   UNL A   1      40.029  19.138  26.051  1.00  0.00     0.163 HD
ATOM     26  O   UNL A   1      38.399  20.803  25.588  1.00  0.00    -0.269 OA
BRANCH  24  27
ATOM     27  C   UNL A   1      39.763  22.435  26.581  1.00  0.00     0.039 A 
ATOM     28  C   UNL A   1      40.737  22.636  27.565  1.00  0.00     0.014 A 
ATOM     29  C   UNL A   1      39.104  23.538  26.043  1.00  0.00     0.014 A 
ATOM     30  C   UNL A   1      41.135  23.933  27.908  1.00  0.00     0.010 A 
ATOM     31  C   UNL A   1      39.571  24.826  26.304  1.00  0.00     0.010 A 
ATOM     32  C   UNL A   1      40.610  25.040  27.222  1.00  0.00    -0.014 A 
BRANCH  32  33
ATOM     33  C   UNL A   1      41.159  26.415  27.398  1.00  0.00     0.031 A 
ATOM     34  C   UNL A   1      42.513  26.773  26.839  1.00  0.00     0.074 A 
ATOM     35  C   UNL A   1      40.495  27.302  28.171  1.00  0.00     0.049 A 
ATOM     36  N   UNL A   1      43.236  27.843  27.045  1.00  0.00    -0.248 NA
ATOM     37  C   UNL A   1      43.152  25.779  25.961  1.00  0.00     0.031 C 
ATOM     38  C   UNL A   1      39.197  27.066  28.809  1.00  0.00     0.029 A 
ATOM     39  N   UNL A   1      40.829  28.572  28.578  1.00  0.00    -0.354 N 
ATOM     40  C   UNL A   1      44.430  27.636  26.359  1.00  0.00     0.074 A 
ATOM     41  C   UNL A   1      44.344  26.323  25.756  1.00  0.00     0.031 C 
ATOM     42  C   UNL A   1      38.843  28.151  29.514  1.00  0.00     0.029 A 
ATOM     43  C   UNL A   1      39.913  29.139  29.437  1.00  0.00     0.049 A 
ATOM     44  H   UNL A   1      41.648  29.034  28.284  1.00  0.00     0.167 HD
ATOM     45  C   UNL A   1      45.492  28.470  26.236  1.00  0.00     0.034 A 
ATOM     46  C   UNL A   1      39.942  30.304  30.117  1.00  0.00     0.034 A 
ATOM     47  C   UNL A   1      45.541  29.798  26.796  1.00  0.00     0.049 A 
ATOM     48  C   UNL A   1      41.143  31.205  29.969  1.00  0.00     0.074 A 
ATOM     49  C   UNL A   1      46.512  30.768  26.620  1.00  0.00     0.029 A 
ATOM     50  N   UNL A   1      44.589  30.338  27.649  1.00  0.00    -0.354 N 
ATOM     51  N   UNL A   1      42.225  31.023  29.247  1.00  0.00    -0.248 NA
ATOM     52  C   UNL A   1      41.130  32.463  30.726  1.00  0.00     0.031 C 
ATOM     53  C   UNL A   1      46.185  31.867  27.420  1.00  0.00     0.029 A 
ATOM     54  C   UNL A   1      44.975  31.609  28.045  1.00  0.00     0.049 A 
ATOM     55  H   UNL A   1      43.761  29.886  27.931  1.00  0.00     0.167 HD
ATOM     56  C   UNL A   1      43.008  32.157  29.449  1.00  0.00     0.074 A 
ATOM     57  C   UNL A   1      42.267  33.023  30.341  1.00  0.00     0.031 C 
ATOM     58  C   UNL A   1      44.230  32.456  28.944  1.00  0.00     0.034 A 
BRANCH  45  59
ATOM     59  C   UNL A   1      46.703  27.971  25.489  1.00  0.00     0.023 A 
ATOM     60  C   UNL A   1      46.882  28.212  24.117  1.00  0.00     0.031 A 
ATOM     61  C   UNL A   1      47.711  27.269  26.174  1.00  0.00     0.131 A 
ATOM     62  C   UNL A   1      48.019  27.713  23.464  1.00  0.00     0.055 A 
ATOM     63  C   UNL A   1      48.871  26.833  25.532  1.00  0.00     0.041 A 
ATOM     64  F   UNL A   1      47.584  26.998  27.483  1.00  0.00    -0.206 F 
ATOM     65  C   UNL A   1      49.026  27.047  24.167  1.00  0.00     0.022 A 
BRANCH  62  66
ATOM     66  S   UNL A   1      48.122  27.866  21.659  1.00  0.00     0.124 S 
ATOM     67  O   UNL A   1      46.758  28.265  21.320  1.00  0.00    -0.237 OA
ATOM     68  O   UNL A   1      49.148  28.889  21.487  1.00  0.00    -0.237 OA
ATOM     69  O   UNL A   1      48.500  26.525  21.221  1.00  0.00    -0.744 OA
ENDBRANCH  62  66
ENDBRANCH  45  59
BRANCH  46  70
ATOM     70  C   UNL A   1      38.834  30.677  31.046  1.00  0.00     0.023 A 
ATOM     71  C   UNL A   1      37.657  31.272  30.563  1.00  0.00     0.031 A 
ATOM     72  C   UNL A   1      38.964  30.517  32.437  1.00  0.00     0.131 A 
ATOM     73  C   UNL A   1      36.688  31.741  31.463  1.00  0.00     0.055 A 
ATOM     74  C   UNL A   1      37.969  30.930  33.326  1.00  0.00     0.041 A 
ATOM     75  F   UNL A   1      40.067  29.955  32.956  1.00  0.00    -0.206 F 
ATOM     76  C   UNL A   1      36.830  31.563  32.840  1.00  0.00     0.022 A 
BRANCH  73  77
ATOM     77  S   UNL A   1      35.292  32.702  30.812  1.00  0.00     0.124 S 
ATOM     78  O   UNL A   1      34.925  31.928  29.631  1.00  0.00    -0.237 OA
ATOM     79  O   UNL A   1      34.352  32.659  31.926  1.00  0.00    -0.237 OA
ATOM     80  O   UNL A   1      35.880  34.013  30.542  1.00  0.00    -0.744 OA
ENDBRANCH  73  77
ENDBRANCH  46  70
BRANCH  58  81
ATOM     81  C   UNL A   1      44.823  33.788  29.324  1.00  0.00     0.023 A 
ATOM     82  C   UNL A   1      44.610  34.935  28.542  1.00  0.00     0.031 A 
ATOM     83  C   UNL A   1      45.606  33.909  30.485  1.00  0.00     0.131 A 
ATOM     84  C   UNL A   1      45.210  36.149  28.908  1.00  0.00     0.055 A 
ATOM     85  C   UNL A   1      46.156  35.132  30.874  1.00  0.00     0.041 A 
ATOM     86  F   UNL A   1      45.841  32.843  31.266  1.00  0.00    -0.206 F 
ATOM     87  C   UNL A   1      45.966  36.259  30.078  1.00  0.00     0.022 A 
BRANCH  84  88
ATOM     88  S   UNL A   1      45.038  37.575  27.801  1.00  0.00     0.124 S 
ATOM     89  O   UNL A   1      45.423  38.682  28.670  1.00  0.00    -0.237 OA
ATOM     90  O   UNL A   1      45.971  37.254  26.726  1.00  0.00    -0.237 OA
ATOM     91  O   UNL A   1      43.626  37.546  27.422  1.00  0.00    -0.744 OA
ENDBRANCH  84  88
ENDBRANCH  58  81
ENDBRANCH  32  33
ENDBRANCH  24  27
ENDBRANCH  22  23
ENDBRANCH   1  22
TORSDOF 15
ENDMDL
MODEL 2
REMARK VINA RESULT:     -10.6      5.805      9.991
REMARK SMILES C[C@H](C(=O)NCCCNC(=O)c1ccc(-c2c3nc(c(-c4cc(S(=O)(=O)[O-])ccc4F)c4ccc([nH]4)c(-c4cc(S(=O)(=O)[O-])ccc4F)c4nc(c(-c5cc(S(=O)(=O)[O-])ccc5F)c5ccc2[nH]5)C=C4)C=C3)cc1)c1ccc(-c2ccccc2)c(F)c1
REMARK SMILES IDX 7 1 6 2 5 3 3 4 4 5 2 7 1 8 75 9 76 10 87 11 77 12 85 13
REMARK SMILES IDX 78 14 86 15 79 16 80 17 84 18 81 19 83 20 82 21 8 22 9 23
REMARK SMILES IDX 10 24 11 26 12 27 13 28 74 29 14 30 73 31 15 32 16 33 17 34
REMARK SMILES IDX 67 35 18 36 72 37 66 38 68 39 19 40 71 41 65 42 64 43 20 45
REMARK SMILES IDX 52 46 32 47 51 48 33 49 36 50 50 51 69 52 34 53 35 54 49 56
REMARK SMILES IDX 70 57 37 58 21 59 22 60 30 61 23 62 29 63 31 64 28 65 24 66
REMARK SMILES IDX 25 67 26 68 27 69 53 70 54 71 62 72 55 73 61 74 63 75 60 76
REMARK SMILES IDX 56 77 57 78 58 79 59 80 38 81 39 82 47 83 40 84 46 85 48 86
REMARK SMILES IDX 45 87 41 88 42 89 43 90 44 91
REMARK H PARENT 5 6 9 25 68 44 36 55
REMARK Flexibility Score: inf
ROOT
ATOM      1  C   UNL A   1      32.341  29.829  25.424  1.00  0.00     0.042 C 
ENDROOT
BRANCH   1   2
ATOM      2  C   UNL A   1      31.002  30.275  24.848  1.00  0.00     0.117 C 
BRANCH   2   3
ATOM      3  N   UNL A   1      30.684  29.733  23.535  1.00  0.00    -0.356 N 
ATOM      4  C   UNL A   1      30.117  28.558  23.151  1.00  0.00     0.227 C 
ATOM      5  O   UNL A   1      29.704  28.533  21.981  1.00  0.00    -0.274 OA
ATOM      6  H   UNL A   1      30.922  30.328  22.787  1.00  0.00     0.163 HD
BRANCH   4   7
ATOM      7  C   UNL A   1      30.055  27.263  23.982  1.00  0.00     0.105 C 
ATOM      8  C   UNL A   1      28.673  26.646  23.712  1.00  0.00     0.023 C 
BRANCH   7   9
ATOM      9  C   UNL A   1      31.218  26.291  23.881  1.00  0.00    -0.033 A 
ATOM     10  C   UNL A   1      32.347  26.540  23.091  1.00  0.00     0.005 A 
ATOM     11  C   UNL A   1      31.211  25.109  24.633  1.00  0.00     0.044 A 
ATOM     12  C   UNL A   1      33.484  25.727  23.180  1.00  0.00     0.012 A 
ATOM     13  C   UNL A   1      32.373  24.336  24.760  1.00  0.00     0.131 A 
ATOM     14  C   UNL A   1      33.564  24.653  24.084  1.00  0.00     0.017 A 
ATOM     15  F   UNL A   1      32.323  23.325  25.641  1.00  0.00    -0.206 F 
BRANCH  14  16
ATOM     16  C   UNL A   1      34.864  23.973  24.339  1.00  0.00    -0.015 A 
ATOM     17  C   UNL A   1      35.469  23.166  23.349  1.00  0.00     0.009 A 
ATOM     18  C   UNL A   1      35.580  24.127  25.539  1.00  0.00     0.009 A 
ATOM     19  C   UNL A   1      36.704  22.542  23.548  1.00  0.00     0.001 A 
ATOM     20  C   UNL A   1      36.829  23.521  25.735  1.00  0.00     0.001 A 
ATOM     21  C   UNL A   1      37.387  22.724  24.742  1.00  0.00     0.000 A 
ENDBRANCH  14  16
ENDBRANCH   7   9
ENDBRANCH   4   7
ENDBRANCH   2   3
ENDBRANCH   1   2
BRANCH   1  22
ATOM     22  C   UNL A   1      32.592  30.198  26.880  1.00  0.00     0.118 C 
BRANCH  22  23
ATOM     23  N   UNL A   1      32.626  31.630  27.144  1.00  0.00    -0.352 N 
ATOM     24  C   UNL A   1      33.606  32.448  27.659  1.00  0.00     0.251 C 
ATOM     25  H   UNL A   1      31.793  32.100  26.910  1.00  0.00     0.163 HD
ATOM     26  O   UNL A   1      33.345  33.636  27.846  1.00  0.00    -0.269 OA
BRANCH  24  27
ATOM     27  C   UNL A   1      34.937  31.923  28.050  1.00  0.00     0.039 A 
ATOM     28  C   UNL A   1      36.024  32.804  28.079  1.00  0.00     0.014 A 
ATOM     29  C   UNL A   1      35.139  30.586  28.386  1.00  0.00     0.014 A 
ATOM     30  C   UNL A   1      37.265  32.378  28.566  1.00  0.00     0.010 A 
ATOM     31  C   UNL A   1      36.341  30.187  28.969  1.00  0.00     0.010 A 
ATOM     32  C   UNL A   1      37.413  31.084  29.090  1.00  0.00    -0.014 A 
BRANCH  32  33
ATOM     33  C   UNL A   1      38.645  30.659  29.815  1.00  0.00     0.031 A 
ATOM     34  C   UNL A   1      39.543  29.597  29.233  1.00  0.00     0.074 A 
ATOM     35  C   UNL A   1      38.885  31.137  31.055  1.00  0.00     0.049 A 
ATOM     36  N   UNL A   1      40.544  28.965  29.789  1.00  0.00    -0.248 NA
ATOM     37  C   UNL A   1      39.254  29.164  27.857  1.00  0.00     0.031 C 
ATOM     38  C   UNL A   1      38.068  32.135  31.752  1.00  0.00     0.029 A 
ATOM     39  N   UNL A   1      39.868  30.830  31.966  1.00  0.00    -0.354 N 
ATOM     40  C   UNL A   1      40.978  28.033  28.850  1.00  0.00     0.074 A 
ATOM     41  C   UNL A   1      40.109  28.163  27.700  1.00  0.00     0.031 C 
ATOM     42  C   UNL A   1      38.586  32.363  32.969  1.00  0.00     0.029 A 
ATOM     43  C   UNL A   1      39.733  31.485  33.172  1.00  0.00     0.049 A 
ATOM     44  H   UNL A   1      40.601  30.201  31.775  1.00  0.00     0.167 HD
ATOM     45  C   UNL A   1      42.011  27.160  28.938  1.00  0.00     0.034 A 
ATOM     46  C   UNL A   1      40.425  31.369  34.323  1.00  0.00     0.034 A 
ATOM     47  C   UNL A   1      42.904  27.081  30.068  1.00  0.00     0.049 A 
ATOM     48  C   UNL A   1      41.562  30.379  34.393  1.00  0.00     0.074 A 
ATOM     49  C   UNL A   1      44.055  26.325  30.200  1.00  0.00     0.029 A 
ATOM     50  N   UNL A   1      42.739  27.767  31.263  1.00  0.00    -0.354 N 
ATOM     51  N   UNL A   1      42.006  29.567  33.462  1.00  0.00    -0.248 NA
ATOM     52  C   UNL A   1      42.289  30.288  35.666  1.00  0.00     0.031 C 
ATOM     53  C   UNL A   1      44.547  26.499  31.497  1.00  0.00     0.029 A 
ATOM     54  C   UNL A   1      43.741  27.415  32.153  1.00  0.00     0.049 A 
ATOM     55  H   UNL A   1      42.017  28.411  31.449  1.00  0.00     0.167 HD
ATOM     56  C   UNL A   1      43.078  28.887  34.034  1.00  0.00     0.074 A 
ATOM     57  C   UNL A   1      43.227  29.398  35.380  1.00  0.00     0.031 C 
ATOM     58  C   UNL A   1      43.869  27.926  33.496  1.00  0.00     0.034 A 
BRANCH  45  59
ATOM     59  C   UNL A   1      42.228  26.200  27.796  1.00  0.00     0.023 A 
ATOM     60  C   UNL A   1      41.716  24.893  27.814  1.00  0.00     0.031 A 
ATOM     61  C   UNL A   1      42.935  26.618  26.653  1.00  0.00     0.131 A 
ATOM     62  C   UNL A   1      41.960  24.033  26.732  1.00  0.00     0.055 A 
ATOM     63  C   UNL A   1      43.117  25.779  25.553  1.00  0.00     0.041 A 
ATOM     64  F   UNL A   1      43.460  27.852  26.589  1.00  0.00    -0.206 F 
ATOM     65  C   UNL A   1      42.636  24.474  25.592  1.00  0.00     0.022 A 
BRANCH  62  66
ATOM     66  S   UNL A   1      41.461  22.295  26.874  1.00  0.00     0.124 S 
ATOM     67  O   UNL A   1      42.345  21.821  27.936  1.00  0.00    -0.237 OA
ATOM     68  O   UNL A   1      40.047  22.400  27.220  1.00  0.00    -0.237 OA
ATOM     69  O   UNL A   1      41.739  21.747  25.549  1.00  0.00    -0.744 OA
ENDBRANCH  62  66
ENDBRANCH  45  59
BRANCH  46  70
ATOM     70  C   UNL A   1      40.045  32.161  35.530  1.00  0.00     0.023 A 
ATOM     71  C   UNL A   1      39.134  31.653  36.470  1.00  0.00     0.031 A 
ATOM     72  C   UNL A   1      40.524  33.470  35.722  1.00  0.00     0.131 A 
ATOM     73  C   UNL A   1      38.684  32.466  37.522  1.00  0.00     0.055 A 
ATOM     74  C   UNL A   1      40.120  34.254  36.805  1.00  0.00     0.041 A 
ATOM     75  F   UNL A   1      41.396  34.009  34.856  1.00  0.00    -0.206 F 
ATOM     76  C   UNL A   1      39.181  33.758  37.703  1.00  0.00     0.022 A 
BRANCH  73  77
ATOM     77  S   UNL A   1      37.344  31.852  38.580  1.00  0.00     0.124 S 
ATOM     78  O   UNL A   1      37.948  31.941  39.905  1.00  0.00    -0.237 OA
ATOM     79  O   UNL A   1      36.276  32.805  38.295  1.00  0.00    -0.237 OA
ATOM     80  O   UNL A   1      37.117  30.495  38.087  1.00  0.00    -0.744 OA
ENDBRANCH  73  77
ENDBRANCH  46  70
BRANCH  58  81
ATOM     81  C   UNL A   1      44.982  27.391  34.359  1.00  0.00     0.023 A 
ATOM     82  C   UNL A   1      44.811  26.239  35.146  1.00  0.00     0.031 A 
ATOM     83  C   UNL A   1      46.229  28.040  34.391  1.00  0.00     0.131 A 
ATOM     84  C   UNL A   1      45.857  25.794  35.966  1.00  0.00     0.055 A 
ATOM     85  C   UNL A   1      47.285  27.560  35.167  1.00  0.00     0.041 A 
ATOM     86  F   UNL A   1      46.443  29.144  33.659  1.00  0.00    -0.206 F 
ATOM     87  C   UNL A   1      47.098  26.436  35.968  1.00  0.00     0.022 A 
BRANCH  84  88
ATOM     88  S   UNL A   1      45.557  24.393  37.079  1.00  0.00     0.124 S 
ATOM     89  O   UNL A   1      46.904  23.866  37.271  1.00  0.00    -0.237 OA
ATOM     90  O   UNL A   1      44.953  25.038  38.240  1.00  0.00    -0.237 OA
ATOM     91  O   UNL A   1      44.657  23.533  36.312  1.00  0.00    -0.744 OA
ENDBRANCH  84  88
ENDBRANCH  58  81
ENDBRANCH  32  33
ENDBRANCH  24  27
ENDBRANCH  22  23
ENDBRANCH   1  22
TORSDOF 15
ENDMDL
MODEL 3
REMARK VINA RESULT:     -10.6      5.817     10.073
REMARK SMILES C[C@H](C(=O)NCCCNC(=O)c1ccc(-c2c3nc(c(-c4cc(S(=O)(=O)[O-])ccc4F)c4ccc([nH]4)c(-c4cc(S(=O)(=O)[O-])ccc4F)c4nc(c(-c5cc(S(=O)(=O)[O-])ccc5F)c5ccc2[nH]5)C=C4)C=C3)cc1)c1ccc(-c2ccccc2)c(F)c1
REMARK SMILES IDX 7 1 6 2 5 3 3 4 4 5 2 7 1 8 75 9 76 10 87 11 77 12 85 13
REMARK SMILES IDX 78 14 86 15 79 16 80 17 84 18 81 19 83 20 82 21 8 22 9 23
REMARK SMILES IDX 10 24 11 26 12 27 13 28 74 29 14 30 73 31 15 32 16 33 17 34
REMARK SMILES IDX 67 35 18 36 72 37 66 38 68 39 19 40 71 41 65 42 64 43 20 45
REMARK SMILES IDX 52 46 32 47 51 48 33 49 36 50 50 51 69 52 34 53 35 54 49 56
REMARK SMILES IDX 70 57 37 58 21 59 22 60 30 61 23 62 29 63 31 64 28 65 24 66
REMARK SMILES IDX 25 67 26 68 27 69 53 70 54 71 62 72 55 73 61 74 63 75 60 76
REMARK SMILES IDX 56 77 57 78 58 79 59 80 38 81 39 82 47 83 40 84 46 85 48 86
REMARK SMILES IDX 45 87 41 88 42 89 43 90 44 91
REMARK H PARENT 5 6 9 25 68 44 36 55
REMARK Flexibility Score: inf
ROOT
ATOM      1  C   UNL A   1      32.035  30.070  25.428  1.00  0.00     0.042 C 
ENDROOT
BRANCH   1   2
ATOM      2  C   UNL A   1      30.804  30.123  24.531  1.00  0.00     0.117 C 
BRANCH   2   3
ATOM      3  N   UNL A   1      30.861  29.266  23.355  1.00  0.00    -0.356 N 
ATOM      4  C   UNL A   1      30.414  28.001  23.132  1.00  0.00     0.227 C 
ATOM      5  O   UNL A   1      30.343  27.673  21.938  1.00  0.00    -0.274 OA
ATOM      6  H   UNL A   1      31.302  29.679  22.578  1.00  0.00     0.163 HD
BRANCH   4   7
ATOM      7  C   UNL A   1      30.112  26.940  24.206  1.00  0.00     0.105 C 
ATOM      8  C   UNL A   1      28.747  26.335  23.840  1.00  0.00     0.023 C 
BRANCH   7   9
ATOM      9  C   UNL A   1      31.193  25.922  24.532  1.00  0.00    -0.033 A 
ATOM     10  C   UNL A   1      31.116  24.583  24.135  1.00  0.00     0.005 A 
ATOM     11  C   UNL A   1      32.349  26.322  25.215  1.00  0.00     0.044 A 
ATOM     12  C   UNL A   1      32.215  23.725  24.269  1.00  0.00     0.012 A 
ATOM     13  C   UNL A   1      33.463  25.476  25.291  1.00  0.00     0.131 A 
ATOM     14  C   UNL A   1      33.451  24.171  24.770  1.00  0.00     0.017 A 
ATOM     15  F   UNL A   1      34.582  26.008  25.806  1.00  0.00    -0.206 F 
BRANCH  14  16
ATOM     16  C   UNL A   1      34.666  23.315  24.661  1.00  0.00    -0.015 A 
ATOM     17  C   UNL A   1      34.853  22.208  25.520  1.00  0.00     0.009 A 
ATOM     18  C   UNL A   1      35.657  23.520  23.686  1.00  0.00     0.009 A 
ATOM     19  C   UNL A   1      35.966  21.367  25.420  1.00  0.00     0.001 A 
ATOM     20  C   UNL A   1      36.763  22.668  23.568  1.00  0.00     0.001 A 
ATOM     21  C   UNL A   1      36.920  21.596  24.440  1.00  0.00     0.000 A 
ENDBRANCH  14  16
ENDBRANCH   7   9
ENDBRANCH   4   7
ENDBRANCH   2   3
ENDBRANCH   1   2
BRANCH   1  22
ATOM     22  C   UNL A   1      31.825  30.521  26.867  1.00  0.00     0.118 C 
BRANCH  22  23
ATOM     23  N   UNL A   1      31.859  31.964  27.060  1.00  0.00    -0.352 N 
ATOM     24  C   UNL A   1      32.839  32.809  27.531  1.00  0.00     0.251 C 
ATOM     25  H   UNL A   1      31.025  32.422  26.805  1.00  0.00     0.163 HD
ATOM     26  O   UNL A   1      32.578  34.004  27.659  1.00  0.00    -0.269 OA
BRANCH  24  27
ATOM     27  C   UNL A   1      34.172  32.304  27.944  1.00  0.00     0.039 A 
ATOM     28  C   UNL A   1      35.247  33.199  27.977  1.00  0.00     0.014 A 
ATOM     29  C   UNL A   1      34.387  30.973  28.296  1.00  0.00     0.014 A 
ATOM     30  C   UNL A   1      36.487  32.794  28.483  1.00  0.00     0.010 A 
ATOM     31  C   UNL A   1      35.587  30.595  28.898  1.00  0.00     0.010 A 
ATOM     32  C   UNL A   1      36.646  31.507  29.023  1.00  0.00    -0.014 A 
BRANCH  32  33
ATOM     33  C   UNL A   1      37.874  31.105  29.767  1.00  0.00     0.031 A 
ATOM     34  C   UNL A   1      38.807  30.069  29.194  1.00  0.00     0.074 A 
ATOM     35  C   UNL A   1      38.080  31.579  31.015  1.00  0.00     0.049 A 
ATOM     36  N   UNL A   1      39.812  29.456  29.764  1.00  0.00    -0.248 NA
ATOM     37  C   UNL A   1      38.553  29.640  27.810  1.00  0.00     0.031 C 
ATOM     38  C   UNL A   1      37.227  32.552  31.704  1.00  0.00     0.029 A 
ATOM     39  N   UNL A   1      39.052  31.288  31.942  1.00  0.00    -0.354 N 
ATOM     40  C   UNL A   1      40.285  28.542  28.826  1.00  0.00     0.074 A 
ATOM     41  C   UNL A   1      39.434  28.661  27.661  1.00  0.00     0.031 C 
ATOM     42  C   UNL A   1      37.717  32.783  32.932  1.00  0.00     0.029 A 
ATOM     43  C   UNL A   1      38.880  31.929  33.149  1.00  0.00     0.049 A 
ATOM     44  H   UNL A   1      39.803  30.677  31.760  1.00  0.00     0.167 HD
ATOM     45  C   UNL A   1      41.336  27.693  28.926  1.00  0.00     0.034 A 
ATOM     46  C   UNL A   1      39.553  31.820  34.313  1.00  0.00     0.034 A 
ATOM     47  C   UNL A   1      42.209  27.625  30.072  1.00  0.00     0.049 A 
ATOM     48  C   UNL A   1      40.712  30.857  34.396  1.00  0.00     0.074 A 
ATOM     49  C   UNL A   1      43.375  26.895  30.220  1.00  0.00     0.029 A 
ATOM     50  N   UNL A   1      42.007  28.298  31.269  1.00  0.00    -0.354 N 
ATOM     51  N   UNL A   1      41.192  30.063  33.467  1.00  0.00    -0.248 NA
ATOM     52  C   UNL A   1      41.418  30.773  35.682  1.00  0.00     0.031 C 
ATOM     53  C   UNL A   1      43.840  27.071  31.528  1.00  0.00     0.029 A 
ATOM     54  C   UNL A   1      43.000  27.963  32.175  1.00  0.00     0.049 A 
ATOM     55  H   UNL A   1      41.267  28.924  31.447  1.00  0.00     0.167 HD
ATOM     56  C   UNL A   1      42.269  29.403  34.054  1.00  0.00     0.074 A 
ATOM     57  C   UNL A   1      42.381  29.907  35.406  1.00  0.00     0.031 C 
ATOM     58  C   UNL A   1      43.092  28.466  33.523  1.00  0.00     0.034 A 
BRANCH  45  59
ATOM     59  C   UNL A   1      41.597  26.747  27.781  1.00  0.00     0.023 A 
ATOM     60  C   UNL A   1      41.100  25.434  27.772  1.00  0.00     0.031 A 
ATOM     61  C   UNL A   1      42.331  27.184  26.664  1.00  0.00     0.131 A 
ATOM     62  C   UNL A   1      41.385  24.588  26.689  1.00  0.00     0.055 A 
ATOM     63  C   UNL A   1      42.553  26.359  25.561  1.00  0.00     0.041 A 
ATOM     64  F   UNL A   1      42.842  28.426  26.626  1.00  0.00    -0.206 F 
ATOM     65  C   UNL A   1      42.086  25.049  25.573  1.00  0.00     0.022 A 
BRANCH  62  66
ATOM     66  S   UNL A   1      40.902  22.843  26.800  1.00  0.00     0.124 S 
ATOM     67  O   UNL A   1      41.647  22.261  25.686  1.00  0.00    -0.237 OA
ATOM     68  O   UNL A   1      41.357  22.473  28.136  1.00  0.00    -0.237 OA
ATOM     69  O   UNL A   1      39.452  22.875  26.622  1.00  0.00    -0.744 OA
ENDBRANCH  62  66
ENDBRANCH  45  59
BRANCH  46  70
ATOM     70  C   UNL A   1      39.132  32.595  35.518  1.00  0.00     0.023 A 
ATOM     71  C   UNL A   1      39.575  33.912  35.721  1.00  0.00     0.031 A 
ATOM     72  C   UNL A   1      38.346  32.005  36.524  1.00  0.00     0.131 A 
ATOM     73  C   UNL A   1      39.282  34.573  36.923  1.00  0.00     0.055 A 
ATOM     74  C   UNL A   1      38.006  32.689  37.693  1.00  0.00     0.041 A 
ATOM     75  F   UNL A   1      37.895  30.748  36.386  1.00  0.00    -0.206 F 
ATOM     76  C   UNL A   1      38.490  33.975  37.906  1.00  0.00     0.022 A 
BRANCH  73  77
ATOM     77  S   UNL A   1      40.057  36.183  37.239  1.00  0.00     0.124 S 
ATOM     78  O   UNL A   1      39.955  36.823  35.933  1.00  0.00    -0.237 OA
ATOM     79  O   UNL A   1      39.204  36.727  38.290  1.00  0.00    -0.237 OA
ATOM     80  O   UNL A   1      41.413  35.830  37.657  1.00  0.00    -0.744 OA
ENDBRANCH  73  77
ENDBRANCH  46  70
BRANCH  58  81
ATOM     81  C   UNL A   1      44.201  27.949  34.403  1.00  0.00     0.023 A 
ATOM     82  C   UNL A   1      44.056  26.768  35.149  1.00  0.00     0.031 A 
ATOM     83  C   UNL A   1      45.418  28.648  34.493  1.00  0.00     0.131 A 
ATOM     84  C   UNL A   1      45.096  26.340  35.986  1.00  0.00     0.055 A 
ATOM     85  C   UNL A   1      46.470  28.188  35.286  1.00  0.00     0.041 A 
ATOM     86  F   UNL A   1      45.606  29.784  33.802  1.00  0.00    -0.206 F 
ATOM     87  C   UNL A   1      46.308  27.032  36.046  1.00  0.00     0.022 A 
BRANCH  84  88
ATOM     88  S   UNL A   1      44.823  24.893  37.046  1.00  0.00     0.124 S 
ATOM     89  O   UNL A   1      44.086  25.472  38.164  1.00  0.00    -0.237 OA
ATOM     90  O   UNL A   1      44.064  24.003  36.173  1.00  0.00    -0.237 OA
ATOM     91  O   UNL A   1      46.177  24.440  37.363  1.00  0.00    -0.744 OA
ENDBRANCH  84  88
ENDBRANCH  58  81
ENDBRANCH  32  33
ENDBRANCH  24  27
ENDBRANCH  22  23
ENDBRANCH   1  22
TORSDOF 15
ENDMDL
