MODEL 1
REMARK VINA RESULT:     -11.0      0.000      0.000
REMARK SMILES C[C@H]([NH2+][C@@H](C)[C@@H](C)C(=O)NCCCNC(=O)c1ccc(-c2c3nc(c(-c4cc(S(=O)(=O)[O-])ccc4F)c4ccc([nH]4)c(-c4cc(S(=O)(=O)[O-])ccc4F)c4nc(c(-c5cc(S(=O)(=O)[O-])ccc5F)c5ccc2[nH]5)C=C4)C=C3)cc1)c1cccc(Br)c1
REMARK SMILES IDX 11 1 10 2 8 3 9 4 6 6 7 7 4 8 5 9 3 10 2 13 1 14 80 15 81 16
REMARK SMILES IDX 86 17 82 18 84 19 83 20 85 21 12 22 13 23 14 24 15 25 16 27
REMARK SMILES IDX 17 28 18 29 79 30 19 31 78 32 20 33 21 34 22 35 72 36 23 37
REMARK SMILES IDX 77 38 71 39 73 40 24 41 76 42 70 43 69 44 25 46 57 47 37 48
REMARK SMILES IDX 56 49 38 50 41 51 55 52 74 53 39 54 40 55 54 57 75 58 42 59
REMARK SMILES IDX 26 60 27 61 35 62 28 63 34 64 36 65 33 66 29 67 30 68 31 69
REMARK SMILES IDX 32 70 58 71 59 72 67 73 60 74 66 75 68 76 65 77 61 78 62 79
REMARK SMILES IDX 63 80 64 81 43 82 44 83 52 84 45 85 51 86 53 87 50 88 46 89
REMARK SMILES IDX 47 90 48 91 49 92
REMARK H PARENT 10 5 3 11 3 12 14 26 73 45 41 56
REMARK Flexibility Score: inf
ROOT
ATOM      1  C   UNL A   1      31.601  28.115  26.829  1.00  0.00     0.117 C 
ENDROOT
BRANCH   1   2
ATOM      2  N   UNL A   1      31.063  26.781  27.005  1.00  0.00    -0.356 N 
ATOM      3  C   UNL A   1      30.583  25.880  26.109  1.00  0.00     0.228 C 
ATOM      4  O   UNL A   1      30.124  24.827  26.561  1.00  0.00    -0.275 OA
ATOM      5  H   UNL A   1      31.041  26.473  27.941  1.00  0.00     0.163 HD
BRANCH   3   6
ATOM      6  C   UNL A   1      30.655  26.101  24.600  1.00  0.00     0.133 C 
ATOM      7  C   UNL A   1      29.249  26.407  24.082  1.00  0.00     0.024 C 
BRANCH   6   8
ATOM      8  C   UNL A   1      31.465  25.020  23.831  1.00  0.00     0.192 C 
ATOM      9  C   UNL A   1      30.481  24.018  23.190  1.00  0.00     0.076 C 
BRANCH   8  10
ATOM     10  N   UNL A   1      32.326  24.274  24.756  1.00  0.00    -0.337 N 
ATOM     11  H   UNL A   1      32.184  24.675  25.683  1.00  0.00     0.347 HD
ATOM     12  H   UNL A   1      32.037  23.305  24.620  1.00  0.00     0.347 HD
BRANCH  10  13
ATOM     13  C   UNL A   1      33.781  24.234  24.525  1.00  0.00     0.210 C 
ATOM     14  C   UNL A   1      34.642  25.143  25.417  1.00  0.00     0.081 C 
BRANCH  13  15
ATOM     15  C   UNL A   1      34.289  22.789  24.658  1.00  0.00     0.010 A 
ATOM     16  C   UNL A   1      35.645  22.534  24.929  1.00  0.00     0.010 A 
ATOM     17  C   UNL A   1      33.424  21.681  24.541  1.00  0.00     0.025 A 
ATOM     18  C   UNL A   1      36.115  21.227  25.090  1.00  0.00     0.002 A 
ATOM     19  C   UNL A   1      33.903  20.379  24.676  1.00  0.00     0.018 A 
ATOM     20  C   UNL A   1      35.245  20.146  24.956  1.00  0.00     0.016 A 
ATOM     21  Br  UNL A   1      32.716  18.920  24.472  1.00  0.00    -0.051 Br
ENDBRANCH  13  15
ENDBRANCH  10  13
ENDBRANCH   8  10
ENDBRANCH   6   8
ENDBRANCH   3   6
ENDBRANCH   1   2
BRANCH   1  22
ATOM     22  C   UNL A   1      33.114  28.144  27.023  1.00  0.00     0.042 C 
BRANCH  22  23
ATOM     23  C   UNL A   1      33.819  29.206  26.185  1.00  0.00     0.118 C 
BRANCH  23  24
ATOM     24  N   UNL A   1      33.676  30.538  26.753  1.00  0.00    -0.352 N 
ATOM     25  C   UNL A   1      34.391  31.162  27.738  1.00  0.00     0.251 C 
ATOM     26  H   UNL A   1      32.948  31.075  26.365  1.00  0.00     0.163 HD
ATOM     27  O   UNL A   1      33.954  32.218  28.202  1.00  0.00    -0.269 OA
BRANCH  25  28
ATOM     28  C   UNL A   1      35.648  30.585  28.259  1.00  0.00     0.039 A 
ATOM     29  C   UNL A   1      36.844  30.908  27.612  1.00  0.00     0.014 A 
ATOM     30  C   UNL A   1      35.661  29.695  29.338  1.00  0.00     0.014 A 
ATOM     31  C   UNL A   1      38.050  30.374  28.070  1.00  0.00     0.010 A 
ATOM     32  C   UNL A   1      36.873  29.224  29.842  1.00  0.00     0.010 A 
ATOM     33  C   UNL A   1      38.079  29.550  29.206  1.00  0.00    -0.014 A 
BRANCH  33  34
ATOM     34  C   UNL A   1      39.370  29.029  29.724  1.00  0.00     0.031 A 
ATOM     35  C   UNL A   1      40.021  29.655  30.927  1.00  0.00     0.074 A 
ATOM     36  C   UNL A   1      39.963  27.998  29.089  1.00  0.00     0.049 A 
ATOM     37  N   UNL A   1      41.131  29.320  31.535  1.00  0.00    -0.248 NA
ATOM     38  C   UNL A   1      39.352  30.829  31.507  1.00  0.00     0.031 C 
ATOM     39  C   UNL A   1      39.452  27.350  27.879  1.00  0.00     0.029 A 
ATOM     40  N   UNL A   1      41.114  27.310  29.374  1.00  0.00    -0.354 N 
ATOM     41  C   UNL A   1      41.295  30.240  32.565  1.00  0.00     0.074 A 
ATOM     42  C   UNL A   1      40.207  31.188  32.453  1.00  0.00     0.031 C 
ATOM     43  C   UNL A   1      40.264  26.333  27.549  1.00  0.00     0.029 A 
ATOM     44  C   UNL A   1      41.369  26.278  28.500  1.00  0.00     0.049 A 
ATOM     45  H   UNL A   1      41.701  27.532  30.131  1.00  0.00     0.167 HD
ATOM     46  C   UNL A   1      42.249  30.275  33.529  1.00  0.00     0.034 A 
ATOM     47  C   UNL A   1      42.379  25.387  28.470  1.00  0.00     0.034 A 
ATOM     48  C   UNL A   1      43.324  29.316  33.626  1.00  0.00     0.049 A 
ATOM     49  C   UNL A   1      43.426  25.445  29.552  1.00  0.00     0.074 A 
ATOM     50  C   UNL A   1      44.316  29.224  34.588  1.00  0.00     0.029 A 
ATOM     51  N   UNL A   1      43.556  28.286  32.722  1.00  0.00    -0.354 N 
ATOM     52  N   UNL A   1      43.530  26.283  30.559  1.00  0.00    -0.248 NA
ATOM     53  C   UNL A   1      44.478  24.424  29.504  1.00  0.00     0.031 C 
ATOM     54  C   UNL A   1      45.181  28.183  34.231  1.00  0.00     0.029 A 
ATOM     55  C   UNL A   1      44.689  27.573  33.087  1.00  0.00     0.049 A 
ATOM     56  H   UNL A   1      42.996  28.090  31.937  1.00  0.00     0.167 HD
ATOM     57  C   UNL A   1      44.650  25.874  31.276  1.00  0.00     0.074 A 
ATOM     58  C   UNL A   1      45.165  24.698  30.603  1.00  0.00     0.031 C 
ATOM     59  C   UNL A   1      45.205  26.419  32.389  1.00  0.00     0.034 A 
BRANCH  46  60
ATOM     60  C   UNL A   1      42.177  31.400  34.537  1.00  0.00     0.023 A 
ATOM     61  C   UNL A   1      41.197  31.427  35.545  1.00  0.00     0.031 A 
ATOM     62  C   UNL A   1      43.082  32.475  34.475  1.00  0.00     0.131 A 
ATOM     63  C   UNL A   1      41.093  32.540  36.395  1.00  0.00     0.055 A 
ATOM     64  C   UNL A   1      43.026  33.540  35.377  1.00  0.00     0.041 A 
ATOM     65  F   UNL A   1      44.029  32.518  33.523  1.00  0.00    -0.206 F 
ATOM     66  C   UNL A   1      42.018  33.584  36.335  1.00  0.00     0.022 A 
BRANCH  63  67
ATOM     67  S   UNL A   1      39.646  32.668  37.482  1.00  0.00     0.124 S 
ATOM     68  O   UNL A   1      40.272  32.691  38.803  1.00  0.00    -0.237 OA
ATOM     69  O   UNL A   1      39.032  33.916  37.045  1.00  0.00    -0.237 OA
ATOM     70  O   UNL A   1      38.884  31.458  37.183  1.00  0.00    -0.744 OA
ENDBRANCH  63  67
ENDBRANCH  46  60
BRANCH  47  71
ATOM     71  C   UNL A   1      42.450  24.363  27.390  1.00  0.00     0.023 A 
ATOM     72  C   UNL A   1      41.696  23.180  27.462  1.00  0.00     0.031 A 
ATOM     73  C   UNL A   1      43.301  24.536  26.284  1.00  0.00     0.131 A 
ATOM     74  C   UNL A   1      41.842  22.196  26.473  1.00  0.00     0.055 A 
ATOM     75  C   UNL A   1      43.404  23.577  25.275  1.00  0.00     0.041 A 
ATOM     76  F   UNL A   1      44.037  25.652  26.162  1.00  0.00    -0.206 F 
ATOM     77  C   UNL A   1      42.683  22.392  25.374  1.00  0.00     0.022 A 
BRANCH  74  78
ATOM     78  S   UNL A   1      40.979  20.616  26.685  1.00  0.00     0.124 S 
ATOM     79  O   UNL A   1      39.709  20.877  26.016  1.00  0.00    -0.237 OA
ATOM     80  O   UNL A   1      41.880  19.687  26.012  1.00  0.00    -0.237 OA
ATOM     81  O   UNL A   1      40.901  20.463  28.136  1.00  0.00    -0.744 OA
ENDBRANCH  74  78
ENDBRANCH  47  71
BRANCH  59  82
ATOM     82  C   UNL A   1      46.422  25.721  32.949  1.00  0.00     0.023 A 
ATOM     83  C   UNL A   1      47.720  26.043  32.516  1.00  0.00     0.031 A 
ATOM     84  C   UNL A   1      46.279  24.689  33.893  1.00  0.00     0.131 A 
ATOM     85  C   UNL A   1      48.815  25.291  32.966  1.00  0.00     0.055 A 
ATOM     86  C   UNL A   1      47.379  23.990  34.391  1.00  0.00     0.041 A 
ATOM     87  F   UNL A   1      45.064  24.336  34.342  1.00  0.00    -0.206 F 
ATOM     88  C   UNL A   1      48.655  24.277  33.913  1.00  0.00     0.022 A 
BRANCH  85  89
ATOM     89  S   UNL A   1      50.436  25.573  32.200  1.00  0.00     0.124 S 
ATOM     90  O   UNL A   1      50.364  24.720  31.018  1.00  0.00    -0.237 OA
ATOM     91  O   UNL A   1      50.416  27.011  31.950  1.00  0.00    -0.237 OA
ATOM     92  O   UNL A   1      51.381  25.135  33.225  1.00  0.00    -0.744 OA
ENDBRANCH  85  89
ENDBRANCH  59  82
ENDBRANCH  33  34
ENDBRANCH  25  28
ENDBRANCH  23  24
ENDBRANCH  22  23
ENDBRANCH   1  22
TORSDOF 17
ENDMDL
MODEL 2
REMARK VINA RESULT:     -10.9      1.268      2.126
REMARK SMILES C[C@H]([NH2+][C@@H](C)[C@@H](C)C(=O)NCCCNC(=O)c1ccc(-c2c3nc(c(-c4cc(S(=O)(=O)[O-])ccc4F)c4ccc([nH]4)c(-c4cc(S(=O)(=O)[O-])ccc4F)c4nc(c(-c5cc(S(=O)(=O)[O-])ccc5F)c5ccc2[nH]5)C=C4)C=C3)cc1)c1cccc(Br)c1
REMARK SMILES IDX 11 1 10 2 8 3 9 4 6 6 7 7 4 8 5 9 3 10 2 13 1 14 80 15 81 16
REMARK SMILES IDX 86 17 82 18 84 19 83 20 85 21 12 22 13 23 14 24 15 25 16 27
REMARK SMILES IDX 17 28 18 29 79 30 19 31 78 32 20 33 21 34 22 35 72 36 23 37
REMARK SMILES IDX 77 38 71 39 73 40 24 41 76 42 70 43 69 44 25 46 57 47 37 48
REMARK SMILES IDX 56 49 38 50 41 51 55 52 74 53 39 54 40 55 54 57 75 58 42 59
REMARK SMILES IDX 26 60 27 61 35 62 28 63 34 64 36 65 33 66 29 67 30 68 31 69
REMARK SMILES IDX 32 70 58 71 59 72 67 73 60 74 66 75 68 76 65 77 61 78 62 79
REMARK SMILES IDX 63 80 64 81 43 82 44 83 52 84 45 85 51 86 53 87 50 88 46 89
REMARK SMILES IDX 47 90 48 91 49 92
REMARK H PARENT 10 5 3 11 3 12 14 26 73 45 41 56
REMARK Flexibility Score: inf
ROOT
ATOM      1  C   UNL A   1      32.739  26.683  25.867  1.00  0.00     0.117 C 
ENDROOT
BRANCH   1   2
ATOM      2  N   UNL A   1      33.305  26.017  24.710  1.00  0.00    -0.356 N 
ATOM      3  C   UNL A   1      34.142  24.954  24.607  1.00  0.00     0.228 C 
ATOM      4  O   UNL A   1      34.515  24.638  23.472  1.00  0.00    -0.275 OA
ATOM      5  H   UNL A   1      33.033  26.406  23.846  1.00  0.00     0.163 HD
BRANCH   3   6
ATOM      6  C   UNL A   1      34.570  24.121  25.813  1.00  0.00     0.133 C 
ATOM      7  C   UNL A   1      36.081  23.892  25.739  1.00  0.00     0.024 C 
BRANCH   6   8
ATOM      8  C   UNL A   1      33.685  22.873  26.079  1.00  0.00     0.192 C 
ATOM      9  C   UNL A   1      34.172  22.176  27.367  1.00  0.00     0.076 C 
BRANCH   8  10
ATOM     10  N   UNL A   1      33.811  21.914  24.976  1.00  0.00    -0.337 N 
ATOM     11  H   UNL A   1      34.365  22.368  24.249  1.00  0.00     0.347 HD
ATOM     12  H   UNL A   1      34.216  21.090  25.422  1.00  0.00     0.347 HD
BRANCH  10  13
ATOM     13  C   UNL A   1      32.598  21.389  24.323  1.00  0.00     0.210 C 
ATOM     14  C   UNL A   1      32.067  22.186  23.121  1.00  0.00     0.081 C 
BRANCH  13  15
ATOM     15  C   UNL A   1      32.832  19.934  23.885  1.00  0.00     0.010 A 
ATOM     16  C   UNL A   1      32.177  19.419  22.752  1.00  0.00     0.010 A 
ATOM     17  C   UNL A   1      33.716  19.080  24.576  1.00  0.00     0.025 A 
ATOM     18  C   UNL A   1      32.408  18.109  22.319  1.00  0.00     0.002 A 
ATOM     19  C   UNL A   1      33.922  17.766  24.157  1.00  0.00     0.018 A 
ATOM     20  C   UNL A   1      33.276  17.278  23.026  1.00  0.00     0.016 A 
ATOM     21  Br  UNL A   1      35.086  16.643  25.136  1.00  0.00    -0.051 Br
ENDBRANCH  13  15
ENDBRANCH  10  13
ENDBRANCH   8  10
ENDBRANCH   6   8
ENDBRANCH   3   6
ENDBRANCH   1   2
BRANCH   1  22
ATOM     22  C   UNL A   1      33.735  27.646  26.507  1.00  0.00     0.042 C 
BRANCH  22  23
ATOM     23  C   UNL A   1      34.027  28.879  25.658  1.00  0.00     0.118 C 
BRANCH  23  24
ATOM     24  N   UNL A   1      33.714  30.115  26.357  1.00  0.00    -0.352 N 
ATOM     25  C   UNL A   1      34.301  30.685  27.455  1.00  0.00     0.251 C 
ATOM     26  H   UNL A   1      32.959  30.623  25.981  1.00  0.00     0.163 HD
ATOM     27  O   UNL A   1      33.731  31.632  28.000  1.00  0.00    -0.269 OA
BRANCH  25  28
ATOM     28  C   UNL A   1      35.578  30.172  27.997  1.00  0.00     0.039 A 
ATOM     29  C   UNL A   1      36.702  30.184  27.167  1.00  0.00     0.014 A 
ATOM     30  C   UNL A   1      35.671  29.636  29.285  1.00  0.00     0.014 A 
ATOM     31  C   UNL A   1      37.922  29.699  27.642  1.00  0.00     0.010 A 
ATOM     32  C   UNL A   1      36.905  29.224  29.784  1.00  0.00     0.010 A 
ATOM     33  C   UNL A   1      38.042  29.241  28.964  1.00  0.00    -0.014 A 
BRANCH  33  34
ATOM     34  C   UNL A   1      39.355  28.779  29.482  1.00  0.00     0.031 A 
ATOM     35  C   UNL A   1      40.013  29.482  30.638  1.00  0.00     0.074 A 
ATOM     36  C   UNL A   1      39.961  27.730  28.891  1.00  0.00     0.049 A 
ATOM     37  N   UNL A   1      41.142  29.205  31.241  1.00  0.00    -0.248 NA
ATOM     38  C   UNL A   1      39.326  30.668  31.170  1.00  0.00     0.031 C 
ATOM     39  C   UNL A   1      39.444  27.008  27.725  1.00  0.00     0.029 A 
ATOM     40  N   UNL A   1      41.133  27.085  29.188  1.00  0.00    -0.354 N 
ATOM     41  C   UNL A   1      41.301  30.182  32.219  1.00  0.00     0.074 A 
ATOM     42  C   UNL A   1      40.189  31.096  32.079  1.00  0.00     0.031 C 
ATOM     43  C   UNL A   1      40.274  25.994  27.434  1.00  0.00     0.029 A 
ATOM     44  C   UNL A   1      41.398  26.015  28.364  1.00  0.00     0.049 A 
ATOM     45  H   UNL A   1      41.729  27.360  29.921  1.00  0.00     0.167 HD
ATOM     46  C   UNL A   1      42.272  30.290  33.160  1.00  0.00     0.034 A 
ATOM     47  C   UNL A   1      42.429  25.148  28.360  1.00  0.00     0.034 A 
ATOM     48  C   UNL A   1      43.372  29.363  33.286  1.00  0.00     0.049 A 
ATOM     49  C   UNL A   1      43.493  25.286  29.417  1.00  0.00     0.074 A 
ATOM     50  C   UNL A   1      44.383  29.344  34.232  1.00  0.00     0.029 A 
ATOM     51  N   UNL A   1      43.612  28.292  32.432  1.00  0.00    -0.354 N 
ATOM     52  N   UNL A   1      43.595  26.178  30.377  1.00  0.00    -0.248 NA
ATOM     53  C   UNL A   1      44.569  24.289  29.402  1.00  0.00     0.031 C 
ATOM     54  C   UNL A   1      45.266  28.306  33.912  1.00  0.00     0.029 A 
ATOM     55  C   UNL A   1      44.769  27.626  32.812  1.00  0.00     0.049 A 
ATOM     56  H   UNL A   1      43.043  28.042  31.669  1.00  0.00     0.167 HD
ATOM     57  C   UNL A   1      44.738  25.834  31.092  1.00  0.00     0.074 A 
ATOM     58  C   UNL A   1      45.269  24.637  30.471  1.00  0.00     0.031 C 
ATOM     59  C   UNL A   1      45.300  26.449  32.165  1.00  0.00     0.034 A 
BRANCH  46  60
ATOM     60  C   UNL A   1      42.192  31.463  34.109  1.00  0.00     0.023 A 
ATOM     61  C   UNL A   1      41.338  31.453  35.228  1.00  0.00     0.031 A 
ATOM     62  C   UNL A   1      42.956  32.622  33.881  1.00  0.00     0.131 A 
ATOM     63  C   UNL A   1      41.209  32.601  36.025  1.00  0.00     0.055 A 
ATOM     64  C   UNL A   1      42.886  33.731  34.727  1.00  0.00     0.041 A 
ATOM     65  F   UNL A   1      43.775  32.703  32.820  1.00  0.00    -0.206 F 
ATOM     66  C   UNL A   1      41.996  33.730  35.798  1.00  0.00     0.022 A 
BRANCH  63  67
ATOM     67  S   UNL A   1      39.893  32.645  37.273  1.00  0.00     0.124 S 
ATOM     68  O   UNL A   1      39.078  31.496  36.883  1.00  0.00    -0.237 OA
ATOM     69  O   UNL A   1      40.635  32.507  38.520  1.00  0.00    -0.237 OA
ATOM     70  O   UNL A   1      39.263  33.947  37.061  1.00  0.00    -0.744 OA
ENDBRANCH  63  67
ENDBRANCH  46  60
BRANCH  47  71
ATOM     71  C   UNL A   1      42.504  24.070  27.334  1.00  0.00     0.023 A 
ATOM     72  C   UNL A   1      41.792  22.870  27.489  1.00  0.00     0.031 A 
ATOM     73  C   UNL A   1      43.320  24.211  26.197  1.00  0.00     0.131 A 
ATOM     74  C   UNL A   1      41.944  21.840  26.549  1.00  0.00     0.055 A 
ATOM     75  C   UNL A   1      43.428  23.203  25.238  1.00  0.00     0.041 A 
ATOM     76  F   UNL A   1      44.015  25.341  25.996  1.00  0.00    -0.206 F 
ATOM     77  C   UNL A   1      42.749  22.003  25.418  1.00  0.00     0.022 A 
BRANCH  74  78
ATOM     78  S   UNL A   1      41.138  20.247  26.867  1.00  0.00     0.124 S 
ATOM     79  O   UNL A   1      40.816  20.353  28.286  1.00  0.00    -0.237 OA
ATOM     80  O   UNL A   1      40.007  20.291  25.946  1.00  0.00    -0.237 OA
ATOM     81  O   UNL A   1      42.172  19.270  26.533  1.00  0.00    -0.744 OA
ENDBRANCH  74  78
ENDBRANCH  47  71
BRANCH  59  82
ATOM     82  C   UNL A   1      46.544  25.810  32.736  1.00  0.00     0.023 A 
ATOM     83  C   UNL A   1      47.796  25.952  32.115  1.00  0.00     0.031 A 
ATOM     84  C   UNL A   1      46.466  25.011  33.890  1.00  0.00     0.131 A 
ATOM     85  C   UNL A   1      48.905  25.245  32.602  1.00  0.00     0.055 A 
ATOM     86  C   UNL A   1      47.588  24.365  34.413  1.00  0.00     0.041 A 
ATOM     87  F   UNL A   1      45.297  24.836  34.525  1.00  0.00    -0.206 F 
ATOM     88  C   UNL A   1      48.812  24.465  33.758  1.00  0.00     0.022 A 
BRANCH  85  89
ATOM     89  S   UNL A   1      50.439  25.258  31.634  1.00  0.00     0.124 S 
ATOM     90  O   UNL A   1      50.911  23.886  31.797  1.00  0.00    -0.237 OA
ATOM     91  O   UNL A   1      49.962  25.613  30.301  1.00  0.00    -0.237 OA
ATOM     92  O   UNL A   1      51.253  26.277  32.294  1.00  0.00    -0.744 OA
ENDBRANCH  85  89
ENDBRANCH  59  82
ENDBRANCH  33  34
ENDBRANCH  25  28
ENDBRANCH  23  24
ENDBRANCH  22  23
ENDBRANCH   1  22
TORSDOF 17
ENDMDL
MODEL 3
REMARK VINA RESULT:     -10.9      1.966      2.984
REMARK SMILES C[C@H]([NH2+][C@@H](C)[C@@H](C)C(=O)NCCCNC(=O)c1ccc(-c2c3nc(c(-c4cc(S(=O)(=O)[O-])ccc4F)c4ccc([nH]4)c(-c4cc(S(=O)(=O)[O-])ccc4F)c4nc(c(-c5cc(S(=O)(=O)[O-])ccc5F)c5ccc2[nH]5)C=C4)C=C3)cc1)c1cccc(Br)c1
REMARK SMILES IDX 11 1 10 2 8 3 9 4 6 6 7 7 4 8 5 9 3 10 2 13 1 14 80 15 81 16
REMARK SMILES IDX 86 17 82 18 84 19 83 20 85 21 12 22 13 23 14 24 15 25 16 27
REMARK SMILES IDX 17 28 18 29 79 30 19 31 78 32 20 33 21 34 22 35 72 36 23 37
REMARK SMILES IDX 77 38 71 39 73 40 24 41 76 42 70 43 69 44 25 46 57 47 37 48
REMARK SMILES IDX 56 49 38 50 41 51 55 52 74 53 39 54 40 55 54 57 75 58 42 59
REMARK SMILES IDX 26 60 27 61 35 62 28 63 34 64 36 65 33 66 29 67 30 68 31 69
REMARK SMILES IDX 32 70 58 71 59 72 67 73 60 74 66 75 68 76 65 77 61 78 62 79
REMARK SMILES IDX 63 80 64 81 43 82 44 83 52 84 45 85 51 86 53 87 50 88 46 89
REMARK SMILES IDX 47 90 48 91 49 92
REMARK H PARENT 10 5 3 11 3 12 14 26 73 45 41 56
REMARK Flexibility Score: inf
ROOT
ATOM      1  C   UNL A   1      32.845  26.334  26.122  1.00  0.00     0.117 C 
ENDROOT
BRANCH   1   2
ATOM      2  N   UNL A   1      34.131  25.790  25.736  1.00  0.00    -0.356 N 
ATOM      3  C   UNL A   1      34.602  24.516  25.730  1.00  0.00     0.228 C 
ATOM      4  O   UNL A   1      35.781  24.352  25.402  1.00  0.00    -0.275 OA
ATOM      5  H   UNL A   1      34.779  26.462  25.423  1.00  0.00     0.163 HD
BRANCH   3   6
ATOM      6  C   UNL A   1      33.719  23.310  26.043  1.00  0.00     0.133 C 
ATOM      7  C   UNL A   1      34.039  22.822  27.456  1.00  0.00     0.024 C 
BRANCH   6   8
ATOM      8  C   UNL A   1      33.681  22.234  24.923  1.00  0.00     0.192 C 
ATOM      9  C   UNL A   1      34.638  21.083  25.300  1.00  0.00     0.076 C 
BRANCH   8  10
ATOM     10  N   UNL A   1      34.143  22.803  23.652  1.00  0.00    -0.337 N 
ATOM     11  H   UNL A   1      34.572  23.703  23.869  1.00  0.00     0.347 HD
ATOM     12  H   UNL A   1      34.753  22.078  23.274  1.00  0.00     0.347 HD
BRANCH  10  13
ATOM     13  C   UNL A   1      33.177  23.040  22.564  1.00  0.00     0.210 C 
ATOM     14  C   UNL A   1      31.986  22.072  22.482  1.00  0.00     0.081 C 
BRANCH  13  15
ATOM     15  C   UNL A   1      32.639  24.478  22.651  1.00  0.00     0.010 A 
ATOM     16  C   UNL A   1      33.429  25.558  22.221  1.00  0.00     0.010 A 
ATOM     17  C   UNL A   1      31.345  24.763  23.133  1.00  0.00     0.025 A 
ATOM     18  C   UNL A   1      32.941  26.868  22.259  1.00  0.00     0.002 A 
ATOM     19  C   UNL A   1      30.873  26.073  23.194  1.00  0.00     0.018 A 
ATOM     20  C   UNL A   1      31.663  27.128  22.752  1.00  0.00     0.016 A 
ATOM     21  Br  UNL A   1      29.146  26.413  23.884  1.00  0.00    -0.051 Br
ENDBRANCH  13  15
ENDBRANCH  10  13
ENDBRANCH   8  10
ENDBRANCH   6   8
ENDBRANCH   3   6
ENDBRANCH   1   2
BRANCH   1  22
ATOM     22  C   UNL A   1      32.989  27.688  26.811  1.00  0.00     0.042 C 
BRANCH  22  23
ATOM     23  C   UNL A   1      33.824  28.691  26.023  1.00  0.00     0.118 C 
BRANCH  23  24
ATOM     24  N   UNL A   1      33.628  30.056  26.487  1.00  0.00    -0.352 N 
ATOM     25  C   UNL A   1      34.337  30.792  27.397  1.00  0.00     0.251 C 
ATOM     26  H   UNL A   1      32.862  30.524  26.082  1.00  0.00     0.163 HD
ATOM     27  O   UNL A   1      33.859  31.859  27.789  1.00  0.00    -0.269 OA
BRANCH  25  28
ATOM     28  C   UNL A   1      35.638  30.322  27.921  1.00  0.00     0.039 A 
ATOM     29  C   UNL A   1      35.663  29.705  29.174  1.00  0.00     0.014 A 
ATOM     30  C   UNL A   1      36.832  30.526  27.222  1.00  0.00     0.014 A 
ATOM     31  C   UNL A   1      36.874  29.256  29.705  1.00  0.00     0.010 A 
ATOM     32  C   UNL A   1      38.029  30.010  27.718  1.00  0.00     0.010 A 
ATOM     33  C   UNL A   1      38.064  29.379  28.969  1.00  0.00    -0.014 A 
BRANCH  33  34
ATOM     34  C   UNL A   1      39.341  28.850  29.513  1.00  0.00     0.031 A 
ATOM     35  C   UNL A   1      39.985  29.487  30.714  1.00  0.00     0.074 A 
ATOM     36  C   UNL A   1      39.928  27.801  28.904  1.00  0.00     0.049 A 
ATOM     37  N   UNL A   1      41.082  29.147  31.342  1.00  0.00    -0.248 NA
ATOM     38  C   UNL A   1      39.324  30.680  31.265  1.00  0.00     0.031 C 
ATOM     39  C   UNL A   1      39.425  27.139  27.698  1.00  0.00     0.029 A 
ATOM     40  N   UNL A   1      41.065  27.101  29.216  1.00  0.00    -0.354 N 
ATOM     41  C   UNL A   1      41.244  30.083  32.359  1.00  0.00     0.074 A 
ATOM     42  C   UNL A   1      40.171  31.043  32.217  1.00  0.00     0.031 C 
ATOM     43  C   UNL A   1      40.226  26.106  27.397  1.00  0.00     0.029 A 
ATOM     44  C   UNL A   1      41.318  26.052  28.363  1.00  0.00     0.049 A 
ATOM     45  H   UNL A   1      41.645  27.328  29.977  1.00  0.00     0.167 HD
ATOM     46  C   UNL A   1      42.186  30.121  33.335  1.00  0.00     0.034 A 
ATOM     47  C   UNL A   1      42.316  25.146  28.361  1.00  0.00     0.034 A 
ATOM     48  C   UNL A   1      43.247  29.150  33.463  1.00  0.00     0.049 A 
ATOM     49  C   UNL A   1      43.349  25.208  29.456  1.00  0.00     0.074 A 
ATOM     50  C   UNL A   1      44.224  29.060  34.440  1.00  0.00     0.029 A 
ATOM     51  N   UNL A   1      43.476  28.101  32.580  1.00  0.00    -0.354 N 
ATOM     52  N   UNL A   1      43.451  26.062  30.451  1.00  0.00    -0.248 NA
ATOM     53  C   UNL A   1      44.387  24.172  29.440  1.00  0.00     0.031 C 
ATOM     54  C   UNL A   1      45.079  28.001  34.112  1.00  0.00     0.029 A 
ATOM     55  C   UNL A   1      44.594  27.379  32.972  1.00  0.00     0.049 A 
ATOM     56  H   UNL A   1      42.924  27.899  31.790  1.00  0.00     0.167 HD
ATOM     57  C   UNL A   1      44.555  25.650  31.190  1.00  0.00     0.074 A 
ATOM     58  C   UNL A   1      45.063  24.456  30.543  1.00  0.00     0.031 C 
ATOM     59  C   UNL A   1      45.103  26.206  32.301  1.00  0.00     0.034 A 
BRANCH  46  60
ATOM     60  C   UNL A   1      42.117  31.264  34.323  1.00  0.00     0.023 A 
ATOM     61  C   UNL A   1      41.157  31.295  35.351  1.00  0.00     0.031 A 
ATOM     62  C   UNL A   1      43.002  32.352  34.221  1.00  0.00     0.131 A 
ATOM     63  C   UNL A   1      41.052  32.421  36.182  1.00  0.00     0.055 A 
ATOM     64  C   UNL A   1      42.947  33.433  35.105  1.00  0.00     0.041 A 
ATOM     65  F   UNL A   1      43.928  32.392  33.250  1.00  0.00    -0.206 F 
ATOM     66  C   UNL A   1      41.958  33.479  36.082  1.00  0.00     0.022 A 
BRANCH  63  67
ATOM     67  S   UNL A   1      39.626  32.547  37.296  1.00  0.00     0.124 S 
ATOM     68  O   UNL A   1      38.844  31.376  36.906  1.00  0.00    -0.237 OA
ATOM     69  O   UNL A   1      40.249  32.489  38.614  1.00  0.00    -0.237 OA
ATOM     70  O   UNL A   1      39.028  33.832  36.943  1.00  0.00    -0.744 OA
ENDBRANCH  63  67
ENDBRANCH  46  60
BRANCH  47  71
ATOM     71  C   UNL A   1      42.387  24.103  27.300  1.00  0.00     0.023 A 
ATOM     72  C   UNL A   1      41.574  22.959  27.353  1.00  0.00     0.031 A 
ATOM     73  C   UNL A   1      43.295  24.218  26.233  1.00  0.00     0.131 A 
ATOM     74  C   UNL A   1      41.717  21.954  26.385  1.00  0.00     0.055 A 
ATOM     75  C   UNL A   1      43.398  23.239  25.243  1.00  0.00     0.041 A 
ATOM     76  F   UNL A   1      44.089  25.295  26.130  1.00  0.00    -0.206 F 
ATOM     77  C   UNL A   1      42.616  22.091  25.324  1.00  0.00     0.022 A 
BRANCH  74  78
ATOM     78  S   UNL A   1      40.769  20.420  26.577  1.00  0.00     0.124 S 
ATOM     79  O   UNL A   1      40.783  20.240  28.025  1.00  0.00    -0.237 OA
ATOM     80  O   UNL A   1      39.485  20.784  25.988  1.00  0.00    -0.237 OA
ATOM     81  O   UNL A   1      41.545  19.443  25.818  1.00  0.00    -0.744 OA
ENDBRANCH  74  78
ENDBRANCH  47  71
BRANCH  59  82
ATOM     82  C   UNL A   1      46.303  25.501  32.889  1.00  0.00     0.023 A 
ATOM     83  C   UNL A   1      46.160  24.468  33.832  1.00  0.00     0.031 A 
ATOM     84  C   UNL A   1      47.604  25.897  32.537  1.00  0.00     0.131 A 
ATOM     85  C   UNL A   1      47.294  23.920  34.448  1.00  0.00     0.055 A 
ATOM     86  C   UNL A   1      48.733  25.300  33.101  1.00  0.00     0.041 A 
ATOM     87  F   UNL A   1      47.803  26.880  31.644  1.00  0.00    -0.206 F 
ATOM     88  C   UNL A   1      48.581  24.318  34.076  1.00  0.00     0.022 A 
BRANCH  85  89
ATOM     89  S   UNL A   1      47.061  22.771  35.832  1.00  0.00     0.124 S 
ATOM     90  O   UNL A   1      45.631  22.491  35.756  1.00  0.00    -0.237 OA
ATOM     91  O   UNL A   1      47.946  21.667  35.472  1.00  0.00    -0.237 OA
ATOM     92  O   UNL A   1      47.482  23.547  36.997  1.00  0.00    -0.744 OA
ENDBRANCH  85  89
ENDBRANCH  59  82
ENDBRANCH  33  34
ENDBRANCH  25  28
ENDBRANCH  23  24
ENDBRANCH  22  23
ENDBRANCH   1  22
TORSDOF 17
ENDMDL
