MODEL 1
REMARK VINA RESULT:     -13.6      0.000      0.000
REMARK SMILES Cc1nn([C@H]2CCS(=O)(=O)C2)c(C)c1/C=C(\CC(=O)NCCCNC(=O)c1ccc(-c2c3nc(c(-c4cc(S(=O)(=O)[O-])ccc4F)c4ccc([nH]4)c(-c4cc(S(=O)(=O)[O-])ccc4F)c4nc(c(-c5cc(S(=O)(=O)[O-])ccc5F)c5ccc2[nH]5)C=C4)C=C3)cc1)c1nc2ccccc2s1
REMARK SMILES IDX 22 1 21 2 20 3 18 4 19 5 17 7 16 8 15 9 14 10 1 11 2 12 3 13
REMARK SMILES IDX 4 14 12 15 13 16 5 17 6 18 11 19 7 20 8 21 9 22 10 23 90 24
REMARK SMILES IDX 91 25 98 26 92 27 97 28 93 29 96 30 94 31 95 32 23 33 24 34
REMARK SMILES IDX 25 35 26 37 27 38 28 39 89 40 29 41 88 42 30 43 31 44 32 45
REMARK SMILES IDX 82 46 33 47 87 48 81 49 83 50 34 51 86 52 80 53 79 54 35 56
REMARK SMILES IDX 67 57 47 58 66 59 48 60 51 61 65 62 84 63 49 64 50 65 64 67
REMARK SMILES IDX 85 68 52 69 36 70 37 71 45 72 38 73 44 74 46 75 43 76 39 77
REMARK SMILES IDX 40 78 41 79 42 80 68 81 69 82 77 83 70 84 76 85 78 86 75 87
REMARK SMILES IDX 71 88 72 89 73 90 74 91 53 92 54 93 62 94 55 95 61 96 63 97
REMARK SMILES IDX 60 98 56 99 57 100 58 101 59 102
REMARK H PARENT 20 6 24 36 83 55 51 66
REMARK Flexibility Score: inf
ROOT
ATOM      1  C   UNL A   1      37.479  19.973  24.703  1.00  0.00     0.042 C 
ENDROOT
BRANCH   1   2
ATOM      2  C   UNL A   1      36.181  20.545  25.275  1.00  0.00     0.117 C 
BRANCH   2   3
ATOM      3  N   UNL A   1      35.911  21.889  24.797  1.00  0.00    -0.356 N 
ATOM      4  C   UNL A   1      34.750  22.606  24.869  1.00  0.00     0.224 C 
ATOM      5  O   UNL A   1      34.686  23.705  24.320  1.00  0.00    -0.275 OA
ATOM      6  H   UNL A   1      36.668  22.346  24.362  1.00  0.00     0.163 HD
BRANCH   4   7
ATOM      7  C   UNL A   1      33.617  22.097  25.748  1.00  0.00     0.138 C 
BRANCH   7   8
ATOM      8  C   UNL A   1      32.390  21.551  25.037  1.00  0.00    -0.002 C 
ATOM      9  C   UNL A   1      31.298  22.289  24.707  1.00  0.00     0.019 C 
BRANCH   9  10
ATOM     10  C   UNL A   1      31.050  23.661  25.045  1.00  0.00     0.019 A 
ATOM     11  C   UNL A   1      29.588  23.396  27.201  1.00  0.00     0.069 C 
ATOM     12  C   UNL A   1      30.383  24.150  26.198  1.00  0.00     0.067 A 
ATOM     13  N   UNL A   1      30.539  25.474  26.321  1.00  0.00    -0.177 NA
ATOM     14  N   UNL A   1      31.279  25.823  25.250  1.00  0.00    -0.265 N 
ATOM     15  C   UNL A   1      31.341  24.807  24.319  1.00  0.00     0.043 A 
ATOM     16  C   UNL A   1      31.665  25.002  22.881  1.00  0.00     0.067 C 
BRANCH  14  17
ATOM     17  C   UNL A   1      31.850  27.166  25.208  1.00  0.00     0.123 C 
ATOM     18  C   UNL A   1      30.905  28.210  24.559  1.00  0.00     0.044 C 
ATOM     19  C   UNL A   1      32.162  27.770  26.576  1.00  0.00     0.164 C 
ATOM     20  C   UNL A   1      31.539  29.584  24.742  1.00  0.00     0.139 C 
ATOM     21  S   UNL A   1      32.479  29.481  26.248  1.00  0.00     0.152 S 
ATOM     22  O   UNL A   1      33.877  29.619  25.925  1.00  0.00    -0.229 OA
ATOM     23  O   UNL A   1      31.835  30.279  27.278  1.00  0.00    -0.229 OA
ENDBRANCH  14  17
ENDBRANCH   9  10
BRANCH   8  24
ATOM     24  C   UNL A   1      32.377  20.149  24.722  1.00  0.00     0.121 A 
ATOM     25  N   UNL A   1      32.389  19.190  25.623  1.00  0.00    -0.236 NA
ATOM     26  S   UNL A   1      32.619  19.604  23.102  1.00  0.00    -0.114 S 
ATOM     27  C   UNL A   1      32.948  18.044  25.084  1.00  0.00     0.082 A 
ATOM     28  C   UNL A   1      33.165  18.085  23.706  1.00  0.00     0.055 A 
ATOM     29  C   UNL A   1      33.361  16.906  25.805  1.00  0.00     0.030 A 
ATOM     30  C   UNL A   1      33.780  17.026  23.019  1.00  0.00     0.021 A 
ATOM     31  C   UNL A   1      34.030  15.873  25.140  1.00  0.00     0.002 A 
ATOM     32  C   UNL A   1      34.238  15.935  23.766  1.00  0.00     0.002 A 
ENDBRANCH   8  24
ENDBRANCH   7   8
ENDBRANCH   4   7
ENDBRANCH   2   3
ENDBRANCH   1   2
BRANCH   1  33
ATOM     33  C   UNL A   1      38.706  20.408  25.490  1.00  0.00     0.118 C 
BRANCH  33  34
ATOM     34  N   UNL A   1      39.637  19.297  25.707  1.00  0.00    -0.352 N 
ATOM     35  C   UNL A   1      40.983  19.348  26.012  1.00  0.00     0.251 C 
ATOM     36  H   UNL A   1      39.253  18.394  25.623  1.00  0.00     0.163 HD
ATOM     37  O   UNL A   1      41.706  18.380  25.802  1.00  0.00    -0.269 OA
BRANCH  35  38
ATOM     38  C   UNL A   1      41.522  20.588  26.592  1.00  0.00     0.039 A 
ATOM     39  C   UNL A   1      42.314  21.469  25.847  1.00  0.00     0.014 A 
ATOM     40  C   UNL A   1      41.147  20.889  27.897  1.00  0.00     0.014 A 
ATOM     41  C   UNL A   1      42.651  22.703  26.402  1.00  0.00     0.010 A 
ATOM     42  C   UNL A   1      41.326  22.162  28.364  1.00  0.00     0.010 A 
ATOM     43  C   UNL A   1      42.135  23.050  27.658  1.00  0.00    -0.014 A 
BRANCH  43  44
ATOM     44  C   UNL A   1      42.335  24.375  28.239  1.00  0.00     0.031 A 
ATOM     45  C   UNL A   1      41.255  25.364  27.968  1.00  0.00     0.074 A 
ATOM     46  C   UNL A   1      43.256  24.579  29.209  1.00  0.00     0.049 A 
ATOM     47  N   UNL A   1      41.334  26.483  27.328  1.00  0.00    -0.248 NA
ATOM     48  C   UNL A   1      39.879  25.002  28.348  1.00  0.00     0.031 C 
ATOM     49  C   UNL A   1      44.151  23.586  29.819  1.00  0.00     0.029 A 
ATOM     50  N   UNL A   1      43.472  25.680  29.977  1.00  0.00    -0.354 N 
ATOM     51  C   UNL A   1      40.078  27.080  27.436  1.00  0.00     0.074 A 
ATOM     52  C   UNL A   1      39.189  26.034  27.860  1.00  0.00     0.031 C 
ATOM     53  C   UNL A   1      44.601  24.049  31.005  1.00  0.00     0.029 A 
ATOM     54  C   UNL A   1      44.187  25.432  31.146  1.00  0.00     0.049 A 
ATOM     55  H   UNL A   1      43.152  26.577  29.727  1.00  0.00     0.167 HD
ATOM     56  C   UNL A   1      39.930  28.438  27.410  1.00  0.00     0.034 A 
ATOM     57  C   UNL A   1      44.401  26.284  32.182  1.00  0.00     0.034 A 
ATOM     58  C   UNL A   1      41.135  29.071  26.912  1.00  0.00     0.049 A 
ATOM     59  C   UNL A   1      44.178  27.653  31.657  1.00  0.00     0.074 A 
ATOM     60  C   UNL A   1      41.868  28.974  25.745  1.00  0.00     0.029 A 
ATOM     61  N   UNL A   1      41.984  29.656  27.827  1.00  0.00    -0.354 N 
ATOM     62  N   UNL A   1      44.919  28.191  30.726  1.00  0.00    -0.248 NA
ATOM     63  C   UNL A   1      42.851  28.234  31.798  1.00  0.00     0.031 C 
ATOM     64  C   UNL A   1      43.231  29.008  26.166  1.00  0.00     0.029 A 
ATOM     65  C   UNL A   1      43.255  29.216  27.547  1.00  0.00     0.049 A 
ATOM     66  H   UNL A   1      41.728  30.275  28.547  1.00  0.00     0.167 HD
ATOM     67  C   UNL A   1      44.026  28.842  29.888  1.00  0.00     0.074 A 
ATOM     68  C   UNL A   1      42.788  28.935  30.660  1.00  0.00     0.031 C 
ATOM     69  C   UNL A   1      44.279  28.979  28.551  1.00  0.00     0.034 A 
BRANCH  56  70
ATOM     70  C   UNL A   1      38.870  29.226  28.161  1.00  0.00     0.023 A 
ATOM     71  C   UNL A   1      38.951  29.230  29.569  1.00  0.00     0.031 A 
ATOM     72  C   UNL A   1      37.661  29.730  27.628  1.00  0.00     0.131 A 
ATOM     73  C   UNL A   1      37.846  29.583  30.365  1.00  0.00     0.055 A 
ATOM     74  C   UNL A   1      36.588  30.147  28.424  1.00  0.00     0.041 A 
ATOM     75  F   UNL A   1      37.403  29.775  26.318  1.00  0.00    -0.206 F 
ATOM     76  C   UNL A   1      36.661  30.039  29.801  1.00  0.00     0.022 A 
BRANCH  73  77
ATOM     77  S   UNL A   1      37.926  29.249  32.144  1.00  0.00     0.124 S 
ATOM     78  O   UNL A   1      39.068  30.063  32.544  1.00  0.00    -0.237 OA
ATOM     79  O   UNL A   1      36.616  29.708  32.592  1.00  0.00    -0.237 OA
ATOM     80  O   UNL A   1      38.137  27.805  32.206  1.00  0.00    -0.744 OA
ENDBRANCH  73  77
ENDBRANCH  56  70
BRANCH  57  81
ATOM     81  C   UNL A   1      44.476  25.937  33.626  1.00  0.00     0.023 A 
ATOM     82  C   UNL A   1      43.430  26.193  34.537  1.00  0.00     0.031 A 
ATOM     83  C   UNL A   1      45.536  25.124  34.090  1.00  0.00     0.131 A 
ATOM     84  C   UNL A   1      43.477  25.649  35.845  1.00  0.00     0.055 A 
ATOM     85  C   UNL A   1      45.580  24.596  35.382  1.00  0.00     0.041 A 
ATOM     86  F   UNL A   1      46.529  24.748  33.269  1.00  0.00    -0.206 F 
ATOM     87  C   UNL A   1      44.544  24.851  36.265  1.00  0.00     0.022 A 
BRANCH  84  88
ATOM     88  S   UNL A   1      42.091  25.906  37.001  1.00  0.00     0.124 S 
ATOM     89  O   UNL A   1      41.384  27.030  36.397  1.00  0.00    -0.237 OA
ATOM     90  O   UNL A   1      41.411  24.617  36.965  1.00  0.00    -0.237 OA
ATOM     91  O   UNL A   1      42.755  26.211  38.270  1.00  0.00    -0.744 OA
ENDBRANCH  84  88
ENDBRANCH  57  81
BRANCH  69  92
ATOM     92  C   UNL A   1      45.673  28.651  28.042  1.00  0.00     0.023 A 
ATOM     93  C   UNL A   1      46.125  27.355  27.698  1.00  0.00     0.031 A 
ATOM     94  C   UNL A   1      46.532  29.730  27.771  1.00  0.00     0.131 A 
ATOM     95  C   UNL A   1      47.397  27.180  27.115  1.00  0.00     0.055 A 
ATOM     96  C   UNL A   1      47.781  29.555  27.176  1.00  0.00     0.041 A 
ATOM     97  F   UNL A   1      46.151  30.989  28.045  1.00  0.00    -0.206 F 
ATOM     98  C   UNL A   1      48.221  28.279  26.851  1.00  0.00     0.022 A 
BRANCH  95  99
ATOM     99  S   UNL A   1      48.015  25.515  26.700  1.00  0.00     0.124 S 
ATOM    100  O   UNL A   1      46.905  24.638  27.054  1.00  0.00    -0.237 OA
ATOM    101  O   UNL A   1      48.309  25.632  25.274  1.00  0.00    -0.237 OA
ATOM    102  O   UNL A   1      49.198  25.370  27.551  1.00  0.00    -0.744 OA
ENDBRANCH  95  99
ENDBRANCH  69  92
ENDBRANCH  43  44
ENDBRANCH  35  38
ENDBRANCH  33  34
ENDBRANCH   1  33
TORSDOF 17
ENDMDL
MODEL 2
REMARK VINA RESULT:     -13.0      3.592      8.387
REMARK SMILES Cc1nn([C@H]2CCS(=O)(=O)C2)c(C)c1/C=C(\CC(=O)NCCCNC(=O)c1ccc(-c2c3nc(c(-c4cc(S(=O)(=O)[O-])ccc4F)c4ccc([nH]4)c(-c4cc(S(=O)(=O)[O-])ccc4F)c4nc(c(-c5cc(S(=O)(=O)[O-])ccc5F)c5ccc2[nH]5)C=C4)C=C3)cc1)c1nc2ccccc2s1
REMARK SMILES IDX 22 1 21 2 20 3 18 4 19 5 17 7 16 8 15 9 14 10 1 11 2 12 3 13
REMARK SMILES IDX 4 14 12 15 13 16 5 17 6 18 11 19 7 20 8 21 9 22 10 23 90 24
REMARK SMILES IDX 91 25 98 26 92 27 97 28 93 29 96 30 94 31 95 32 23 33 24 34
REMARK SMILES IDX 25 35 26 37 27 38 28 39 89 40 29 41 88 42 30 43 31 44 32 45
REMARK SMILES IDX 82 46 33 47 87 48 81 49 83 50 34 51 86 52 80 53 79 54 35 56
REMARK SMILES IDX 67 57 47 58 66 59 48 60 51 61 65 62 84 63 49 64 50 65 64 67
REMARK SMILES IDX 85 68 52 69 36 70 37 71 45 72 38 73 44 74 46 75 43 76 39 77
REMARK SMILES IDX 40 78 41 79 42 80 68 81 69 82 77 83 70 84 76 85 78 86 75 87
REMARK SMILES IDX 71 88 72 89 73 90 74 91 53 92 54 93 62 94 55 95 61 96 63 97
REMARK SMILES IDX 60 98 56 99 57 100 58 101 59 102
REMARK H PARENT 20 6 24 36 83 55 51 66
REMARK Flexibility Score: inf
ROOT
ATOM      1  C   UNL A   1      37.598  22.248  25.018  1.00  0.00     0.042 C 
ENDROOT
BRANCH   1   2
ATOM      2  C   UNL A   1      36.084  22.460  25.091  1.00  0.00     0.117 C 
BRANCH   2   3
ATOM      3  N   UNL A   1      35.571  23.176  23.937  1.00  0.00    -0.356 N 
ATOM      4  C   UNL A   1      34.551  24.083  23.877  1.00  0.00     0.224 C 
ATOM      5  O   UNL A   1      34.195  24.518  22.783  1.00  0.00    -0.275 OA
ATOM      6  H   UNL A   1      36.018  22.980  23.082  1.00  0.00     0.163 HD
BRANCH   4   7
ATOM      7  C   UNL A   1      33.981  24.645  25.171  1.00  0.00     0.138 C 
BRANCH   7   8
ATOM      8  C   UNL A   1      32.490  24.458  25.403  1.00  0.00    -0.002 C 
ATOM      9  C   UNL A   1      31.895  23.266  25.665  1.00  0.00     0.019 C 
BRANCH   9  10
ATOM     10  C   UNL A   1      32.519  21.973  25.673  1.00  0.00     0.019 A 
ATOM     11  C   UNL A   1      33.905  22.094  27.891  1.00  0.00     0.069 C 
ATOM     12  C   UNL A   1      33.323  21.420  26.703  1.00  0.00     0.067 A 
ATOM     13  N   UNL A   1      33.540  20.114  26.497  1.00  0.00    -0.177 NA
ATOM     14  N   UNL A   1      32.897  19.848  25.342  1.00  0.00    -0.265 N 
ATOM     15  C   UNL A   1      32.536  21.004  24.681  1.00  0.00     0.043 A 
ATOM     16  C   UNL A   1      32.242  21.084  23.225  1.00  0.00     0.067 C 
BRANCH  14  17
ATOM     17  C   UNL A   1      32.716  18.453  24.953  1.00  0.00     0.123 C 
ATOM     18  C   UNL A   1      33.422  18.095  23.620  1.00  0.00     0.044 C 
ATOM     19  C   UNL A   1      33.284  17.436  25.942  1.00  0.00     0.164 C 
ATOM     20  C   UNL A   1      33.309  16.587  23.428  1.00  0.00     0.139 C 
ATOM     21  S   UNL A   1      33.257  15.897  25.066  1.00  0.00     0.152 S 
ATOM     22  O   UNL A   1      31.964  15.294  25.269  1.00  0.00    -0.229 OA
ATOM     23  O   UNL A   1      34.498  15.188  25.333  1.00  0.00    -0.229 OA
ENDBRANCH  14  17
ENDBRANCH   9  10
BRANCH   8  24
ATOM     24  C   UNL A   1      31.655  25.623  25.305  1.00  0.00     0.121 A 
ATOM     25  N   UNL A   1      30.456  25.628  24.762  1.00  0.00    -0.236 NA
ATOM     26  S   UNL A   1      32.281  27.192  25.660  1.00  0.00    -0.114 S 
ATOM     27  C   UNL A   1      30.159  26.894  24.288  1.00  0.00     0.082 A 
ATOM     28  C   UNL A   1      31.059  27.892  24.665  1.00  0.00     0.055 A 
ATOM     29  C   UNL A   1      29.093  27.228  23.429  1.00  0.00     0.030 A 
ATOM     30  C   UNL A   1      30.932  29.217  24.215  1.00  0.00     0.021 A 
ATOM     31  C   UNL A   1      28.993  28.530  22.926  1.00  0.00     0.002 A 
ATOM     32  C   UNL A   1      29.903  29.509  23.314  1.00  0.00     0.002 A 
ENDBRANCH   8  24
ENDBRANCH   7   8
ENDBRANCH   4   7
ENDBRANCH   2   3
ENDBRANCH   1   2
BRANCH   1  33
ATOM     33  C   UNL A   1      38.360  23.148  25.979  1.00  0.00     0.118 C 
BRANCH  33  34
ATOM     34  N   UNL A   1      39.223  22.377  26.879  1.00  0.00    -0.352 N 
ATOM     35  C   UNL A   1      40.325  22.807  27.593  1.00  0.00     0.251 C 
ATOM     36  H   UNL A   1      38.987  21.428  26.989  1.00  0.00     0.163 HD
ATOM     37  O   UNL A   1      41.155  22.002  28.000  1.00  0.00    -0.269 OA
BRANCH  35  38
ATOM     38  C   UNL A   1      40.473  24.248  27.849  1.00  0.00     0.039 A 
ATOM     39  C   UNL A   1      39.385  25.125  27.790  1.00  0.00     0.014 A 
ATOM     40  C   UNL A   1      41.734  24.695  28.229  1.00  0.00     0.014 A 
ATOM     41  C   UNL A   1      39.561  26.445  28.207  1.00  0.00     0.010 A 
ATOM     42  C   UNL A   1      41.859  25.931  28.802  1.00  0.00     0.010 A 
ATOM     43  C   UNL A   1      40.801  26.835  28.730  1.00  0.00    -0.014 A 
BRANCH  43  44
ATOM     44  C   UNL A   1      41.017  28.159  29.308  1.00  0.00     0.031 A 
ATOM     45  C   UNL A   1      42.060  28.987  28.642  1.00  0.00     0.074 A 
ATOM     46  C   UNL A   1      40.118  28.702  30.161  1.00  0.00     0.049 A 
ATOM     47  N   UNL A   1      43.162  29.443  29.138  1.00  0.00    -0.248 NA
ATOM     48  C   UNL A   1      41.922  29.237  27.196  1.00  0.00     0.031 C 
ATOM     49  C   UNL A   1      38.853  28.115  30.623  1.00  0.00     0.029 A 
ATOM     50  N   UNL A   1      40.058  29.964  30.665  1.00  0.00    -0.354 N 
ATOM     51  C   UNL A   1      43.735  30.238  28.146  1.00  0.00     0.074 A 
ATOM     52  C   UNL A   1      43.057  29.884  26.929  1.00  0.00     0.031 C 
ATOM     53  C   UNL A   1      38.049  29.089  31.102  1.00  0.00     0.029 A 
ATOM     54  C   UNL A   1      38.807  30.325  31.158  1.00  0.00     0.049 A 
ATOM     55  H   UNL A   1      40.834  30.570  30.681  1.00  0.00     0.167 HD
ATOM     56  C   UNL A   1      44.541  31.295  28.458  1.00  0.00     0.034 A 
ATOM     57  C   UNL A   1      38.399  31.557  31.556  1.00  0.00     0.034 A 
ATOM     58  C   UNL A   1      44.967  31.219  29.841  1.00  0.00     0.049 A 
ATOM     59  C   UNL A   1      39.626  32.339  31.842  1.00  0.00     0.074 A 
ATOM     60  C   UNL A   1      45.647  30.281  30.594  1.00  0.00     0.029 A 
ATOM     61  N   UNL A   1      44.340  32.036  30.758  1.00  0.00    -0.354 N 
ATOM     62  N   UNL A   1      40.465  32.028  32.793  1.00  0.00    -0.248 NA
ATOM     63  C   UNL A   1      40.183  33.157  30.775  1.00  0.00     0.031 C 
ATOM     64  C   UNL A   1      44.972  30.266  31.853  1.00  0.00     0.029 A 
ATOM     65  C   UNL A   1      43.986  31.254  31.830  1.00  0.00     0.049 A 
ATOM     66  H   UNL A   1      44.178  33.002  30.662  1.00  0.00     0.167 HD
ATOM     67  C   UNL A   1      41.722  32.215  32.238  1.00  0.00     0.074 A 
ATOM     68  C   UNL A   1      41.487  33.021  31.041  1.00  0.00     0.031 C 
ATOM     69  C   UNL A   1      42.791  31.457  32.631  1.00  0.00     0.034 A 
BRANCH  56  70
ATOM     70  C   UNL A   1      44.658  32.583  27.660  1.00  0.00     0.023 A 
ATOM     71  C   UNL A   1      44.016  33.723  28.186  1.00  0.00     0.031 A 
ATOM     72  C   UNL A   1      45.104  32.707  26.324  1.00  0.00     0.131 A 
ATOM     73  C   UNL A   1      43.729  34.839  27.378  1.00  0.00     0.055 A 
ATOM     74  C   UNL A   1      44.877  33.847  25.543  1.00  0.00     0.041 A 
ATOM     75  F   UNL A   1      45.707  31.717  25.660  1.00  0.00    -0.206 F 
ATOM     76  C   UNL A   1      44.153  34.907  26.056  1.00  0.00     0.022 A 
BRANCH  73  77
ATOM     77  S   UNL A   1      42.622  36.113  28.035  1.00  0.00     0.124 S 
ATOM     78  O   UNL A   1      43.368  36.578  29.199  1.00  0.00    -0.237 OA
ATOM     79  O   UNL A   1      42.534  37.040  26.912  1.00  0.00    -0.237 OA
ATOM     80  O   UNL A   1      41.397  35.375  28.333  1.00  0.00    -0.744 OA
ENDBRANCH  73  77
ENDBRANCH  56  70
BRANCH  57  81
ATOM     81  C   UNL A   1      37.043  32.148  31.392  1.00  0.00     0.023 A 
ATOM     82  C   UNL A   1      36.462  32.409  30.134  1.00  0.00     0.031 A 
ATOM     83  C   UNL A   1      36.195  32.262  32.518  1.00  0.00     0.131 A 
ATOM     84  C   UNL A   1      35.095  32.771  30.043  1.00  0.00     0.055 A 
ATOM     85  C   UNL A   1      34.850  32.624  32.424  1.00  0.00     0.041 A 
ATOM     86  F   UNL A   1      36.632  31.943  33.747  1.00  0.00    -0.206 F 
ATOM     87  C   UNL A   1      34.291  32.874  31.182  1.00  0.00     0.022 A 
BRANCH  84  88
ATOM     88  S   UNL A   1      34.314  33.030  28.416  1.00  0.00     0.124 S 
ATOM     89  O   UNL A   1      34.134  31.666  27.935  1.00  0.00    -0.237 OA
ATOM     90  O   UNL A   1      33.101  33.761  28.765  1.00  0.00    -0.237 OA
ATOM     91  O   UNL A   1      35.308  33.814  27.680  1.00  0.00    -0.744 OA
ENDBRANCH  84  88
ENDBRANCH  57  81
BRANCH  69  92
ATOM     92  C   UNL A   1      42.647  30.596  33.875  1.00  0.00     0.023 A 
ATOM     93  C   UNL A   1      42.464  29.193  33.872  1.00  0.00     0.031 A 
ATOM     94  C   UNL A   1      42.841  31.222  35.119  1.00  0.00     0.131 A 
ATOM     95  C   UNL A   1      42.469  28.475  35.086  1.00  0.00     0.055 A 
ATOM     96  C   UNL A   1      42.865  30.506  36.316  1.00  0.00     0.041 A 
ATOM     97  F   UNL A   1      43.051  32.547  35.190  1.00  0.00    -0.206 F 
ATOM     98  C   UNL A   1      42.674  29.130  36.305  1.00  0.00     0.022 A 
BRANCH  95  99
ATOM     99  S   UNL A   1      42.196  26.672  35.108  1.00  0.00     0.124 S 
ATOM    100  O   UNL A   1      40.774  26.536  34.813  1.00  0.00    -0.237 OA
ATOM    101  O   UNL A   1      43.112  26.200  34.074  1.00  0.00    -0.237 OA
ATOM    102  O   UNL A   1      42.573  26.288  36.470  1.00  0.00    -0.744 OA
ENDBRANCH  95  99
ENDBRANCH  69  92
ENDBRANCH  43  44
ENDBRANCH  35  38
ENDBRANCH  33  34
ENDBRANCH   1  33
TORSDOF 17
ENDMDL
MODEL 3
REMARK VINA RESULT:     -12.8      3.701      7.197
REMARK SMILES Cc1nn([C@H]2CCS(=O)(=O)C2)c(C)c1/C=C(\CC(=O)NCCCNC(=O)c1ccc(-c2c3nc(c(-c4cc(S(=O)(=O)[O-])ccc4F)c4ccc([nH]4)c(-c4cc(S(=O)(=O)[O-])ccc4F)c4nc(c(-c5cc(S(=O)(=O)[O-])ccc5F)c5ccc2[nH]5)C=C4)C=C3)cc1)c1nc2ccccc2s1
REMARK SMILES IDX 22 1 21 2 20 3 18 4 19 5 17 7 16 8 15 9 14 10 1 11 2 12 3 13
REMARK SMILES IDX 4 14 12 15 13 16 5 17 6 18 11 19 7 20 8 21 9 22 10 23 90 24
REMARK SMILES IDX 91 25 98 26 92 27 97 28 93 29 96 30 94 31 95 32 23 33 24 34
REMARK SMILES IDX 25 35 26 37 27 38 28 39 89 40 29 41 88 42 30 43 31 44 32 45
REMARK SMILES IDX 82 46 33 47 87 48 81 49 83 50 34 51 86 52 80 53 79 54 35 56
REMARK SMILES IDX 67 57 47 58 66 59 48 60 51 61 65 62 84 63 49 64 50 65 64 67
REMARK SMILES IDX 85 68 52 69 36 70 37 71 45 72 38 73 44 74 46 75 43 76 39 77
REMARK SMILES IDX 40 78 41 79 42 80 68 81 69 82 77 83 70 84 76 85 78 86 75 87
REMARK SMILES IDX 71 88 72 89 73 90 74 91 53 92 54 93 62 94 55 95 61 96 63 97
REMARK SMILES IDX 60 98 56 99 57 100 58 101 59 102
REMARK H PARENT 20 6 24 36 83 55 51 66
REMARK Flexibility Score: inf
ROOT
ATOM      1  C   UNL A   1      37.777  24.040  25.791  1.00  0.00     0.042 C 
ENDROOT
BRANCH   1   2
ATOM      2  C   UNL A   1      36.361  23.524  25.524  1.00  0.00     0.117 C 
BRANCH   2   3
ATOM      3  N   UNL A   1      36.044  23.489  24.107  1.00  0.00    -0.356 N 
ATOM      4  C   UNL A   1      34.823  23.358  23.507  1.00  0.00     0.224 C 
ATOM      5  O   UNL A   1      34.763  23.254  22.283  1.00  0.00    -0.275 OA
ATOM      6  H   UNL A   1      36.813  23.570  23.497  1.00  0.00     0.163 HD
BRANCH   4   7
ATOM      7  C   UNL A   1      33.564  23.493  24.349  1.00  0.00     0.138 C 
BRANCH   7   8
ATOM      8  C   UNL A   1      32.275  22.957  23.748  1.00  0.00    -0.002 C 
ATOM      9  C   UNL A   1      31.316  23.725  23.170  1.00  0.00     0.019 C 
BRANCH   9  10
ATOM     10  C   UNL A   1      31.281  25.158  23.107  1.00  0.00     0.019 A 
ATOM     11  C   UNL A   1      32.724  25.606  20.968  1.00  0.00     0.069 C 
ATOM     12  C   UNL A   1      31.816  25.981  22.081  1.00  0.00     0.067 A 
ATOM     13  N   UNL A   1      31.399  27.247  22.212  1.00  0.00    -0.177 NA
ATOM     14  N   UNL A   1      30.625  27.231  23.316  1.00  0.00    -0.265 N 
ATOM     15  C   UNL A   1      30.785  26.064  24.033  1.00  0.00     0.043 A 
ATOM     16  C   UNL A   1      30.457  25.911  25.476  1.00  0.00     0.067 C 
BRANCH  14  17
ATOM     17  C   UNL A   1      29.802  28.401  23.604  1.00  0.00     0.123 C 
ATOM     18  C   UNL A   1      30.624  29.619  24.099  1.00  0.00     0.044 C 
ATOM     19  C   UNL A   1      29.035  28.953  22.403  1.00  0.00     0.164 C 
ATOM     20  C   UNL A   1      29.678  30.811  24.185  1.00  0.00     0.139 C 
ATOM     21  S   UNL A   1      28.440  30.532  22.940  1.00  0.00     0.152 S 
ATOM     22  O   UNL A   1      27.171  30.330  23.592  1.00  0.00    -0.229 OA
ATOM     23  O   UNL A   1      28.617  31.487  21.858  1.00  0.00    -0.229 OA
ENDBRANCH  14  17
ENDBRANCH   9  10
BRANCH   8  24
ATOM     24  C   UNL A   1      32.048  21.540  23.827  1.00  0.00     0.121 A 
ATOM     25  N   UNL A   1      32.060  20.852  24.949  1.00  0.00    -0.236 NA
ATOM     26  S   UNL A   1      32.005  20.570  22.400  1.00  0.00    -0.114 S 
ATOM     27  C   UNL A   1      32.396  19.535  24.690  1.00  0.00     0.082 A 
ATOM     28  C   UNL A   1      32.434  19.189  23.339  1.00  0.00     0.055 A 
ATOM     29  C   UNL A   1      32.757  18.568  25.650  1.00  0.00     0.030 A 
ATOM     30  C   UNL A   1      32.818  17.908  22.909  1.00  0.00     0.021 A 
ATOM     31  C   UNL A   1      33.200  17.310  25.230  1.00  0.00     0.002 A 
ATOM     32  C   UNL A   1      33.231  16.987  23.877  1.00  0.00     0.002 A 
ENDBRANCH   8  24
ENDBRANCH   7   8
ENDBRANCH   4   7
ENDBRANCH   2   3
ENDBRANCH   1   2
BRANCH   1  33
ATOM     33  C   UNL A   1      38.299  23.630  27.159  1.00  0.00     0.118 C 
BRANCH  33  34
ATOM     34  N   UNL A   1      39.547  22.866  27.060  1.00  0.00    -0.352 N 
ATOM     35  C   UNL A   1      40.836  23.339  26.912  1.00  0.00     0.251 C 
ATOM     36  H   UNL A   1      39.454  21.887  27.103  1.00  0.00     0.163 HD
ATOM     37  O   UNL A   1      41.720  22.610  26.477  1.00  0.00    -0.269 OA
BRANCH  35  38
ATOM     38  C   UNL A   1      41.117  24.734  27.288  1.00  0.00     0.039 A 
ATOM     39  C   UNL A   1      40.611  25.813  26.555  1.00  0.00     0.014 A 
ATOM     40  C   UNL A   1      41.849  24.937  28.453  1.00  0.00     0.014 A 
ATOM     41  C   UNL A   1      40.773  27.103  27.060  1.00  0.00     0.010 A 
ATOM     42  C   UNL A   1      41.849  26.177  29.030  1.00  0.00     0.010 A 
ATOM     43  C   UNL A   1      41.380  27.275  28.312  1.00  0.00    -0.014 A 
BRANCH  43  44
ATOM     44  C   UNL A   1      41.462  28.581  28.961  1.00  0.00     0.031 A 
ATOM     45  C   UNL A   1      42.532  29.483  28.453  1.00  0.00     0.074 A 
ATOM     46  C   UNL A   1      40.445  29.046  29.723  1.00  0.00     0.049 A 
ATOM     47  N   UNL A   1      43.546  29.965  29.092  1.00  0.00    -0.248 NA
ATOM     48  C   UNL A   1      42.548  29.789  27.012  1.00  0.00     0.031 C 
ATOM     49  C   UNL A   1      39.166  28.383  30.012  1.00  0.00     0.029 A 
ATOM     50  N   UNL A   1      40.266  30.280  30.265  1.00  0.00    -0.354 N 
ATOM     51  C   UNL A   1      44.189  30.827  28.204  1.00  0.00     0.074 A 
ATOM     52  C   UNL A   1      43.674  30.497  26.904  1.00  0.00     0.031 C 
ATOM     53  C   UNL A   1      38.265  29.298  30.430  1.00  0.00     0.029 A 
ATOM     54  C   UNL A   1      38.950  30.562  30.622  1.00  0.00     0.049 A 
ATOM     55  H   UNL A   1      41.004  30.919  30.394  1.00  0.00     0.167 HD
ATOM     56  C   UNL A   1      44.901  31.905  28.648  1.00  0.00     0.034 A 
ATOM     57  C   UNL A   1      38.438  31.757  31.016  1.00  0.00     0.034 A 
ATOM     58  C   UNL A   1      45.168  31.788  30.068  1.00  0.00     0.049 A 
ATOM     59  C   UNL A   1      39.584  32.580  31.473  1.00  0.00     0.074 A 
ATOM     60  C   UNL A   1      45.803  30.849  30.859  1.00  0.00     0.029 A 
ATOM     61  N   UNL A   1      44.401  32.536  30.935  1.00  0.00    -0.354 N 
ATOM     62  N   UNL A   1      40.322  32.266  32.503  1.00  0.00    -0.248 NA
ATOM     63  C   UNL A   1      40.219  33.467  30.510  1.00  0.00     0.031 C 
ATOM     64  C   UNL A   1      44.990  30.749  32.028  1.00  0.00     0.029 A 
ATOM     65  C   UNL A   1      43.965  31.693  31.928  1.00  0.00     0.049 A 
ATOM     66  H   UNL A   1      44.202  33.496  30.858  1.00  0.00     0.167 HD
ATOM     67  C   UNL A   1      41.624  32.532  32.106  1.00  0.00     0.074 A 
ATOM     68  C   UNL A   1      41.488  33.379  30.921  1.00  0.00     0.031 C 
ATOM     69  C   UNL A   1      42.677  31.807  32.592  1.00  0.00     0.034 A 
BRANCH  56  70
ATOM     70  C   UNL A   1      45.045  33.231  27.919  1.00  0.00     0.023 A 
ATOM     71  C   UNL A   1      44.139  34.255  28.266  1.00  0.00     0.031 A 
ATOM     72  C   UNL A   1      45.800  33.469  26.748  1.00  0.00     0.131 A 
ATOM     73  C   UNL A   1      43.923  35.357  27.420  1.00  0.00     0.055 A 
ATOM     74  C   UNL A   1      45.631  34.602  25.944  1.00  0.00     0.041 A 
ATOM     75  F   UNL A   1      46.684  32.594  26.258  1.00  0.00    -0.206 F 
ATOM     76  C   UNL A   1      44.662  35.536  26.257  1.00  0.00     0.022 A 
BRANCH  73  77
ATOM     77  S   UNL A   1      42.521  36.449  27.772  1.00  0.00     0.124 S 
ATOM     78  O   UNL A   1      42.937  37.066  29.027  1.00  0.00    -0.237 OA
ATOM     79  O   UNL A   1      42.513  37.314  26.598  1.00  0.00    -0.237 OA
ATOM     80  O   UNL A   1      41.393  35.526  27.876  1.00  0.00    -0.744 OA
ENDBRANCH  73  77
ENDBRANCH  56  70
BRANCH  57  81
ATOM     81  C   UNL A   1      37.082  32.293  30.717  1.00  0.00     0.023 A 
ATOM     82  C   UNL A   1      36.215  32.797  31.708  1.00  0.00     0.031 A 
ATOM     83  C   UNL A   1      36.706  32.515  29.372  1.00  0.00     0.131 A 
ATOM     84  C   UNL A   1      35.032  33.483  31.336  1.00  0.00     0.055 A 
ATOM     85  C   UNL A   1      35.536  33.187  29.011  1.00  0.00     0.041 A 
ATOM     86  F   UNL A   1      37.511  32.155  28.360  1.00  0.00    -0.206 F 
ATOM     87  C   UNL A   1      34.696  33.682  29.994  1.00  0.00     0.022 A 
BRANCH  84  88
ATOM     88  S   UNL A   1      33.948  34.210  32.609  1.00  0.00     0.124 S 
ATOM     89  O   UNL A   1      33.069  35.065  31.819  1.00  0.00    -0.237 OA
ATOM     90  O   UNL A   1      33.337  33.030  33.210  1.00  0.00    -0.237 OA
ATOM     91  O   UNL A   1      34.878  34.928  33.482  1.00  0.00    -0.744 OA
ENDBRANCH  84  88
ENDBRANCH  57  81
BRANCH  69  92
ATOM     92  C   UNL A   1      42.435  30.887  33.777  1.00  0.00     0.023 A 
ATOM     93  C   UNL A   1      42.311  29.479  33.698  1.00  0.00     0.031 A 
ATOM     94  C   UNL A   1      42.464  31.464  35.059  1.00  0.00     0.131 A 
ATOM     95  C   UNL A   1      42.214  28.709  34.875  1.00  0.00     0.055 A 
ATOM     96  C   UNL A   1      42.388  30.697  36.221  1.00  0.00     0.041 A 
ATOM     97  F   UNL A   1      42.611  32.791  35.205  1.00  0.00    -0.206 F 
ATOM     98  C   UNL A   1      42.257  29.317  36.134  1.00  0.00     0.022 A 
BRANCH  95  99
ATOM     99  S   UNL A   1      42.015  26.898  34.794  1.00  0.00     0.124 S 
ATOM    100  O   UNL A   1      40.623  26.722  34.398  1.00  0.00    -0.237 OA
ATOM    101  O   UNL A   1      43.016  26.513  33.803  1.00  0.00    -0.237 OA
ATOM    102  O   UNL A   1      42.317  26.463  36.160  1.00  0.00    -0.744 OA
ENDBRANCH  95  99
ENDBRANCH  69  92
ENDBRANCH  43  44
ENDBRANCH  35  38
ENDBRANCH  33  34
ENDBRANCH   1  33
TORSDOF 17
ENDMDL
