MODEL 1
REMARK VINA RESULT:     -13.1      0.000      0.000
REMARK SMILES Cc1cc(C)c2c(c1)C=C(C(=O)NCCCNC(=O)c1ccc(-c3c4nc(c(-c5cc(S(=O)(=O)[O-])ccc5F)c5ccc([nH]5)c(-c5cc(S(=O)(=O)[O-])ccc5F)c5nc(c(-c6cc(S(=O)(=O)[O-])ccc6F)c6ccc3[nH]6)C=C5)C=C4)cc1)[C@@H](C(F)(F)F)O2
REMARK SMILES IDX 16 1 15 2 14 3 13 4 11 5 12 6 10 8 1 9 2 10 3 11 8 12 4 13
REMARK SMILES IDX 7 14 5 15 6 16 9 17 88 18 83 19 84 20 85 21 86 22 87 23
REMARK SMILES IDX 17 24 18 25 19 27 20 28 21 29 82 30 22 31 81 32 23 33 24 34
REMARK SMILES IDX 25 35 75 36 26 37 80 38 74 39 76 40 27 41 79 42 73 43 72 44
REMARK SMILES IDX 28 46 60 47 40 48 59 49 41 50 44 51 58 52 77 53 42 54 43 55
REMARK SMILES IDX 57 57 78 58 45 59 29 60 30 61 38 62 31 63 37 64 39 65 36 66
REMARK SMILES IDX 32 67 33 68 34 69 35 70 61 71 62 72 70 73 63 74 69 75 71 76
REMARK SMILES IDX 68 77 64 78 65 79 66 80 67 81 46 82 47 83 55 84 48 85 54 86
REMARK SMILES IDX 56 87 53 88 49 89 50 90 51 91 52 92
REMARK H PARENT 13 7 17 26 76 45 44 56
REMARK Flexibility Score: inf
ROOT
ATOM      1  C   UNL A   1      33.256  28.830  24.937  1.00  0.00     0.118 C 
ENDROOT
BRANCH   1   2
ATOM      2  C   UNL A   1      33.241  28.749  23.417  1.00  0.00     0.042 C 
BRANCH   2   3
ATOM      3  C   UNL A   1      32.060  27.944  22.899  1.00  0.00     0.118 C 
BRANCH   3   4
ATOM      4  N   UNL A   1      32.446  27.027  21.836  1.00  0.00    -0.352 N 
ATOM      5  C   UNL A   1      32.919  25.763  21.740  1.00  0.00     0.251 C 
ATOM      6  O   UNL A   1      33.100  25.351  20.589  1.00  0.00    -0.270 OA
ATOM      7  H   UNL A   1      32.334  27.437  20.948  1.00  0.00     0.163 HD
BRANCH   5   8
ATOM      8  C   UNL A   1      33.219  24.872  22.898  1.00  0.00     0.067 C 
ATOM      9  C   UNL A   1      37.461  20.851  24.912  1.00  0.00     0.044 C 
ATOM     10  C   UNL A   1      36.223  21.696  24.977  1.00  0.00    -0.050 A 
ATOM     11  C   UNL A   1      35.427  21.707  26.130  1.00  0.00     0.010 A 
ATOM     12  C   UNL A   1      35.881  22.521  23.896  1.00  0.00     0.015 A 
ATOM     13  C   UNL A   1      34.294  22.524  26.211  1.00  0.00    -0.008 A 
ATOM     14  C   UNL A   1      34.752  23.342  23.962  1.00  0.00     0.018 A 
ATOM     15  C   UNL A   1      33.441  22.537  27.447  1.00  0.00     0.048 C 
ATOM     16  C   UNL A   1      33.969  23.335  25.118  1.00  0.00     0.130 A 
ATOM     17  C   UNL A   1      34.404  24.237  22.865  1.00  0.00     0.025 C 
ATOM     18  O   UNL A   1      32.884  24.154  25.262  1.00  0.00    -0.475 OA
ATOM     19  C   UNL A   1      32.275  24.643  24.043  1.00  0.00     0.314 C 
BRANCH  19  20
ATOM     20  C   UNL A   1      31.096  23.725  23.665  1.00  0.00     0.429 C 
ATOM     21  F   UNL A   1      30.631  23.075  24.760  1.00  0.00    -0.167 F 
ATOM     22  F   UNL A   1      30.045  24.406  23.150  1.00  0.00    -0.167 F 
ATOM     23  F   UNL A   1      31.434  22.788  22.752  1.00  0.00    -0.167 F 
ENDBRANCH  19  20
ENDBRANCH   5   8
ENDBRANCH   3   4
ENDBRANCH   2   3
ENDBRANCH   1   2
BRANCH   1  24
ATOM     24  N   UNL A   1      32.691  30.091  25.414  1.00  0.00    -0.352 N 
ATOM     25  C   UNL A   1      32.972  30.810  26.548  1.00  0.00     0.251 C 
ATOM     26  H   UNL A   1      32.002  30.484  24.832  1.00  0.00     0.163 HD
ATOM     27  O   UNL A   1      32.181  31.671  26.929  1.00  0.00    -0.269 OA
BRANCH  25  28
ATOM     28  C   UNL A   1      34.214  30.547  27.297  1.00  0.00     0.039 A 
ATOM     29  C   UNL A   1      35.061  31.607  27.626  1.00  0.00     0.014 A 
ATOM     30  C   UNL A   1      34.551  29.239  27.656  1.00  0.00     0.014 A 
ATOM     31  C   UNL A   1      36.212  31.359  28.374  1.00  0.00     0.010 A 
ATOM     32  C   UNL A   1      35.637  29.008  28.486  1.00  0.00     0.010 A 
ATOM     33  C   UNL A   1      36.489  30.063  28.840  1.00  0.00    -0.014 A 
BRANCH  33  34
ATOM     34  C   UNL A   1      37.688  29.772  29.659  1.00  0.00     0.031 A 
ATOM     35  C   UNL A   1      38.762  28.875  29.110  1.00  0.00     0.074 A 
ATOM     36  C   UNL A   1      37.782  30.273  30.906  1.00  0.00     0.049 A 
ATOM     37  N   UNL A   1      39.844  28.430  29.692  1.00  0.00    -0.248 NA
ATOM     38  C   UNL A   1      38.581  28.389  27.732  1.00  0.00     0.031 C 
ATOM     39  C   UNL A   1      36.789  31.137  31.548  1.00  0.00     0.029 A 
ATOM     40  N   UNL A   1      38.764  30.138  31.853  1.00  0.00    -0.354 N 
ATOM     41  C   UNL A   1      40.468  27.616  28.755  1.00  0.00     0.074 A 
ATOM     42  C   UNL A   1      39.604  27.562  27.597  1.00  0.00     0.031 C 
ATOM     43  C   UNL A   1      37.239  31.497  32.760  1.00  0.00     0.029 A 
ATOM     44  C   UNL A   1      38.525  30.851  33.003  1.00  0.00     0.049 A 
ATOM     45  H   UNL A   1      39.567  29.582  31.720  1.00  0.00     0.167 HD
ATOM     46  C   UNL A   1      41.672  27.000  28.837  1.00  0.00     0.034 A 
ATOM     47  C   UNL A   1      39.260  30.970  34.125  1.00  0.00     0.034 A 
ATOM     48  C   UNL A   1      42.531  27.079  29.989  1.00  0.00     0.049 A 
ATOM     49  C   UNL A   1      40.568  30.230  34.217  1.00  0.00     0.074 A 
ATOM     50  C   UNL A   1      43.779  26.513  30.173  1.00  0.00     0.029 A 
ATOM     51  N   UNL A   1      42.230  27.774  31.154  1.00  0.00    -0.354 N 
ATOM     52  N   UNL A   1      41.143  29.460  33.323  1.00  0.00    -0.248 NA
ATOM     53  C   UNL A   1      41.322  30.370  35.469  1.00  0.00     0.031 C 
ATOM     54  C   UNL A   1      44.209  26.818  31.467  1.00  0.00     0.029 A 
ATOM     55  C   UNL A   1      43.259  27.630  32.069  1.00  0.00     0.049 A 
ATOM     56  H   UNL A   1      41.407  28.291  31.306  1.00  0.00     0.167 HD
ATOM     57  C   UNL A   1      42.339  29.041  33.896  1.00  0.00     0.074 A 
ATOM     58  C   UNL A   1      42.405  29.648  35.211  1.00  0.00     0.031 C 
ATOM     59  C   UNL A   1      43.298  28.231  33.380  1.00  0.00     0.034 A 
BRANCH  46  60
ATOM     60  C   UNL A   1      42.121  26.195  27.646  1.00  0.00     0.023 A 
ATOM     61  C   UNL A   1      41.784  24.836  27.516  1.00  0.00     0.031 A 
ATOM     62  C   UNL A   1      42.900  26.781  26.635  1.00  0.00     0.131 A 
ATOM     63  C   UNL A   1      42.272  24.093  26.431  1.00  0.00     0.055 A 
ATOM     64  C   UNL A   1      43.323  26.055  25.519  1.00  0.00     0.041 A 
ATOM     65  F   UNL A   1      43.270  28.069  26.718  1.00  0.00    -0.206 F 
ATOM     66  C   UNL A   1      43.018  24.700  25.418  1.00  0.00     0.022 A 
BRANCH  63  67
ATOM     67  S   UNL A   1      42.004  22.300  26.419  1.00  0.00     0.124 S 
ATOM     68  O   UNL A   1      42.877  21.881  25.325  1.00  0.00    -0.237 OA
ATOM     69  O   UNL A   1      42.425  21.907  27.758  1.00  0.00    -0.237 OA
ATOM     70  O   UNL A   1      40.573  22.171  26.151  1.00  0.00    -0.744 OA
ENDBRANCH  63  67
ENDBRANCH  46  60
BRANCH  47  71
ATOM     71  C   UNL A   1      38.787  31.840  35.236  1.00  0.00     0.023 A 
ATOM     72  C   UNL A   1      38.218  31.278  36.389  1.00  0.00     0.031 A 
ATOM     73  C   UNL A   1      38.912  33.239  35.172  1.00  0.00     0.131 A 
ATOM     74  C   UNL A   1      37.777  32.112  37.428  1.00  0.00     0.055 A 
ATOM     75  C   UNL A   1      38.506  34.062  36.223  1.00  0.00     0.041 A 
ATOM     76  F   UNL A   1      39.462  33.822  34.095  1.00  0.00    -0.206 F 
ATOM     77  C   UNL A   1      37.929  33.499  37.358  1.00  0.00     0.022 A 
BRANCH  74  78
ATOM     78  S   UNL A   1      36.980  31.357  38.871  1.00  0.00     0.124 S 
ATOM     79  O   UNL A   1      37.977  31.581  39.912  1.00  0.00    -0.237 OA
ATOM     80  O   UNL A   1      35.749  32.133  38.981  1.00  0.00    -0.237 OA
ATOM     81  O   UNL A   1      36.799  29.963  38.468  1.00  0.00    -0.744 OA
ENDBRANCH  74  78
ENDBRANCH  47  71
BRANCH  59  82
ATOM     82  C   UNL A   1      44.512  27.969  34.230  1.00  0.00     0.023 A 
ATOM     83  C   UNL A   1      44.550  26.899  35.138  1.00  0.00     0.031 A 
ATOM     84  C   UNL A   1      45.662  28.764  34.086  1.00  0.00     0.131 A 
ATOM     85  C   UNL A   1      45.709  26.668  35.892  1.00  0.00     0.055 A 
ATOM     86  C   UNL A   1      46.829  28.500  34.803  1.00  0.00     0.041 A 
ATOM     87  F   UNL A   1      45.675  29.796  33.226  1.00  0.00    -0.206 F 
ATOM     88  C   UNL A   1      46.854  27.450  35.716  1.00  0.00     0.022 A 
BRANCH  85  89
ATOM     89  S   UNL A   1      45.689  25.349  37.136  1.00  0.00     0.124 S 
ATOM     90  O   UNL A   1      47.106  25.017  37.245  1.00  0.00    -0.237 OA
ATOM     91  O   UNL A   1      45.099  26.015  38.292  1.00  0.00    -0.237 OA
ATOM     92  O   UNL A   1      44.855  24.316  36.525  1.00  0.00    -0.744 OA
ENDBRANCH  85  89
ENDBRANCH  59  82
ENDBRANCH  33  34
ENDBRANCH  25  28
ENDBRANCH   1  24
TORSDOF 14
ENDMDL
MODEL 2
REMARK VINA RESULT:     -12.9      5.131     10.097
REMARK SMILES Cc1cc(C)c2c(c1)C=C(C(=O)NCCCNC(=O)c1ccc(-c3c4nc(c(-c5cc(S(=O)(=O)[O-])ccc5F)c5ccc([nH]5)c(-c5cc(S(=O)(=O)[O-])ccc5F)c5nc(c(-c6cc(S(=O)(=O)[O-])ccc6F)c6ccc3[nH]6)C=C5)C=C4)cc1)[C@@H](C(F)(F)F)O2
REMARK SMILES IDX 16 1 15 2 14 3 13 4 11 5 12 6 10 8 1 9 2 10 3 11 8 12 4 13
REMARK SMILES IDX 7 14 5 15 6 16 9 17 88 18 83 19 84 20 85 21 86 22 87 23
REMARK SMILES IDX 17 24 18 25 19 27 20 28 21 29 82 30 22 31 81 32 23 33 24 34
REMARK SMILES IDX 25 35 75 36 26 37 80 38 74 39 76 40 27 41 79 42 73 43 72 44
REMARK SMILES IDX 28 46 60 47 40 48 59 49 41 50 44 51 58 52 77 53 42 54 43 55
REMARK SMILES IDX 57 57 78 58 45 59 29 60 30 61 38 62 31 63 37 64 39 65 36 66
REMARK SMILES IDX 32 67 33 68 34 69 35 70 61 71 62 72 70 73 63 74 69 75 71 76
REMARK SMILES IDX 68 77 64 78 65 79 66 80 67 81 46 82 47 83 55 84 48 85 54 86
REMARK SMILES IDX 56 87 53 88 49 89 50 90 51 91 52 92
REMARK H PARENT 13 7 17 26 76 45 44 56
REMARK Flexibility Score: inf
ROOT
ATOM      1  C   UNL A   1      35.690  22.397  25.790  1.00  0.00     0.118 C 
ENDROOT
BRANCH   1   2
ATOM      2  C   UNL A   1      34.536  22.127  26.745  1.00  0.00     0.042 C 
BRANCH   2   3
ATOM      3  C   UNL A   1      33.288  21.659  26.012  1.00  0.00     0.118 C 
BRANCH   3   4
ATOM      4  N   UNL A   1      32.070  22.176  26.620  1.00  0.00    -0.352 N 
ATOM      5  C   UNL A   1      31.386  23.344  26.631  1.00  0.00     0.251 C 
ATOM      6  O   UNL A   1      30.343  23.340  27.293  1.00  0.00    -0.270 OA
ATOM      7  H   UNL A   1      31.625  21.494  27.172  1.00  0.00     0.163 HD
BRANCH   5   8
ATOM      8  C   UNL A   1      31.801  24.584  25.913  1.00  0.00     0.067 C 
ATOM      9  C   UNL A   1      31.941  30.727  26.598  1.00  0.00     0.044 C 
ATOM     10  C   UNL A   1      32.197  29.408  25.928  1.00  0.00    -0.050 A 
ATOM     11  C   UNL A   1      32.883  29.350  24.708  1.00  0.00     0.010 A 
ATOM     12  C   UNL A   1      31.792  28.218  26.548  1.00  0.00     0.015 A 
ATOM     13  C   UNL A   1      33.160  28.120  24.099  1.00  0.00    -0.008 A 
ATOM     14  C   UNL A   1      32.060  26.983  25.953  1.00  0.00     0.018 A 
ATOM     15  C   UNL A   1      33.896  28.057  22.792  1.00  0.00     0.048 C 
ATOM     16  C   UNL A   1      32.740  26.945  24.734  1.00  0.00     0.130 A 
ATOM     17  C   UNL A   1      31.683  25.733  26.602  1.00  0.00     0.025 C 
ATOM     18  O   UNL A   1      33.078  25.767  24.129  1.00  0.00    -0.475 OA
ATOM     19  C   UNL A   1      32.298  24.603  24.497  1.00  0.00     0.314 C 
BRANCH  19  20
ATOM     20  C   UNL A   1      31.169  24.407  23.468  1.00  0.00     0.429 C 
ATOM     21  F   UNL A   1      31.029  23.093  23.160  1.00  0.00    -0.167 F 
ATOM     22  F   UNL A   1      29.964  24.821  23.926  1.00  0.00    -0.167 F 
ATOM     23  F   UNL A   1      31.392  25.070  22.312  1.00  0.00    -0.167 F 
ENDBRANCH  19  20
ENDBRANCH   5   8
ENDBRANCH   3   4
ENDBRANCH   2   3
ENDBRANCH   1   2
BRANCH   1  24
ATOM     24  N   UNL A   1      36.615  21.267  25.731  1.00  0.00    -0.352 N 
ATOM     25  C   UNL A   1      37.986  21.248  25.721  1.00  0.00     0.251 C 
ATOM     26  H   UNL A   1      36.187  20.382  25.690  1.00  0.00     0.163 HD
ATOM     27  O   UNL A   1      38.574  20.233  25.354  1.00  0.00    -0.269 OA
BRANCH  25  28
ATOM     28  C   UNL A   1      38.741  22.441  26.149  1.00  0.00     0.039 A 
ATOM     29  C   UNL A   1      39.928  22.285  26.868  1.00  0.00     0.014 A 
ATOM     30  C   UNL A   1      38.257  23.717  25.855  1.00  0.00     0.014 A 
ATOM     31  C   UNL A   1      40.662  23.415  27.232  1.00  0.00     0.010 A 
ATOM     32  C   UNL A   1      39.038  24.831  26.124  1.00  0.00     0.010 A 
ATOM     33  C   UNL A   1      40.240  24.694  26.830  1.00  0.00    -0.014 A 
BRANCH  33  34
ATOM     34  C   UNL A   1      41.012  25.910  27.177  1.00  0.00     0.031 A 
ATOM     35  C   UNL A   1      40.391  26.954  28.063  1.00  0.00     0.074 A 
ATOM     36  C   UNL A   1      42.241  26.091  26.657  1.00  0.00     0.049 A 
ATOM     37  N   UNL A   1      40.861  28.122  28.416  1.00  0.00    -0.248 NA
ATOM     38  C   UNL A   1      39.052  26.660  28.598  1.00  0.00     0.031 C 
ATOM     39  C   UNL A   1      42.931  25.153  25.769  1.00  0.00     0.029 A 
ATOM     40  N   UNL A   1      43.133  27.122  26.807  1.00  0.00    -0.354 N 
ATOM     41  C   UNL A   1      39.878  28.698  29.211  1.00  0.00     0.074 A 
ATOM     42  C   UNL A   1      38.753  27.788  29.221  1.00  0.00     0.031 C 
ATOM     43  C   UNL A   1      44.158  25.626  25.499  1.00  0.00     0.029 A 
ATOM     44  C   UNL A   1      44.323  26.922  26.150  1.00  0.00     0.049 A 
ATOM     45  H   UNL A   1      42.938  27.928  27.338  1.00  0.00     0.167 HD
ATOM     46  C   UNL A   1      39.922  29.862  29.903  1.00  0.00     0.034 A 
ATOM     47  C   UNL A   1      45.423  27.696  26.082  1.00  0.00     0.034 A 
ATOM     48  C   UNL A   1      41.057  30.747  29.900  1.00  0.00     0.049 A 
ATOM     49  C   UNL A   1      45.429  29.013  26.812  1.00  0.00     0.074 A 
ATOM     50  C   UNL A   1      41.220  31.940  30.579  1.00  0.00     0.029 A 
ATOM     51  N   UNL A   1      42.227  30.531  29.182  1.00  0.00    -0.354 N 
ATOM     52  N   UNL A   1      44.489  29.546  27.557  1.00  0.00    -0.248 NA
ATOM     53  C   UNL A   1      46.640  29.834  26.688  1.00  0.00     0.031 C 
ATOM     54  C   UNL A   1      42.464  32.474  30.231  1.00  0.00     0.029 A 
ATOM     55  C   UNL A   1      43.106  31.582  29.385  1.00  0.00     0.049 A 
ATOM     56  H   UNL A   1      42.405  29.748  28.614  1.00  0.00     0.167 HD
ATOM     57  C   UNL A   1      45.004  30.756  28.009  1.00  0.00     0.074 A 
ATOM     58  C   UNL A   1      46.340  30.871  27.458  1.00  0.00     0.031 C 
ATOM     59  C   UNL A   1      44.426  31.685  28.813  1.00  0.00     0.034 A 
BRANCH  46  60
ATOM     60  C   UNL A   1      38.710  30.231  30.717  1.00  0.00     0.023 A 
ATOM     61  C   UNL A   1      37.663  30.988  30.162  1.00  0.00     0.031 A 
ATOM     62  C   UNL A   1      38.600  29.836  32.060  1.00  0.00     0.131 A 
ATOM     63  C   UNL A   1      36.578  31.375  30.962  1.00  0.00     0.055 A 
ATOM     64  C   UNL A   1      37.483  30.163  32.833  1.00  0.00     0.041 A 
ATOM     65  F   UNL A   1      39.580  29.132  32.648  1.00  0.00    -0.206 F 
ATOM     66  C   UNL A   1      36.469  30.946  32.287  1.00  0.00     0.022 A 
BRANCH  63  67
ATOM     67  S   UNL A   1      35.366  32.534  30.275  1.00  0.00     0.124 S 
ATOM     68  O   UNL A   1      34.418  32.657  31.380  1.00  0.00    -0.237 OA
ATOM     69  O   UNL A   1      36.177  33.713  29.994  1.00  0.00    -0.237 OA
ATOM     70  O   UNL A   1      34.854  31.834  29.098  1.00  0.00    -0.744 OA
ENDBRANCH  63  67
ENDBRANCH  46  60
BRANCH  47  71
ATOM     71  C   UNL A   1      46.612  27.234  25.314  1.00  0.00     0.023 A 
ATOM     72  C   UNL A   1      46.841  27.696  24.010  1.00  0.00     0.031 A 
ATOM     73  C   UNL A   1      47.543  26.344  25.877  1.00  0.00     0.131 A 
ATOM     74  C   UNL A   1      47.967  27.252  23.300  1.00  0.00     0.055 A 
ATOM     75  C   UNL A   1      48.680  25.933  25.181  1.00  0.00     0.041 A 
ATOM     76  F   UNL A   1      47.372  25.884  27.126  1.00  0.00    -0.206 F 
ATOM     77  C   UNL A   1      48.895  26.383  23.881  1.00  0.00     0.022 A 
BRANCH  74  78
ATOM     78  S   UNL A   1      48.195  27.811  21.590  1.00  0.00     0.124 S 
ATOM     79  O   UNL A   1      46.844  28.231  21.233  1.00  0.00    -0.237 OA
ATOM     80  O   UNL A   1      49.179  28.877  21.745  1.00  0.00    -0.237 OA
ATOM     81  O   UNL A   1      48.680  26.615  20.903  1.00  0.00    -0.744 OA
ENDBRANCH  74  78
ENDBRANCH  47  71
BRANCH  59  82
ATOM     82  C   UNL A   1      45.242  32.901  29.160  1.00  0.00     0.023 A 
ATOM     83  C   UNL A   1      45.184  34.066  28.380  1.00  0.00     0.031 A 
ATOM     84  C   UNL A   1      46.041  32.910  30.317  1.00  0.00     0.131 A 
ATOM     85  C   UNL A   1      45.936  35.190  28.752  1.00  0.00     0.055 A 
ATOM     86  C   UNL A   1      46.749  34.047  30.709  1.00  0.00     0.041 A 
ATOM     87  F   UNL A   1      46.125  31.820  31.097  1.00  0.00    -0.206 F 
ATOM     88  C   UNL A   1      46.702  35.193  29.921  1.00  0.00     0.022 A 
BRANCH  85  89
ATOM     89  S   UNL A   1      45.928  36.641  27.665  1.00  0.00     0.124 S 
ATOM     90  O   UNL A   1      44.499  36.912  27.536  1.00  0.00    -0.237 OA
ATOM     91  O   UNL A   1      46.695  37.615  28.433  1.00  0.00    -0.237 OA
ATOM     92  O   UNL A   1      46.581  36.160  26.448  1.00  0.00    -0.744 OA
ENDBRANCH  85  89
ENDBRANCH  59  82
ENDBRANCH  33  34
ENDBRANCH  25  28
ENDBRANCH   1  24
TORSDOF 14
ENDMDL
MODEL 3
REMARK VINA RESULT:     -12.7      2.525      3.428
REMARK SMILES Cc1cc(C)c2c(c1)C=C(C(=O)NCCCNC(=O)c1ccc(-c3c4nc(c(-c5cc(S(=O)(=O)[O-])ccc5F)c5ccc([nH]5)c(-c5cc(S(=O)(=O)[O-])ccc5F)c5nc(c(-c6cc(S(=O)(=O)[O-])ccc6F)c6ccc3[nH]6)C=C5)C=C4)cc1)[C@@H](C(F)(F)F)O2
REMARK SMILES IDX 16 1 15 2 14 3 13 4 11 5 12 6 10 8 1 9 2 10 3 11 8 12 4 13
REMARK SMILES IDX 7 14 5 15 6 16 9 17 88 18 83 19 84 20 85 21 86 22 87 23
REMARK SMILES IDX 17 24 18 25 19 27 20 28 21 29 82 30 22 31 81 32 23 33 24 34
REMARK SMILES IDX 25 35 75 36 26 37 80 38 74 39 76 40 27 41 79 42 73 43 72 44
REMARK SMILES IDX 28 46 60 47 40 48 59 49 41 50 44 51 58 52 77 53 42 54 43 55
REMARK SMILES IDX 57 57 78 58 45 59 29 60 30 61 38 62 31 63 37 64 39 65 36 66
REMARK SMILES IDX 32 67 33 68 34 69 35 70 61 71 62 72 70 73 63 74 69 75 71 76
REMARK SMILES IDX 68 77 64 78 65 79 66 80 67 81 46 82 47 83 55 84 48 85 54 86
REMARK SMILES IDX 56 87 53 88 49 89 50 90 51 91 52 92
REMARK H PARENT 13 7 17 26 76 45 44 56
REMARK Flexibility Score: inf
ROOT
ATOM      1  C   UNL A   1      32.701  32.539  27.252  1.00  0.00     0.118 C 
ENDROOT
BRANCH   1   2
ATOM      2  C   UNL A   1      31.441  31.983  26.604  1.00  0.00     0.042 C 
BRANCH   2   3
ATOM      3  C   UNL A   1      31.528  30.481  26.384  1.00  0.00     0.118 C 
BRANCH   3   4
ATOM      4  N   UNL A   1      32.277  30.146  25.181  1.00  0.00    -0.352 N 
ATOM      5  C   UNL A   1      32.658  29.021  24.532  1.00  0.00     0.251 C 
ATOM      6  O   UNL A   1      33.295  29.203  23.489  1.00  0.00    -0.270 OA
ATOM      7  H   UNL A   1      32.592  30.954  24.716  1.00  0.00     0.163 HD
BRANCH   5   8
ATOM      8  C   UNL A   1      32.361  27.631  24.983  1.00  0.00     0.067 C 
ATOM      9  C   UNL A   1      35.188  22.319  26.403  1.00  0.00     0.044 C 
ATOM     10  C   UNL A   1      34.037  23.269  26.246  1.00  0.00    -0.050 A 
ATOM     11  C   UNL A   1      32.738  22.878  26.599  1.00  0.00     0.010 A 
ATOM     12  C   UNL A   1      34.264  24.575  25.790  1.00  0.00     0.015 A 
ATOM     13  C   UNL A   1      31.667  23.774  26.493  1.00  0.00    -0.008 A 
ATOM     14  C   UNL A   1      33.205  25.480  25.678  1.00  0.00     0.018 A 
ATOM     15  C   UNL A   1      30.275  23.356  26.872  1.00  0.00     0.048 C 
ATOM     16  C   UNL A   1      31.917  25.071  26.029  1.00  0.00     0.130 A 
ATOM     17  C   UNL A   1      33.427  26.854  25.244  1.00  0.00     0.025 C 
ATOM     18  O   UNL A   1      30.850  25.925  25.992  1.00  0.00    -0.475 OA
ATOM     19  C   UNL A   1      30.973  27.077  25.123  1.00  0.00     0.314 C 
BRANCH  19  20
ATOM     20  C   UNL A   1      30.321  26.756  23.765  1.00  0.00     0.429 C 
ATOM     21  F   UNL A   1      29.728  27.862  23.250  1.00  0.00    -0.167 F 
ATOM     22  F   UNL A   1      31.216  26.337  22.839  1.00  0.00    -0.167 F 
ATOM     23  F   UNL A   1      29.375  25.794  23.852  1.00  0.00    -0.167 F 
ENDBRANCH  19  20
ENDBRANCH   5   8
ENDBRANCH   3   4
ENDBRANCH   2   3
ENDBRANCH   1   2
BRANCH   1  24
ATOM     24  N   UNL A   1      32.560  33.957  27.574  1.00  0.00    -0.352 N 
ATOM     25  C   UNL A   1      33.086  34.683  28.611  1.00  0.00     0.251 C 
ATOM     26  H   UNL A   1      31.999  34.471  26.949  1.00  0.00     0.163 HD
ATOM     27  O   UNL A   1      32.605  35.781  28.886  1.00  0.00    -0.269 OA
BRANCH  25  28
ATOM     28  C   UNL A   1      34.219  34.144  29.386  1.00  0.00     0.039 A 
ATOM     29  C   UNL A   1      33.973  33.353  30.509  1.00  0.00     0.014 A 
ATOM     30  C   UNL A   1      35.530  34.445  29.009  1.00  0.00     0.014 A 
ATOM     31  C   UNL A   1      35.048  32.808  31.213  1.00  0.00     0.010 A 
ATOM     32  C   UNL A   1      36.592  33.820  29.644  1.00  0.00     0.010 A 
ATOM     33  C   UNL A   1      36.364  33.008  30.763  1.00  0.00    -0.014 A 
BRANCH  33  34
ATOM     34  C   UNL A   1      37.524  32.421  31.471  1.00  0.00     0.031 A 
ATOM     35  C   UNL A   1      38.270  31.273  30.849  1.00  0.00     0.074 A 
ATOM     36  C   UNL A   1      37.871  32.887  32.686  1.00  0.00     0.049 A 
ATOM     37  N   UNL A   1      39.255  30.565  31.338  1.00  0.00    -0.248 NA
ATOM     38  C   UNL A   1      37.830  30.843  29.511  1.00  0.00     0.031 C 
ATOM     39  C   UNL A   1      37.205  33.982  33.394  1.00  0.00     0.029 A 
ATOM     40  N   UNL A   1      38.876  32.507  33.538  1.00  0.00    -0.354 N 
ATOM     41  C   UNL A   1      39.549  29.613  30.371  1.00  0.00     0.074 A 
ATOM     42  C   UNL A   1      38.587  29.779  29.304  1.00  0.00     0.031 C 
ATOM     43  C   UNL A   1      37.853  34.220  34.545  1.00  0.00     0.029 A 
ATOM     44  C   UNL A   1      38.947  33.264  34.683  1.00  0.00     0.049 A 
ATOM     45  H   UNL A   1      39.491  31.761  33.345  1.00  0.00     0.167 HD
ATOM     46  C   UNL A   1      40.556  28.706  30.355  1.00  0.00     0.034 A 
ATOM     47  C   UNL A   1      39.798  33.194  35.724  1.00  0.00     0.034 A 
ATOM     48  C   UNL A   1      41.518  28.566  31.415  1.00  0.00     0.049 A 
ATOM     49  C   UNL A   1      40.873  32.141  35.712  1.00  0.00     0.074 A 
ATOM     50  C   UNL A   1      42.591  27.697  31.495  1.00  0.00     0.029 A 
ATOM     51  N   UNL A   1      41.527  29.321  32.581  1.00  0.00    -0.354 N 
ATOM     52  N   UNL A   1      41.137  31.243  34.791  1.00  0.00    -0.248 NA
ATOM     53  C   UNL A   1      41.762  32.087  36.879  1.00  0.00     0.031 C 
ATOM     54  C   UNL A   1      43.215  27.887  32.732  1.00  0.00     0.029 A 
ATOM     55  C   UNL A   1      42.572  28.920  33.396  1.00  0.00     0.049 A 
ATOM     56  H   UNL A   1      40.885  30.035  32.796  1.00  0.00     0.167 HD
ATOM     57  C   UNL A   1      42.236  30.531  35.259  1.00  0.00     0.074 A 
ATOM     58  C   UNL A   1      42.590  31.108  36.541  1.00  0.00     0.031 C 
ATOM     59  C   UNL A   1      42.897  29.498  34.678  1.00  0.00     0.034 A 
BRANCH  46  60
ATOM     60  C   UNL A   1      40.659  27.805  29.152  1.00  0.00     0.023 A 
ATOM     61  C   UNL A   1      41.576  28.070  28.120  1.00  0.00     0.031 A 
ATOM     62  C   UNL A   1      39.829  26.678  29.026  1.00  0.00     0.131 A 
ATOM     63  C   UNL A   1      41.604  27.253  26.981  1.00  0.00     0.055 A 
ATOM     64  C   UNL A   1      39.911  25.827  27.922  1.00  0.00     0.041 A 
ATOM     65  F   UNL A   1      38.920  26.391  29.970  1.00  0.00    -0.206 F 
ATOM     66  C   UNL A   1      40.795  26.118  26.886  1.00  0.00     0.022 A 
BRANCH  63  67
ATOM     67  S   UNL A   1      42.638  27.756  25.579  1.00  0.00     0.124 S 
ATOM     68  O   UNL A   1      41.895  28.903  25.063  1.00  0.00    -0.237 OA
ATOM     69  O   UNL A   1      43.914  28.056  26.218  1.00  0.00    -0.237 OA
ATOM     70  O   UNL A   1      42.635  26.578  24.713  1.00  0.00    -0.744 OA
ENDBRANCH  63  67
ENDBRANCH  46  60
BRANCH  47  71
ATOM     71  C   UNL A   1      39.680  34.163  36.847  1.00  0.00     0.023 A 
ATOM     72  C   UNL A   1      39.151  33.761  38.083  1.00  0.00     0.031 A 
ATOM     73  C   UNL A   1      40.109  35.495  36.711  1.00  0.00     0.131 A 
ATOM     74  C   UNL A   1      39.048  34.687  39.132  1.00  0.00     0.055 A 
ATOM     75  C   UNL A   1      40.038  36.402  37.768  1.00  0.00     0.041 A 
ATOM     76  F   UNL A   1      40.634  35.923  35.552  1.00  0.00    -0.206 F 
ATOM     77  C   UNL A   1      39.499  36.001  38.988  1.00  0.00     0.022 A 
BRANCH  74  78
ATOM     78  S   UNL A   1      38.292  34.153  40.692  1.00  0.00     0.124 S 
ATOM     79  O   UNL A   1      39.461  33.748  41.465  1.00  0.00    -0.237 OA
ATOM     80  O   UNL A   1      37.617  35.368  41.136  1.00  0.00    -0.237 OA
ATOM     81  O   UNL A   1      37.404  33.065  40.284  1.00  0.00    -0.744 OA
ENDBRANCH  74  78
ENDBRANCH  47  71
BRANCH  59  82
ATOM     82  C   UNL A   1      44.082  28.934  35.414  1.00  0.00     0.023 A 
ATOM     83  C   UNL A   1      43.937  27.888  36.339  1.00  0.00     0.031 A 
ATOM     84  C   UNL A   1      45.376  29.412  35.143  1.00  0.00     0.131 A 
ATOM     85  C   UNL A   1      45.069  27.369  36.984  1.00  0.00     0.055 A 
ATOM     86  C   UNL A   1      46.503  28.859  35.752  1.00  0.00     0.041 A 
ATOM     87  F   UNL A   1      45.565  30.409  34.263  1.00  0.00    -0.206 F 
ATOM     88  C   UNL A   1      46.352  27.835  36.682  1.00  0.00     0.022 A 
BRANCH  85  89
ATOM     89  S   UNL A   1      44.839  26.096  38.254  1.00  0.00     0.124 S 
ATOM     90  O   UNL A   1      46.051  26.244  39.053  1.00  0.00    -0.237 OA
ATOM     91  O   UNL A   1      43.597  26.512  38.897  1.00  0.00    -0.237 OA
ATOM     92  O   UNL A   1      44.750  24.856  37.483  1.00  0.00    -0.744 OA
ENDBRANCH  85  89
ENDBRANCH  59  82
ENDBRANCH  33  34
ENDBRANCH  25  28
ENDBRANCH   1  24
TORSDOF 14
ENDMDL
