MODEL 1
REMARK VINA RESULT:     -11.8      0.000      0.000
REMARK SMILES O=C(CC1(NC(=O)c2ccccc2[N+](=O)[O-])CCC1)NCCCNC(=O)c1ccc(-c2c3nc(c(-c4cc(S(=O)(=O)[O-])ccc4F)c4ccc([nH]4)c(-c4cc(S(=O)(=O)[O-])ccc4F)c4nc(c(-c5cc(S(=O)(=O)[O-])ccc5F)c5ccc2[nH]5)C=C4)C=C3)cc1
REMARK SMILES IDX 21 1 20 2 1 3 2 4 3 6 4 7 17 8 19 9 18 10 5 11 6 12 7 14
REMARK SMILES IDX 8 15 9 16 13 17 10 18 12 19 11 20 14 21 15 22 16 23 22 24
REMARK SMILES IDX 23 25 24 26 25 27 26 29 27 30 28 31 89 32 29 33 88 34 30 35
REMARK SMILES IDX 31 36 32 37 82 38 33 39 87 40 81 41 83 42 34 43 86 44 80 45
REMARK SMILES IDX 79 46 35 48 67 49 47 50 66 51 48 52 51 53 65 54 84 55 49 56
REMARK SMILES IDX 50 57 64 59 85 60 52 61 36 62 37 63 45 64 38 65 44 66 46 67
REMARK SMILES IDX 43 68 39 69 40 70 41 71 42 72 68 73 69 74 77 75 70 76 76 77
REMARK SMILES IDX 78 78 75 79 71 80 72 81 73 82 74 83 53 84 54 85 62 86 55 87
REMARK SMILES IDX 61 88 63 89 60 90 56 91 57 92 58 93 59 94
REMARK H PARENT 20 5 5 13 24 28 83 47 51 58
REMARK Flexibility Score: inf
ROOT
ATOM      1  C   UNL A   1      31.477  30.876  26.578  1.00  0.00     0.117 C 
ENDROOT
BRANCH   1   2
ATOM      2  N   UNL A   1      31.682  30.359  25.232  1.00  0.00    -0.356 N 
ATOM      3  O   UNL A   1      33.475  29.038  25.743  1.00  0.00    -0.275 OA
ATOM      4  C   UNL A   1      32.657  29.444  24.918  1.00  0.00     0.222 C 
ATOM      5  H   UNL A   1      31.092  30.680  24.513  1.00  0.00     0.163 HD
BRANCH   4   6
ATOM      6  C   UNL A   1      32.751  28.984  23.470  1.00  0.00     0.128 C 
BRANCH   6   7
ATOM      7  C   UNL A   1      31.730  27.985  22.922  1.00  0.00     0.049 C 
ATOM      8  C   UNL A   1      30.780  27.309  23.964  1.00  0.00     0.029 C 
ATOM      9  C   UNL A   1      30.454  28.724  22.392  1.00  0.00     0.029 C 
ATOM     10  C   UNL A   1      29.588  27.641  23.050  1.00  0.00     0.005 C 
BRANCH   7  11
ATOM     11  N   UNL A   1      32.268  26.988  21.946  1.00  0.00    -0.346 N 
ATOM     12  C   UNL A   1      32.865  25.755  22.114  1.00  0.00     0.258 C 
ATOM     13  H   UNL A   1      32.179  27.263  21.005  1.00  0.00     0.164 HD
ATOM     14  O   UNL A   1      33.294  25.149  21.136  1.00  0.00    -0.269 OA
BRANCH  12  15
ATOM     15  C   UNL A   1      33.132  25.215  23.457  1.00  0.00     0.117 A 
ATOM     16  C   UNL A   1      34.145  25.841  24.198  1.00  0.00     0.021 A 
ATOM     17  C   UNL A   1      32.435  24.157  24.034  1.00  0.00     0.282 A 
ATOM     18  C   UNL A   1      34.383  25.487  25.525  1.00  0.00     0.001 A 
ATOM     19  C   UNL A   1      32.675  23.789  25.369  1.00  0.00     0.086 A 
ATOM     20  C   UNL A   1      33.638  24.471  26.116  1.00  0.00     0.007 A 
BRANCH  17  21
ATOM     21  N   UNL A   1      31.446  23.406  23.283  1.00  0.00     0.063 N 
ATOM     22  O   UNL A   1      31.803  22.308  22.830  1.00  0.00    -0.258 OA
ATOM     23  O   UNL A   1      30.321  23.896  23.141  1.00  0.00    -0.258 OA
ENDBRANCH  17  21
ENDBRANCH  12  15
ENDBRANCH   7  11
ENDBRANCH   6   7
ENDBRANCH   4   6
ENDBRANCH   1   2
BRANCH   1  24
ATOM     24  C   UNL A   1      31.511  32.403  26.677  1.00  0.00     0.042 C 
BRANCH  24  25
ATOM     25  C   UNL A   1      32.766  33.003  27.317  1.00  0.00     0.118 C 
BRANCH  25  26
ATOM     26  N   UNL A   1      32.549  34.328  27.867  1.00  0.00    -0.352 N 
ATOM     27  C   UNL A   1      33.171  34.958  28.917  1.00  0.00     0.251 C 
ATOM     28  H   UNL A   1      31.849  34.856  27.419  1.00  0.00     0.163 HD
ATOM     29  O   UNL A   1      32.744  36.049  29.289  1.00  0.00    -0.269 OA
BRANCH  27  30
ATOM     30  C   UNL A   1      34.315  34.333  29.624  1.00  0.00     0.039 A 
ATOM     31  C   UNL A   1      35.602  34.558  29.126  1.00  0.00     0.014 A 
ATOM     32  C   UNL A   1      34.133  33.489  30.723  1.00  0.00     0.014 A 
ATOM     33  C   UNL A   1      36.711  33.979  29.755  1.00  0.00     0.010 A 
ATOM     34  C   UNL A   1      35.247  32.942  31.373  1.00  0.00     0.010 A 
ATOM     35  C   UNL A   1      36.548  33.182  30.899  1.00  0.00    -0.014 A 
BRANCH  35  36
ATOM     36  C   UNL A   1      37.726  32.601  31.605  1.00  0.00     0.031 A 
ATOM     37  C   UNL A   1      38.499  31.463  30.992  1.00  0.00     0.074 A 
ATOM     38  C   UNL A   1      38.081  33.067  32.819  1.00  0.00     0.049 A 
ATOM     39  N   UNL A   1      39.493  30.770  31.490  1.00  0.00    -0.248 NA
ATOM     40  C   UNL A   1      38.086  31.040  29.646  1.00  0.00     0.031 C 
ATOM     41  C   UNL A   1      37.417  34.163  33.528  1.00  0.00     0.029 A 
ATOM     42  N   UNL A   1      39.077  32.672  33.681  1.00  0.00    -0.354 N 
ATOM     43  C   UNL A   1      39.819  29.821  30.527  1.00  0.00     0.074 A 
ATOM     44  C   UNL A   1      38.883  30.002  29.435  1.00  0.00     0.031 C 
ATOM     45  C   UNL A   1      38.029  34.356  34.709  1.00  0.00     0.029 A 
ATOM     46  C   UNL A   1      39.094  33.370  34.867  1.00  0.00     0.049 A 
ATOM     47  H   UNL A   1      39.719  31.958  33.468  1.00  0.00     0.167 HD
ATOM     48  C   UNL A   1      40.812  28.895  30.543  1.00  0.00     0.034 A 
ATOM     49  C   UNL A   1      39.859  33.220  35.968  1.00  0.00     0.034 A 
ATOM     50  C   UNL A   1      41.741  28.724  31.637  1.00  0.00     0.049 A 
ATOM     51  C   UNL A   1      40.918  32.146  35.988  1.00  0.00     0.074 A 
ATOM     52  C   UNL A   1      42.803  27.840  31.735  1.00  0.00     0.029 A 
ATOM     53  N   UNL A   1      41.713  29.438  32.829  1.00  0.00    -0.354 N 
ATOM     54  N   UNL A   1      41.231  31.275  35.057  1.00  0.00    -0.248 NA
ATOM     55  C   UNL A   1      41.735  32.041  37.205  1.00  0.00     0.031 C 
ATOM     56  C   UNL A   1      43.368  27.968  33.008  1.00  0.00     0.029 A 
ATOM     57  C   UNL A   1      42.717  28.992  33.677  1.00  0.00     0.049 A 
ATOM     58  H   UNL A   1      41.074  30.156  33.041  1.00  0.00     0.167 HD
ATOM     59  C   UNL A   1      42.304  30.546  35.563  1.00  0.00     0.074 A 
ATOM     60  C   UNL A   1      42.591  31.085  36.876  1.00  0.00     0.031 C 
ATOM     61  C   UNL A   1      42.996  29.528  34.990  1.00  0.00     0.034 A 
BRANCH  48  62
ATOM     62  C   UNL A   1      40.921  27.969  29.353  1.00  0.00     0.023 A 
ATOM     63  C   UNL A   1      41.907  28.145  28.366  1.00  0.00     0.031 A 
ATOM     64  C   UNL A   1      40.015  26.905  29.194  1.00  0.00     0.131 A 
ATOM     65  C   UNL A   1      41.916  27.322  27.230  1.00  0.00     0.055 A 
ATOM     66  C   UNL A   1      40.081  26.038  28.101  1.00  0.00     0.041 A 
ATOM     67  F   UNL A   1      39.040  26.696  30.093  1.00  0.00    -0.206 F 
ATOM     68  C   UNL A   1      41.026  26.253  27.103  1.00  0.00     0.022 A 
BRANCH  65  69
ATOM     69  S   UNL A   1      43.011  27.759  25.852  1.00  0.00     0.124 S 
ATOM     70  O   UNL A   1      43.187  29.194  26.058  1.00  0.00    -0.237 OA
ATOM     71  O   UNL A   1      44.184  26.929  26.105  1.00  0.00    -0.237 OA
ATOM     72  O   UNL A   1      42.235  27.398  24.667  1.00  0.00    -0.744 OA
ENDBRANCH  65  69
ENDBRANCH  48  62
BRANCH  49  73
ATOM     73  C   UNL A   1      39.641  34.087  37.163  1.00  0.00     0.023 A 
ATOM     74  C   UNL A   1      39.063  33.574  38.336  1.00  0.00     0.031 A 
ATOM     75  C   UNL A   1      39.956  35.457  37.130  1.00  0.00     0.131 A 
ATOM     76  C   UNL A   1      38.773  34.433  39.407  1.00  0.00     0.055 A 
ATOM     77  C   UNL A   1      39.720  36.297  38.220  1.00  0.00     0.041 A 
ATOM     78  F   UNL A   1      40.510  36.001  36.034  1.00  0.00    -0.206 F 
ATOM     79  C   UNL A   1      39.111  35.788  39.362  1.00  0.00     0.022 A 
BRANCH  76  80
ATOM     80  S   UNL A   1      37.860  33.773  40.829  1.00  0.00     0.124 S 
ATOM     81  O   UNL A   1      36.884  32.908  40.177  1.00  0.00    -0.237 OA
ATOM     82  O   UNL A   1      38.916  33.100  41.579  1.00  0.00    -0.237 OA
ATOM     83  O   UNL A   1      37.312  34.968  41.465  1.00  0.00    -0.744 OA
ENDBRANCH  76  80
ENDBRANCH  49  73
BRANCH  61  84
ATOM     84  C   UNL A   1      44.173  28.971  35.757  1.00  0.00     0.023 A 
ATOM     85  C   UNL A   1      44.060  27.834  36.577  1.00  0.00     0.031 A 
ATOM     86  C   UNL A   1      45.430  29.597  35.667  1.00  0.00     0.131 A 
ATOM     87  C   UNL A   1      45.170  27.391  37.316  1.00  0.00     0.055 A 
ATOM     88  C   UNL A   1      46.544  29.115  36.355  1.00  0.00     0.041 A 
ATOM     89  F   UNL A   1      45.597  30.688  34.902  1.00  0.00    -0.206 F 
ATOM     90  C   UNL A   1      46.415  28.013  37.196  1.00  0.00     0.022 A 
BRANCH  87  91
ATOM     91  S   UNL A   1      44.944  26.042  38.507  1.00  0.00     0.124 S 
ATOM     92  O   UNL A   1      44.666  26.770  39.742  1.00  0.00    -0.237 OA
ATOM     93  O   UNL A   1      43.822  25.305  37.936  1.00  0.00    -0.237 OA
ATOM     94  O   UNL A   1      46.226  25.340  38.478  1.00  0.00    -0.744 OA
ENDBRANCH  87  91
ENDBRANCH  61  84
ENDBRANCH  35  36
ENDBRANCH  27  30
ENDBRANCH  25  26
ENDBRANCH  24  25
ENDBRANCH   1  24
TORSDOF 17
ENDMDL
MODEL 2
REMARK VINA RESULT:     -11.7      1.491      7.644
REMARK SMILES O=C(CC1(NC(=O)c2ccccc2[N+](=O)[O-])CCC1)NCCCNC(=O)c1ccc(-c2c3nc(c(-c4cc(S(=O)(=O)[O-])ccc4F)c4ccc([nH]4)c(-c4cc(S(=O)(=O)[O-])ccc4F)c4nc(c(-c5cc(S(=O)(=O)[O-])ccc5F)c5ccc2[nH]5)C=C4)C=C3)cc1
REMARK SMILES IDX 21 1 20 2 1 3 2 4 3 6 4 7 17 8 19 9 18 10 5 11 6 12 7 14
REMARK SMILES IDX 8 15 9 16 13 17 10 18 12 19 11 20 14 21 15 22 16 23 22 24
REMARK SMILES IDX 23 25 24 26 25 27 26 29 27 30 28 31 89 32 29 33 88 34 30 35
REMARK SMILES IDX 31 36 32 37 82 38 33 39 87 40 81 41 83 42 34 43 86 44 80 45
REMARK SMILES IDX 79 46 35 48 67 49 47 50 66 51 48 52 51 53 65 54 84 55 49 56
REMARK SMILES IDX 50 57 64 59 85 60 52 61 36 62 37 63 45 64 38 65 44 66 46 67
REMARK SMILES IDX 43 68 39 69 40 70 41 71 42 72 68 73 69 74 77 75 70 76 76 77
REMARK SMILES IDX 78 78 75 79 71 80 72 81 73 82 74 83 53 84 54 85 62 86 55 87
REMARK SMILES IDX 61 88 63 89 60 90 56 91 57 92 58 93 59 94
REMARK H PARENT 20 5 5 13 24 28 83 47 51 58
REMARK Flexibility Score: inf
ROOT
ATOM      1  C   UNL A   1      31.828  30.829  26.732  1.00  0.00     0.117 C 
ENDROOT
BRANCH   1   2
ATOM      2  N   UNL A   1      31.971  30.372  25.357  1.00  0.00    -0.356 N 
ATOM      3  O   UNL A   1      33.447  28.687  25.807  1.00  0.00    -0.275 OA
ATOM      4  C   UNL A   1      32.755  29.304  24.997  1.00  0.00     0.222 C 
ATOM      5  H   UNL A   1      31.482  30.853  24.652  1.00  0.00     0.163 HD
BRANCH   4   6
ATOM      6  C   UNL A   1      32.804  28.932  23.522  1.00  0.00     0.128 C 
BRANCH   6   7
ATOM      7  C   UNL A   1      31.761  27.974  22.943  1.00  0.00     0.049 C 
ATOM      8  C   UNL A   1      30.788  27.297  23.963  1.00  0.00     0.029 C 
ATOM      9  C   UNL A   1      30.507  28.759  22.426  1.00  0.00     0.029 C 
ATOM     10  C   UNL A   1      29.610  27.682  23.052  1.00  0.00     0.005 C 
BRANCH   7  11
ATOM     11  N   UNL A   1      32.279  26.988  21.945  1.00  0.00    -0.346 N 
ATOM     12  C   UNL A   1      32.866  25.746  22.087  1.00  0.00     0.258 C 
ATOM     13  H   UNL A   1      32.182  27.279  21.010  1.00  0.00     0.164 HD
ATOM     14  O   UNL A   1      33.277  25.153  21.094  1.00  0.00    -0.269 OA
BRANCH  12  15
ATOM     15  C   UNL A   1      33.142  25.183  23.417  1.00  0.00     0.117 A 
ATOM     16  C   UNL A   1      34.175  25.779  24.153  1.00  0.00     0.021 A 
ATOM     17  C   UNL A   1      32.435  24.128  23.988  1.00  0.00     0.282 A 
ATOM     18  C   UNL A   1      34.426  25.402  25.472  1.00  0.00     0.001 A 
ATOM     19  C   UNL A   1      32.687  23.736  25.315  1.00  0.00     0.086 A 
ATOM     20  C   UNL A   1      33.672  24.390  26.057  1.00  0.00     0.007 A 
BRANCH  17  21
ATOM     21  N   UNL A   1      31.423  23.404  23.241  1.00  0.00     0.063 N 
ATOM     22  O   UNL A   1      31.784  22.362  22.674  1.00  0.00    -0.258 OA
ATOM     23  O   UNL A   1      30.276  23.861  23.212  1.00  0.00    -0.258 OA
ENDBRANCH  17  21
ENDBRANCH  12  15
ENDBRANCH   7  11
ENDBRANCH   6   7
ENDBRANCH   4   6
ENDBRANCH   1   2
BRANCH   1  24
ATOM     24  C   UNL A   1      31.663  32.344  26.878  1.00  0.00     0.042 C 
BRANCH  24  25
ATOM     25  C   UNL A   1      32.933  33.123  27.229  1.00  0.00     0.118 C 
BRANCH  25  26
ATOM     26  N   UNL A   1      32.670  34.340  27.975  1.00  0.00    -0.352 N 
ATOM     27  C   UNL A   1      33.261  34.818  29.118  1.00  0.00     0.251 C 
ATOM     28  H   UNL A   1      31.958  34.910  27.603  1.00  0.00     0.163 HD
ATOM     29  O   UNL A   1      32.797  35.826  29.647  1.00  0.00    -0.269 OA
BRANCH  27  30
ATOM     30  C   UNL A   1      34.416  34.125  29.737  1.00  0.00     0.039 A 
ATOM     31  C   UNL A   1      34.166  33.212  30.766  1.00  0.00     0.014 A 
ATOM     32  C   UNL A   1      35.733  34.404  29.362  1.00  0.00     0.014 A 
ATOM     33  C   UNL A   1      35.227  32.543  31.387  1.00  0.00     0.010 A 
ATOM     34  C   UNL A   1      36.791  33.705  29.958  1.00  0.00     0.010 A 
ATOM     35  C   UNL A   1      36.550  32.764  30.974  1.00  0.00    -0.014 A 
BRANCH  35  36
ATOM     36  C   UNL A   1      37.684  32.020  31.595  1.00  0.00     0.031 A 
ATOM     37  C   UNL A   1      38.193  32.402  32.961  1.00  0.00     0.074 A 
ATOM     38  C   UNL A   1      38.288  31.023  30.917  1.00  0.00     0.049 A 
ATOM     39  N   UNL A   1      39.220  31.934  33.625  1.00  0.00    -0.248 NA
ATOM     40  C   UNL A   1      37.457  33.464  33.660  1.00  0.00     0.031 C 
ATOM     41  C   UNL A   1      37.897  30.553  29.587  1.00  0.00     0.029 A 
ATOM     42  N   UNL A   1      39.364  30.234  31.242  1.00  0.00    -0.354 N 
ATOM     43  C   UNL A   1      39.263  32.650  34.817  1.00  0.00     0.074 A 
ATOM     44  C   UNL A   1      38.183  33.616  34.759  1.00  0.00     0.031 C 
ATOM     45  C   UNL A   1      38.716  29.554  29.216  1.00  0.00     0.029 A 
ATOM     46  C   UNL A   1      39.720  29.344  30.254  1.00  0.00     0.049 A 
ATOM     47  H   UNL A   1      39.837  30.298  32.104  1.00  0.00     0.167 HD
ATOM     48  C   UNL A   1      40.112  32.508  35.868  1.00  0.00     0.034 A 
ATOM     49  C   UNL A   1      40.750  28.476  30.177  1.00  0.00     0.034 A 
ATOM     50  C   UNL A   1      41.185  31.541  35.916  1.00  0.00     0.049 A 
ATOM     51  C   UNL A   1      41.717  28.376  31.331  1.00  0.00     0.074 A 
ATOM     52  C   UNL A   1      42.077  31.294  36.946  1.00  0.00     0.029 A 
ATOM     53  N   UNL A   1      41.524  30.672  34.887  1.00  0.00    -0.354 N 
ATOM     54  N   UNL A   1      41.726  29.042  32.463  1.00  0.00    -0.248 NA
ATOM     55  C   UNL A   1      42.807  27.400  31.202  1.00  0.00     0.031 C 
ATOM     56  C   UNL A   1      42.995  30.332  36.515  1.00  0.00     0.029 A 
ATOM     57  C   UNL A   1      42.629  29.912  35.247  1.00  0.00     0.049 A 
ATOM     58  H   UNL A   1      41.049  30.603  34.027  1.00  0.00     0.167 HD
ATOM     59  C   UNL A   1      42.800  28.537  33.192  1.00  0.00     0.074 A 
ATOM     60  C   UNL A   1      43.408  27.505  32.378  1.00  0.00     0.031 C 
ATOM     61  C   UNL A   1      43.237  28.888  34.429  1.00  0.00     0.034 A 
BRANCH  48  62
ATOM     62  C   UNL A   1      39.936  33.449  37.038  1.00  0.00     0.023 A 
ATOM     63  C   UNL A   1      40.720  34.608  37.179  1.00  0.00     0.031 A 
ATOM     64  C   UNL A   1      38.984  33.175  38.036  1.00  0.00     0.131 A 
ATOM     65  C   UNL A   1      40.591  35.406  38.326  1.00  0.00     0.055 A 
ATOM     66  C   UNL A   1      38.804  34.018  39.135  1.00  0.00     0.041 A 
ATOM     67  F   UNL A   1      38.218  32.075  37.967  1.00  0.00    -0.206 F 
ATOM     68  C   UNL A   1      39.620  35.133  39.293  1.00  0.00     0.022 A 
BRANCH  65  69
ATOM     69  S   UNL A   1      41.810  36.720  38.609  1.00  0.00     0.124 S 
ATOM     70  O   UNL A   1      42.202  37.058  37.243  1.00  0.00    -0.237 OA
ATOM     71  O   UNL A   1      41.028  37.727  39.317  1.00  0.00    -0.237 OA
ATOM     72  O   UNL A   1      42.846  36.062  39.402  1.00  0.00    -0.744 OA
ENDBRANCH  65  69
ENDBRANCH  48  62
BRANCH  49  73
ATOM     73  C   UNL A   1      40.947  27.645  28.954  1.00  0.00     0.023 A 
ATOM     74  C   UNL A   1      41.961  27.945  28.029  1.00  0.00     0.031 A 
ATOM     75  C   UNL A   1      40.088  26.570  28.662  1.00  0.00     0.131 A 
ATOM     76  C   UNL A   1      42.059  27.213  26.836  1.00  0.00     0.055 A 
ATOM     77  C   UNL A   1      40.227  25.807  27.501  1.00  0.00     0.041 A 
ATOM     78  F   UNL A   1      39.102  26.240  29.511  1.00  0.00    -0.206 F 
ATOM     79  C   UNL A   1      41.208  26.137  26.573  1.00  0.00     0.022 A 
BRANCH  76  80
ATOM     80  S   UNL A   1      43.259  27.747  25.584  1.00  0.00     0.124 S 
ATOM     81  O   UNL A   1      44.139  26.587  25.505  1.00  0.00    -0.237 OA
ATOM     82  O   UNL A   1      42.403  27.984  24.427  1.00  0.00    -0.237 OA
ATOM     83  O   UNL A   1      43.853  28.945  26.173  1.00  0.00    -0.744 OA
ENDBRANCH  76  80
ENDBRANCH  49  73
BRANCH  61  84
ATOM     84  C   UNL A   1      44.397  28.107  35.002  1.00  0.00     0.023 A 
ATOM     85  C   UNL A   1      44.211  26.925  35.740  1.00  0.00     0.031 A 
ATOM     86  C   UNL A   1      45.715  28.561  34.807  1.00  0.00     0.131 A 
ATOM     87  C   UNL A   1      45.318  26.268  36.301  1.00  0.00     0.055 A 
ATOM     88  C   UNL A   1      46.815  27.870  35.314  1.00  0.00     0.041 A 
ATOM     89  F   UNL A   1      45.954  29.686  34.114  1.00  0.00    -0.206 F 
ATOM     90  C   UNL A   1      46.619  26.723  36.078  1.00  0.00     0.022 A 
BRANCH  87  91
ATOM     91  S   UNL A   1      45.030  24.856  37.404  1.00  0.00     0.124 S 
ATOM     92  O   UNL A   1      43.790  25.240  38.073  1.00  0.00    -0.237 OA
ATOM     93  O   UNL A   1      44.929  23.742  36.468  1.00  0.00    -0.237 OA
ATOM     94  O   UNL A   1      46.216  24.841  38.260  1.00  0.00    -0.744 OA
ENDBRANCH  87  91
ENDBRANCH  61  84
ENDBRANCH  35  36
ENDBRANCH  27  30
ENDBRANCH  25  26
ENDBRANCH  24  25
ENDBRANCH   1  24
TORSDOF 17
ENDMDL
MODEL 3
REMARK VINA RESULT:     -11.7      1.609      7.749
REMARK SMILES O=C(CC1(NC(=O)c2ccccc2[N+](=O)[O-])CCC1)NCCCNC(=O)c1ccc(-c2c3nc(c(-c4cc(S(=O)(=O)[O-])ccc4F)c4ccc([nH]4)c(-c4cc(S(=O)(=O)[O-])ccc4F)c4nc(c(-c5cc(S(=O)(=O)[O-])ccc5F)c5ccc2[nH]5)C=C4)C=C3)cc1
REMARK SMILES IDX 21 1 20 2 1 3 2 4 3 6 4 7 17 8 19 9 18 10 5 11 6 12 7 14
REMARK SMILES IDX 8 15 9 16 13 17 10 18 12 19 11 20 14 21 15 22 16 23 22 24
REMARK SMILES IDX 23 25 24 26 25 27 26 29 27 30 28 31 89 32 29 33 88 34 30 35
REMARK SMILES IDX 31 36 32 37 82 38 33 39 87 40 81 41 83 42 34 43 86 44 80 45
REMARK SMILES IDX 79 46 35 48 67 49 47 50 66 51 48 52 51 53 65 54 84 55 49 56
REMARK SMILES IDX 50 57 64 59 85 60 52 61 36 62 37 63 45 64 38 65 44 66 46 67
REMARK SMILES IDX 43 68 39 69 40 70 41 71 42 72 68 73 69 74 77 75 70 76 76 77
REMARK SMILES IDX 78 78 75 79 71 80 72 81 73 82 74 83 53 84 54 85 62 86 55 87
REMARK SMILES IDX 61 88 63 89 60 90 56 91 57 92 58 93 59 94
REMARK H PARENT 20 5 5 13 24 28 83 47 51 58
REMARK Flexibility Score: inf
ROOT
ATOM      1  C   UNL A   1      31.697  30.679  26.707  1.00  0.00     0.117 C 
ENDROOT
BRANCH   1   2
ATOM      2  N   UNL A   1      31.806  30.238  25.323  1.00  0.00    -0.356 N 
ATOM      3  O   UNL A   1      33.575  28.829  25.649  1.00  0.00    -0.275 OA
ATOM      4  C   UNL A   1      32.727  29.312  24.898  1.00  0.00     0.222 C 
ATOM      5  H   UNL A   1      31.188  30.622  24.660  1.00  0.00     0.163 HD
BRANCH   4   6
ATOM      6  C   UNL A   1      32.721  28.939  23.423  1.00  0.00     0.128 C 
BRANCH   6   7
ATOM      7  C   UNL A   1      31.689  27.941  22.895  1.00  0.00     0.049 C 
ATOM      8  C   UNL A   1      30.751  27.275  23.954  1.00  0.00     0.029 C 
ATOM      9  C   UNL A   1      30.408  28.683  22.380  1.00  0.00     0.029 C 
ATOM     10  C   UNL A   1      29.547  27.608  23.056  1.00  0.00     0.005 C 
BRANCH   7  11
ATOM     11  N   UNL A   1      32.208  26.937  21.916  1.00  0.00    -0.346 N 
ATOM     12  C   UNL A   1      32.801  25.701  22.083  1.00  0.00     0.258 C 
ATOM     13  H   UNL A   1      32.107  27.208  20.976  1.00  0.00     0.164 HD
ATOM     14  O   UNL A   1      33.212  25.088  21.102  1.00  0.00    -0.269 OA
BRANCH  12  15
ATOM     15  C   UNL A   1      33.083  25.167  23.424  1.00  0.00     0.117 A 
ATOM     16  C   UNL A   1      34.110  25.790  24.148  1.00  0.00     0.021 A 
ATOM     17  C   UNL A   1      32.389  24.116  24.016  1.00  0.00     0.282 A 
ATOM     18  C   UNL A   1      34.365  25.442  25.473  1.00  0.00     0.001 A 
ATOM     19  C   UNL A   1      32.646  23.753  25.350  1.00  0.00     0.086 A 
ATOM     20  C   UNL A   1      33.623  24.433  26.079  1.00  0.00     0.007 A 
BRANCH  17  21
ATOM     21  N   UNL A   1      31.385  23.366  23.283  1.00  0.00     0.063 N 
ATOM     22  O   UNL A   1      30.265  23.888  23.176  1.00  0.00    -0.258 OA
ATOM     23  O   UNL A   1      31.700  22.268  22.813  1.00  0.00    -0.258 OA
ENDBRANCH  17  21
ENDBRANCH  12  15
ENDBRANCH   7  11
ENDBRANCH   6   7
ENDBRANCH   4   6
ENDBRANCH   1   2
BRANCH   1  24
ATOM     24  C   UNL A   1      31.497  32.188  26.872  1.00  0.00     0.042 C 
BRANCH  24  25
ATOM     25  C   UNL A   1      32.775  33.025  26.964  1.00  0.00     0.118 C 
BRANCH  25  26
ATOM     26  N   UNL A   1      32.595  34.266  27.694  1.00  0.00    -0.352 N 
ATOM     27  C   UNL A   1      33.259  34.745  28.797  1.00  0.00     0.251 C 
ATOM     28  H   UNL A   1      31.886  34.855  27.346  1.00  0.00     0.163 HD
ATOM     29  O   UNL A   1      32.860  35.780  29.325  1.00  0.00    -0.269 OA
BRANCH  27  30
ATOM     30  C   UNL A   1      34.418  34.021  29.373  1.00  0.00     0.039 A 
ATOM     31  C   UNL A   1      34.171  33.037  30.335  1.00  0.00     0.014 A 
ATOM     32  C   UNL A   1      35.734  34.337  29.026  1.00  0.00     0.014 A 
ATOM     33  C   UNL A   1      35.235  32.335  30.914  1.00  0.00     0.010 A 
ATOM     34  C   UNL A   1      36.796  33.608  29.579  1.00  0.00     0.010 A 
ATOM     35  C   UNL A   1      36.558  32.598  30.526  1.00  0.00    -0.014 A 
BRANCH  35  36
ATOM     36  C   UNL A   1      37.696  31.822  31.101  1.00  0.00     0.031 A 
ATOM     37  C   UNL A   1      38.225  32.146  32.474  1.00  0.00     0.074 A 
ATOM     38  C   UNL A   1      38.285  30.851  30.374  1.00  0.00     0.049 A 
ATOM     39  N   UNL A   1      39.257  31.645  33.105  1.00  0.00    -0.248 NA
ATOM     40  C   UNL A   1      37.504  33.182  33.226  1.00  0.00     0.031 C 
ATOM     41  C   UNL A   1      37.874  30.438  29.031  1.00  0.00     0.029 A 
ATOM     42  N   UNL A   1      39.361  30.044  30.653  1.00  0.00    -0.354 N 
ATOM     43  C   UNL A   1      39.320  32.311  34.325  1.00  0.00     0.074 A 
ATOM     44  C   UNL A   1      38.245  33.284  34.320  1.00  0.00     0.031 C 
ATOM     45  C   UNL A   1      38.682  29.451  28.609  1.00  0.00     0.029 A 
ATOM     46  C   UNL A   1      39.699  29.193  29.624  1.00  0.00     0.049 A 
ATOM     47  H   UNL A   1      39.845  30.070  31.510  1.00  0.00     0.167 HD
ATOM     48  C   UNL A   1      40.182  32.122  35.357  1.00  0.00     0.034 A 
ATOM     49  C   UNL A   1      40.723  28.323  29.498  1.00  0.00     0.034 A 
ATOM     50  C   UNL A   1      41.250  31.149  35.351  1.00  0.00     0.049 A 
ATOM     51  C   UNL A   1      41.703  28.171  30.634  1.00  0.00     0.074 A 
ATOM     52  C   UNL A   1      42.154  30.855  36.359  1.00  0.00     0.029 A 
ATOM     53  N   UNL A   1      41.571  30.320  34.283  1.00  0.00    -0.354 N 
ATOM     54  N   UNL A   1      41.732  28.790  31.792  1.00  0.00    -0.248 NA
ATOM     55  C   UNL A   1      42.787  27.196  30.451  1.00  0.00     0.031 C 
ATOM     56  C   UNL A   1      43.061  29.907  35.876  1.00  0.00     0.029 A 
ATOM     57  C   UNL A   1      42.676  29.541  34.597  1.00  0.00     0.049 A 
ATOM     58  H   UNL A   1      41.084  30.289  33.428  1.00  0.00     0.167 HD
ATOM     59  C   UNL A   1      42.812  28.250  32.486  1.00  0.00     0.074 A 
ATOM     60  C   UNL A   1      43.403  27.250  31.622  1.00  0.00     0.031 C 
ATOM     61  C   UNL A   1      43.267  28.548  33.730  1.00  0.00     0.034 A 
BRANCH  48  62
ATOM     62  C   UNL A   1      40.027  33.016  36.567  1.00  0.00     0.023 A 
ATOM     63  C   UNL A   1      39.301  32.607  37.700  1.00  0.00     0.031 A 
ATOM     64  C   UNL A   1      40.597  34.301  36.580  1.00  0.00     0.131 A 
ATOM     65  C   UNL A   1      39.101  33.500  38.764  1.00  0.00     0.055 A 
ATOM     66  C   UNL A   1      40.464  35.155  37.678  1.00  0.00     0.041 A 
ATOM     67  F   UNL A   1      41.286  34.755  35.522  1.00  0.00    -0.206 F 
ATOM     68  C   UNL A   1      39.700  34.763  38.771  1.00  0.00     0.022 A 
BRANCH  65  69
ATOM     69  S   UNL A   1      37.927  33.044  40.069  1.00  0.00     0.124 S 
ATOM     70  O   UNL A   1      38.504  31.796  40.561  1.00  0.00    -0.237 OA
ATOM     71  O   UNL A   1      38.005  34.184  40.975  1.00  0.00    -0.237 OA
ATOM     72  O   UNL A   1      36.660  32.897  39.356  1.00  0.00    -0.744 OA
ENDBRANCH  65  69
ENDBRANCH  48  62
BRANCH  49  73
ATOM     73  C   UNL A   1      40.899  27.543  28.239  1.00  0.00     0.023 A 
ATOM     74  C   UNL A   1      40.643  26.162  28.200  1.00  0.00     0.031 A 
ATOM     75  C   UNL A   1      41.381  28.155  27.068  1.00  0.00     0.131 A 
ATOM     76  C   UNL A   1      40.916  25.433  27.033  1.00  0.00     0.055 A 
ATOM     77  C   UNL A   1      41.595  27.436  25.891  1.00  0.00     0.041 A 
ATOM     78  F   UNL A   1      41.643  29.473  27.050  1.00  0.00    -0.206 F 
ATOM     79  C   UNL A   1      41.376  26.063  25.874  1.00  0.00     0.022 A 
BRANCH  76  80
ATOM     80  S   UNL A   1      40.749  23.627  27.077  1.00  0.00     0.124 S 
ATOM     81  O   UNL A   1      39.300  23.464  27.082  1.00  0.00    -0.237 OA
ATOM     82  O   UNL A   1      41.436  23.230  25.853  1.00  0.00    -0.237 OA
ATOM     83  O   UNL A   1      41.425  23.254  28.318  1.00  0.00    -0.744 OA
ENDBRANCH  76  80
ENDBRANCH  49  73
BRANCH  61  84
ATOM     84  C   UNL A   1      44.430  27.738  34.255  1.00  0.00     0.023 A 
ATOM     85  C   UNL A   1      44.254  26.478  34.854  1.00  0.00     0.031 A 
ATOM     86  C   UNL A   1      45.740  28.243  34.156  1.00  0.00     0.131 A 
ATOM     87  C   UNL A   1      45.361  25.792  35.379  1.00  0.00     0.055 A 
ATOM     88  C   UNL A   1      46.843  27.529  34.623  1.00  0.00     0.041 A 
ATOM     89  F   UNL A   1      45.969  29.442  33.597  1.00  0.00    -0.206 F 
ATOM     90  C   UNL A   1      46.655  26.300  35.251  1.00  0.00     0.022 A 
BRANCH  87  91
ATOM     91  S   UNL A   1      45.078  24.261  36.312  1.00  0.00     0.124 S 
ATOM     92  O   UNL A   1      43.856  23.752  35.698  1.00  0.00    -0.237 OA
ATOM     93  O   UNL A   1      46.292  23.500  36.039  1.00  0.00    -0.237 OA
ATOM     94  O   UNL A   1      44.933  24.723  37.692  1.00  0.00    -0.744 OA
ENDBRANCH  87  91
ENDBRANCH  61  84
ENDBRANCH  35  36
ENDBRANCH  27  30
ENDBRANCH  25  26
ENDBRANCH  24  25
ENDBRANCH   1  24
TORSDOF 17
ENDMDL
