MODEL 1
REMARK VINA RESULT:     -13.3      0.000      0.000
REMARK SMILES O=C(NCCCNC(=O)C1CCN(C2=[NH+]C(Cl)=[NH+]C3=[NH+]C=N[C@@H]32)CC1)c1ccc(-c2c3nc(c(-c4cc(S(=O)(=O)[O-])ccc4F)c4ccc([nH]4)c(-c4cc(S(=O)(=O)[O-])ccc4F)c4nc(c(-c5cc(S(=O)(=O)[O-])ccc5F)c5ccc2[nH]5)C=C4)C=C3)cc1
REMARK SMILES IDX 1 1 2 2 3 3 26 5 27 6 88 7 28 8 87 9 29 10 30 11 31 12 81 13
REMARK SMILES IDX 32 14 86 15 80 16 82 17 33 18 85 19 79 20 78 21 34 23 66 24
REMARK SMILES IDX 46 25 65 26 47 27 50 28 64 29 83 30 48 31 49 32 63 34 84 35
REMARK SMILES IDX 51 36 35 37 36 38 44 39 37 40 43 41 45 42 42 43 38 44 39 45
REMARK SMILES IDX 40 46 41 47 67 48 68 49 76 50 69 51 75 52 77 53 74 54 70 55
REMARK SMILES IDX 71 56 72 57 73 58 52 59 53 60 61 61 54 62 60 63 62 64 59 65
REMARK SMILES IDX 55 66 56 67 57 68 58 69 4 70 5 71 6 72 7 73 8 74 9 76 10 77
REMARK SMILES IDX 11 78 25 79 12 80 24 81 13 82 14 83 15 84 23 85 16 86 19 88
REMARK SMILES IDX 22 89 17 90 18 91 20 92 21 93
REMARK H PARENT 3 4 82 22 50 33 7 75 15 87 18 94 20 95
REMARK Flexibility Score: inf
ROOT
ATOM      1  O   UNL A   1      35.295  32.615  28.856  1.00  0.00    -0.269 OA
ATOM      2  C   UNL A   1      35.349  31.452  28.448  1.00  0.00     0.251 C 
ATOM      3  N   UNL A   1      34.186  30.955  27.930  1.00  0.00    -0.352 N 
ATOM      4  H   UNL A   1      33.429  31.576  28.027  1.00  0.00     0.163 HD
ENDROOT
BRANCH   2   5
ATOM      5  C   UNL A   1      36.614  30.682  28.618  1.00  0.00     0.039 A 
ATOM      6  C   UNL A   1      36.796  29.318  28.371  1.00  0.00     0.014 A 
ATOM      7  C   UNL A   1      37.701  31.425  29.109  1.00  0.00     0.014 A 
ATOM      8  C   UNL A   1      37.995  28.691  28.708  1.00  0.00     0.010 A 
ATOM      9  C   UNL A   1      38.904  30.812  29.426  1.00  0.00     0.010 A 
ATOM     10  C   UNL A   1      39.034  29.434  29.269  1.00  0.00    -0.014 A 
BRANCH  10  11
ATOM     11  C   UNL A   1      40.312  28.780  29.551  1.00  0.00     0.031 A 
ATOM     12  C   UNL A   1      40.661  28.680  31.001  1.00  0.00     0.074 A 
ATOM     13  C   UNL A   1      41.003  28.124  28.594  1.00  0.00     0.049 A 
ATOM     14  N   UNL A   1      41.740  29.061  31.606  1.00  0.00    -0.248 NA
ATOM     15  C   UNL A   1      39.622  28.177  31.919  1.00  0.00     0.031 C 
ATOM     16  C   UNL A   1      40.610  27.917  27.197  1.00  0.00     0.029 A 
ATOM     17  N   UNL A   1      42.141  27.382  28.701  1.00  0.00    -0.354 N 
ATOM     18  C   UNL A   1      41.605  28.659  32.935  1.00  0.00     0.074 A 
ATOM     19  C   UNL A   1      40.229  28.278  33.100  1.00  0.00     0.031 C 
ATOM     20  C   UNL A   1      41.348  26.915  26.670  1.00  0.00     0.029 A 
ATOM     21  C   UNL A   1      42.342  26.495  27.644  1.00  0.00     0.049 A 
ATOM     22  H   UNL A   1      42.765  27.463  29.458  1.00  0.00     0.167 HD
ATOM     23  C   UNL A   1      42.682  28.464  33.746  1.00  0.00     0.034 A 
ATOM     24  C   UNL A   1      43.199  25.436  27.603  1.00  0.00     0.034 A 
ATOM     25  C   UNL A   1      43.846  29.153  33.248  1.00  0.00     0.049 A 
ATOM     26  C   UNL A   1      44.224  25.670  28.648  1.00  0.00     0.074 A 
ATOM     27  C   UNL A   1      44.150  30.474  32.980  1.00  0.00     0.029 A 
ATOM     28  N   UNL A   1      44.814  28.421  32.600  1.00  0.00    -0.354 N 
ATOM     29  N   UNL A   1      45.074  26.660  28.608  1.00  0.00    -0.248 NA
ATOM     30  C   UNL A   1      43.990  25.111  29.972  1.00  0.00     0.031 C 
ATOM     31  C   UNL A   1      44.920  30.433  31.782  1.00  0.00     0.029 A 
ATOM     32  C   UNL A   1      45.101  29.091  31.436  1.00  0.00     0.049 A 
ATOM     33  H   UNL A   1      45.224  27.581  32.911  1.00  0.00     0.167 HD
ATOM     34  C   UNL A   1      45.140  27.130  29.910  1.00  0.00     0.074 A 
ATOM     35  C   UNL A   1      44.527  26.079  30.723  1.00  0.00     0.031 C 
ATOM     36  C   UNL A   1      45.421  28.439  30.182  1.00  0.00     0.034 A 
BRANCH  23  37
ATOM     37  C   UNL A   1      42.778  27.379  34.800  1.00  0.00     0.023 A 
ATOM     38  C   UNL A   1      43.516  26.221  34.483  1.00  0.00     0.031 A 
ATOM     39  C   UNL A   1      41.956  27.286  35.946  1.00  0.00     0.131 A 
ATOM     40  C   UNL A   1      43.347  25.031  35.214  1.00  0.00     0.055 A 
ATOM     41  C   UNL A   1      41.844  26.122  36.712  1.00  0.00     0.041 A 
ATOM     42  F   UNL A   1      41.141  28.272  36.336  1.00  0.00    -0.206 F 
ATOM     43  C   UNL A   1      42.515  24.974  36.329  1.00  0.00     0.022 A 
BRANCH  40  44
ATOM     44  S   UNL A   1      44.082  23.506  34.567  1.00  0.00     0.124 S 
ATOM     45  O   UNL A   1      42.954  22.913  33.856  1.00  0.00    -0.237 OA
ATOM     46  O   UNL A   1      45.166  24.024  33.739  1.00  0.00    -0.237 OA
ATOM     47  O   UNL A   1      44.502  22.794  35.772  1.00  0.00    -0.744 OA
ENDBRANCH  40  44
ENDBRANCH  23  37
BRANCH  24  48
ATOM     48  C   UNL A   1      42.928  24.102  26.986  1.00  0.00     0.023 A 
ATOM     49  C   UNL A   1      43.821  23.450  26.106  1.00  0.00     0.031 A 
ATOM     50  C   UNL A   1      41.837  23.334  27.456  1.00  0.00     0.131 A 
ATOM     51  C   UNL A   1      43.592  22.103  25.723  1.00  0.00     0.055 A 
ATOM     52  C   UNL A   1      41.613  22.011  27.072  1.00  0.00     0.041 A 
ATOM     53  F   UNL A   1      40.991  23.821  28.377  1.00  0.00    -0.206 F 
ATOM     54  C   UNL A   1      42.494  21.386  26.206  1.00  0.00     0.022 A 
BRANCH  51  55
ATOM     55  S   UNL A   1      44.769  21.224  24.641  1.00  0.00     0.124 S 
ATOM     56  O   UNL A   1      44.675  21.981  23.399  1.00  0.00    -0.237 OA
ATOM     57  O   UNL A   1      46.021  21.340  25.379  1.00  0.00    -0.237 OA
ATOM     58  O   UNL A   1      44.224  19.867  24.574  1.00  0.00    -0.744 OA
ENDBRANCH  51  55
ENDBRANCH  24  48
BRANCH  36  59
ATOM     59  C   UNL A   1      45.875  29.330  29.042  1.00  0.00     0.023 A 
ATOM     60  C   UNL A   1      45.026  30.199  28.318  1.00  0.00     0.031 A 
ATOM     61  C   UNL A   1      47.253  29.400  28.779  1.00  0.00     0.131 A 
ATOM     62  C   UNL A   1      45.566  31.084  27.363  1.00  0.00     0.055 A 
ATOM     63  C   UNL A   1      47.787  30.291  27.848  1.00  0.00     0.041 A 
ATOM     64  F   UNL A   1      48.116  28.627  29.460  1.00  0.00    -0.206 F 
ATOM     65  C   UNL A   1      46.944  31.134  27.132  1.00  0.00     0.022 A 
BRANCH  62  66
ATOM     66  S   UNL A   1      44.479  32.187  26.402  1.00  0.00     0.124 S 
ATOM     67  O   UNL A   1      43.437  31.294  25.907  1.00  0.00    -0.237 OA
ATOM     68  O   UNL A   1      44.057  33.169  27.399  1.00  0.00    -0.237 OA
ATOM     69  O   UNL A   1      45.365  32.720  25.365  1.00  0.00    -0.744 OA
ENDBRANCH  62  66
ENDBRANCH  36  59
ENDBRANCH  10  11
ENDBRANCH   2   5
BRANCH   3  70
ATOM     70  C   UNL A   1      33.823  29.722  27.272  1.00  0.00     0.118 C 
BRANCH  70  71
ATOM     71  C   UNL A   1      32.849  29.906  26.119  1.00  0.00     0.042 C 
BRANCH  71  72
ATOM     72  C   UNL A   1      33.267  29.177  24.841  1.00  0.00     0.117 C 
BRANCH  72  73
ATOM     73  N   UNL A   1      32.146  28.571  24.121  1.00  0.00    -0.356 N 
ATOM     74  C   UNL A   1      31.811  27.239  24.003  1.00  0.00     0.223 C 
ATOM     75  H   UNL A   1      31.549  29.202  23.656  1.00  0.00     0.163 HD
ATOM     76  O   UNL A   1      30.773  26.920  23.443  1.00  0.00    -0.275 OA
BRANCH  74  77
ATOM     77  C   UNL A   1      32.776  26.237  24.602  1.00  0.00     0.087 C 
ATOM     78  C   UNL A   1      32.280  25.399  25.781  1.00  0.00     0.068 C 
ATOM     79  C   UNL A   1      33.256  25.256  23.535  1.00  0.00     0.068 C 
ATOM     80  C   UNL A   1      33.454  24.557  26.317  1.00  0.00     0.277 C 
ATOM     81  C   UNL A   1      34.530  24.625  24.052  1.00  0.00     0.277 C 
ATOM     82  N   UNL A   1      34.182  23.869  25.247  1.00  0.00    -0.230 N 
ATOM     83  C   UNL A   1      34.661  22.579  25.355  1.00  0.00     0.383 C 
ATOM     84  N   UNL A   1      35.878  22.283  24.992  1.00  0.00    -0.155 N 
ATOM     85  C   UNL A   1      33.746  21.476  25.826  1.00  0.00     0.523 C 
ATOM     86  C   UNL A   1      36.294  20.976  25.044  1.00  0.00     0.414 C 
ATOM     87  H   UNL A   1      36.491  22.989  24.683  1.00  0.00     0.367 HD
ATOM     88  C   UNL A   1      34.211  20.277  25.092  1.00  0.00     0.389 C 
ATOM     89  N   UNL A   1      32.358  21.598  25.318  1.00  0.00     0.003 NA
ATOM     90  Cl  UNL A   1      37.982  20.721  25.046  1.00  0.00     0.028 Cl
ATOM     91  N   UNL A   1      35.518  19.939  25.095  1.00  0.00    -0.155 N 
ATOM     92  N   UNL A   1      33.293  19.713  24.391  1.00  0.00    -0.169 N 
ATOM     93  C   UNL A   1      32.223  20.558  24.547  1.00  0.00     0.532 C 
ATOM     94  H   UNL A   1      35.844  19.012  25.132  1.00  0.00     0.367 HD
ATOM     95  H   UNL A   1      33.345  18.879  23.871  1.00  0.00     0.365 HD
ENDBRANCH  74  77
ENDBRANCH  72  73
ENDBRANCH  71  72
ENDBRANCH  70  71
ENDBRANCH   3  70
TORSDOF 13
ENDMDL
MODEL 2
REMARK VINA RESULT:     -13.2      2.183      6.942
REMARK SMILES O=C(NCCCNC(=O)C1CCN(C2=[NH+]C(Cl)=[NH+]C3=[NH+]C=N[C@@H]32)CC1)c1ccc(-c2c3nc(c(-c4cc(S(=O)(=O)[O-])ccc4F)c4ccc([nH]4)c(-c4cc(S(=O)(=O)[O-])ccc4F)c4nc(c(-c5cc(S(=O)(=O)[O-])ccc5F)c5ccc2[nH]5)C=C4)C=C3)cc1
REMARK SMILES IDX 1 1 2 2 3 3 26 5 27 6 88 7 28 8 87 9 29 10 30 11 31 12 81 13
REMARK SMILES IDX 32 14 86 15 80 16 82 17 33 18 85 19 79 20 78 21 34 23 66 24
REMARK SMILES IDX 46 25 65 26 47 27 50 28 64 29 83 30 48 31 49 32 63 34 84 35
REMARK SMILES IDX 51 36 35 37 36 38 44 39 37 40 43 41 45 42 42 43 38 44 39 45
REMARK SMILES IDX 40 46 41 47 67 48 68 49 76 50 69 51 75 52 77 53 74 54 70 55
REMARK SMILES IDX 71 56 72 57 73 58 52 59 53 60 61 61 54 62 60 63 62 64 59 65
REMARK SMILES IDX 55 66 56 67 57 68 58 69 4 70 5 71 6 72 7 73 8 74 9 76 10 77
REMARK SMILES IDX 11 78 25 79 12 80 24 81 13 82 14 83 15 84 23 85 16 86 19 88
REMARK SMILES IDX 22 89 17 90 18 91 20 92 21 93
REMARK H PARENT 3 4 82 22 50 33 7 75 15 87 18 94 20 95
REMARK Flexibility Score: inf
ROOT
ATOM      1  O   UNL A   1      35.723  30.889  29.596  1.00  0.00    -0.269 OA
ATOM      2  C   UNL A   1      35.972  29.985  28.793  1.00  0.00     0.251 C 
ATOM      3  N   UNL A   1      34.936  29.615  27.983  1.00  0.00    -0.352 N 
ATOM      4  H   UNL A   1      34.093  30.071  28.208  1.00  0.00     0.163 HD
ENDROOT
BRANCH   2   5
ATOM      5  C   UNL A   1      37.316  29.340  28.823  1.00  0.00     0.039 A 
ATOM      6  C   UNL A   1      37.807  28.491  29.819  1.00  0.00     0.014 A 
ATOM      7  C   UNL A   1      38.156  29.666  27.745  1.00  0.00     0.014 A 
ATOM      8  C   UNL A   1      39.136  28.068  29.797  1.00  0.00     0.010 A 
ATOM      9  C   UNL A   1      39.473  29.232  27.706  1.00  0.00     0.010 A 
ATOM     10  C   UNL A   1      39.976  28.470  28.758  1.00  0.00    -0.014 A 
BRANCH  10  11
ATOM     11  C   UNL A   1      41.347  27.963  28.707  1.00  0.00     0.031 A 
ATOM     12  C   UNL A   1      41.508  26.650  28.013  1.00  0.00     0.074 A 
ATOM     13  C   UNL A   1      42.402  28.729  29.060  1.00  0.00     0.049 A 
ATOM     14  N   UNL A   1      42.071  25.567  28.442  1.00  0.00    -0.248 NA
ATOM     15  C   UNL A   1      40.862  26.492  26.696  1.00  0.00     0.031 C 
ATOM     16  C   UNL A   1      42.381  30.131  29.486  1.00  0.00     0.029 A 
ATOM     17  N   UNL A   1      43.736  28.458  28.978  1.00  0.00    -0.354 N 
ATOM     18  C   UNL A   1      42.037  24.662  27.380  1.00  0.00     0.074 A 
ATOM     19  C   UNL A   1      41.142  25.222  26.404  1.00  0.00     0.031 C 
ATOM     20  C   UNL A   1      43.625  30.649  29.381  1.00  0.00     0.029 A 
ATOM     21  C   UNL A   1      44.548  29.591  29.000  1.00  0.00     0.049 A 
ATOM     22  H   UNL A   1      44.094  27.544  28.907  1.00  0.00     0.167 HD
ATOM     23  C   UNL A   1      42.914  23.623  27.284  1.00  0.00     0.034 A 
ATOM     24  C   UNL A   1      45.861  29.676  28.646  1.00  0.00     0.034 A 
ATOM     25  C   UNL A   1      43.499  23.311  28.564  1.00  0.00     0.049 A 
ATOM     26  C   UNL A   1      46.414  28.302  28.709  1.00  0.00     0.074 A 
ATOM     27  C   UNL A   1      42.997  22.917  29.790  1.00  0.00     0.029 A 
ATOM     28  N   UNL A   1      44.783  23.735  28.820  1.00  0.00    -0.354 N 
ATOM     29  N   UNL A   1      46.515  27.622  29.818  1.00  0.00    -0.248 NA
ATOM     30  C   UNL A   1      46.395  27.500  27.493  1.00  0.00     0.031 C 
ATOM     31  C   UNL A   1      43.783  23.622  30.747  1.00  0.00     0.029 A 
ATOM     32  C   UNL A   1      44.759  24.340  30.053  1.00  0.00     0.049 A 
ATOM     33  H   UNL A   1      45.567  23.625  28.234  1.00  0.00     0.167 HD
ATOM     34  C   UNL A   1      46.132  26.332  29.485  1.00  0.00     0.074 A 
ATOM     35  C   UNL A   1      46.162  26.295  28.023  1.00  0.00     0.031 C 
ATOM     36  C   UNL A   1      45.552  25.501  30.402  1.00  0.00     0.034 A 
BRANCH  23  37
ATOM     37  C   UNL A   1      43.501  23.112  25.984  1.00  0.00     0.023 A 
ATOM     38  C   UNL A   1      43.518  21.718  25.777  1.00  0.00     0.031 A 
ATOM     39  C   UNL A   1      44.299  23.872  25.099  1.00  0.00     0.131 A 
ATOM     40  C   UNL A   1      44.365  21.139  24.814  1.00  0.00     0.055 A 
ATOM     41  C   UNL A   1      45.086  23.298  24.097  1.00  0.00     0.041 A 
ATOM     42  F   UNL A   1      44.445  25.197  25.211  1.00  0.00    -0.206 F 
ATOM     43  C   UNL A   1      45.150  21.921  23.970  1.00  0.00     0.022 A 
BRANCH  40  44
ATOM     44  S   UNL A   1      44.572  19.339  24.813  1.00  0.00     0.124 S 
ATOM     45  O   UNL A   1      44.518  19.035  23.387  1.00  0.00    -0.237 OA
ATOM     46  O   UNL A   1      45.873  19.187  25.456  1.00  0.00    -0.237 OA
ATOM     47  O   UNL A   1      43.431  18.866  25.593  1.00  0.00    -0.744 OA
ENDBRANCH  40  44
ENDBRANCH  23  37
BRANCH  24  48
ATOM     48  C   UNL A   1      46.506  30.800  27.901  1.00  0.00     0.023 A 
ATOM     49  C   UNL A   1      45.800  31.690  27.060  1.00  0.00     0.031 A 
ATOM     50  C   UNL A   1      47.844  31.146  28.200  1.00  0.00     0.131 A 
ATOM     51  C   UNL A   1      46.440  32.849  26.550  1.00  0.00     0.055 A 
ATOM     52  C   UNL A   1      48.470  32.285  27.690  1.00  0.00     0.041 A 
ATOM     53  F   UNL A   1      48.569  30.428  29.071  1.00  0.00    -0.206 F 
ATOM     54  C   UNL A   1      47.768  33.147  26.866  1.00  0.00     0.022 A 
BRANCH  51  55
ATOM     55  S   UNL A   1      45.525  34.045  25.518  1.00  0.00     0.124 S 
ATOM     56  O   UNL A   1      44.780  34.808  26.511  1.00  0.00    -0.237 OA
ATOM     57  O   UNL A   1      46.599  34.750  24.828  1.00  0.00    -0.237 OA
ATOM     58  O   UNL A   1      44.703  33.194  24.656  1.00  0.00    -0.744 OA
ENDBRANCH  51  55
ENDBRANCH  24  48
BRANCH  36  59
ATOM     59  C   UNL A   1      45.529  25.935  31.855  1.00  0.00     0.023 A 
ATOM     60  C   UNL A   1      44.396  26.466  32.514  1.00  0.00     0.031 A 
ATOM     61  C   UNL A   1      46.667  25.666  32.633  1.00  0.00     0.131 A 
ATOM     62  C   UNL A   1      44.437  26.717  33.900  1.00  0.00     0.055 A 
ATOM     63  C   UNL A   1      46.698  25.898  34.008  1.00  0.00     0.041 A 
ATOM     64  F   UNL A   1      47.763  25.127  32.073  1.00  0.00    -0.206 F 
ATOM     65  C   UNL A   1      45.583  26.429  34.647  1.00  0.00     0.022 A 
BRANCH  62  66
ATOM     66  S   UNL A   1      42.993  27.429  34.756  1.00  0.00     0.124 S 
ATOM     67  O   UNL A   1      42.608  28.549  33.904  1.00  0.00    -0.237 OA
ATOM     68  O   UNL A   1      42.059  26.305  34.795  1.00  0.00    -0.237 OA
ATOM     69  O   UNL A   1      43.528  27.816  36.063  1.00  0.00    -0.744 OA
ENDBRANCH  62  66
ENDBRANCH  36  59
ENDBRANCH  10  11
ENDBRANCH   2   5
BRANCH   3  70
ATOM     70  C   UNL A   1      34.803  28.703  26.872  1.00  0.00     0.118 C 
BRANCH  70  71
ATOM     71  C   UNL A   1      33.437  28.745  26.204  1.00  0.00     0.042 C 
BRANCH  71  72
ATOM     72  C   UNL A   1      33.490  28.566  24.686  1.00  0.00     0.117 C 
BRANCH  72  73
ATOM     73  N   UNL A   1      32.270  27.985  24.124  1.00  0.00    -0.356 N 
ATOM     74  C   UNL A   1      31.849  26.673  24.136  1.00  0.00     0.223 C 
ATOM     75  H   UNL A   1      31.667  28.620  23.673  1.00  0.00     0.163 HD
ATOM     76  O   UNL A   1      30.744  26.384  23.703  1.00  0.00    -0.275 OA
BRANCH  74  77
ATOM     77  C   UNL A   1      32.810  25.653  24.713  1.00  0.00     0.087 C 
ATOM     78  C   UNL A   1      32.293  24.752  25.834  1.00  0.00     0.068 C 
ATOM     79  C   UNL A   1      33.332  24.733  23.613  1.00  0.00     0.068 C 
ATOM     80  C   UNL A   1      33.462  23.899  26.362  1.00  0.00     0.277 C 
ATOM     81  C   UNL A   1      34.600  24.092  24.135  1.00  0.00     0.277 C 
ATOM     82  N   UNL A   1      34.229  23.273  25.281  1.00  0.00    -0.230 N 
ATOM     83  C   UNL A   1      34.722  21.985  25.340  1.00  0.00     0.383 C 
ATOM     84  N   UNL A   1      35.952  21.722  24.997  1.00  0.00    -0.155 N 
ATOM     85  C   UNL A   1      33.809  20.850  25.729  1.00  0.00     0.523 C 
ATOM     86  C   UNL A   1      36.384  20.420  24.997  1.00  0.00     0.414 C 
ATOM     87  H   UNL A   1      36.564  22.450  24.741  1.00  0.00     0.367 HD
ATOM     88  C   UNL A   1      34.310  19.695  24.950  1.00  0.00     0.389 C 
ATOM     89  N   UNL A   1      32.434  20.980  25.188  1.00  0.00     0.003 NA
ATOM     90  Cl  UNL A   1      38.074  20.185  25.035  1.00  0.00     0.028 Cl
ATOM     91  N   UNL A   1      35.621  19.373  24.974  1.00  0.00    -0.155 N 
ATOM     92  N   UNL A   1      33.419  19.155  24.196  1.00  0.00    -0.169 N 
ATOM     93  C   UNL A   1      32.335  19.978  24.363  1.00  0.00     0.532 C 
ATOM     94  H   UNL A   1      35.958  18.448  24.975  1.00  0.00     0.367 HD
ATOM     95  H   UNL A   1      33.497  18.348  23.638  1.00  0.00     0.365 HD
ENDBRANCH  74  77
ENDBRANCH  72  73
ENDBRANCH  71  72
ENDBRANCH  70  71
ENDBRANCH   3  70
TORSDOF 13
ENDMDL
MODEL 3
REMARK VINA RESULT:     -13.2      3.466      9.498
REMARK SMILES O=C(NCCCNC(=O)C1CCN(C2=[NH+]C(Cl)=[NH+]C3=[NH+]C=N[C@@H]32)CC1)c1ccc(-c2c3nc(c(-c4cc(S(=O)(=O)[O-])ccc4F)c4ccc([nH]4)c(-c4cc(S(=O)(=O)[O-])ccc4F)c4nc(c(-c5cc(S(=O)(=O)[O-])ccc5F)c5ccc2[nH]5)C=C4)C=C3)cc1
REMARK SMILES IDX 1 1 2 2 3 3 26 5 27 6 88 7 28 8 87 9 29 10 30 11 31 12 81 13
REMARK SMILES IDX 32 14 86 15 80 16 82 17 33 18 85 19 79 20 78 21 34 23 66 24
REMARK SMILES IDX 46 25 65 26 47 27 50 28 64 29 83 30 48 31 49 32 63 34 84 35
REMARK SMILES IDX 51 36 35 37 36 38 44 39 37 40 43 41 45 42 42 43 38 44 39 45
REMARK SMILES IDX 40 46 41 47 67 48 68 49 76 50 69 51 75 52 77 53 74 54 70 55
REMARK SMILES IDX 71 56 72 57 73 58 52 59 53 60 61 61 54 62 60 63 62 64 59 65
REMARK SMILES IDX 55 66 56 67 57 68 58 69 4 70 5 71 6 72 7 73 8 74 9 76 10 77
REMARK SMILES IDX 11 78 25 79 12 80 24 81 13 82 14 83 15 84 23 85 16 86 19 88
REMARK SMILES IDX 22 89 17 90 18 91 20 92 21 93
REMARK H PARENT 3 4 82 22 50 33 7 75 15 87 18 94 20 95
REMARK Flexibility Score: inf
ROOT
ATOM      1  O   UNL A   1      41.355  22.213  26.844  1.00  0.00    -0.269 OA
ATOM      2  C   UNL A   1      40.320  22.884  26.796  1.00  0.00     0.251 C 
ATOM      3  N   UNL A   1      39.283  22.318  26.110  1.00  0.00    -0.352 N 
ATOM      4  H   UNL A   1      39.531  21.473  25.671  1.00  0.00     0.163 HD
ENDROOT
BRANCH   2   5
ATOM      5  C   UNL A   1      40.310  24.245  27.404  1.00  0.00     0.039 A 
ATOM      6  C   UNL A   1      39.344  25.236  27.204  1.00  0.00     0.014 A 
ATOM      7  C   UNL A   1      41.412  24.538  28.225  1.00  0.00     0.014 A 
ATOM      8  C   UNL A   1      39.528  26.519  27.721  1.00  0.00     0.010 A 
ATOM      9  C   UNL A   1      41.590  25.806  28.759  1.00  0.00     0.010 A 
ATOM     10  C   UNL A   1      40.670  26.810  28.467  1.00  0.00    -0.014 A 
BRANCH  10  11
ATOM     11  C   UNL A   1      40.818  28.137  29.063  1.00  0.00     0.031 A 
ATOM     12  C   UNL A   1      41.931  28.960  28.500  1.00  0.00     0.074 A 
ATOM     13  C   UNL A   1      39.885  28.653  29.892  1.00  0.00     0.049 A 
ATOM     14  N   UNL A   1      42.899  29.553  29.121  1.00  0.00    -0.248 NA
ATOM     15  C   UNL A   1      42.034  29.051  27.031  1.00  0.00     0.031 C 
ATOM     16  C   UNL A   1      38.613  28.043  30.289  1.00  0.00     0.029 A 
ATOM     17  N   UNL A   1      39.811  29.895  30.448  1.00  0.00    -0.354 N 
ATOM     18  C   UNL A   1      43.610  30.260  28.150  1.00  0.00     0.074 A 
ATOM     19  C   UNL A   1      43.138  29.782  26.879  1.00  0.00     0.031 C 
ATOM     20  C   UNL A   1      37.801  28.996  30.799  1.00  0.00     0.029 A 
ATOM     21  C   UNL A   1      38.533  30.249  30.879  1.00  0.00     0.049 A 
ATOM     22  H   UNL A   1      40.590  30.491  30.536  1.00  0.00     0.167 HD
ATOM     23  C   UNL A   1      44.379  31.341  28.460  1.00  0.00     0.034 A 
ATOM     24  C   UNL A   1      38.080  31.496  31.194  1.00  0.00     0.034 A 
ATOM     25  C   UNL A   1      44.736  31.350  29.857  1.00  0.00     0.049 A 
ATOM     26  C   UNL A   1      39.273  32.327  31.481  1.00  0.00     0.074 A 
ATOM     27  C   UNL A   1      45.424  30.485  30.687  1.00  0.00     0.029 A 
ATOM     28  N   UNL A   1      44.060  32.200  30.701  1.00  0.00    -0.354 N 
ATOM     29  N   UNL A   1      40.072  32.107  32.490  1.00  0.00    -0.248 NA
ATOM     30  C   UNL A   1      39.859  33.087  30.386  1.00  0.00     0.031 C 
ATOM     31  C   UNL A   1      44.707  30.518  31.918  1.00  0.00     0.029 A 
ATOM     32  C   UNL A   1      43.677  31.452  31.788  1.00  0.00     0.049 A 
ATOM     33  H   UNL A   1      43.886  33.158  30.556  1.00  0.00     0.167 HD
ATOM     34  C   UNL A   1      41.349  32.301  31.986  1.00  0.00     0.074 A 
ATOM     35  C   UNL A   1      41.152  32.995  30.714  1.00  0.00     0.031 C 
ATOM     36  C   UNL A   1      42.426  31.634  32.498  1.00  0.00     0.034 A 
BRANCH  23  37
ATOM     37  C   UNL A   1      44.527  32.569  27.584  1.00  0.00     0.023 A 
ATOM     38  C   UNL A   1      43.861  33.744  27.985  1.00  0.00     0.031 A 
ATOM     39  C   UNL A   1      45.019  32.566  26.258  1.00  0.00     0.131 A 
ATOM     40  C   UNL A   1      43.622  34.789  27.073  1.00  0.00     0.055 A 
ATOM     41  C   UNL A   1      44.840  33.635  25.376  1.00  0.00     0.041 A 
ATOM     42  F   UNL A   1      45.610  31.500  25.707  1.00  0.00    -0.206 F 
ATOM     43  C   UNL A   1      44.108  34.742  25.769  1.00  0.00     0.022 A 
BRANCH  40  44
ATOM     44  S   UNL A   1      42.496  36.122  27.561  1.00  0.00     0.124 S 
ATOM     45  O   UNL A   1      42.966  36.430  28.907  1.00  0.00    -0.237 OA
ATOM     46  O   UNL A   1      42.763  37.128  26.538  1.00  0.00    -0.237 OA
ATOM     47  O   UNL A   1      41.178  35.496  27.490  1.00  0.00    -0.744 OA
ENDBRANCH  40  44
ENDBRANCH  23  37
BRANCH  24  48
ATOM     48  C   UNL A   1      36.734  32.057  30.870  1.00  0.00     0.023 A 
ATOM     49  C   UNL A   1      35.926  32.744  31.805  1.00  0.00     0.031 A 
ATOM     50  C   UNL A   1      36.314  32.107  29.521  1.00  0.00     0.131 A 
ATOM     51  C   UNL A   1      34.757  33.423  31.375  1.00  0.00     0.055 A 
ATOM     52  C   UNL A   1      35.159  32.772  29.104  1.00  0.00     0.041 A 
ATOM     53  F   UNL A   1      37.063  31.579  28.541  1.00  0.00    -0.206 F 
ATOM     54  C   UNL A   1      34.376  33.439  30.031  1.00  0.00     0.022 A 
BRANCH  51  55
ATOM     55  S   UNL A   1      33.739  34.372  32.556  1.00  0.00     0.124 S 
ATOM     56  O   UNL A   1      33.131  33.320  33.360  1.00  0.00    -0.237 OA
ATOM     57  O   UNL A   1      34.729  35.209  33.223  1.00  0.00    -0.237 OA
ATOM     58  O   UNL A   1      32.806  35.101  31.694  1.00  0.00    -0.744 OA
ENDBRANCH  51  55
ENDBRANCH  24  48
BRANCH  36  59
ATOM     59  C   UNL A   1      42.241  30.837  33.775  1.00  0.00     0.023 A 
ATOM     60  C   UNL A   1      41.988  29.446  33.820  1.00  0.00     0.031 A 
ATOM     61  C   UNL A   1      42.471  31.496  34.994  1.00  0.00     0.131 A 
ATOM     62  C   UNL A   1      41.960  28.772  35.057  1.00  0.00     0.055 A 
ATOM     63  C   UNL A   1      42.462  30.823  36.215  1.00  0.00     0.041 A 
ATOM     64  F   UNL A   1      42.754  32.810  35.015  1.00  0.00    -0.206 F 
ATOM     65  C   UNL A   1      42.202  29.457  36.252  1.00  0.00     0.022 A 
BRANCH  62  66
ATOM     66  S   UNL A   1      41.605  26.985  35.132  1.00  0.00     0.124 S 
ATOM     67  O   UNL A   1      40.510  26.815  34.184  1.00  0.00    -0.237 OA
ATOM     68  O   UNL A   1      42.882  26.390  34.746  1.00  0.00    -0.237 OA
ATOM     69  O   UNL A   1      41.235  26.770  36.532  1.00  0.00    -0.744 OA
ENDBRANCH  62  66
ENDBRANCH  36  59
ENDBRANCH  10  11
ENDBRANCH   2   5
BRANCH   3  70
ATOM     70  C   UNL A   1      37.904  22.684  25.886  1.00  0.00     0.118 C 
BRANCH  70  71
ATOM     71  C   UNL A   1      37.308  22.088  24.621  1.00  0.00     0.042 C 
BRANCH  71  72
ATOM     72  C   UNL A   1      35.924  21.471  24.825  1.00  0.00     0.117 C 
BRANCH  72  73
ATOM     73  N   UNL A   1      35.511  21.413  26.228  1.00  0.00    -0.356 N 
ATOM     74  C   UNL A   1      34.466  22.061  26.851  1.00  0.00     0.223 C 
ATOM     75  H   UNL A   1      36.055  20.831  26.806  1.00  0.00     0.163 HD
ATOM     76  O   UNL A   1      34.206  21.813  28.018  1.00  0.00    -0.275 OA
BRANCH  74  77
ATOM     77  C   UNL A   1      33.687  23.058  26.017  1.00  0.00     0.087 C 
ATOM     78  C   UNL A   1      32.263  23.389  26.464  1.00  0.00     0.068 C 
ATOM     79  C   UNL A   1      34.440  24.382  25.929  1.00  0.00     0.068 C 
ATOM     80  C   UNL A   1      31.614  24.303  25.408  1.00  0.00     0.277 C 
ATOM     81  C   UNL A   1      33.885  25.131  24.737  1.00  0.00     0.277 C 
ATOM     82  N   UNL A   1      32.486  25.417  25.022  1.00  0.00    -0.230 N 
ATOM     83  C   UNL A   1      32.032  26.701  24.797  1.00  0.00     0.383 C 
ATOM     84  N   UNL A   1      32.407  27.370  23.743  1.00  0.00    -0.155 N 
ATOM     85  C   UNL A   1      31.152  27.375  25.821  1.00  0.00     0.523 C 
ATOM     86  C   UNL A   1      31.995  28.670  23.592  1.00  0.00     0.414 C 
ATOM     87  H   UNL A   1      32.980  26.947  23.063  1.00  0.00     0.367 HD
ATOM     88  C   UNL A   1      31.522  28.806  25.733  1.00  0.00     0.389 C 
ATOM     89  N   UNL A   1      31.529  27.070  27.222  1.00  0.00     0.003 NA
ATOM     90  Cl  UNL A   1      32.085  29.312  22.013  1.00  0.00     0.028 Cl
ATOM     91  N   UNL A   1      31.547  29.433  24.539  1.00  0.00    -0.155 N 
ATOM     92  N   UNL A   1      31.916  29.306  26.851  1.00  0.00    -0.169 N 
ATOM     93  C   UNL A   1      31.923  28.220  27.689  1.00  0.00     0.532 C 
ATOM     94  H   UNL A   1      31.257  30.364  24.402  1.00  0.00     0.367 HD
ATOM     95  H   UNL A   1      32.154  30.239  27.054  1.00  0.00     0.365 HD
ENDBRANCH  74  77
ENDBRANCH  72  73
ENDBRANCH  71  72
ENDBRANCH  70  71
ENDBRANCH   3  70
TORSDOF 13
ENDMDL
