MODEL 1
REMARK VINA RESULT:     -12.5      0.000      0.000
REMARK SMILES O=C(NCCCNC(=O)c1c(F)cccc1N1CC[C@@H]([NH+]2CCCCC2)C1)c1ccc(-c2c3nc(c(-c4cc(S(=O)(=O)[O-])ccc4F)c4ccc([nH]4)c(-c4cc(S(=O)(=O)[O-])ccc4F)c4nc(c(-c5cc(S(=O)(=O)[O-])ccc5F)c5ccc2[nH]5)C=C4)C=C3)cc1
REMARK SMILES IDX 4 1 3 2 1 3 2 4 28 6 29 7 90 8 30 9 89 10 31 11 32 12 33 13
REMARK SMILES IDX 83 14 34 15 88 16 82 17 84 18 35 19 87 20 81 21 80 22 36 24
REMARK SMILES IDX 68 25 48 26 67 27 49 28 52 29 66 30 85 31 50 32 51 33 65 35
REMARK SMILES IDX 86 36 53 37 37 38 38 39 46 40 39 41 45 42 47 43 44 44 40 45
REMARK SMILES IDX 41 46 42 47 43 48 69 49 70 50 78 51 71 52 77 53 79 54 76 55
REMARK SMILES IDX 72 56 73 57 74 58 75 59 54 60 55 61 63 62 56 63 62 64 64 65
REMARK SMILES IDX 61 66 57 67 58 68 59 69 60 70 5 71 6 72 7 73 8 74 9 76 10 77
REMARK SMILES IDX 11 78 16 79 12 80 13 81 15 82 14 83 17 84 18 85 27 86 19 87
REMARK SMILES IDX 20 88 21 89 22 90 26 91 23 93 25 94 24 95
REMARK H PARENT 3 5 84 23 52 34 7 75 21 92
REMARK Flexibility Score: inf
ROOT
ATOM      1  C   UNL A   1      32.616  32.192  27.201  1.00  0.00     0.118 C 
ENDROOT
BRANCH   1   2
ATOM      2  N   UNL A   1      32.514  33.592  27.601  1.00  0.00    -0.352 N 
ATOM      3  O   UNL A   1      32.836  35.467  28.793  1.00  0.00    -0.269 OA
ATOM      4  C   UNL A   1      33.216  34.331  28.527  1.00  0.00     0.251 C 
ATOM      5  H   UNL A   1      31.817  34.098  27.125  1.00  0.00     0.163 HD
BRANCH   4   6
ATOM      6  C   UNL A   1      34.401  33.770  29.215  1.00  0.00     0.039 A 
ATOM      7  C   UNL A   1      35.685  34.223  28.926  1.00  0.00     0.014 A 
ATOM      8  C   UNL A   1      34.222  32.794  30.205  1.00  0.00     0.014 A 
ATOM      9  C   UNL A   1      36.787  33.578  29.470  1.00  0.00     0.010 A 
ATOM     10  C   UNL A   1      35.333  32.227  30.843  1.00  0.00     0.010 A 
ATOM     11  C   UNL A   1      36.630  32.586  30.452  1.00  0.00    -0.014 A 
BRANCH  11  12
ATOM     12  C   UNL A   1      37.849  32.008  31.079  1.00  0.00     0.031 A 
ATOM     13  C   UNL A   1      38.261  32.369  32.480  1.00  0.00     0.074 A 
ATOM     14  C   UNL A   1      38.542  31.078  30.391  1.00  0.00     0.049 A 
ATOM     15  N   UNL A   1      39.232  31.871  33.203  1.00  0.00    -0.248 NA
ATOM     16  C   UNL A   1      37.498  33.429  33.155  1.00  0.00     0.031 C 
ATOM     17  C   UNL A   1      38.242  30.657  29.018  1.00  0.00     0.029 A 
ATOM     18  N   UNL A   1      39.596  30.280  30.756  1.00  0.00    -0.354 N 
ATOM     19  C   UNL A   1      39.209  32.564  34.407  1.00  0.00     0.074 A 
ATOM     20  C   UNL A   1      38.145  33.540  34.308  1.00  0.00     0.031 C 
ATOM     21  C   UNL A   1      39.023  29.620  28.695  1.00  0.00     0.029 A 
ATOM     22  C   UNL A   1      39.935  29.350  29.802  1.00  0.00     0.049 A 
ATOM     23  H   UNL A   1      40.064  30.365  31.618  1.00  0.00     0.167 HD
ATOM     24  C   UNL A   1      40.000  32.394  35.497  1.00  0.00     0.034 A 
ATOM     25  C   UNL A   1      40.876  28.386  29.803  1.00  0.00     0.034 A 
ATOM     26  C   UNL A   1      41.045  31.404  35.587  1.00  0.00     0.049 A 
ATOM     27  C   UNL A   1      41.755  28.234  31.009  1.00  0.00     0.074 A 
ATOM     28  C   UNL A   1      41.870  31.120  36.662  1.00  0.00     0.029 A 
ATOM     29  N   UNL A   1      41.418  30.542  34.563  1.00  0.00    -0.354 N 
ATOM     30  N   UNL A   1      41.720  28.902  32.137  1.00  0.00    -0.248 NA
ATOM     31  C   UNL A   1      42.810  27.217  30.939  1.00  0.00     0.031 C 
ATOM     32  C   UNL A   1      42.783  30.137  36.268  1.00  0.00     0.029 A 
ATOM     33  C   UNL A   1      42.485  29.754  34.971  1.00  0.00     0.049 A 
ATOM     34  H   UNL A   1      40.990  30.497  33.679  1.00  0.00     0.167 HD
ATOM     35  C   UNL A   1      42.747  28.383  32.916  1.00  0.00     0.074 A 
ATOM     36  C   UNL A   1      43.379  27.340  32.132  1.00  0.00     0.031 C 
ATOM     37  C   UNL A   1      43.125  28.739  34.169  1.00  0.00     0.034 A 
BRANCH  24  38
ATOM     38  C   UNL A   1      39.795  33.324  36.667  1.00  0.00     0.023 A 
ATOM     39  C   UNL A   1      39.141  32.909  37.839  1.00  0.00     0.031 A 
ATOM     40  C   UNL A   1      40.279  34.643  36.612  1.00  0.00     0.131 A 
ATOM     41  C   UNL A   1      38.947  33.819  38.891  1.00  0.00     0.055 A 
ATOM     42  C   UNL A   1      40.140  35.524  37.686  1.00  0.00     0.041 A 
ATOM     43  F   UNL A   1      40.896  35.097  35.511  1.00  0.00    -0.206 F 
ATOM     44  C   UNL A   1      39.463  35.116  38.831  1.00  0.00     0.022 A 
BRANCH  41  45
ATOM     45  S   UNL A   1      37.928  33.313  40.303  1.00  0.00     0.124 S 
ATOM     46  O   UNL A   1      38.664  32.152  40.798  1.00  0.00    -0.237 OA
ATOM     47  O   UNL A   1      37.957  34.497  41.156  1.00  0.00    -0.237 OA
ATOM     48  O   UNL A   1      36.631  33.011  39.701  1.00  0.00    -0.744 OA
ENDBRANCH  41  45
ENDBRANCH  24  38
BRANCH  25  49
ATOM     49  C   UNL A   1      41.033  27.522  28.603  1.00  0.00     0.023 A 
ATOM     50  C   UNL A   1      42.012  27.793  27.637  1.00  0.00     0.031 A 
ATOM     51  C   UNL A   1      40.249  26.364  28.452  1.00  0.00     0.131 A 
ATOM     52  C   UNL A   1      42.185  26.911  26.558  1.00  0.00     0.055 A 
ATOM     53  C   UNL A   1      40.449  25.473  27.398  1.00  0.00     0.041 A 
ATOM     54  F   UNL A   1      39.313  26.056  29.364  1.00  0.00    -0.206 F 
ATOM     55  C   UNL A   1      41.422  25.745  26.443  1.00  0.00     0.022 A 
BRANCH  52  56
ATOM     56  S   UNL A   1      43.439  27.296  25.304  1.00  0.00     0.124 S 
ATOM     57  O   UNL A   1      43.985  25.976  25.015  1.00  0.00    -0.237 OA
ATOM     58  O   UNL A   1      42.638  27.907  24.247  1.00  0.00    -0.237 OA
ATOM     59  O   UNL A   1      44.344  28.210  25.999  1.00  0.00    -0.744 OA
ENDBRANCH  52  56
ENDBRANCH  25  49
BRANCH  37  60
ATOM     60  C   UNL A   1      44.273  27.985  34.783  1.00  0.00     0.023 A 
ATOM     61  C   UNL A   1      44.092  26.720  35.364  1.00  0.00     0.031 A 
ATOM     62  C   UNL A   1      45.573  28.519  34.734  1.00  0.00     0.131 A 
ATOM     63  C   UNL A   1      45.196  26.034  35.892  1.00  0.00     0.055 A 
ATOM     64  C   UNL A   1      46.672  27.815  35.223  1.00  0.00     0.041 A 
ATOM     65  F   UNL A   1      45.794  29.725  34.187  1.00  0.00    -0.206 F 
ATOM     66  C   UNL A   1      46.486  26.566  35.809  1.00  0.00     0.022 A 
BRANCH  63  67
ATOM     67  S   UNL A   1      44.927  24.436  36.707  1.00  0.00     0.124 S 
ATOM     68  O   UNL A   1      46.194  23.756  36.458  1.00  0.00    -0.237 OA
ATOM     69  O   UNL A   1      44.671  24.823  38.090  1.00  0.00    -0.237 OA
ATOM     70  O   UNL A   1      43.775  23.881  35.998  1.00  0.00    -0.744 OA
ENDBRANCH  63  67
ENDBRANCH  37  60
ENDBRANCH  11  12
ENDBRANCH   4   6
ENDBRANCH   1   2
BRANCH   1  71
ATOM     71  C   UNL A   1      31.432  31.711  26.375  1.00  0.00     0.042 C 
BRANCH  71  72
ATOM     72  C   UNL A   1      31.488  30.239  25.994  1.00  0.00     0.118 C 
BRANCH  72  73
ATOM     73  N   UNL A   1      32.229  29.991  24.765  1.00  0.00    -0.352 N 
ATOM     74  C   UNL A   1      31.956  29.117  23.735  1.00  0.00     0.256 C 
ATOM     75  H   UNL A   1      33.046  30.527  24.653  1.00  0.00     0.163 HD
ATOM     76  O   UNL A   1      32.705  29.078  22.762  1.00  0.00    -0.269 OA
BRANCH  74  77
ATOM     77  C   UNL A   1      30.783  28.225  23.817  1.00  0.00     0.098 A 
ATOM     78  C   UNL A   1      29.575  28.734  23.323  1.00  0.00     0.138 A 
ATOM     79  C   UNL A   1      30.878  26.885  24.259  1.00  0.00     0.053 A 
ATOM     80  F   UNL A   1      29.503  29.987  22.844  1.00  0.00    -0.206 F 
ATOM     81  C   UNL A   1      28.415  27.974  23.332  1.00  0.00     0.040 A 
ATOM     82  C   UNL A   1      29.691  26.128  24.219  1.00  0.00     0.027 A 
ATOM     83  C   UNL A   1      28.471  26.665  23.787  1.00  0.00     0.005 A 
BRANCH  79  84
ATOM     84  N   UNL A   1      32.025  26.293  24.731  1.00  0.00    -0.365 N 
ATOM     85  C   UNL A   1      32.504  26.381  26.096  1.00  0.00     0.123 C 
ATOM     86  C   UNL A   1      32.955  25.530  23.890  1.00  0.00     0.181 C 
ATOM     87  C   UNL A   1      34.010  26.267  25.943  1.00  0.00     0.088 C 
ATOM     88  C   UNL A   1      34.226  25.296  24.776  1.00  0.00     0.205 C 
BRANCH  88  89
ATOM     89  N   UNL A   1      34.518  23.879  25.072  1.00  0.00    -0.331 N 
ATOM     90  C   UNL A   1      35.593  23.580  26.018  1.00  0.00     0.262 C 
ATOM     91  C   UNL A   1      34.558  22.998  23.900  1.00  0.00     0.262 C 
ATOM     92  H   UNL A   1      33.676  23.647  25.598  1.00  0.00     0.348 HD
ATOM     93  C   UNL A   1      36.994  23.490  25.407  1.00  0.00     0.062 C 
ATOM     94  C   UNL A   1      35.914  22.905  23.199  1.00  0.00     0.062 C 
ATOM     95  C   UNL A   1      37.039  22.592  24.178  1.00  0.00     0.012 C 
ENDBRANCH  88  89
ENDBRANCH  79  84
ENDBRANCH  74  77
ENDBRANCH  72  73
ENDBRANCH  71  72
ENDBRANCH   1  71
TORSDOF 15
ENDMDL
MODEL 2
REMARK VINA RESULT:     -12.4      1.333      1.506
REMARK SMILES O=C(NCCCNC(=O)c1c(F)cccc1N1CC[C@@H]([NH+]2CCCCC2)C1)c1ccc(-c2c3nc(c(-c4cc(S(=O)(=O)[O-])ccc4F)c4ccc([nH]4)c(-c4cc(S(=O)(=O)[O-])ccc4F)c4nc(c(-c5cc(S(=O)(=O)[O-])ccc5F)c5ccc2[nH]5)C=C4)C=C3)cc1
REMARK SMILES IDX 4 1 3 2 1 3 2 4 28 6 29 7 90 8 30 9 89 10 31 11 32 12 33 13
REMARK SMILES IDX 83 14 34 15 88 16 82 17 84 18 35 19 87 20 81 21 80 22 36 24
REMARK SMILES IDX 68 25 48 26 67 27 49 28 52 29 66 30 85 31 50 32 51 33 65 35
REMARK SMILES IDX 86 36 53 37 37 38 38 39 46 40 39 41 45 42 47 43 44 44 40 45
REMARK SMILES IDX 41 46 42 47 43 48 69 49 70 50 78 51 71 52 77 53 79 54 76 55
REMARK SMILES IDX 72 56 73 57 74 58 75 59 54 60 55 61 63 62 56 63 62 64 64 65
REMARK SMILES IDX 61 66 57 67 58 68 59 69 60 70 5 71 6 72 7 73 8 74 9 76 10 77
REMARK SMILES IDX 11 78 16 79 12 80 13 81 15 82 14 83 17 84 18 85 27 86 19 87
REMARK SMILES IDX 20 88 21 89 22 90 26 91 23 93 25 94 24 95
REMARK H PARENT 3 5 84 23 52 34 7 75 21 92
REMARK Flexibility Score: inf
ROOT
ATOM      1  C   UNL A   1      32.748  32.202  27.093  1.00  0.00     0.118 C 
ENDROOT
BRANCH   1   2
ATOM      2  N   UNL A   1      32.586  33.573  27.565  1.00  0.00    -0.352 N 
ATOM      3  O   UNL A   1      32.819  35.391  28.862  1.00  0.00    -0.269 OA
ATOM      4  C   UNL A   1      33.244  34.285  28.543  1.00  0.00     0.251 C 
ATOM      5  H   UNL A   1      31.881  34.079  27.102  1.00  0.00     0.163 HD
BRANCH   4   6
ATOM      6  C   UNL A   1      34.436  33.729  29.225  1.00  0.00     0.039 A 
ATOM      7  C   UNL A   1      35.716  34.184  28.923  1.00  0.00     0.014 A 
ATOM      8  C   UNL A   1      34.266  32.758  30.221  1.00  0.00     0.014 A 
ATOM      9  C   UNL A   1      36.824  33.543  29.462  1.00  0.00     0.010 A 
ATOM     10  C   UNL A   1      35.384  32.196  30.853  1.00  0.00     0.010 A 
ATOM     11  C   UNL A   1      36.676  32.555  30.450  1.00  0.00    -0.014 A 
BRANCH  11  12
ATOM     12  C   UNL A   1      37.902  31.983  31.070  1.00  0.00     0.031 A 
ATOM     13  C   UNL A   1      38.340  32.374  32.454  1.00  0.00     0.074 A 
ATOM     14  C   UNL A   1      38.576  31.031  30.392  1.00  0.00     0.049 A 
ATOM     15  N   UNL A   1      39.319  31.885  33.173  1.00  0.00    -0.248 NA
ATOM     16  C   UNL A   1      37.596  33.455  33.117  1.00  0.00     0.031 C 
ATOM     17  C   UNL A   1      38.250  30.581  29.035  1.00  0.00     0.029 A 
ATOM     18  N   UNL A   1      39.630  30.234  30.759  1.00  0.00    -0.354 N 
ATOM     19  C   UNL A   1      39.322  32.606  34.361  1.00  0.00     0.074 A 
ATOM     20  C   UNL A   1      38.263  33.588  34.256  1.00  0.00     0.031 C 
ATOM     21  C   UNL A   1      39.018  29.530  28.724  1.00  0.00     0.029 A 
ATOM     22  C   UNL A   1      39.946  29.279  29.821  1.00  0.00     0.049 A 
ATOM     23  H   UNL A   1      40.113  30.336  31.610  1.00  0.00     0.167 HD
ATOM     24  C   UNL A   1      40.130  32.456  35.441  1.00  0.00     0.034 A 
ATOM     25  C   UNL A   1      40.880  28.308  29.830  1.00  0.00     0.034 A 
ATOM     26  C   UNL A   1      41.169  31.460  35.537  1.00  0.00     0.049 A 
ATOM     27  C   UNL A   1      41.778  28.178  31.023  1.00  0.00     0.074 A 
ATOM     28  C   UNL A   1      42.009  31.194  36.604  1.00  0.00     0.029 A 
ATOM     29  N   UNL A   1      41.518  30.570  34.528  1.00  0.00    -0.354 N 
ATOM     30  N   UNL A   1      41.767  28.872  32.136  1.00  0.00    -0.248 NA
ATOM     31  C   UNL A   1      42.823  27.150  30.960  1.00  0.00     0.031 C 
ATOM     32  C   UNL A   1      42.908  30.195  36.219  1.00  0.00     0.029 A 
ATOM     33  C   UNL A   1      42.585  29.784  34.936  1.00  0.00     0.049 A 
ATOM     34  H   UNL A   1      41.074  30.509  33.652  1.00  0.00     0.167 HD
ATOM     35  C   UNL A   1      42.802  28.363  32.910  1.00  0.00     0.074 A 
ATOM     36  C   UNL A   1      43.413  27.297  32.140  1.00  0.00     0.031 C 
ATOM     37  C   UNL A   1      43.205  28.745  34.148  1.00  0.00     0.034 A 
BRANCH  24  38
ATOM     38  C   UNL A   1      39.951  33.414  36.592  1.00  0.00     0.023 A 
ATOM     39  C   UNL A   1      40.832  34.488  36.807  1.00  0.00     0.031 A 
ATOM     40  C   UNL A   1      38.871  33.258  37.478  1.00  0.00     0.131 A 
ATOM     41  C   UNL A   1      40.642  35.337  37.910  1.00  0.00     0.055 A 
ATOM     42  C   UNL A   1      38.651  34.143  38.535  1.00  0.00     0.041 A 
ATOM     43  F   UNL A   1      38.009  32.240  37.330  1.00  0.00    -0.206 F 
ATOM     44  C   UNL A   1      39.545  35.185  38.761  1.00  0.00     0.022 A 
BRANCH  41  45
ATOM     45  S   UNL A   1      41.905  36.587  38.273  1.00  0.00     0.124 S 
ATOM     46  O   UNL A   1      42.334  36.972  36.930  1.00  0.00    -0.237 OA
ATOM     47  O   UNL A   1      41.152  37.593  39.014  1.00  0.00    -0.237 OA
ATOM     48  O   UNL A   1      42.901  35.854  39.052  1.00  0.00    -0.744 OA
ENDBRANCH  41  45
ENDBRANCH  24  38
BRANCH  25  49
ATOM     49  C   UNL A   1      41.009  27.415  28.648  1.00  0.00     0.023 A 
ATOM     50  C   UNL A   1      41.994  27.638  27.674  1.00  0.00     0.031 A 
ATOM     51  C   UNL A   1      40.194  26.276  28.523  1.00  0.00     0.131 A 
ATOM     52  C   UNL A   1      42.140  26.729  26.613  1.00  0.00     0.055 A 
ATOM     53  C   UNL A   1      40.366  25.358  27.487  1.00  0.00     0.041 A 
ATOM     54  F   UNL A   1      39.251  26.013  29.442  1.00  0.00    -0.206 F 
ATOM     55  C   UNL A   1      41.344  25.583  26.525  1.00  0.00     0.022 A 
BRANCH  52  56
ATOM     56  S   UNL A   1      43.400  27.053  25.350  1.00  0.00     0.124 S 
ATOM     57  O   UNL A   1      43.736  25.704  24.913  1.00  0.00    -0.237 OA
ATOM     58  O   UNL A   1      42.669  27.877  24.391  1.00  0.00    -0.237 OA
ATOM     59  O   UNL A   1      44.450  27.751  26.089  1.00  0.00    -0.744 OA
ENDBRANCH  52  56
ENDBRANCH  25  49
BRANCH  37  60
ATOM     60  C   UNL A   1      44.357  27.997  34.760  1.00  0.00     0.023 A 
ATOM     61  C   UNL A   1      44.154  26.837  35.524  1.00  0.00     0.031 A 
ATOM     62  C   UNL A   1      45.676  28.423  34.526  1.00  0.00     0.131 A 
ATOM     63  C   UNL A   1      45.259  26.148  36.047  1.00  0.00     0.055 A 
ATOM     64  C   UNL A   1      46.772  27.711  35.013  1.00  0.00     0.041 A 
ATOM     65  F   UNL A   1      45.919  29.526  33.800  1.00  0.00    -0.206 F 
ATOM     66  C   UNL A   1      46.566  26.568  35.780  1.00  0.00     0.022 A 
BRANCH  63  67
ATOM     67  S   UNL A   1      44.970  24.696  37.095  1.00  0.00     0.124 S 
ATOM     68  O   UNL A   1      46.214  24.623  37.854  1.00  0.00    -0.237 OA
ATOM     69  O   UNL A   1      43.783  25.080  37.850  1.00  0.00    -0.237 OA
ATOM     70  O   UNL A   1      44.766  23.615  36.132  1.00  0.00    -0.744 OA
ENDBRANCH  63  67
ENDBRANCH  37  60
ENDBRANCH  11  12
ENDBRANCH   4   6
ENDBRANCH   1   2
BRANCH   1  71
ATOM     71  C   UNL A   1      31.498  31.640  26.430  1.00  0.00     0.042 C 
BRANCH  71  72
ATOM     72  C   UNL A   1      31.595  30.171  26.049  1.00  0.00     0.118 C 
BRANCH  72  73
ATOM     73  N   UNL A   1      32.325  29.945  24.808  1.00  0.00    -0.352 N 
ATOM     74  C   UNL A   1      32.029  29.108  23.755  1.00  0.00     0.256 C 
ATOM     75  H   UNL A   1      33.152  30.469  24.708  1.00  0.00     0.163 HD
ATOM     76  O   UNL A   1      32.773  29.083  22.776  1.00  0.00    -0.269 OA
BRANCH  74  77
ATOM     77  C   UNL A   1      30.840  28.237  23.816  1.00  0.00     0.098 A 
ATOM     78  C   UNL A   1      29.635  28.792  23.365  1.00  0.00     0.138 A 
ATOM     79  C   UNL A   1      30.913  26.877  24.196  1.00  0.00     0.053 A 
ATOM     80  F   UNL A   1      29.582  30.067  22.945  1.00  0.00    -0.206 F 
ATOM     81  C   UNL A   1      28.459  28.056  23.360  1.00  0.00     0.040 A 
ATOM     82  C   UNL A   1      29.710  26.146  24.142  1.00  0.00     0.027 A 
ATOM     83  C   UNL A   1      28.496  26.727  23.755  1.00  0.00     0.005 A 
BRANCH  79  84
ATOM     84  N   UNL A   1      32.055  26.241  24.621  1.00  0.00    -0.365 N 
ATOM     85  C   UNL A   1      32.565  26.269  25.978  1.00  0.00     0.123 C 
ATOM     86  C   UNL A   1      32.948  25.487  23.734  1.00  0.00     0.181 C 
ATOM     87  C   UNL A   1      34.064  26.124  25.788  1.00  0.00     0.088 C 
ATOM     88  C   UNL A   1      34.231  25.191  24.583  1.00  0.00     0.205 C 
BRANCH  88  89
ATOM     89  N   UNL A   1      34.495  23.758  24.822  1.00  0.00    -0.331 N 
ATOM     90  C   UNL A   1      35.286  23.389  25.996  1.00  0.00     0.262 C 
ATOM     91  C   UNL A   1      34.889  22.995  23.633  1.00  0.00     0.262 C 
ATOM     92  H   UNL A   1      33.553  23.461  25.076  1.00  0.00     0.348 HD
ATOM     93  C   UNL A   1      36.802  23.383  25.785  1.00  0.00     0.062 C 
ATOM     94  C   UNL A   1      36.386  22.994  23.324  1.00  0.00     0.062 C 
ATOM     95  C   UNL A   1      37.217  22.609  24.541  1.00  0.00     0.012 C 
ENDBRANCH  88  89
ENDBRANCH  79  84
ENDBRANCH  74  77
ENDBRANCH  72  73
ENDBRANCH  71  72
ENDBRANCH   1  71
TORSDOF 15
ENDMDL
MODEL 3
REMARK VINA RESULT:     -12.4      2.329      4.102
REMARK SMILES O=C(NCCCNC(=O)c1c(F)cccc1N1CC[C@@H]([NH+]2CCCCC2)C1)c1ccc(-c2c3nc(c(-c4cc(S(=O)(=O)[O-])ccc4F)c4ccc([nH]4)c(-c4cc(S(=O)(=O)[O-])ccc4F)c4nc(c(-c5cc(S(=O)(=O)[O-])ccc5F)c5ccc2[nH]5)C=C4)C=C3)cc1
REMARK SMILES IDX 4 1 3 2 1 3 2 4 28 6 29 7 90 8 30 9 89 10 31 11 32 12 33 13
REMARK SMILES IDX 83 14 34 15 88 16 82 17 84 18 35 19 87 20 81 21 80 22 36 24
REMARK SMILES IDX 68 25 48 26 67 27 49 28 52 29 66 30 85 31 50 32 51 33 65 35
REMARK SMILES IDX 86 36 53 37 37 38 38 39 46 40 39 41 45 42 47 43 44 44 40 45
REMARK SMILES IDX 41 46 42 47 43 48 69 49 70 50 78 51 71 52 77 53 79 54 76 55
REMARK SMILES IDX 72 56 73 57 74 58 75 59 54 60 55 61 63 62 56 63 62 64 64 65
REMARK SMILES IDX 61 66 57 67 58 68 59 69 60 70 5 71 6 72 7 73 8 74 9 76 10 77
REMARK SMILES IDX 11 78 16 79 12 80 13 81 15 82 14 83 17 84 18 85 27 86 19 87
REMARK SMILES IDX 20 88 21 89 22 90 26 91 23 93 25 94 24 95
REMARK H PARENT 3 5 84 23 52 34 7 75 21 92
REMARK Flexibility Score: inf
ROOT
ATOM      1  C   UNL A   1      33.335  29.287  25.130  1.00  0.00     0.118 C 
ENDROOT
BRANCH   1   2
ATOM      2  N   UNL A   1      32.732  30.448  25.778  1.00  0.00    -0.352 N 
ATOM      3  O   UNL A   1      32.342  32.021  27.331  1.00  0.00    -0.269 OA
ATOM      4  C   UNL A   1      33.106  31.168  26.891  1.00  0.00     0.251 C 
ATOM      5  H   UNL A   1      31.912  30.773  25.342  1.00  0.00     0.163 HD
BRANCH   4   6
ATOM      6  C   UNL A   1      34.397  30.914  27.569  1.00  0.00     0.039 A 
ATOM      7  C   UNL A   1      34.711  29.656  28.075  1.00  0.00     0.014 A 
ATOM      8  C   UNL A   1      35.336  31.950  27.668  1.00  0.00     0.014 A 
ATOM      9  C   UNL A   1      35.858  29.482  28.839  1.00  0.00     0.010 A 
ATOM     10  C   UNL A   1      36.549  31.739  28.337  1.00  0.00     0.010 A 
ATOM     11  C   UNL A   1      36.804  30.513  28.964  1.00  0.00    -0.014 A 
BRANCH  11  12
ATOM     12  C   UNL A   1      38.065  30.232  29.702  1.00  0.00     0.031 A 
ATOM     13  C   UNL A   1      38.265  30.687  31.122  1.00  0.00     0.074 A 
ATOM     14  C   UNL A   1      39.006  29.480  29.096  1.00  0.00     0.049 A 
ATOM     15  N   UNL A   1      39.258  30.428  31.934  1.00  0.00    -0.248 NA
ATOM     16  C   UNL A   1      37.227  31.549  31.706  1.00  0.00     0.031 C 
ATOM     17  C   UNL A   1      38.927  28.993  27.715  1.00  0.00     0.029 A 
ATOM     18  N   UNL A   1      40.179  28.946  29.566  1.00  0.00    -0.354 N 
ATOM     19  C   UNL A   1      38.977  31.106  33.114  1.00  0.00     0.074 A 
ATOM     20  C   UNL A   1      37.732  31.813  32.904  1.00  0.00     0.031 C 
ATOM     21  C   UNL A   1      39.947  28.159  27.483  1.00  0.00     0.029 A 
ATOM     22  C   UNL A   1      40.800  28.111  28.666  1.00  0.00     0.049 A 
ATOM     23  H   UNL A   1      40.541  29.141  30.461  1.00  0.00     0.167 HD
ATOM     24  C   UNL A   1      39.691  31.128  34.268  1.00  0.00     0.034 A 
ATOM     25  C   UNL A   1      41.931  27.388  28.769  1.00  0.00     0.034 A 
ATOM     26  C   UNL A   1      40.922  30.402  34.467  1.00  0.00     0.049 A 
ATOM     27  C   UNL A   1      42.717  27.448  30.045  1.00  0.00     0.074 A 
ATOM     28  C   UNL A   1      41.695  30.321  35.613  1.00  0.00     0.029 A 
ATOM     29  N   UNL A   1      41.566  29.641  33.500  1.00  0.00    -0.354 N 
ATOM     30  N   UNL A   1      42.436  28.097  31.150  1.00  0.00    -0.248 NA
ATOM     31  C   UNL A   1      43.976  26.697  30.087  1.00  0.00     0.031 C 
ATOM     32  C   UNL A   1      42.837  29.569  35.320  1.00  0.00     0.029 A 
ATOM     33  C   UNL A   1      42.745  29.119  34.013  1.00  0.00     0.049 A 
ATOM     34  H   UNL A   1      41.235  29.495  32.585  1.00  0.00     0.167 HD
ATOM     35  C   UNL A   1      43.483  27.831  32.022  1.00  0.00     0.074 A 
ATOM     36  C   UNL A   1      44.400  26.955  31.318  1.00  0.00     0.031 C 
ATOM     37  C   UNL A   1      43.664  28.272  33.292  1.00  0.00     0.034 A 
BRANCH  24  38
ATOM     38  C   UNL A   1      39.182  31.994  35.393  1.00  0.00     0.023 A 
ATOM     39  C   UNL A   1      38.531  31.450  36.513  1.00  0.00     0.031 A 
ATOM     40  C   UNL A   1      39.369  33.387  35.350  1.00  0.00     0.131 A 
ATOM     41  C   UNL A   1      38.049  32.299  37.523  1.00  0.00     0.055 A 
ATOM     42  C   UNL A   1      38.944  34.220  36.387  1.00  0.00     0.041 A 
ATOM     43  F   UNL A   1      39.969  33.962  34.296  1.00  0.00    -0.206 F 
ATOM     44  C   UNL A   1      38.271  33.677  37.477  1.00  0.00     0.022 A 
BRANCH  41  45
ATOM     45  S   UNL A   1      37.041  31.586  38.852  1.00  0.00     0.124 S 
ATOM     46  O   UNL A   1      36.851  30.217  38.377  1.00  0.00    -0.237 OA
ATOM     47  O   UNL A   1      37.901  31.743  40.020  1.00  0.00    -0.237 OA
ATOM     48  O   UNL A   1      35.835  32.413  38.850  1.00  0.00    -0.744 OA
ENDBRANCH  41  45
ENDBRANCH  24  38
BRANCH  25  49
ATOM     49  C   UNL A   1      42.380  26.574  27.608  1.00  0.00     0.023 A 
ATOM     50  C   UNL A   1      42.078  25.208  27.519  1.00  0.00     0.031 A 
ATOM     51  C   UNL A   1      43.054  27.180  26.531  1.00  0.00     0.131 A 
ATOM     52  C   UNL A   1      42.448  24.488  26.370  1.00  0.00     0.055 A 
ATOM     53  C   UNL A   1      43.387  26.469  25.379  1.00  0.00     0.041 A 
ATOM     54  F   UNL A   1      43.346  28.490  26.566  1.00  0.00    -0.206 F 
ATOM     55  C   UNL A   1      43.084  25.115  25.295  1.00  0.00     0.022 A 
BRANCH  52  56
ATOM     56  S   UNL A   1      42.073  22.716  26.289  1.00  0.00     0.124 S 
ATOM     57  O   UNL A   1      40.616  22.720  26.311  1.00  0.00    -0.237 OA
ATOM     58  O   UNL A   1      42.696  22.327  25.028  1.00  0.00    -0.237 OA
ATOM     59  O   UNL A   1      42.716  22.178  27.487  1.00  0.00    -0.744 OA
ENDBRANCH  52  56
ENDBRANCH  25  49
BRANCH  37  60
ATOM     60  C   UNL A   1      44.896  27.804  34.016  1.00  0.00     0.023 A 
ATOM     61  C   UNL A   1      44.896  26.623  34.775  1.00  0.00     0.031 A 
ATOM     62  C   UNL A   1      46.099  28.523  33.895  1.00  0.00     0.131 A 
ATOM     63  C   UNL A   1      46.078  26.202  35.405  1.00  0.00     0.055 A 
ATOM     64  C   UNL A   1      47.279  28.077  34.489  1.00  0.00     0.041 A 
ATOM     65  F   UNL A   1      46.148  29.656  33.178  1.00  0.00    -0.206 F 
ATOM     66  C   UNL A   1      47.272  26.912  35.250  1.00  0.00     0.022 A 
BRANCH  63  67
ATOM     67  S   UNL A   1      46.035  24.716  36.443  1.00  0.00     0.124 S 
ATOM     68  O   UNL A   1      47.429  24.287  36.411  1.00  0.00    -0.237 OA
ATOM     69  O   UNL A   1      45.556  25.234  37.720  1.00  0.00    -0.237 OA
ATOM     70  O   UNL A   1      45.099  23.837  35.744  1.00  0.00    -0.744 OA
ENDBRANCH  63  67
ENDBRANCH  37  60
ENDBRANCH  11  12
ENDBRANCH   4   6
ENDBRANCH   1   2
BRANCH   1  71
ATOM     71  C   UNL A   1      32.967  27.967  25.791  1.00  0.00     0.042 C 
BRANCH  71  72
ATOM     72  C   UNL A   1      33.663  26.752  25.198  1.00  0.00     0.118 C 
BRANCH  72  73
ATOM     73  N   UNL A   1      33.973  26.899  23.782  1.00  0.00    -0.352 N 
ATOM     74  C   UNL A   1      33.561  26.142  22.708  1.00  0.00     0.256 C 
ATOM     75  H   UNL A   1      34.566  27.652  23.561  1.00  0.00     0.163 HD
ATOM     76  O   UNL A   1      33.922  26.454  21.576  1.00  0.00    -0.269 OA
BRANCH  74  77
ATOM     77  C   UNL A   1      32.709  24.957  22.926  1.00  0.00     0.098 A 
ATOM     78  C   UNL A   1      33.357  23.714  22.937  1.00  0.00     0.138 A 
ATOM     79  C   UNL A   1      31.330  25.057  23.224  1.00  0.00     0.053 A 
ATOM     80  F   UNL A   1      34.679  23.628  22.715  1.00  0.00    -0.206 F 
ATOM     81  C   UNL A   1      32.656  22.537  23.152  1.00  0.00     0.040 A 
ATOM     82  C   UNL A   1      30.655  23.847  23.478  1.00  0.00     0.027 A 
ATOM     83  C   UNL A   1      31.297  22.603  23.420  1.00  0.00     0.005 A 
BRANCH  79  84
ATOM     84  N   UNL A   1      30.620  26.232  23.266  1.00  0.00    -0.365 N 
ATOM     85  C   UNL A   1      29.817  26.678  24.388  1.00  0.00     0.123 C 
ATOM     86  C   UNL A   1      30.537  27.177  22.146  1.00  0.00     0.181 C 
ATOM     87  C   UNL A   1      28.733  27.513  23.729  1.00  0.00     0.088 C 
ATOM     88  C   UNL A   1      29.418  28.200  22.542  1.00  0.00     0.205 C 
BRANCH  88  89
ATOM     89  N   UNL A   1      29.883  29.593  22.696  1.00  0.00    -0.331 N 
ATOM     90  C   UNL A   1      29.408  30.355  23.851  1.00  0.00     0.262 C 
ATOM     91  C   UNL A   1      29.863  30.392  21.467  1.00  0.00     0.262 C 
ATOM     92  H   UNL A   1      30.861  29.412  22.926  1.00  0.00     0.348 HD
ATOM     93  C   UNL A   1      28.074  31.079  23.651  1.00  0.00     0.062 C 
ATOM     94  C   UNL A   1      28.540  31.098  21.168  1.00  0.00     0.062 C 
ATOM     95  C   UNL A   1      28.039  31.895  22.365  1.00  0.00     0.012 C 
ENDBRANCH  88  89
ENDBRANCH  79  84
ENDBRANCH  74  77
ENDBRANCH  72  73
ENDBRANCH  71  72
ENDBRANCH   1  71
TORSDOF 15
ENDMDL
