MODEL 1
REMARK VINA RESULT:     -11.5      0.000      0.000
REMARK SMILES CCC[C@H](Oc1ccccc1C)C(=O)NCCCNC(=O)c1ccc(-c2c3nc(c(-c4cc(S(=O)(=O)[O-])ccc4F)c4ccc([nH]4)c(-c4cc(S(=O)(=O)[O-])ccc4F)c4nc(c(-c5cc(S(=O)(=O)[O-])ccc5F)c5ccc2[nH]5)C=C4)C=C3)cc1
REMARK SMILES IDX 17 1 16 2 15 3 13 4 14 5 4 7 3 8 2 9 1 10 5 11 6 12 7 13
REMARK SMILES IDX 11 14 8 15 10 16 12 17 9 18 18 19 19 20 20 21 21 23 22 24
REMARK SMILES IDX 23 25 84 26 24 27 83 28 25 29 26 30 27 31 77 32 28 33 82 34
REMARK SMILES IDX 76 35 78 36 29 37 81 38 75 39 74 40 30 42 62 43 42 44 61 45
REMARK SMILES IDX 43 46 46 47 60 48 79 49 44 50 45 51 59 53 80 54 47 55 31 56
REMARK SMILES IDX 32 57 40 58 33 59 39 60 41 61 38 62 34 63 35 64 36 65 37 66
REMARK SMILES IDX 63 67 64 68 72 69 65 70 71 71 73 72 70 73 66 74 67 75 68 76
REMARK SMILES IDX 69 77 48 78 49 79 57 80 50 81 56 82 58 83 55 84 51 85 52 86
REMARK SMILES IDX 53 87 54 88
REMARK H PARENT 15 6 19 22 78 41 46 52
REMARK Flexibility Score: inf
ROOT
ATOM      1  C   UNL A   1      33.122  30.273  27.457  1.00  0.00     0.042 C 
ENDROOT
BRANCH   1   2
ATOM      2  C   UNL A   1      32.267  30.132  26.209  1.00  0.00     0.118 C 
BRANCH   2   3
ATOM      3  N   UNL A   1      33.069  29.987  25.002  1.00  0.00    -0.353 N 
ATOM      4  C   UNL A   1      33.165  28.942  24.125  1.00  0.00     0.261 C 
ATOM      5  O   UNL A   1      33.973  28.993  23.193  1.00  0.00    -0.271 OA
ATOM      6  H   UNL A   1      33.630  30.765  24.782  1.00  0.00     0.163 HD
BRANCH   4   7
ATOM      7  C   UNL A   1      32.225  27.725  24.254  1.00  0.00     0.261 C 
BRANCH   7   8
ATOM      8  C   UNL A   1      33.050  26.454  24.550  1.00  0.00     0.055 C 
BRANCH   8   9
ATOM      9  C   UNL A   1      32.232  25.265  25.061  1.00  0.00     0.001 C 
ATOM     10  C   UNL A   1      31.780  25.434  26.500  1.00  0.00     0.004 C 
ENDBRANCH   8   9
ENDBRANCH   7   8
BRANCH   7  11
ATOM     11  O   UNL A   1      31.475  27.592  23.038  1.00  0.00    -0.480 OA
BRANCH  11  12
ATOM     12  C   UNL A   1      30.370  28.372  22.823  1.00  0.00     0.123 A 
ATOM     13  C   UNL A   1      30.371  29.630  22.216  1.00  0.00     0.047 A 
ATOM     14  C   UNL A   1      29.146  27.834  23.268  1.00  0.00    -0.009 A 
ATOM     15  C   UNL A   1      29.187  30.361  22.075  1.00  0.00     0.004 A 
ATOM     16  C   UNL A   1      27.962  28.576  23.123  1.00  0.00     0.007 A 
ATOM     17  C   UNL A   1      29.086  26.463  23.880  1.00  0.00     0.048 C 
ATOM     18  C   UNL A   1      27.984  29.839  22.534  1.00  0.00     0.001 A 
ENDBRANCH  11  12
ENDBRANCH   7  11
ENDBRANCH   4   7
ENDBRANCH   2   3
ENDBRANCH   1   2
BRANCH   1  19
ATOM     19  C   UNL A   1      34.614  30.339  27.166  1.00  0.00     0.118 C 
BRANCH  19  20
ATOM     20  N   UNL A   1      35.329  31.275  28.039  1.00  0.00    -0.352 N 
ATOM     21  C   UNL A   1      36.542  31.086  28.680  1.00  0.00     0.251 C 
ATOM     22  H   UNL A   1      34.893  32.143  28.189  1.00  0.00     0.163 HD
ATOM     23  O   UNL A   1      37.065  31.944  29.374  1.00  0.00    -0.269 OA
BRANCH  21  24
ATOM     24  C   UNL A   1      37.258  29.823  28.402  1.00  0.00     0.039 A 
ATOM     25  C   UNL A   1      37.422  28.942  29.473  1.00  0.00     0.014 A 
ATOM     26  C   UNL A   1      38.014  29.702  27.237  1.00  0.00     0.014 A 
ATOM     27  C   UNL A   1      38.516  28.086  29.475  1.00  0.00     0.010 A 
ATOM     28  C   UNL A   1      39.148  28.910  27.277  1.00  0.00     0.010 A 
ATOM     29  C   UNL A   1      39.438  28.168  28.430  1.00  0.00    -0.014 A 
BRANCH  29  30
ATOM     30  C   UNL A   1      40.797  27.647  28.560  1.00  0.00     0.031 A 
ATOM     31  C   UNL A   1      41.100  26.237  28.251  1.00  0.00     0.074 A 
ATOM     32  C   UNL A   1      41.789  28.444  29.018  1.00  0.00     0.049 A 
ATOM     33  N   UNL A   1      42.085  25.578  28.765  1.00  0.00    -0.248 NA
ATOM     34  C   UNL A   1      40.237  25.414  27.412  1.00  0.00     0.031 C 
ATOM     35  C   UNL A   1      43.222  28.157  29.031  1.00  0.00     0.029 A 
ATOM     36  N   UNL A   1      41.648  29.561  29.845  1.00  0.00    -0.354 N 
ATOM     37  C   UNL A   1      42.183  24.390  28.085  1.00  0.00     0.074 A 
ATOM     38  C   UNL A   1      40.922  24.266  27.402  1.00  0.00     0.031 C 
ATOM     39  C   UNL A   1      43.792  28.861  30.020  1.00  0.00     0.029 A 
ATOM     40  C   UNL A   1      42.728  29.528  30.748  1.00  0.00     0.049 A 
ATOM     41  H   UNL A   1      40.932  30.237  29.805  1.00  0.00     0.167 HD
ATOM     42  C   UNL A   1      43.386  23.748  28.047  1.00  0.00     0.034 A 
ATOM     43  C   UNL A   1      42.537  29.477  32.095  1.00  0.00     0.034 A 
ATOM     44  C   UNL A   1      44.301  24.261  29.081  1.00  0.00     0.049 A 
ATOM     45  C   UNL A   1      43.195  28.298  32.764  1.00  0.00     0.074 A 
ATOM     46  C   UNL A   1      45.486  24.978  29.045  1.00  0.00     0.029 A 
ATOM     47  N   UNL A   1      43.909  24.235  30.421  1.00  0.00    -0.354 N 
ATOM     48  N   UNL A   1      43.637  27.244  32.137  1.00  0.00    -0.248 NA
ATOM     49  C   UNL A   1      43.375  28.207  34.208  1.00  0.00     0.031 C 
ATOM     50  C   UNL A   1      45.768  25.431  30.365  1.00  0.00     0.029 A 
ATOM     51  C   UNL A   1      44.778  24.962  31.212  1.00  0.00     0.049 A 
ATOM     52  H   UNL A   1      43.116  23.759  30.759  1.00  0.00     0.167 HD
ATOM     53  C   UNL A   1      44.108  26.328  33.047  1.00  0.00     0.074 A 
ATOM     54  C   UNL A   1      43.952  27.001  34.327  1.00  0.00     0.031 C 
ATOM     55  C   UNL A   1      44.557  25.095  32.655  1.00  0.00     0.034 A 
BRANCH  42  56
ATOM     56  C   UNL A   1      43.842  22.830  26.909  1.00  0.00     0.023 A 
ATOM     57  C   UNL A   1      43.203  21.579  26.739  1.00  0.00     0.031 A 
ATOM     58  C   UNL A   1      44.957  23.032  26.060  1.00  0.00     0.131 A 
ATOM     59  C   UNL A   1      43.687  20.612  25.829  1.00  0.00     0.055 A 
ATOM     60  C   UNL A   1      45.413  22.087  25.130  1.00  0.00     0.041 A 
ATOM     61  F   UNL A   1      45.712  24.131  26.089  1.00  0.00    -0.206 F 
ATOM     62  C   UNL A   1      44.787  20.865  25.018  1.00  0.00     0.022 A 
BRANCH  59  63
ATOM     63  S   UNL A   1      42.908  18.974  25.755  1.00  0.00     0.124 S 
ATOM     64  O   UNL A   1      43.693  18.307  24.722  1.00  0.00    -0.237 OA
ATOM     65  O   UNL A   1      43.077  18.487  27.119  1.00  0.00    -0.237 OA
ATOM     66  O   UNL A   1      41.525  19.273  25.377  1.00  0.00    -0.744 OA
ENDBRANCH  59  63
ENDBRANCH  42  56
BRANCH  43  67
ATOM     67  C   UNL A   1      41.289  30.145  32.555  1.00  0.00     0.023 A 
ATOM     68  C   UNL A   1      41.294  31.553  32.586  1.00  0.00     0.031 A 
ATOM     69  C   UNL A   1      40.050  29.494  32.592  1.00  0.00     0.131 A 
ATOM     70  C   UNL A   1      40.096  32.267  32.463  1.00  0.00     0.055 A 
ATOM     71  C   UNL A   1      38.849  30.215  32.556  1.00  0.00     0.041 A 
ATOM     72  F   UNL A   1      39.979  28.155  32.536  1.00  0.00    -0.206 F 
ATOM     73  C   UNL A   1      38.868  31.606  32.443  1.00  0.00     0.022 A 
BRANCH  70  74
ATOM     74  S   UNL A   1      40.199  34.020  32.004  1.00  0.00     0.124 S 
ATOM     75  O   UNL A   1      39.805  34.690  33.236  1.00  0.00    -0.237 OA
ATOM     76  O   UNL A   1      41.604  34.160  31.618  1.00  0.00    -0.237 OA
ATOM     77  O   UNL A   1      39.267  34.149  30.887  1.00  0.00    -0.744 OA
ENDBRANCH  70  74
ENDBRANCH  43  67
BRANCH  55  78
ATOM     78  C   UNL A   1      44.908  23.932  33.576  1.00  0.00     0.023 A 
ATOM     79  C   UNL A   1      46.219  23.549  33.903  1.00  0.00     0.031 A 
ATOM     80  C   UNL A   1      43.892  23.175  34.212  1.00  0.00     0.131 A 
ATOM     81  C   UNL A   1      46.486  22.438  34.729  1.00  0.00     0.055 A 
ATOM     82  C   UNL A   1      44.156  22.109  35.084  1.00  0.00     0.041 A 
ATOM     83  F   UNL A   1      42.591  23.444  34.034  1.00  0.00    -0.206 F 
ATOM     84  C   UNL A   1      45.462  21.721  35.334  1.00  0.00     0.022 A 
BRANCH  81  85
ATOM     85  S   UNL A   1      48.213  21.926  34.950  1.00  0.00     0.124 S 
ATOM     86  O   UNL A   1      48.939  23.029  34.328  1.00  0.00    -0.237 OA
ATOM     87  O   UNL A   1      48.328  21.833  36.402  1.00  0.00    -0.237 OA
ATOM     88  O   UNL A   1      48.292  20.651  34.239  1.00  0.00    -0.744 OA
ENDBRANCH  81  85
ENDBRANCH  55  78
ENDBRANCH  29  30
ENDBRANCH  21  24
ENDBRANCH  19  20
ENDBRANCH   1  19
TORSDOF 17
ENDMDL
MODEL 2
REMARK VINA RESULT:     -11.5      4.765     11.190
REMARK SMILES CCC[C@H](Oc1ccccc1C)C(=O)NCCCNC(=O)c1ccc(-c2c3nc(c(-c4cc(S(=O)(=O)[O-])ccc4F)c4ccc([nH]4)c(-c4cc(S(=O)(=O)[O-])ccc4F)c4nc(c(-c5cc(S(=O)(=O)[O-])ccc5F)c5ccc2[nH]5)C=C4)C=C3)cc1
REMARK SMILES IDX 17 1 16 2 15 3 13 4 14 5 4 7 3 8 2 9 1 10 5 11 6 12 7 13
REMARK SMILES IDX 11 14 8 15 10 16 12 17 9 18 18 19 19 20 20 21 21 23 22 24
REMARK SMILES IDX 23 25 84 26 24 27 83 28 25 29 26 30 27 31 77 32 28 33 82 34
REMARK SMILES IDX 76 35 78 36 29 37 81 38 75 39 74 40 30 42 62 43 42 44 61 45
REMARK SMILES IDX 43 46 46 47 60 48 79 49 44 50 45 51 59 53 80 54 47 55 31 56
REMARK SMILES IDX 32 57 40 58 33 59 39 60 41 61 38 62 34 63 35 64 36 65 37 66
REMARK SMILES IDX 63 67 64 68 72 69 65 70 71 71 73 72 70 73 66 74 67 75 68 76
REMARK SMILES IDX 69 77 48 78 49 79 57 80 50 81 56 82 58 83 55 84 51 85 52 86
REMARK SMILES IDX 53 87 54 88
REMARK H PARENT 15 6 19 22 78 41 46 52
REMARK Flexibility Score: inf
ROOT
ATOM      1  C   UNL A   1      38.132  21.717  25.458  1.00  0.00     0.042 C 
ENDROOT
BRANCH   1   2
ATOM      2  C   UNL A   1      36.631  21.601  25.264  1.00  0.00     0.118 C 
BRANCH   2   3
ATOM      3  N   UNL A   1      35.895  21.787  26.507  1.00  0.00    -0.353 N 
ATOM      4  C   UNL A   1      34.590  22.136  26.718  1.00  0.00     0.261 C 
ATOM      5  O   UNL A   1      34.179  22.317  27.869  1.00  0.00    -0.271 OA
ATOM      6  H   UNL A   1      36.421  21.637  27.326  1.00  0.00     0.163 HD
BRANCH   4   7
ATOM      7  C   UNL A   1      33.608  22.244  25.532  1.00  0.00     0.261 C 
BRANCH   7   8
ATOM      8  C   UNL A   1      32.783  23.544  25.651  1.00  0.00     0.055 C 
BRANCH   8   9
ATOM      9  C   UNL A   1      32.787  24.421  24.397  1.00  0.00     0.001 C 
ATOM     10  C   UNL A   1      34.157  24.993  24.082  1.00  0.00     0.004 C 
ENDBRANCH   8   9
ENDBRANCH   7   8
BRANCH   7  11
ATOM     11  O   UNL A   1      32.764  21.084  25.527  1.00  0.00    -0.480 OA
BRANCH  11  12
ATOM     12  C   UNL A   1      32.551  20.394  24.362  1.00  0.00     0.123 A 
ATOM     13  C   UNL A   1      32.310  20.968  23.112  1.00  0.00     0.047 A 
ATOM     14  C   UNL A   1      32.581  18.990  24.471  1.00  0.00    -0.009 A 
ATOM     15  C   UNL A   1      32.071  20.169  21.989  1.00  0.00     0.004 A 
ATOM     16  C   UNL A   1      32.339  18.196  23.338  1.00  0.00     0.007 A 
ATOM     17  C   UNL A   1      32.888  18.327  25.784  1.00  0.00     0.048 C 
ATOM     18  C   UNL A   1      32.078  18.784  22.102  1.00  0.00     0.001 A 
ENDBRANCH  11  12
ENDBRANCH   7  11
ENDBRANCH   4   7
ENDBRANCH   2   3
ENDBRANCH   1   2
BRANCH   1  19
ATOM     19  C   UNL A   1      38.562  23.030  26.096  1.00  0.00     0.118 C 
BRANCH  19  20
ATOM     20  N   UNL A   1      39.989  23.066  26.433  1.00  0.00    -0.352 N 
ATOM     21  C   UNL A   1      40.737  24.150  26.860  1.00  0.00     0.251 C 
ATOM     22  H   UNL A   1      40.475  22.215  26.343  1.00  0.00     0.163 HD
ATOM     23  O   UNL A   1      41.924  24.068  27.135  1.00  0.00    -0.269 OA
BRANCH  21  24
ATOM     24  C   UNL A   1      40.013  25.418  27.084  1.00  0.00     0.039 A 
ATOM     25  C   UNL A   1      40.501  26.548  26.424  1.00  0.00     0.014 A 
ATOM     26  C   UNL A   1      39.128  25.525  28.156  1.00  0.00     0.014 A 
ATOM     27  C   UNL A   1      40.294  27.798  26.995  1.00  0.00     0.010 A 
ATOM     28  C   UNL A   1      38.993  26.759  28.767  1.00  0.00     0.010 A 
ATOM     29  C   UNL A   1      39.645  27.877  28.229  1.00  0.00    -0.014 A 
BRANCH  29  30
ATOM     30  C   UNL A   1      39.768  29.052  29.088  1.00  0.00     0.031 A 
ATOM     31  C   UNL A   1      38.799  30.161  28.999  1.00  0.00     0.074 A 
ATOM     32  C   UNL A   1      40.809  29.161  29.946  1.00  0.00     0.049 A 
ATOM     33  N   UNL A   1      39.063  31.383  29.326  1.00  0.00    -0.248 NA
ATOM     34  C   UNL A   1      37.471  29.998  28.419  1.00  0.00     0.031 C 
ATOM     35  C   UNL A   1      40.988  30.155  31.001  1.00  0.00     0.029 A 
ATOM     36  N   UNL A   1      42.061  28.556  29.819  1.00  0.00    -0.354 N 
ATOM     37  C   UNL A   1      37.877  32.074  29.322  1.00  0.00     0.074 A 
ATOM     38  C   UNL A   1      36.976  31.228  28.585  1.00  0.00     0.031 C 
ATOM     39  C   UNL A   1      42.300  30.306  31.232  1.00  0.00     0.029 A 
ATOM     40  C   UNL A   1      43.008  29.504  30.251  1.00  0.00     0.049 A 
ATOM     41  H   UNL A   1      42.245  27.645  29.491  1.00  0.00     0.167 HD
ATOM     42  C   UNL A   1      37.763  33.192  30.095  1.00  0.00     0.034 A 
ATOM     43  C   UNL A   1      44.005  29.947  29.436  1.00  0.00     0.034 A 
ATOM     44  C   UNL A   1      39.083  33.689  30.518  1.00  0.00     0.049 A 
ATOM     45  C   UNL A   1      44.025  31.441  29.247  1.00  0.00     0.074 A 
ATOM     46  C   UNL A   1      39.731  33.776  31.740  1.00  0.00     0.029 A 
ATOM     47  N   UNL A   1      40.043  34.002  29.552  1.00  0.00    -0.354 N 
ATOM     48  N   UNL A   1      43.035  32.237  29.544  1.00  0.00    -0.248 NA
ATOM     49  C   UNL A   1      45.161  32.151  28.672  1.00  0.00     0.031 C 
ATOM     50  C   UNL A   1      41.099  34.085  31.494  1.00  0.00     0.029 A 
ATOM     51  C   UNL A   1      41.280  34.222  30.127  1.00  0.00     0.049 A 
ATOM     52  H   UNL A   1      39.861  34.060  28.586  1.00  0.00     0.167 HD
ATOM     53  C   UNL A   1      43.351  33.523  29.177  1.00  0.00     0.074 A 
ATOM     54  C   UNL A   1      44.710  33.415  28.671  1.00  0.00     0.031 C 
ATOM     55  C   UNL A   1      42.450  34.546  29.305  1.00  0.00     0.034 A 
BRANCH  42  56
ATOM     56  C   UNL A   1      36.448  33.700  30.693  1.00  0.00     0.023 A 
ATOM     57  C   UNL A   1      35.464  34.238  29.830  1.00  0.00     0.031 A 
ATOM     58  C   UNL A   1      36.142  33.825  32.070  1.00  0.00     0.131 A 
ATOM     59  C   UNL A   1      34.310  34.885  30.326  1.00  0.00     0.055 A 
ATOM     60  C   UNL A   1      34.977  34.432  32.560  1.00  0.00     0.041 A 
ATOM     61  F   UNL A   1      36.955  33.412  33.043  1.00  0.00    -0.206 F 
ATOM     62  C   UNL A   1      34.059  34.978  31.690  1.00  0.00     0.022 A 
BRANCH  59  63
ATOM     63  S   UNL A   1      33.153  35.676  29.171  1.00  0.00     0.124 S 
ATOM     64  O   UNL A   1      32.605  34.530  28.453  1.00  0.00    -0.237 OA
ATOM     65  O   UNL A   1      32.246  36.377  30.072  1.00  0.00    -0.237 OA
ATOM     66  O   UNL A   1      34.016  36.546  28.370  1.00  0.00    -0.744 OA
ENDBRANCH  59  63
ENDBRANCH  42  56
BRANCH  43  67
ATOM     67  C   UNL A   1      44.459  28.943  28.435  1.00  0.00     0.023 A 
ATOM     68  C   UNL A   1      45.232  27.868  28.916  1.00  0.00     0.031 A 
ATOM     69  C   UNL A   1      43.869  28.812  27.173  1.00  0.00     0.131 A 
ATOM     70  C   UNL A   1      45.244  26.646  28.233  1.00  0.00     0.055 A 
ATOM     71  C   UNL A   1      43.956  27.614  26.451  1.00  0.00     0.041 A 
ATOM     72  F   UNL A   1      43.097  29.790  26.674  1.00  0.00    -0.206 F 
ATOM     73  C   UNL A   1      44.605  26.508  27.002  1.00  0.00     0.022 A 
BRANCH  70  74
ATOM     74  S   UNL A   1      45.821  25.180  29.134  1.00  0.00     0.124 S 
ATOM     75  O   UNL A   1      47.180  25.553  29.503  1.00  0.00    -0.237 OA
ATOM     76  O   UNL A   1      44.860  25.090  30.234  1.00  0.00    -0.237 OA
ATOM     77  O   UNL A   1      45.704  24.098  28.161  1.00  0.00    -0.744 OA
ENDBRANCH  70  74
ENDBRANCH  43  67
BRANCH  55  78
ATOM     78  C   UNL A   1      42.607  35.958  28.753  1.00  0.00     0.023 A 
ATOM     79  C   UNL A   1      43.122  37.041  29.483  1.00  0.00     0.031 A 
ATOM     80  C   UNL A   1      42.273  36.254  27.406  1.00  0.00     0.131 A 
ATOM     81  C   UNL A   1      43.207  38.337  28.933  1.00  0.00     0.055 A 
ATOM     82  C   UNL A   1      42.417  37.528  26.839  1.00  0.00     0.041 A 
ATOM     83  F   UNL A   1      41.808  35.317  26.569  1.00  0.00    -0.206 F 
ATOM     84  C   UNL A   1      42.870  38.586  27.609  1.00  0.00     0.022 A 
BRANCH  81  85
ATOM     85  S   UNL A   1      43.726  39.699  30.015  1.00  0.00     0.124 S 
ATOM     86  O   UNL A   1      44.136  38.988  31.222  1.00  0.00    -0.237 OA
ATOM     87  O   UNL A   1      44.804  40.315  29.247  1.00  0.00    -0.237 OA
ATOM     88  O   UNL A   1      42.519  40.512  30.153  1.00  0.00    -0.744 OA
ENDBRANCH  81  85
ENDBRANCH  55  78
ENDBRANCH  29  30
ENDBRANCH  21  24
ENDBRANCH  19  20
ENDBRANCH   1  19
TORSDOF 17
ENDMDL
MODEL 3
REMARK VINA RESULT:     -11.4      4.481     10.863
REMARK SMILES CCC[C@H](Oc1ccccc1C)C(=O)NCCCNC(=O)c1ccc(-c2c3nc(c(-c4cc(S(=O)(=O)[O-])ccc4F)c4ccc([nH]4)c(-c4cc(S(=O)(=O)[O-])ccc4F)c4nc(c(-c5cc(S(=O)(=O)[O-])ccc5F)c5ccc2[nH]5)C=C4)C=C3)cc1
REMARK SMILES IDX 17 1 16 2 15 3 13 4 14 5 4 7 3 8 2 9 1 10 5 11 6 12 7 13
REMARK SMILES IDX 11 14 8 15 10 16 12 17 9 18 18 19 19 20 20 21 21 23 22 24
REMARK SMILES IDX 23 25 84 26 24 27 83 28 25 29 26 30 27 31 77 32 28 33 82 34
REMARK SMILES IDX 76 35 78 36 29 37 81 38 75 39 74 40 30 42 62 43 42 44 61 45
REMARK SMILES IDX 43 46 46 47 60 48 79 49 44 50 45 51 59 53 80 54 47 55 31 56
REMARK SMILES IDX 32 57 40 58 33 59 39 60 41 61 38 62 34 63 35 64 36 65 37 66
REMARK SMILES IDX 63 67 64 68 72 69 65 70 71 71 73 72 70 73 66 74 67 75 68 76
REMARK SMILES IDX 69 77 48 78 49 79 57 80 50 81 56 82 58 83 55 84 51 85 52 86
REMARK SMILES IDX 53 87 54 88
REMARK H PARENT 15 6 19 22 78 41 46 52
REMARK Flexibility Score: inf
ROOT
ATOM      1  C   UNL A   1      38.451  22.200  25.405  1.00  0.00     0.042 C 
ENDROOT
BRANCH   1   2
ATOM      2  C   UNL A   1      36.937  22.291  25.329  1.00  0.00     0.118 C 
BRANCH   2   3
ATOM      3  N   UNL A   1      36.466  22.583  23.982  1.00  0.00    -0.353 N 
ATOM      4  C   UNL A   1      35.251  23.037  23.550  1.00  0.00     0.261 C 
ATOM      5  O   UNL A   1      35.030  23.147  22.340  1.00  0.00    -0.271 OA
ATOM      6  H   UNL A   1      37.128  22.430  23.270  1.00  0.00     0.163 HD
BRANCH   4   7
ATOM      7  C   UNL A   1      34.173  23.473  24.564  1.00  0.00     0.261 C 
BRANCH   7   8
ATOM      8  C   UNL A   1      33.241  22.284  24.884  1.00  0.00     0.055 C 
BRANCH   8   9
ATOM      9  C   UNL A   1      33.390  21.717  26.297  1.00  0.00     0.001 C 
ATOM     10  C   UNL A   1      33.820  22.761  27.311  1.00  0.00     0.004 C 
ENDBRANCH   8   9
ENDBRANCH   7   8
BRANCH   7  11
ATOM     11  O   UNL A   1      33.443  24.578  24.014  1.00  0.00    -0.480 OA
BRANCH  11  12
ATOM     12  C   UNL A   1      32.841  25.487  24.844  1.00  0.00     0.123 A 
ATOM     13  C   UNL A   1      33.501  26.320  25.750  1.00  0.00     0.047 A 
ATOM     14  C   UNL A   1      31.437  25.559  24.756  1.00  0.00    -0.009 A 
ATOM     15  C   UNL A   1      32.786  27.191  26.579  1.00  0.00     0.004 A 
ATOM     16  C   UNL A   1      30.727  26.436  25.592  1.00  0.00     0.007 A 
ATOM     17  C   UNL A   1      30.685  24.721  23.760  1.00  0.00     0.048 C 
ATOM     18  C   UNL A   1      31.400  27.244  26.506  1.00  0.00     0.001 A 
ENDBRANCH  11  12
ENDBRANCH   7  11
ENDBRANCH   4   7
ENDBRANCH   2   3
ENDBRANCH   1   2
BRANCH   1  19
ATOM     19  C   UNL A   1      39.036  22.839  26.656  1.00  0.00     0.118 C 
BRANCH  19  20
ATOM     20  N   UNL A   1      40.480  23.074  26.560  1.00  0.00    -0.352 N 
ATOM     21  C   UNL A   1      41.154  24.282  26.632  1.00  0.00     0.251 C 
ATOM     22  H   UNL A   1      41.039  22.275  26.428  1.00  0.00     0.163 HD
ATOM     23  O   UNL A   1      42.370  24.366  26.560  1.00  0.00    -0.269 OA
BRANCH  21  24
ATOM     24  C   UNL A   1      40.345  25.485  26.914  1.00  0.00     0.039 A 
ATOM     25  C   UNL A   1      40.708  26.660  26.251  1.00  0.00     0.014 A 
ATOM     26  C   UNL A   1      39.512  25.508  28.031  1.00  0.00     0.014 A 
ATOM     27  C   UNL A   1      40.434  27.881  26.853  1.00  0.00     0.010 A 
ATOM     28  C   UNL A   1      39.312  26.719  28.670  1.00  0.00     0.010 A 
ATOM     29  C   UNL A   1      39.846  27.892  28.119  1.00  0.00    -0.014 A 
BRANCH  29  30
ATOM     30  C   UNL A   1      39.921  29.062  28.992  1.00  0.00     0.031 A 
ATOM     31  C   UNL A   1      38.915  30.137  28.905  1.00  0.00     0.074 A 
ATOM     32  C   UNL A   1      40.950  29.196  29.860  1.00  0.00     0.049 A 
ATOM     33  N   UNL A   1      39.134  31.363  29.248  1.00  0.00    -0.248 NA
ATOM     34  C   UNL A   1      37.598  29.935  28.312  1.00  0.00     0.031 C 
ATOM     35  C   UNL A   1      41.085  30.185  30.927  1.00  0.00     0.029 A 
ATOM     36  N   UNL A   1      42.223  28.636  29.738  1.00  0.00    -0.354 N 
ATOM     37  C   UNL A   1      37.925  32.013  29.241  1.00  0.00     0.074 A 
ATOM     38  C   UNL A   1      37.059  31.145  28.487  1.00  0.00     0.031 C 
ATOM     39  C   UNL A   1      42.389  30.378  31.171  1.00  0.00     0.029 A 
ATOM     40  C   UNL A   1      43.133  29.612  30.188  1.00  0.00     0.049 A 
ATOM     41  H   UNL A   1      42.441  27.736  29.402  1.00  0.00     0.167 HD
ATOM     42  C   UNL A   1      37.766  33.119  30.024  1.00  0.00     0.034 A 
ATOM     43  C   UNL A   1      44.122  30.097  29.387  1.00  0.00     0.034 A 
ATOM     44  C   UNL A   1      39.064  33.656  30.464  1.00  0.00     0.049 A 
ATOM     45  C   UNL A   1      44.091  31.594  29.213  1.00  0.00     0.074 A 
ATOM     46  C   UNL A   1      39.698  33.753  31.692  1.00  0.00     0.029 A 
ATOM     47  N   UNL A   1      40.020  34.013  29.510  1.00  0.00    -0.354 N 
ATOM     48  N   UNL A   1      43.072  32.352  29.510  1.00  0.00    -0.248 NA
ATOM     49  C   UNL A   1      45.207  32.348  28.657  1.00  0.00     0.031 C 
ATOM     50  C   UNL A   1      41.056  34.111  31.462  1.00  0.00     0.029 A 
ATOM     51  C   UNL A   1      41.244  34.269  30.099  1.00  0.00     0.049 A 
ATOM     52  H   UNL A   1      39.845  34.074  28.543  1.00  0.00     0.167 HD
ATOM     53  C   UNL A   1      43.347  33.652  29.159  1.00  0.00     0.074 A 
ATOM     54  C   UNL A   1      44.713  33.596  28.664  1.00  0.00     0.031 C 
ATOM     55  C   UNL A   1      42.409  34.642  29.290  1.00  0.00     0.034 A 
BRANCH  42  56
ATOM     56  C   UNL A   1      36.429  33.575  30.616  1.00  0.00     0.023 A 
ATOM     57  C   UNL A   1      35.482  34.200  29.770  1.00  0.00     0.031 A 
ATOM     58  C   UNL A   1      36.068  33.568  31.985  1.00  0.00     0.131 A 
ATOM     59  C   UNL A   1      34.310  34.803  30.280  1.00  0.00     0.055 A 
ATOM     60  C   UNL A   1      34.886  34.132  32.484  1.00  0.00     0.041 A 
ATOM     61  F   UNL A   1      36.840  33.057  32.945  1.00  0.00    -0.206 F 
ATOM     62  C   UNL A   1      34.005  34.765  31.635  1.00  0.00     0.022 A 
BRANCH  59  63
ATOM     63  S   UNL A   1      33.203  35.710  29.162  1.00  0.00     0.124 S 
ATOM     64  O   UNL A   1      32.351  36.436  30.097  1.00  0.00    -0.237 OA
ATOM     65  O   UNL A   1      34.139  36.507  28.377  1.00  0.00    -0.237 OA
ATOM     66  O   UNL A   1      32.528  34.646  28.417  1.00  0.00    -0.744 OA
ENDBRANCH  59  63
ENDBRANCH  42  56
BRANCH  43  67
ATOM     67  C   UNL A   1      44.618  29.121  28.380  1.00  0.00     0.023 A 
ATOM     68  C   UNL A   1      45.405  28.055  28.859  1.00  0.00     0.031 A 
ATOM     69  C   UNL A   1      44.058  28.998  27.103  1.00  0.00     0.131 A 
ATOM     70  C   UNL A   1      45.458  26.845  28.157  1.00  0.00     0.055 A 
ATOM     71  C   UNL A   1      44.186  27.814  26.364  1.00  0.00     0.041 A 
ATOM     72  F   UNL A   1      43.275  29.967  26.604  1.00  0.00    -0.206 F 
ATOM     73  C   UNL A   1      44.848  26.713  26.911  1.00  0.00     0.022 A 
BRANCH  70  74
ATOM     74  S   UNL A   1      46.049  25.377  29.046  1.00  0.00     0.124 S 
ATOM     75  O   UNL A   1      44.825  24.857  29.642  1.00  0.00    -0.237 OA
ATOM     76  O   UNL A   1      46.632  24.573  27.971  1.00  0.00    -0.237 OA
ATOM     77  O   UNL A   1      47.034  25.906  29.986  1.00  0.00    -0.744 OA
ENDBRANCH  70  74
ENDBRANCH  43  67
BRANCH  55  78
ATOM     78  C   UNL A   1      42.522  36.064  28.754  1.00  0.00     0.023 A 
ATOM     79  C   UNL A   1      43.215  37.101  29.399  1.00  0.00     0.031 A 
ATOM     80  C   UNL A   1      41.953  36.418  27.504  1.00  0.00     0.131 A 
ATOM     81  C   UNL A   1      43.253  38.410  28.877  1.00  0.00     0.055 A 
ATOM     82  C   UNL A   1      42.044  37.704  26.952  1.00  0.00     0.041 A 
ATOM     83  F   UNL A   1      41.295  35.528  26.748  1.00  0.00    -0.206 F 
ATOM     84  C   UNL A   1      42.682  38.717  27.648  1.00  0.00     0.022 A 
BRANCH  81  85
ATOM     85  S   UNL A   1      44.028  39.713  29.873  1.00  0.00     0.124 S 
ATOM     86  O   UNL A   1      45.435  39.326  29.836  1.00  0.00    -0.237 OA
ATOM     87  O   UNL A   1      43.686  40.922  29.130  1.00  0.00    -0.237 OA
ATOM     88  O   UNL A   1      43.383  39.584  31.178  1.00  0.00    -0.744 OA
ENDBRANCH  81  85
ENDBRANCH  55  78
ENDBRANCH  29  30
ENDBRANCH  21  24
ENDBRANCH  19  20
ENDBRANCH   1  19
TORSDOF 17
ENDMDL
