MODEL 1
REMARK VINA RESULT:     -12.7      0.000      0.000
REMARK SMILES Cc1cc(C(=O)N2[C@@H](C(=O)NCCCNC(=O)c3ccc(-c4c5nc(c(-c6cc(S(=O)(=O)[O-])ccc6F)c6ccc([nH]6)c(-c6cc(S(=O)(=O)[O-])ccc6F)c6nc(c(-c7cc(S(=O)(=O)[O-])ccc7F)c7ccc4[nH]7)C=C6)C=C5)cc3)C[C@H]3CCCC[C@H]32)c(C)s1
REMARK SMILES IDX 13 1 12 2 11 3 9 4 10 5 8 7 7 8 87 9 81 10 82 11 86 12 83 13
REMARK SMILES IDX 85 14 84 15 5 16 6 17 4 18 1 19 2 20 3 21 90 22 88 23 89 24
REMARK SMILES IDX 14 25 15 26 16 27 17 29 18 30 19 31 80 32 20 33 79 34 21 35
REMARK SMILES IDX 22 36 23 37 73 38 24 39 78 40 72 41 74 42 25 43 77 44 71 45
REMARK SMILES IDX 70 46 26 48 58 49 38 50 57 51 39 52 42 53 56 54 75 55 40 56
REMARK SMILES IDX 41 57 55 59 76 60 43 61 27 62 28 63 36 64 29 65 35 66 37 67
REMARK SMILES IDX 34 68 30 69 31 70 32 71 33 72 59 73 60 74 68 75 61 76 67 77
REMARK SMILES IDX 69 78 66 79 62 80 63 81 64 82 65 83 44 84 45 85 53 86 46 87
REMARK SMILES IDX 52 88 54 89 51 90 47 91 48 92 49 93 50 94
REMARK H PARENT 11 6 15 28 74 47 42 58
REMARK Flexibility Score: inf
ROOT
ATOM      1  C   UNL A   1      36.420  21.967  25.525  1.00  0.00     0.042 C 
ENDROOT
BRANCH   1   2
ATOM      2  C   UNL A   1      35.996  23.399  25.833  1.00  0.00     0.117 C 
BRANCH   2   3
ATOM      3  N   UNL A   1      35.329  24.056  24.722  1.00  0.00    -0.354 N 
ATOM      4  C   UNL A   1      34.358  25.000  24.635  1.00  0.00     0.242 C 
ATOM      5  O   UNL A   1      34.119  25.413  23.489  1.00  0.00    -0.273 OA
ATOM      6  H   UNL A   1      35.651  23.751  23.843  1.00  0.00     0.163 HD
BRANCH   4   7
ATOM      7  C   UNL A   1      33.483  25.525  25.802  1.00  0.00     0.175 C 
ATOM      8  N   UNL A   1      32.048  25.227  25.908  1.00  0.00    -0.323 N 
ATOM      9  C   UNL A   1      31.247  26.442  25.786  1.00  0.00     0.089 C 
ATOM     10  C   UNL A   1      33.546  27.071  25.787  1.00  0.00     0.041 C 
ATOM     11  C   UNL A   1      32.191  27.503  26.359  1.00  0.00     0.014 C 
ATOM     12  C   UNL A   1      30.848  26.729  24.336  1.00  0.00     0.025 C 
ATOM     13  C   UNL A   1      31.783  28.941  26.058  1.00  0.00     0.006 C 
ATOM     14  C   UNL A   1      30.329  28.149  24.154  1.00  0.00     0.002 C 
ATOM     15  C   UNL A   1      31.366  29.172  24.609  1.00  0.00     0.000 C 
BRANCH   8  16
ATOM     16  C   UNL A   1      31.454  24.051  26.345  1.00  0.00     0.255 C 
ATOM     17  O   UNL A   1      30.618  24.050  27.250  1.00  0.00    -0.269 OA
BRANCH  16  18
ATOM     18  C   UNL A   1      31.873  22.795  25.724  1.00  0.00     0.053 A 
ATOM     19  C   UNL A   1      32.153  20.553  22.671  1.00  0.00     0.056 C 
ATOM     20  C   UNL A   1      32.187  21.229  23.997  1.00  0.00     0.003 A 
ATOM     21  C   UNL A   1      31.612  22.427  24.357  1.00  0.00     0.029 A 
ATOM     22  S   UNL A   1      33.059  20.545  25.291  1.00  0.00    -0.145 S 
ATOM     23  C   UNL A   1      32.705  21.864  26.329  1.00  0.00     0.014 A 
ATOM     24  C   UNL A   1      33.318  21.885  27.692  1.00  0.00     0.057 C 
ENDBRANCH  16  18
ENDBRANCH   8  16
ENDBRANCH   4   7
ENDBRANCH   2   3
ENDBRANCH   1   2
BRANCH   1  25
ATOM     25  C   UNL A   1      37.830  21.827  24.968  1.00  0.00     0.118 C 
BRANCH  25  26
ATOM     26  N   UNL A   1      38.660  20.945  25.769  1.00  0.00    -0.352 N 
ATOM     27  C   UNL A   1      39.730  21.192  26.596  1.00  0.00     0.251 C 
ATOM     28  H   UNL A   1      38.411  19.995  25.710  1.00  0.00     0.163 HD
ATOM     29  O   UNL A   1      40.397  20.227  26.969  1.00  0.00    -0.269 OA
BRANCH  27  30
ATOM     30  C   UNL A   1      40.109  22.560  27.038  1.00  0.00     0.039 A 
ATOM     31  C   UNL A   1      39.526  23.654  26.383  1.00  0.00     0.014 A 
ATOM     32  C   UNL A   1      41.099  22.798  27.993  1.00  0.00     0.014 A 
ATOM     33  C   UNL A   1      39.914  24.962  26.696  1.00  0.00     0.010 A 
ATOM     34  C   UNL A   1      41.419  24.104  28.373  1.00  0.00     0.010 A 
ATOM     35  C   UNL A   1      40.858  25.203  27.706  1.00  0.00    -0.014 A 
BRANCH  35  36
ATOM     36  C   UNL A   1      41.345  26.579  28.004  1.00  0.00     0.031 A 
ATOM     37  C   UNL A   1      42.737  26.987  27.586  1.00  0.00     0.074 A 
ATOM     38  C   UNL A   1      40.569  27.448  28.680  1.00  0.00     0.049 A 
ATOM     39  N   UNL A   1      43.398  28.087  27.846  1.00  0.00    -0.248 NA
ATOM     40  C   UNL A   1      43.500  26.002  26.805  1.00  0.00     0.031 C 
ATOM     41  C   UNL A   1      39.219  27.175  29.175  1.00  0.00     0.029 A 
ATOM     42  N   UNL A   1      40.809  28.742  29.071  1.00  0.00    -0.354 N 
ATOM     43  C   UNL A   1      44.667  27.906  27.302  1.00  0.00     0.074 A 
ATOM     44  C   UNL A   1      44.694  26.571  26.742  1.00  0.00     0.031 C 
ATOM     45  C   UNL A   1      38.740  28.275  29.779  1.00  0.00     0.029 A 
ATOM     46  C   UNL A   1      39.759  29.320  29.746  1.00  0.00     0.049 A 
ATOM     47  H   UNL A   1      41.655  29.211  28.887  1.00  0.00     0.167 HD
ATOM     48  C   UNL A   1      45.708  28.777  27.252  1.00  0.00     0.034 A 
ATOM     49  C   UNL A   1      39.634  30.552  30.278  1.00  0.00     0.034 A 
ATOM     50  C   UNL A   1      45.654  30.125  27.760  1.00  0.00     0.049 A 
ATOM     51  C   UNL A   1      40.777  31.525  30.154  1.00  0.00     0.074 A 
ATOM     52  C   UNL A   1      46.630  31.106  27.723  1.00  0.00     0.029 A 
ATOM     53  N   UNL A   1      44.551  30.689  28.387  1.00  0.00    -0.354 N 
ATOM     54  N   UNL A   1      41.967  31.339  29.632  1.00  0.00    -0.248 NA
ATOM     55  C   UNL A   1      40.553  32.877  30.683  1.00  0.00     0.031 C 
ATOM     56  C   UNL A   1      46.128  32.252  28.354  1.00  0.00     0.029 A 
ATOM     57  C   UNL A   1      44.822  32.001  28.744  1.00  0.00     0.049 A 
ATOM     58  H   UNL A   1      43.699  30.225  28.555  1.00  0.00     0.167 HD
ATOM     59  C   UNL A   1      42.625  32.560  29.752  1.00  0.00     0.074 A 
ATOM     60  C   UNL A   1      41.695  33.475  30.381  1.00  0.00     0.031 C 
ATOM     61  C   UNL A   1      43.886  32.895  29.377  1.00  0.00     0.034 A 
BRANCH  48  62
ATOM     62  C   UNL A   1      46.996  28.273  26.644  1.00  0.00     0.023 A 
ATOM     63  C   UNL A   1      47.217  28.302  25.256  1.00  0.00     0.031 A 
ATOM     64  C   UNL A   1      47.988  27.699  27.456  1.00  0.00     0.131 A 
ATOM     65  C   UNL A   1      48.352  27.682  24.715  1.00  0.00     0.055 A 
ATOM     66  C   UNL A   1      49.160  27.161  26.918  1.00  0.00     0.041 A 
ATOM     67  F   UNL A   1      47.827  27.627  28.787  1.00  0.00    -0.206 F 
ATOM     68  C   UNL A   1      49.338  27.132  25.537  1.00  0.00     0.022 A 
BRANCH  65  69
ATOM     69  S   UNL A   1      48.444  27.464  22.917  1.00  0.00     0.124 S 
ATOM     70  O   UNL A   1      47.264  28.205  22.474  1.00  0.00    -0.237 OA
ATOM     71  O   UNL A   1      49.733  28.061  22.590  1.00  0.00    -0.237 OA
ATOM     72  O   UNL A   1      48.363  26.015  22.741  1.00  0.00    -0.744 OA
ENDBRANCH  65  69
ENDBRANCH  48  62
BRANCH  49  73
ATOM     73  C   UNL A   1      38.379  30.949  30.971  1.00  0.00     0.023 A 
ATOM     74  C   UNL A   1      37.343  31.586  30.272  1.00  0.00     0.031 A 
ATOM     75  C   UNL A   1      38.216  30.732  32.351  1.00  0.00     0.131 A 
ATOM     76  C   UNL A   1      36.202  32.024  30.962  1.00  0.00     0.055 A 
ATOM     77  C   UNL A   1      37.064  31.136  33.026  1.00  0.00     0.041 A 
ATOM     78  F   UNL A   1      39.176  30.117  33.059  1.00  0.00    -0.206 F 
ATOM     79  C   UNL A   1      36.052  31.797  32.333  1.00  0.00     0.022 A 
BRANCH  76  80
ATOM     80  S   UNL A   1      34.944  32.959  30.051  1.00  0.00     0.124 S 
ATOM     81  O   UNL A   1      34.446  31.958  29.114  1.00  0.00    -0.237 OA
ATOM     82  O   UNL A   1      34.029  33.351  31.118  1.00  0.00    -0.237 OA
ATOM     83  O   UNL A   1      35.702  34.054  29.450  1.00  0.00    -0.744 OA
ENDBRANCH  76  80
ENDBRANCH  49  73
BRANCH  61  84
ATOM     84  C   UNL A   1      44.301  34.324  29.607  1.00  0.00     0.023 A 
ATOM     85  C   UNL A   1      44.154  35.300  28.608  1.00  0.00     0.031 A 
ATOM     86  C   UNL A   1      44.879  34.701  30.830  1.00  0.00     0.131 A 
ATOM     87  C   UNL A   1      44.628  36.601  28.831  1.00  0.00     0.055 A 
ATOM     88  C   UNL A   1      45.311  36.007  31.063  1.00  0.00     0.041 A 
ATOM     89  F   UNL A   1      45.041  33.803  31.816  1.00  0.00    -0.206 F 
ATOM     90  C   UNL A   1      45.198  36.963  30.056  1.00  0.00     0.022 A 
BRANCH  87  91
ATOM     91  S   UNL A   1      44.565  37.796  27.469  1.00  0.00     0.124 S 
ATOM     92  O   UNL A   1      43.259  37.518  26.878  1.00  0.00    -0.237 OA
ATOM     93  O   UNL A   1      44.691  39.072  28.168  1.00  0.00    -0.237 OA
ATOM     94  O   UNL A   1      45.712  37.431  26.638  1.00  0.00    -0.744 OA
ENDBRANCH  87  91
ENDBRANCH  61  84
ENDBRANCH  35  36
ENDBRANCH  27  30
ENDBRANCH  25  26
ENDBRANCH   1  25
TORSDOF 15
ENDMDL
MODEL 2
REMARK VINA RESULT:     -12.7      4.848     10.035
REMARK SMILES Cc1cc(C(=O)N2[C@@H](C(=O)NCCCNC(=O)c3ccc(-c4c5nc(c(-c6cc(S(=O)(=O)[O-])ccc6F)c6ccc([nH]6)c(-c6cc(S(=O)(=O)[O-])ccc6F)c6nc(c(-c7cc(S(=O)(=O)[O-])ccc7F)c7ccc4[nH]7)C=C6)C=C5)cc3)C[C@H]3CCCC[C@H]32)c(C)s1
REMARK SMILES IDX 13 1 12 2 11 3 9 4 10 5 8 7 7 8 87 9 81 10 82 11 86 12 83 13
REMARK SMILES IDX 85 14 84 15 5 16 6 17 4 18 1 19 2 20 3 21 90 22 88 23 89 24
REMARK SMILES IDX 14 25 15 26 16 27 17 29 18 30 19 31 80 32 20 33 79 34 21 35
REMARK SMILES IDX 22 36 23 37 73 38 24 39 78 40 72 41 74 42 25 43 77 44 71 45
REMARK SMILES IDX 70 46 26 48 58 49 38 50 57 51 39 52 42 53 56 54 75 55 40 56
REMARK SMILES IDX 41 57 55 59 76 60 43 61 27 62 28 63 36 64 29 65 35 66 37 67
REMARK SMILES IDX 34 68 30 69 31 70 32 71 33 72 59 73 60 74 68 75 61 76 67 77
REMARK SMILES IDX 69 78 66 79 62 80 63 81 64 82 65 83 44 84 45 85 53 86 46 87
REMARK SMILES IDX 52 88 54 89 51 90 47 91 48 92 49 93 50 94
REMARK H PARENT 11 6 15 28 74 47 42 58
REMARK Flexibility Score: inf
ROOT
ATOM      1  C   UNL A   1      31.743  29.031  26.468  1.00  0.00     0.042 C 
ENDROOT
BRANCH   1   2
ATOM      2  C   UNL A   1      32.102  27.801  27.294  1.00  0.00     0.117 C 
BRANCH   2   3
ATOM      3  N   UNL A   1      31.531  26.570  26.774  1.00  0.00    -0.354 N 
ATOM      4  C   UNL A   1      32.015  25.560  26.009  1.00  0.00     0.242 C 
ATOM      5  O   UNL A   1      31.253  24.592  25.860  1.00  0.00    -0.273 OA
ATOM      6  H   UNL A   1      30.590  26.440  27.034  1.00  0.00     0.163 HD
BRANCH   4   7
ATOM      7  C   UNL A   1      33.366  25.554  25.248  1.00  0.00     0.175 C 
ATOM      8  N   UNL A   1      33.516  24.962  23.912  1.00  0.00    -0.323 N 
ATOM      9  C   UNL A   1      34.416  23.810  23.944  1.00  0.00     0.089 C 
ATOM     10  C   UNL A   1      34.398  24.794  26.115  1.00  0.00     0.041 C 
ATOM     11  C   UNL A   1      35.359  24.177  25.092  1.00  0.00     0.014 C 
ATOM     12  C   UNL A   1      33.667  22.498  24.192  1.00  0.00     0.025 C 
ATOM     13  C   UNL A   1      36.207  23.020  25.608  1.00  0.00     0.006 C 
ATOM     14  C   UNL A   1      34.608  21.364  24.575  1.00  0.00     0.002 C 
ATOM     15  C   UNL A   1      35.425  21.726  25.812  1.00  0.00     0.000 C 
BRANCH   8  16
ATOM     16  C   UNL A   1      33.138  25.507  22.693  1.00  0.00     0.255 C 
ATOM     17  O   UNL A   1      33.597  25.086  21.630  1.00  0.00    -0.269 OA
BRANCH  16  18
ATOM     18  C   UNL A   1      32.197  26.626  22.701  1.00  0.00     0.053 A 
ATOM     19  C   UNL A   1      28.677  27.978  23.152  1.00  0.00     0.056 C 
ATOM     20  C   UNL A   1      30.128  27.717  22.941  1.00  0.00     0.003 A 
ATOM     21  C   UNL A   1      30.776  26.504  22.892  1.00  0.00     0.029 A 
ATOM     22  S   UNL A   1      31.221  29.013  22.776  1.00  0.00    -0.145 S 
ATOM     23  C   UNL A   1      32.572  27.962  22.675  1.00  0.00     0.014 A 
ATOM     24  C   UNL A   1      33.939  28.561  22.602  1.00  0.00     0.057 C 
ENDBRANCH  16  18
ENDBRANCH   8  16
ENDBRANCH   4   7
ENDBRANCH   2   3
ENDBRANCH   1   2
BRANCH   1  25
ATOM     25  C   UNL A   1      32.934  29.874  26.032  1.00  0.00     0.118 C 
BRANCH  25  26
ATOM     26  N   UNL A   1      32.876  31.230  26.551  1.00  0.00    -0.352 N 
ATOM     27  C   UNL A   1      33.653  31.895  27.469  1.00  0.00     0.251 C 
ATOM     28  H   UNL A   1      32.146  31.773  26.175  1.00  0.00     0.163 HD
ATOM     29  O   UNL A   1      33.235  32.969  27.898  1.00  0.00    -0.269 OA
BRANCH  27  30
ATOM     30  C   UNL A   1      34.953  31.365  27.960  1.00  0.00     0.039 A 
ATOM     31  C   UNL A   1      35.002  30.034  28.400  1.00  0.00     0.014 A 
ATOM     32  C   UNL A   1      36.087  32.164  28.108  1.00  0.00     0.014 A 
ATOM     33  C   UNL A   1      36.176  29.511  28.957  1.00  0.00     0.010 A 
ATOM     34  C   UNL A   1      37.285  31.618  28.576  1.00  0.00     0.010 A 
ATOM     35  C   UNL A   1      37.336  30.295  29.040  1.00  0.00    -0.014 A 
BRANCH  35  36
ATOM     36  C   UNL A   1      38.573  29.788  29.698  1.00  0.00     0.031 A 
ATOM     37  C   UNL A   1      38.937  30.274  31.080  1.00  0.00     0.074 A 
ATOM     38  C   UNL A   1      39.388  28.930  29.055  1.00  0.00     0.049 A 
ATOM     39  N   UNL A   1      40.019  30.054  31.784  1.00  0.00    -0.248 NA
ATOM     40  C   UNL A   1      37.969  31.166  31.736  1.00  0.00     0.031 C 
ATOM     41  C   UNL A   1      39.176  28.406  27.705  1.00  0.00     0.029 A 
ATOM     42  N   UNL A   1      40.567  28.350  29.454  1.00  0.00    -0.354 N 
ATOM     43  C   UNL A   1      39.881  30.814  32.943  1.00  0.00     0.074 A 
ATOM     44  C   UNL A   1      38.634  31.537  32.819  1.00  0.00     0.031 C 
ATOM     45  C   UNL A   1      40.175  27.562  27.398  1.00  0.00     0.029 A 
ATOM     46  C   UNL A   1      41.116  27.509  28.514  1.00  0.00     0.049 A 
ATOM     47  H   UNL A   1      40.981  28.520  30.331  1.00  0.00     0.167 HD
ATOM     48  C   UNL A   1      40.705  30.888  34.020  1.00  0.00     0.034 A 
ATOM     49  C   UNL A   1      42.250  26.782  28.547  1.00  0.00     0.034 A 
ATOM     50  C   UNL A   1      41.917  30.120  34.160  1.00  0.00     0.049 A 
ATOM     51  C   UNL A   1      43.116  26.827  29.778  1.00  0.00     0.074 A 
ATOM     52  C   UNL A   1      42.801  30.081  35.224  1.00  0.00     0.029 A 
ATOM     53  N   UNL A   1      42.407  29.238  33.206  1.00  0.00    -0.354 N 
ATOM     54  N   UNL A   1      42.968  27.547  30.866  1.00  0.00    -0.248 NA
ATOM     55  C   UNL A   1      44.296  25.953  29.789  1.00  0.00     0.031 C 
ATOM     56  C   UNL A   1      43.842  29.200  34.901  1.00  0.00     0.029 A 
ATOM     57  C   UNL A   1      43.582  28.654  33.655  1.00  0.00     0.049 A 
ATOM     58  H   UNL A   1      41.984  29.054  32.337  1.00  0.00     0.167 HD
ATOM     59  C   UNL A   1      44.026  27.195  31.697  1.00  0.00     0.074 A 
ATOM     60  C   UNL A   1      44.794  26.190  30.992  1.00  0.00     0.031 C 
ATOM     61  C   UNL A   1      44.338  27.660  32.934  1.00  0.00     0.034 A 
BRANCH  48  62
ATOM     62  C   UNL A   1      40.319  31.856  35.113  1.00  0.00     0.023 A 
ATOM     63  C   UNL A   1      39.461  31.481  36.162  1.00  0.00     0.031 A 
ATOM     64  C   UNL A   1      40.765  33.188  35.073  1.00  0.00     0.131 A 
ATOM     65  C   UNL A   1      38.998  32.446  37.067  1.00  0.00     0.055 A 
ATOM     66  C   UNL A   1      40.370  34.126  36.031  1.00  0.00     0.041 A 
ATOM     67  F   UNL A   1      41.572  33.610  34.087  1.00  0.00    -0.206 F 
ATOM     68  C   UNL A   1      39.465  33.762  37.024  1.00  0.00     0.022 A 
BRANCH  65  69
ATOM     69  S   UNL A   1      37.658  31.995  38.202  1.00  0.00     0.124 S 
ATOM     70  O   UNL A   1      37.322  30.651  37.736  1.00  0.00    -0.237 OA
ATOM     71  O   UNL A   1      38.305  32.076  39.506  1.00  0.00    -0.237 OA
ATOM     72  O   UNL A   1      36.636  33.008  37.948  1.00  0.00    -0.744 OA
ENDBRANCH  65  69
ENDBRANCH  48  62
BRANCH  49  73
ATOM     73  C   UNL A   1      42.637  25.937  27.385  1.00  0.00     0.023 A 
ATOM     74  C   UNL A   1      42.223  24.599  27.301  1.00  0.00     0.031 A 
ATOM     75  C   UNL A   1      43.458  26.445  26.364  1.00  0.00     0.131 A 
ATOM     76  C   UNL A   1      42.666  23.797  26.238  1.00  0.00     0.055 A 
ATOM     77  C   UNL A   1      43.866  25.654  25.289  1.00  0.00     0.041 A 
ATOM     78  F   UNL A   1      43.869  27.722  26.396  1.00  0.00    -0.206 F 
ATOM     79  C   UNL A   1      43.479  24.318  25.227  1.00  0.00     0.022 A 
BRANCH  76  80
ATOM     80  S   UNL A   1      42.219  22.040  26.233  1.00  0.00     0.124 S 
ATOM     81  O   UNL A   1      42.690  21.607  27.543  1.00  0.00    -0.237 OA
ATOM     82  O   UNL A   1      40.772  22.098  26.057  1.00  0.00    -0.237 OA
ATOM     83  O   UNL A   1      42.962  21.503  25.094  1.00  0.00    -0.744 OA
ENDBRANCH  76  80
ENDBRANCH  49  73
BRANCH  61  84
ATOM     84  C   UNL A   1      45.539  27.047  33.603  1.00  0.00     0.023 A 
ATOM     85  C   UNL A   1      45.421  25.916  34.428  1.00  0.00     0.031 A 
ATOM     86  C   UNL A   1      46.809  27.623  33.436  1.00  0.00     0.131 A 
ATOM     87  C   UNL A   1      46.550  25.424  35.099  1.00  0.00     0.055 A 
ATOM     88  C   UNL A   1      47.937  27.104  34.073  1.00  0.00     0.041 A 
ATOM     89  F   UNL A   1      46.972  28.705  32.658  1.00  0.00    -0.206 F 
ATOM     90  C   UNL A   1      47.809  26.006  34.920  1.00  0.00     0.022 A 
BRANCH  87  91
ATOM     91  S   UNL A   1      46.338  24.061  36.276  1.00  0.00     0.124 S 
ATOM     92  O   UNL A   1      47.712  23.606  36.468  1.00  0.00    -0.237 OA
ATOM     93  O   UNL A   1      45.721  24.728  37.418  1.00  0.00    -0.237 OA
ATOM     94  O   UNL A   1      45.470  23.124  35.563  1.00  0.00    -0.744 OA
ENDBRANCH  87  91
ENDBRANCH  61  84
ENDBRANCH  35  36
ENDBRANCH  27  30
ENDBRANCH  25  26
ENDBRANCH   1  25
TORSDOF 15
ENDMDL
MODEL 3
REMARK VINA RESULT:     -12.7      5.106      7.752
REMARK SMILES Cc1cc(C(=O)N2[C@@H](C(=O)NCCCNC(=O)c3ccc(-c4c5nc(c(-c6cc(S(=O)(=O)[O-])ccc6F)c6ccc([nH]6)c(-c6cc(S(=O)(=O)[O-])ccc6F)c6nc(c(-c7cc(S(=O)(=O)[O-])ccc7F)c7ccc4[nH]7)C=C6)C=C5)cc3)C[C@H]3CCCC[C@H]32)c(C)s1
REMARK SMILES IDX 13 1 12 2 11 3 9 4 10 5 8 7 7 8 87 9 81 10 82 11 86 12 83 13
REMARK SMILES IDX 85 14 84 15 5 16 6 17 4 18 1 19 2 20 3 21 90 22 88 23 89 24
REMARK SMILES IDX 14 25 15 26 16 27 17 29 18 30 19 31 80 32 20 33 79 34 21 35
REMARK SMILES IDX 22 36 23 37 73 38 24 39 78 40 72 41 74 42 25 43 77 44 71 45
REMARK SMILES IDX 70 46 26 48 58 49 38 50 57 51 39 52 42 53 56 54 75 55 40 56
REMARK SMILES IDX 41 57 55 59 76 60 43 61 27 62 28 63 36 64 29 65 35 66 37 67
REMARK SMILES IDX 34 68 30 69 31 70 32 71 33 72 59 73 60 74 68 75 61 76 67 77
REMARK SMILES IDX 69 78 66 79 62 80 63 81 64 82 65 83 44 84 45 85 53 86 46 87
REMARK SMILES IDX 52 88 54 89 51 90 47 91 48 92 49 93 50 94
REMARK H PARENT 11 6 15 28 74 47 42 58
REMARK Flexibility Score: inf
ROOT
ATOM      1  C   UNL A   1      32.809  29.355  24.946  1.00  0.00     0.042 C 
ENDROOT
BRANCH   1   2
ATOM      2  C   UNL A   1      33.932  28.361  25.217  1.00  0.00     0.117 C 
BRANCH   2   3
ATOM      3  N   UNL A   1      33.480  27.138  25.858  1.00  0.00    -0.354 N 
ATOM      4  C   UNL A   1      33.725  25.821  25.647  1.00  0.00     0.242 C 
ATOM      5  O   UNL A   1      33.242  25.047  26.489  1.00  0.00    -0.273 OA
ATOM      6  H   UNL A   1      32.863  27.300  26.608  1.00  0.00     0.163 HD
BRANCH   4   7
ATOM      7  C   UNL A   1      34.459  25.209  24.426  1.00  0.00     0.175 C 
ATOM      8  N   UNL A   1      33.760  24.435  23.391  1.00  0.00    -0.323 N 
ATOM      9  C   UNL A   1      34.211  23.046  23.378  1.00  0.00     0.089 C 
ATOM     10  C   UNL A   1      35.540  24.238  24.957  1.00  0.00     0.041 C 
ATOM     11  C   UNL A   1      35.660  23.178  23.855  1.00  0.00     0.014 C 
ATOM     12  C   UNL A   1      33.368  22.154  24.293  1.00  0.00     0.025 C 
ATOM     13  C   UNL A   1      36.308  21.865  24.279  1.00  0.00     0.006 C 
ATOM     14  C   UNL A   1      34.034  20.810  24.557  1.00  0.00     0.002 C 
ATOM     15  C   UNL A   1      35.420  20.998  25.165  1.00  0.00     0.000 C 
BRANCH   8  16
ATOM     16  C   UNL A   1      32.985  24.918  22.346  1.00  0.00     0.255 C 
ATOM     17  O   UNL A   1      33.203  24.590  21.179  1.00  0.00    -0.269 OA
BRANCH  16  18
ATOM     18  C   UNL A   1      31.913  25.862  22.661  1.00  0.00     0.053 A 
ATOM     19  C   UNL A   1      30.198  29.209  22.129  1.00  0.00     0.056 C 
ATOM     20  C   UNL A   1      30.656  27.844  22.510  1.00  0.00     0.003 A 
ATOM     21  C   UNL A   1      31.803  27.191  22.119  1.00  0.00     0.029 A 
ATOM     22  S   UNL A   1      29.695  26.862  23.517  1.00  0.00    -0.145 S 
ATOM     23  C   UNL A   1      30.787  25.545  23.406  1.00  0.00     0.014 A 
ATOM     24  C   UNL A   1      30.418  24.254  24.062  1.00  0.00     0.057 C 
ENDBRANCH  16  18
ENDBRANCH   8  16
ENDBRANCH   4   7
ENDBRANCH   2   3
ENDBRANCH   1   2
BRANCH   1  25
ATOM     25  C   UNL A   1      31.987  29.735  26.171  1.00  0.00     0.118 C 
BRANCH  25  26
ATOM     26  N   UNL A   1      31.889  31.173  26.351  1.00  0.00    -0.352 N 
ATOM     27  C   UNL A   1      32.632  32.058  27.095  1.00  0.00     0.251 C 
ATOM     28  H   UNL A   1      31.154  31.592  25.847  1.00  0.00     0.163 HD
ATOM     29  O   UNL A   1      32.182  33.192  27.251  1.00  0.00    -0.269 OA
BRANCH  27  30
ATOM     30  C   UNL A   1      33.934  31.694  27.717  1.00  0.00     0.039 A 
ATOM     31  C   UNL A   1      34.152  30.353  28.061  1.00  0.00     0.014 A 
ATOM     32  C   UNL A   1      34.891  32.645  28.074  1.00  0.00     0.014 A 
ATOM     33  C   UNL A   1      35.321  29.970  28.730  1.00  0.00     0.010 A 
ATOM     34  C   UNL A   1      36.099  32.252  28.657  1.00  0.00     0.010 A 
ATOM     35  C   UNL A   1      36.315  30.915  29.026  1.00  0.00    -0.014 A 
BRANCH  35  36
ATOM     36  C   UNL A   1      37.530  30.549  29.805  1.00  0.00     0.031 A 
ATOM     37  C   UNL A   1      38.587  29.674  29.175  1.00  0.00     0.074 A 
ATOM     38  C   UNL A   1      37.675  30.958  31.080  1.00  0.00     0.049 A 
ATOM     39  N   UNL A   1      39.658  29.143  29.709  1.00  0.00    -0.248 NA
ATOM     40  C   UNL A   1      38.383  29.314  27.764  1.00  0.00     0.031 C 
ATOM     41  C   UNL A   1      36.717  31.777  31.824  1.00  0.00     0.029 A 
ATOM     42  N   UNL A   1      38.688  30.735  31.980  1.00  0.00    -0.354 N 
ATOM     43  C   UNL A   1      40.228  28.353  28.714  1.00  0.00     0.074 A 
ATOM     44  C   UNL A   1      39.354  28.437  27.564  1.00  0.00     0.031 C 
ATOM     45  C   UNL A   1      37.200  32.010  33.056  1.00  0.00     0.029 A 
ATOM     46  C   UNL A   1      38.484  31.331  33.203  1.00  0.00     0.049 A 
ATOM     47  H   UNL A   1      39.486  30.198  31.769  1.00  0.00     0.167 HD
ATOM     48  C   UNL A   1      41.383  27.639  28.746  1.00  0.00     0.034 A 
ATOM     49  C   UNL A   1      39.245  31.328  34.315  1.00  0.00     0.034 A 
ATOM     50  C   UNL A   1      42.277  27.606  29.876  1.00  0.00     0.049 A 
ATOM     51  C   UNL A   1      40.553  30.584  34.308  1.00  0.00     0.074 A 
ATOM     52  C   UNL A   1      43.493  26.955  30.002  1.00  0.00     0.029 A 
ATOM     53  N   UNL A   1      42.059  28.270  31.076  1.00  0.00    -0.354 N 
ATOM     54  N   UNL A   1      41.079  29.846  33.357  1.00  0.00    -0.248 NA
ATOM     55  C   UNL A   1      41.377  30.682  35.520  1.00  0.00     0.031 C 
ATOM     56  C   UNL A   1      43.994  27.200  31.288  1.00  0.00     0.029 A 
ATOM     57  C   UNL A   1      43.113  28.042  31.947  1.00  0.00     0.049 A 
ATOM     58  H   UNL A   1      41.269  28.822  31.280  1.00  0.00     0.167 HD
ATOM     59  C   UNL A   1      42.304  29.411  33.853  1.00  0.00     0.074 A 
ATOM     60  C   UNL A   1      42.445  29.980  35.177  1.00  0.00     0.031 C 
ATOM     61  C   UNL A   1      43.231  28.611  33.266  1.00  0.00     0.034 A 
BRANCH  48  62
ATOM     62  C   UNL A   1      41.718  26.820  27.521  1.00  0.00     0.023 A 
ATOM     63  C   UNL A   1      41.424  25.448  27.449  1.00  0.00     0.031 A 
ATOM     64  C   UNL A   1      42.395  27.406  26.438  1.00  0.00     0.131 A 
ATOM     65  C   UNL A   1      41.891  24.688  26.367  1.00  0.00     0.055 A 
ATOM     66  C   UNL A   1      42.780  26.661  25.320  1.00  0.00     0.041 A 
ATOM     67  F   UNL A   1      42.717  28.709  26.456  1.00  0.00    -0.206 F 
ATOM     68  C   UNL A   1      42.546  25.289  25.289  1.00  0.00     0.022 A 
BRANCH  65  69
ATOM     69  S   UNL A   1      41.768  22.881  26.462  1.00  0.00     0.124 S 
ATOM     70  O   UNL A   1      42.415  22.479  25.215  1.00  0.00    -0.237 OA
ATOM     71  O   UNL A   1      42.498  22.577  27.687  1.00  0.00    -0.237 OA
ATOM     72  O   UNL A   1      40.328  22.637  26.516  1.00  0.00    -0.744 OA
ENDBRANCH  65  69
ENDBRANCH  48  62
BRANCH  49  73
ATOM     73  C   UNL A   1      38.800  32.058  35.533  1.00  0.00     0.023 A 
ATOM     74  C   UNL A   1      38.234  31.370  36.616  1.00  0.00     0.031 A 
ATOM     75  C   UNL A   1      38.899  33.458  35.613  1.00  0.00     0.131 A 
ATOM     76  C   UNL A   1      37.748  32.085  37.720  1.00  0.00     0.055 A 
ATOM     77  C   UNL A   1      38.447  34.163  36.730  1.00  0.00     0.041 A 
ATOM     78  F   UNL A   1      39.443  34.159  34.606  1.00  0.00    -0.206 F 
ATOM     79  C   UNL A   1      37.856  33.476  37.788  1.00  0.00     0.022 A 
BRANCH  76  80
ATOM     80  S   UNL A   1      36.904  31.172  39.041  1.00  0.00     0.124 S 
ATOM     81  O   UNL A   1      35.672  31.937  39.194  1.00  0.00    -0.237 OA
ATOM     82  O   UNL A   1      36.766  29.845  38.449  1.00  0.00    -0.237 OA
ATOM     83  O   UNL A   1      37.836  31.258  40.164  1.00  0.00    -0.744 OA
ENDBRANCH  76  80
ENDBRANCH  49  73
BRANCH  61  84
ATOM     84  C   UNL A   1      44.489  28.349  34.051  1.00  0.00     0.023 A 
ATOM     85  C   UNL A   1      44.591  27.256  34.928  1.00  0.00     0.031 A 
ATOM     86  C   UNL A   1      45.583  29.223  33.943  1.00  0.00     0.131 A 
ATOM     87  C   UNL A   1      45.749  27.092  35.703  1.00  0.00     0.055 A 
ATOM     88  C   UNL A   1      46.748  29.032  34.685  1.00  0.00     0.041 A 
ATOM     89  F   UNL A   1      45.532  30.282  33.118  1.00  0.00    -0.206 F 
ATOM     90  C   UNL A   1      46.831  27.968  35.581  1.00  0.00     0.022 A 
BRANCH  87  91
ATOM     91  S   UNL A   1      45.789  25.764  36.937  1.00  0.00     0.124 S 
ATOM     92  O   UNL A   1      46.143  26.487  38.155  1.00  0.00    -0.237 OA
ATOM     93  O   UNL A   1      44.428  25.241  36.878  1.00  0.00    -0.237 OA
ATOM     94  O   UNL A   1      46.822  24.858  36.433  1.00  0.00    -0.744 OA
ENDBRANCH  87  91
ENDBRANCH  61  84
ENDBRANCH  35  36
ENDBRANCH  27  30
ENDBRANCH  25  26
ENDBRANCH   1  25
TORSDOF 15
ENDMDL
