MODEL 1
REMARK VINA RESULT:     -12.4      0.000      0.000
REMARK SMILES C[C@H]1[C@H](C(=O)NCCCNC(=O)c2ccc(-c3c4nc(c(-c5cc(S(=O)(=O)[O-])ccc5F)c5ccc([nH]5)c(-c5cc(S(=O)(=O)[O-])ccc5F)c5nc(c(-c6cc(S(=O)(=O)[O-])ccc6F)c6ccc3[nH]6)C=C5)C=C4)cc2)CCN1c1ncnc2sccc12
REMARK SMILES IDX 9 1 8 2 7 3 6 4 4 5 5 6 3 8 1 9 2 10 78 11 76 12 77 13 79 14
REMARK SMILES IDX 80 15 87 16 81 17 83 18 86 19 82 20 84 21 85 22 10 23 11 24
REMARK SMILES IDX 12 26 13 27 14 28 75 29 15 30 74 31 16 32 17 33 18 34 68 35
REMARK SMILES IDX 19 36 73 37 67 38 69 39 20 40 72 41 66 42 65 43 21 45 53 46
REMARK SMILES IDX 33 47 52 48 34 49 37 50 51 51 70 52 35 53 36 54 50 56 71 57
REMARK SMILES IDX 38 58 22 59 23 60 31 61 24 62 30 63 32 64 29 65 25 66 26 67
REMARK SMILES IDX 27 68 28 69 54 70 55 71 63 72 56 73 62 74 64 75 61 76 57 77
REMARK SMILES IDX 58 78 59 79 60 80 39 81 40 82 48 83 41 84 47 85 49 86 46 87
REMARK SMILES IDX 42 88 43 89 44 90 45 91
REMARK H PARENT 6 7 10 25 69 44 37 55
REMARK Flexibility Score: inf
ROOT
ATOM      1  C   UNL A   1      32.718  32.578  27.306  1.00  0.00     0.118 C 
ENDROOT
BRANCH   1   2
ATOM      2  C   UNL A   1      31.561  32.040  26.474  1.00  0.00     0.042 C 
BRANCH   2   3
ATOM      3  C   UNL A   1      31.662  30.553  26.159  1.00  0.00     0.117 C 
BRANCH   3   4
ATOM      4  N   UNL A   1      31.074  30.210  24.874  1.00  0.00    -0.356 N 
ATOM      5  C   UNL A   1      31.455  29.319  23.921  1.00  0.00     0.225 C 
ATOM      6  O   UNL A   1      30.757  29.244  22.905  1.00  0.00    -0.275 OA
ATOM      7  H   UNL A   1      30.257  30.713  24.655  1.00  0.00     0.163 HD
BRANCH   5   8
ATOM      8  C   UNL A   1      32.664  28.411  24.073  1.00  0.00     0.102 C 
ATOM      9  C   UNL A   1      33.725  27.836  26.283  1.00  0.00     0.032 C 
ATOM     10  C   UNL A   1      32.586  27.509  25.312  1.00  0.00     0.093 C 
ATOM     11  N   UNL A   1      32.710  26.143  24.790  1.00  0.00    -0.352 N 
ATOM     12  C   UNL A   1      32.904  27.515  22.864  1.00  0.00     0.037 C 
ATOM     13  C   UNL A   1      33.095  26.100  23.397  1.00  0.00     0.119 C 
BRANCH  11  14
ATOM     14  C   UNL A   1      32.374  25.055  25.569  1.00  0.00     0.141 A 
ATOM     15  N   UNL A   1      31.059  24.916  25.895  1.00  0.00    -0.219 NA
ATOM     16  C   UNL A   1      33.261  24.049  26.046  1.00  0.00     0.054 A 
ATOM     17  C   UNL A   1      30.648  23.881  26.640  1.00  0.00     0.225 A 
ATOM     18  C   UNL A   1      32.686  23.026  26.794  1.00  0.00     0.128 A 
ATOM     19  C   UNL A   1      34.683  23.820  25.945  1.00  0.00     0.026 A 
ATOM     20  N   UNL A   1      31.395  22.897  27.127  1.00  0.00    -0.225 NA
ATOM     21  S   UNL A   1      33.804  21.842  27.303  1.00  0.00    -0.124 S 
ATOM     22  C   UNL A   1      35.099  22.658  26.556  1.00  0.00     0.068 A 
ENDBRANCH  11  14
ENDBRANCH   5   8
ENDBRANCH   3   4
ENDBRANCH   2   3
ENDBRANCH   1   2
BRANCH   1  23
ATOM     23  N   UNL A   1      32.550  33.983  27.653  1.00  0.00    -0.352 N 
ATOM     24  C   UNL A   1      33.155  34.732  28.631  1.00  0.00     0.251 C 
ATOM     25  H   UNL A   1      31.900  34.472  27.099  1.00  0.00     0.163 HD
ATOM     26  O   UNL A   1      32.707  35.851  28.884  1.00  0.00    -0.269 OA
BRANCH  24  27
ATOM     27  C   UNL A   1      34.313  34.207  29.385  1.00  0.00     0.039 A 
ATOM     28  C   UNL A   1      34.080  33.451  30.538  1.00  0.00     0.014 A 
ATOM     29  C   UNL A   1      35.625  34.477  28.986  1.00  0.00     0.014 A 
ATOM     30  C   UNL A   1      35.158  32.918  31.251  1.00  0.00     0.010 A 
ATOM     31  C   UNL A   1      36.694  33.876  29.648  1.00  0.00     0.010 A 
ATOM     32  C   UNL A   1      36.473  33.095  30.791  1.00  0.00    -0.014 A 
BRANCH  32  33
ATOM     33  C   UNL A   1      37.623  32.471  31.498  1.00  0.00     0.031 A 
ATOM     34  C   UNL A   1      38.366  31.320  30.873  1.00  0.00     0.074 A 
ATOM     35  C   UNL A   1      37.961  32.906  32.729  1.00  0.00     0.049 A 
ATOM     36  N   UNL A   1      39.352  30.610  31.358  1.00  0.00    -0.248 NA
ATOM     37  C   UNL A   1      37.916  30.893  29.540  1.00  0.00     0.031 C 
ATOM     38  C   UNL A   1      37.282  33.978  33.460  1.00  0.00     0.029 A 
ATOM     39  N   UNL A   1      38.952  32.498  33.584  1.00  0.00    -0.354 N 
ATOM     40  C   UNL A   1      39.636  29.647  30.394  1.00  0.00     0.074 A 
ATOM     41  C   UNL A   1      38.669  29.824  29.331  1.00  0.00     0.031 C 
ATOM     42  C   UNL A   1      37.893  34.158  34.642  1.00  0.00     0.029 A 
ATOM     43  C   UNL A   1      38.976  33.190  34.773  1.00  0.00     0.049 A 
ATOM     44  H   UNL A   1      39.588  31.777  33.368  1.00  0.00     0.167 HD
ATOM     45  C   UNL A   1      40.627  28.719  30.384  1.00  0.00     0.034 A 
ATOM     46  C   UNL A   1      39.773  33.054  35.851  1.00  0.00     0.034 A 
ATOM     47  C   UNL A   1      41.587  28.561  31.451  1.00  0.00     0.049 A 
ATOM     48  C   UNL A   1      40.863  32.013  35.822  1.00  0.00     0.074 A 
ATOM     49  C   UNL A   1      42.658  27.687  31.526  1.00  0.00     0.029 A 
ATOM     50  N   UNL A   1      41.589  29.288  32.635  1.00  0.00    -0.354 N 
ATOM     51  N   UNL A   1      41.151  31.145  34.881  1.00  0.00    -0.248 NA
ATOM     52  C   UNL A   1      41.743  31.947  36.995  1.00  0.00     0.031 C 
ATOM     53  C   UNL A   1      43.266  27.842  32.778  1.00  0.00     0.029 A 
ATOM     54  C   UNL A   1      42.624  28.866  33.456  1.00  0.00     0.049 A 
ATOM     55  H   UNL A   1      40.947  30.002  32.859  1.00  0.00     0.167 HD
ATOM     56  C   UNL A   1      42.262  30.443  35.340  1.00  0.00     0.074 A 
ATOM     57  C   UNL A   1      42.604  31.009  36.630  1.00  0.00     0.031 C 
ATOM     58  C   UNL A   1      42.940  29.425  34.750  1.00  0.00     0.034 A 
BRANCH  45  59
ATOM     59  C   UNL A   1      40.700  27.798  29.188  1.00  0.00     0.023 A 
ATOM     60  C   UNL A   1      41.632  28.004  28.154  1.00  0.00     0.031 A 
ATOM     61  C   UNL A   1      39.804  26.721  29.057  1.00  0.00     0.131 A 
ATOM     62  C   UNL A   1      41.591  27.205  27.002  1.00  0.00     0.055 A 
ATOM     63  C   UNL A   1      39.827  25.875  27.946  1.00  0.00     0.041 A 
ATOM     64  F   UNL A   1      38.878  26.483  29.999  1.00  0.00    -0.206 F 
ATOM     65  C   UNL A   1      40.712  26.124  26.902  1.00  0.00     0.022 A 
BRANCH  62  66
ATOM     66  S   UNL A   1      42.598  27.694  25.574  1.00  0.00     0.124 S 
ATOM     67  O   UNL A   1      43.891  27.955  26.202  1.00  0.00    -0.237 OA
ATOM     68  O   UNL A   1      42.528  26.514  24.720  1.00  0.00    -0.237 OA
ATOM     69  O   UNL A   1      41.913  28.878  25.060  1.00  0.00    -0.744 OA
ENDBRANCH  62  66
ENDBRANCH  45  59
BRANCH  46  70
ATOM     70  C   UNL A   1      39.571  33.916  37.050  1.00  0.00     0.023 A 
ATOM     71  C   UNL A   1      38.944  33.420  38.204  1.00  0.00     0.031 A 
ATOM     72  C   UNL A   1      39.978  35.263  37.047  1.00  0.00     0.131 A 
ATOM     73  C   UNL A   1      38.701  34.276  39.290  1.00  0.00     0.055 A 
ATOM     74  C   UNL A   1      39.781  36.096  38.150  1.00  0.00     0.041 A 
ATOM     75  F   UNL A   1      40.590  35.785  35.971  1.00  0.00    -0.206 F 
ATOM     76  C   UNL A   1      39.126  35.606  39.276  1.00  0.00     0.022 A 
BRANCH  73  77
ATOM     77  S   UNL A   1      37.746  33.643  40.697  1.00  0.00     0.124 S 
ATOM     78  O   UNL A   1      37.424  34.871  41.415  1.00  0.00    -0.237 OA
ATOM     79  O   UNL A   1      36.631  32.977  40.032  1.00  0.00    -0.237 OA
ATOM     80  O   UNL A   1      38.687  32.752  41.374  1.00  0.00    -0.744 OA
ENDBRANCH  73  77
ENDBRANCH  46  70
BRANCH  58  81
ATOM     81  C   UNL A   1      44.140  28.887  35.492  1.00  0.00     0.023 A 
ATOM     82  C   UNL A   1      44.035  27.802  36.381  1.00  0.00     0.031 A 
ATOM     83  C   UNL A   1      45.402  29.489  35.332  1.00  0.00     0.131 A 
ATOM     84  C   UNL A   1      45.152  27.396  37.125  1.00  0.00     0.055 A 
ATOM     85  C   UNL A   1      46.525  29.037  36.025  1.00  0.00     0.041 A 
ATOM     86  F   UNL A   1      45.561  30.530  34.498  1.00  0.00    -0.206 F 
ATOM     87  C   UNL A   1      46.401  27.996  36.940  1.00  0.00     0.022 A 
BRANCH  84  88
ATOM     88  S   UNL A   1      44.929  26.143  38.417  1.00  0.00     0.124 S 
ATOM     89  O   UNL A   1      43.752  26.641  39.123  1.00  0.00    -0.237 OA
ATOM     90  O   UNL A   1      44.737  24.923  37.639  1.00  0.00    -0.237 OA
ATOM     91  O   UNL A   1      46.178  26.205  39.175  1.00  0.00    -0.744 OA
ENDBRANCH  84  88
ENDBRANCH  58  81
ENDBRANCH  32  33
ENDBRANCH  24  27
ENDBRANCH   1  23
TORSDOF 14
ENDMDL
MODEL 2
REMARK VINA RESULT:     -12.3      1.287      1.535
REMARK SMILES C[C@H]1[C@H](C(=O)NCCCNC(=O)c2ccc(-c3c4nc(c(-c5cc(S(=O)(=O)[O-])ccc5F)c5ccc([nH]5)c(-c5cc(S(=O)(=O)[O-])ccc5F)c5nc(c(-c6cc(S(=O)(=O)[O-])ccc6F)c6ccc3[nH]6)C=C5)C=C4)cc2)CCN1c1ncnc2sccc12
REMARK SMILES IDX 9 1 8 2 7 3 6 4 4 5 5 6 3 8 1 9 2 10 78 11 76 12 77 13 79 14
REMARK SMILES IDX 80 15 87 16 81 17 83 18 86 19 82 20 84 21 85 22 10 23 11 24
REMARK SMILES IDX 12 26 13 27 14 28 75 29 15 30 74 31 16 32 17 33 18 34 68 35
REMARK SMILES IDX 19 36 73 37 67 38 69 39 20 40 72 41 66 42 65 43 21 45 53 46
REMARK SMILES IDX 33 47 52 48 34 49 37 50 51 51 70 52 35 53 36 54 50 56 71 57
REMARK SMILES IDX 38 58 22 59 23 60 31 61 24 62 30 63 32 64 29 65 25 66 26 67
REMARK SMILES IDX 27 68 28 69 54 70 55 71 63 72 56 73 62 74 64 75 61 76 57 77
REMARK SMILES IDX 58 78 59 79 60 80 39 81 40 82 48 83 41 84 47 85 49 86 46 87
REMARK SMILES IDX 42 88 43 89 44 90 45 91
REMARK H PARENT 6 7 10 25 69 44 37 55
REMARK Flexibility Score: inf
ROOT
ATOM      1  C   UNL A   1      32.816  32.622  27.286  1.00  0.00     0.118 C 
ENDROOT
BRANCH   1   2
ATOM      2  C   UNL A   1      31.625  32.084  26.504  1.00  0.00     0.042 C 
BRANCH   2   3
ATOM      3  C   UNL A   1      31.683  30.585  26.240  1.00  0.00     0.117 C 
BRANCH   3   4
ATOM      4  N   UNL A   1      31.109  30.219  24.955  1.00  0.00    -0.356 N 
ATOM      5  C   UNL A   1      31.509  29.323  24.015  1.00  0.00     0.225 C 
ATOM      6  O   UNL A   1      30.819  29.226  22.995  1.00  0.00    -0.275 OA
ATOM      7  H   UNL A   1      30.286  30.708  24.724  1.00  0.00     0.163 HD
BRANCH   5   8
ATOM      8  C   UNL A   1      32.729  28.432  24.187  1.00  0.00     0.102 C 
ATOM      9  C   UNL A   1      33.739  27.842  26.416  1.00  0.00     0.032 C 
ATOM     10  C   UNL A   1      32.633  27.511  25.409  1.00  0.00     0.093 C 
ATOM     11  N   UNL A   1      32.795  26.155  24.872  1.00  0.00    -0.352 N 
ATOM     12  C   UNL A   1      33.017  27.559  22.972  1.00  0.00     0.037 C 
ATOM     13  C   UNL A   1      33.218  26.140  23.489  1.00  0.00     0.119 C 
BRANCH  11  14
ATOM     14  C   UNL A   1      32.456  25.050  25.624  1.00  0.00     0.141 A 
ATOM     15  N   UNL A   1      31.142  24.907  25.948  1.00  0.00    -0.219 NA
ATOM     16  C   UNL A   1      33.342  24.031  26.077  1.00  0.00     0.054 A 
ATOM     17  C   UNL A   1      30.728  23.855  26.669  1.00  0.00     0.225 A 
ATOM     18  C   UNL A   1      32.765  22.992  26.801  1.00  0.00     0.128 A 
ATOM     19  C   UNL A   1      34.763  23.802  25.970  1.00  0.00     0.026 A 
ATOM     20  N   UNL A   1      31.473  22.859  27.133  1.00  0.00    -0.225 NA
ATOM     21  S   UNL A   1      33.880  21.794  27.282  1.00  0.00    -0.124 S 
ATOM     22  C   UNL A   1      35.177  22.624  26.554  1.00  0.00     0.068 A 
ENDBRANCH  11  14
ENDBRANCH   5   8
ENDBRANCH   3   4
ENDBRANCH   2   3
ENDBRANCH   1   2
BRANCH   1  23
ATOM     23  N   UNL A   1      32.636  34.009  27.694  1.00  0.00    -0.352 N 
ATOM     24  C   UNL A   1      33.220  34.714  28.716  1.00  0.00     0.251 C 
ATOM     25  H   UNL A   1      31.993  34.521  27.151  1.00  0.00     0.163 HD
ATOM     26  O   UNL A   1      32.763  35.819  29.013  1.00  0.00    -0.269 OA
BRANCH  24  27
ATOM     27  C   UNL A   1      34.368  34.160  29.466  1.00  0.00     0.039 A 
ATOM     28  C   UNL A   1      34.118  33.323  30.558  1.00  0.00     0.014 A 
ATOM     29  C   UNL A   1      35.684  34.480  29.125  1.00  0.00     0.014 A 
ATOM     30  C   UNL A   1      35.186  32.761  31.263  1.00  0.00     0.010 A 
ATOM     31  C   UNL A   1      36.746  33.854  29.774  1.00  0.00     0.010 A 
ATOM     32  C   UNL A   1      36.510  32.992  30.854  1.00  0.00    -0.014 A 
BRANCH  32  33
ATOM     33  C   UNL A   1      37.652  32.343  31.550  1.00  0.00     0.031 A 
ATOM     34  C   UNL A   1      38.395  31.209  30.896  1.00  0.00     0.074 A 
ATOM     35  C   UNL A   1      37.982  32.737  32.797  1.00  0.00     0.049 A 
ATOM     36  N   UNL A   1      39.375  30.480  31.365  1.00  0.00    -0.248 NA
ATOM     37  C   UNL A   1      37.954  30.826  29.547  1.00  0.00     0.031 C 
ATOM     38  C   UNL A   1      37.301  33.789  33.556  1.00  0.00     0.029 A 
ATOM     39  N   UNL A   1      38.965  32.299  33.646  1.00  0.00    -0.354 N 
ATOM     40  C   UNL A   1      39.663  29.546  30.374  1.00  0.00     0.074 A 
ATOM     41  C   UNL A   1      38.705  29.760  29.310  1.00  0.00     0.031 C 
ATOM     42  C   UNL A   1      37.903  33.929  34.748  1.00  0.00     0.029 A 
ATOM     43  C   UNL A   1      38.982  32.953  34.856  1.00  0.00     0.049 A 
ATOM     44  H   UNL A   1      39.599  31.582  33.413  1.00  0.00     0.167 HD
ATOM     45  C   UNL A   1      40.650  28.616  30.342  1.00  0.00     0.034 A 
ATOM     46  C   UNL A   1      39.770  32.780  35.936  1.00  0.00     0.034 A 
ATOM     47  C   UNL A   1      41.601  28.420  31.411  1.00  0.00     0.049 A 
ATOM     48  C   UNL A   1      40.856  31.736  35.883  1.00  0.00     0.074 A 
ATOM     49  C   UNL A   1      42.668  27.540  31.467  1.00  0.00     0.029 A 
ATOM     50  N   UNL A   1      41.596  29.110  32.617  1.00  0.00    -0.354 N 
ATOM     51  N   UNL A   1      41.148  30.897  34.917  1.00  0.00    -0.248 NA
ATOM     52  C   UNL A   1      41.727  31.630  37.059  1.00  0.00     0.031 C 
ATOM     53  C   UNL A   1      43.267  27.653  32.727  1.00  0.00     0.029 A 
ATOM     54  C   UNL A   1      42.624  28.657  33.432  1.00  0.00     0.049 A 
ATOM     55  H   UNL A   1      40.956  29.818  32.859  1.00  0.00     0.167 HD
ATOM     56  C   UNL A   1      42.253  30.176  35.363  1.00  0.00     0.074 A 
ATOM     57  C   UNL A   1      42.587  30.701  36.672  1.00  0.00     0.031 C 
ATOM     58  C   UNL A   1      42.932  29.175  34.746  1.00  0.00     0.034 A 
BRANCH  45  59
ATOM     59  C   UNL A   1      40.729  27.732  29.118  1.00  0.00     0.023 A 
ATOM     60  C   UNL A   1      41.677  27.960  28.104  1.00  0.00     0.031 A 
ATOM     61  C   UNL A   1      39.823  26.671  28.941  1.00  0.00     0.131 A 
ATOM     62  C   UNL A   1      41.643  27.198  26.927  1.00  0.00     0.055 A 
ATOM     63  C   UNL A   1      39.851  25.860  27.804  1.00  0.00     0.041 A 
ATOM     64  F   UNL A   1      38.881  26.414  29.862  1.00  0.00    -0.206 F 
ATOM     65  C   UNL A   1      40.753  26.132  26.780  1.00  0.00     0.022 A 
BRANCH  62  66
ATOM     66  S   UNL A   1      42.675  27.720  25.529  1.00  0.00     0.124 S 
ATOM     67  O   UNL A   1      43.949  27.993  26.190  1.00  0.00    -0.237 OA
ATOM     68  O   UNL A   1      42.644  26.550  24.659  1.00  0.00    -0.237 OA
ATOM     69  O   UNL A   1      41.984  28.900  25.013  1.00  0.00    -0.744 OA
ENDBRANCH  62  66
ENDBRANCH  45  59
BRANCH  46  70
ATOM     70  C   UNL A   1      39.562  33.605  37.160  1.00  0.00     0.023 A 
ATOM     71  C   UNL A   1      40.337  34.749  37.405  1.00  0.00     0.031 A 
ATOM     72  C   UNL A   1      38.601  33.240  38.120  1.00  0.00     0.131 A 
ATOM     73  C   UNL A   1      40.168  35.464  38.602  1.00  0.00     0.055 A 
ATOM     74  C   UNL A   1      38.401  33.984  39.284  1.00  0.00     0.041 A 
ATOM     75  F   UNL A   1      37.828  32.158  37.930  1.00  0.00    -0.206 F 
ATOM     76  C   UNL A   1      39.198  35.097  39.537  1.00  0.00     0.022 A 
BRANCH  73  77
ATOM     77  S   UNL A   1      41.295  36.841  38.956  1.00  0.00     0.124 S 
ATOM     78  O   UNL A   1      40.361  37.923  39.249  1.00  0.00    -0.237 OA
ATOM     79  O   UNL A   1      42.055  36.326  40.090  1.00  0.00    -0.237 OA
ATOM     80  O   UNL A   1      42.053  36.988  37.716  1.00  0.00    -0.744 OA
ENDBRANCH  73  77
ENDBRANCH  46  70
BRANCH  58  81
ATOM     81  C   UNL A   1      44.124  28.610  35.480  1.00  0.00     0.023 A 
ATOM     82  C   UNL A   1      43.999  27.528  36.370  1.00  0.00     0.031 A 
ATOM     83  C   UNL A   1      45.398  29.180  35.309  1.00  0.00     0.131 A 
ATOM     84  C   UNL A   1      45.112  27.096  37.106  1.00  0.00     0.055 A 
ATOM     85  C   UNL A   1      46.516  28.703  35.995  1.00  0.00     0.041 A 
ATOM     86  F   UNL A   1      45.577  30.217  34.474  1.00  0.00    -0.206 F 
ATOM     87  C   UNL A   1      46.373  27.666  36.912  1.00  0.00     0.022 A 
BRANCH  84  88
ATOM     88  S   UNL A   1      44.868  25.850  38.402  1.00  0.00     0.124 S 
ATOM     89  O   UNL A   1      46.239  25.440  38.690  1.00  0.00    -0.237 OA
ATOM     90  O   UNL A   1      44.199  26.615  39.449  1.00  0.00    -0.237 OA
ATOM     91  O   UNL A   1      44.041  24.835  37.750  1.00  0.00    -0.744 OA
ENDBRANCH  84  88
ENDBRANCH  58  81
ENDBRANCH  32  33
ENDBRANCH  24  27
ENDBRANCH   1  23
TORSDOF 14
ENDMDL
MODEL 3
REMARK VINA RESULT:     -12.2      4.149     10.354
REMARK SMILES C[C@H]1[C@H](C(=O)NCCCNC(=O)c2ccc(-c3c4nc(c(-c5cc(S(=O)(=O)[O-])ccc5F)c5ccc([nH]5)c(-c5cc(S(=O)(=O)[O-])ccc5F)c5nc(c(-c6cc(S(=O)(=O)[O-])ccc6F)c6ccc3[nH]6)C=C5)C=C4)cc2)CCN1c1ncnc2sccc12
REMARK SMILES IDX 9 1 8 2 7 3 6 4 4 5 5 6 3 8 1 9 2 10 78 11 76 12 77 13 79 14
REMARK SMILES IDX 80 15 87 16 81 17 83 18 86 19 82 20 84 21 85 22 10 23 11 24
REMARK SMILES IDX 12 26 13 27 14 28 75 29 15 30 74 31 16 32 17 33 18 34 68 35
REMARK SMILES IDX 19 36 73 37 67 38 69 39 20 40 72 41 66 42 65 43 21 45 53 46
REMARK SMILES IDX 33 47 52 48 34 49 37 50 51 51 70 52 35 53 36 54 50 56 71 57
REMARK SMILES IDX 38 58 22 59 23 60 31 61 24 62 30 63 32 64 29 65 25 66 26 67
REMARK SMILES IDX 27 68 28 69 54 70 55 71 63 72 56 73 62 74 64 75 61 76 57 77
REMARK SMILES IDX 58 78 59 79 60 80 39 81 40 82 48 83 41 84 47 85 49 86 46 87
REMARK SMILES IDX 42 88 43 89 44 90 45 91
REMARK H PARENT 6 7 10 25 69 44 37 55
REMARK Flexibility Score: inf
ROOT
ATOM      1  C   UNL A   1      35.146  33.261  27.910  1.00  0.00     0.118 C 
ENDROOT
BRANCH   1   2
ATOM      2  C   UNL A   1      34.474  34.629  27.920  1.00  0.00     0.042 C 
BRANCH   2   3
ATOM      3  C   UNL A   1      33.184  34.680  28.727  1.00  0.00     0.117 C 
BRANCH   3   4
ATOM      4  N   UNL A   1      33.009  35.943  29.426  1.00  0.00    -0.356 N 
ATOM      5  C   UNL A   1      33.132  36.267  30.740  1.00  0.00     0.225 C 
ATOM      6  O   UNL A   1      32.912  37.440  31.057  1.00  0.00    -0.275 OA
ATOM      7  H   UNL A   1      32.756  36.697  28.845  1.00  0.00     0.163 HD
BRANCH   5   8
ATOM      8  C   UNL A   1      33.556  35.267  31.803  1.00  0.00     0.102 C 
ATOM      9  C   UNL A   1      34.754  33.109  31.308  1.00  0.00     0.032 C 
ATOM     10  C   UNL A   1      34.915  34.618  31.511  1.00  0.00     0.093 C 
ATOM     11  N   UNL A   1      35.732  34.909  32.695  1.00  0.00    -0.352 N 
ATOM     12  C   UNL A   1      33.619  35.862  33.204  1.00  0.00     0.037 C 
ATOM     13  C   UNL A   1      34.966  35.459  33.791  1.00  0.00     0.119 C 
BRANCH  11  14
ATOM     14  C   UNL A   1      37.102  34.756  32.664  1.00  0.00     0.141 A 
ATOM     15  N   UNL A   1      37.751  34.790  33.861  1.00  0.00    -0.219 NA
ATOM     16  C   UNL A   1      37.904  34.544  31.507  1.00  0.00     0.054 A 
ATOM     17  C   UNL A   1      39.081  34.639  33.919  1.00  0.00     0.225 A 
ATOM     18  C   UNL A   1      39.270  34.388  31.725  1.00  0.00     0.128 A 
ATOM     19  C   UNL A   1      37.637  34.451  30.091  1.00  0.00     0.026 A 
ATOM     20  N   UNL A   1      39.910  34.436  32.902  1.00  0.00    -0.225 NA
ATOM     21  S   UNL A   1      40.161  34.105  30.298  1.00  0.00    -0.124 S 
ATOM     22  C   UNL A   1      38.759  34.194  29.335  1.00  0.00     0.068 A 
ENDBRANCH  11  14
ENDBRANCH   5   8
ENDBRANCH   3   4
ENDBRANCH   2   3
ENDBRANCH   1   2
BRANCH   1  23
ATOM     23  N   UNL A   1      34.201  32.176  27.680  1.00  0.00    -0.352 N 
ATOM     24  C   UNL A   1      34.395  30.819  27.677  1.00  0.00     0.251 C 
ATOM     25  H   UNL A   1      33.277  32.464  27.497  1.00  0.00     0.163 HD
ATOM     26  O   UNL A   1      33.499  30.091  27.248  1.00  0.00    -0.269 OA
BRANCH  24  27
ATOM     27  C   UNL A   1      35.663  30.229  28.160  1.00  0.00     0.039 A 
ATOM     28  C   UNL A   1      36.760  30.187  27.294  1.00  0.00     0.014 A 
ATOM     29  C   UNL A   1      35.773  29.690  29.444  1.00  0.00     0.014 A 
ATOM     30  C   UNL A   1      37.978  29.664  27.737  1.00  0.00     0.010 A 
ATOM     31  C   UNL A   1      37.008  29.247  29.912  1.00  0.00     0.010 A 
ATOM     32  C   UNL A   1      38.123  29.223  29.063  1.00  0.00    -0.014 A 
BRANCH  32  33
ATOM     33  C   UNL A   1      39.432  28.732  29.569  1.00  0.00     0.031 A 
ATOM     34  C   UNL A   1      40.101  29.415  30.732  1.00  0.00     0.074 A 
ATOM     35  C   UNL A   1      40.045  27.707  28.942  1.00  0.00     0.049 A 
ATOM     36  N   UNL A   1      41.265  29.172  31.277  1.00  0.00    -0.248 NA
ATOM     37  C   UNL A   1      39.375  30.539  31.341  1.00  0.00     0.031 C 
ATOM     38  C   UNL A   1      39.521  27.001  27.771  1.00  0.00     0.029 A 
ATOM     39  N   UNL A   1      41.241  27.087  29.196  1.00  0.00    -0.354 N 
ATOM     40  C   UNL A   1      41.417  30.117  32.287  1.00  0.00     0.074 A 
ATOM     41  C   UNL A   1      40.255  30.979  32.228  1.00  0.00     0.031 C 
ATOM     42  C   UNL A   1      40.380  26.029  27.424  1.00  0.00     0.029 A 
ATOM     43  C   UNL A   1      41.533  26.069  28.317  1.00  0.00     0.049 A 
ATOM     44  H   UNL A   1      41.836  27.345  29.937  1.00  0.00     0.167 HD
ATOM     45  C   UNL A   1      42.418  30.239  33.195  1.00  0.00     0.034 A 
ATOM     46  C   UNL A   1      42.611  25.265  28.233  1.00  0.00     0.034 A 
ATOM     47  C   UNL A   1      43.567  29.366  33.243  1.00  0.00     0.049 A 
ATOM     48  C   UNL A   1      43.715  25.422  29.247  1.00  0.00     0.074 A 
ATOM     49  C   UNL A   1      44.617  29.370  34.146  1.00  0.00     0.029 A 
ATOM     50  N   UNL A   1      43.823  28.338  32.345  1.00  0.00    -0.354 N 
ATOM     51  N   UNL A   1      43.818  26.288  30.228  1.00  0.00    -0.248 NA
ATOM     52  C   UNL A   1      44.837  24.482  29.151  1.00  0.00     0.031 C 
ATOM     53  C   UNL A   1      45.535  28.387  33.757  1.00  0.00     0.029 A 
ATOM     54  C   UNL A   1      45.025  27.718  32.656  1.00  0.00     0.049 A 
ATOM     55  H   UNL A   1      43.236  28.085  31.595  1.00  0.00     0.167 HD
ATOM     56  C   UNL A   1      45.009  25.981  30.880  1.00  0.00     0.074 A 
ATOM     57  C   UNL A   1      45.572  24.835  30.195  1.00  0.00     0.031 C 
ATOM     58  C   UNL A   1      45.585  26.589  31.949  1.00  0.00     0.034 A 
BRANCH  45  59
ATOM     59  C   UNL A   1      42.313  31.371  34.192  1.00  0.00     0.023 A 
ATOM     60  C   UNL A   1      41.428  31.312  35.284  1.00  0.00     0.031 A 
ATOM     61  C   UNL A   1      43.079  32.540  34.032  1.00  0.00     0.131 A 
ATOM     62  C   UNL A   1      41.267  32.428  36.119  1.00  0.00     0.055 A 
ATOM     63  C   UNL A   1      42.977  33.615  34.918  1.00  0.00     0.041 A 
ATOM     64  F   UNL A   1      43.927  32.666  33.000  1.00  0.00    -0.206 F 
ATOM     65  C   UNL A   1      42.055  33.571  35.959  1.00  0.00     0.022 A 
BRANCH  62  66
ATOM     66  S   UNL A   1      39.906  32.423  37.318  1.00  0.00     0.124 S 
ATOM     67  O   UNL A   1      39.268  33.709  37.044  1.00  0.00    -0.237 OA
ATOM     68  O   UNL A   1      39.148  31.238  36.931  1.00  0.00    -0.237 OA
ATOM     69  O   UNL A   1      40.585  32.336  38.609  1.00  0.00    -0.744 OA
ENDBRANCH  62  66
ENDBRANCH  45  59
BRANCH  46  70
ATOM     70  C   UNL A   1      42.708  24.246  27.149  1.00  0.00     0.023 A 
ATOM     71  C   UNL A   1      42.064  23.004  27.261  1.00  0.00     0.031 A 
ATOM     72  C   UNL A   1      43.474  24.491  25.995  1.00  0.00     0.131 A 
ATOM     73  C   UNL A   1      42.233  22.036  26.259  1.00  0.00     0.055 A 
ATOM     74  C   UNL A   1      43.596  23.544  24.977  1.00  0.00     0.041 A 
ATOM     75  F   UNL A   1      44.104  25.666  25.835  1.00  0.00    -0.206 F 
ATOM     76  C   UNL A   1      42.985  22.302  25.112  1.00  0.00     0.022 A 
BRANCH  73  77
ATOM     77  S   UNL A   1      41.518  20.388  26.513  1.00  0.00     0.124 S 
ATOM     78  O   UNL A   1      42.007  20.054  27.847  1.00  0.00    -0.237 OA
ATOM     79  O   UNL A   1      40.088  20.658  26.404  1.00  0.00    -0.237 OA
ATOM     80  O   UNL A   1      42.087  19.598  25.423  1.00  0.00    -0.744 OA
ENDBRANCH  73  77
ENDBRANCH  46  70
BRANCH  58  81
ATOM     81  C   UNL A   1      46.878  25.994  32.454  1.00  0.00     0.023 A 
ATOM     82  C   UNL A   1      46.895  24.991  33.440  1.00  0.00     0.031 A 
ATOM     83  C   UNL A   1      48.112  26.460  31.966  1.00  0.00     0.131 A 
ATOM     84  C   UNL A   1      48.118  24.536  33.954  1.00  0.00     0.055 A 
ATOM     85  C   UNL A   1      49.326  25.956  32.434  1.00  0.00     0.041 A 
ATOM     86  F   UNL A   1      48.157  27.419  31.026  1.00  0.00    -0.206 F 
ATOM     87  C   UNL A   1      49.334  25.000  33.444  1.00  0.00     0.022 A 
BRANCH  84  88
ATOM     88  S   UNL A   1      48.100  23.405  35.373  1.00  0.00     0.124 S 
ATOM     89  O   UNL A   1      46.957  23.897  36.137  1.00  0.00    -0.237 OA
ATOM     90  O   UNL A   1      47.928  22.105  34.734  1.00  0.00    -0.237 OA
ATOM     91  O   UNL A   1      49.403  23.621  36.000  1.00  0.00    -0.744 OA
ENDBRANCH  84  88
ENDBRANCH  58  81
ENDBRANCH  32  33
ENDBRANCH  24  27
ENDBRANCH   1  23
TORSDOF 14
ENDMDL
