MODEL 1
REMARK VINA RESULT:     -11.5      0.000      0.000
REMARK SMILES CC(C)C[C@H](Nc1ncnc2scc(-c3ccccc3)c12)C(=O)NCCCNC(=O)c1ccc(-c2c3nc(c(-c4cc(S(=O)(=O)[O-])ccc4F)c4ccc([nH]4)c(-c4cc(S(=O)(=O)[O-])ccc4F)c4nc(c(-c5cc(S(=O)(=O)[O-])ccc5F)c5ccc2[nH]5)C=C4)C=C3)cc1
REMARK SMILES IDX 26 1 25 2 24 3 22 4 23 5 5 7 4 8 2 9 1 10 3 11 6 12 7 14
REMARK SMILES IDX 8 15 21 16 9 17 11 18 14 19 10 20 12 21 13 22 15 23 16 24
REMARK SMILES IDX 20 25 17 26 19 27 18 28 27 29 28 30 29 31 30 33 31 34 32 35
REMARK SMILES IDX 93 36 33 37 92 38 34 39 35 40 36 41 86 42 37 43 91 44 85 45
REMARK SMILES IDX 87 46 38 47 90 48 84 49 83 50 39 52 71 53 51 54 70 55 52 56
REMARK SMILES IDX 55 57 69 58 88 59 53 60 54 61 68 63 89 64 56 65 40 66 41 67
REMARK SMILES IDX 49 68 42 69 48 70 50 71 47 72 43 73 44 74 45 75 46 76 72 77
REMARK SMILES IDX 73 78 81 79 74 80 80 81 82 82 79 83 75 84 76 85 77 86 78 87
REMARK SMILES IDX 57 88 58 89 66 90 59 91 65 92 67 93 64 94 60 95 61 96 62 97
REMARK SMILES IDX 63 98
REMARK H PARENT 24 6 6 13 28 32 87 51 55 62
REMARK Flexibility Score: inf
ROOT
ATOM      1  C   UNL A   1      32.104  27.865  26.300  1.00  0.00     0.042 C 
ENDROOT
BRANCH   1   2
ATOM      2  C   UNL A   1      32.557  26.416  26.366  1.00  0.00     0.117 C 
BRANCH   2   3
ATOM      3  N   UNL A   1      31.528  25.477  26.787  1.00  0.00    -0.354 N 
ATOM      4  C   UNL A   1      30.847  24.513  26.105  1.00  0.00     0.242 C 
ATOM      5  O   UNL A   1      30.079  23.809  26.775  1.00  0.00    -0.273 OA
ATOM      6  H   UNL A   1      31.278  25.553  27.737  1.00  0.00     0.163 HD
BRANCH   4   7
ATOM      7  C   UNL A   1      30.968  24.292  24.580  1.00  0.00     0.170 C 
BRANCH   7   8
ATOM      8  C   UNL A   1      30.074  25.165  23.666  1.00  0.00     0.038 C 
BRANCH   8   9
ATOM      9  C   UNL A   1      29.480  26.491  24.194  1.00  0.00    -0.015 C 
ATOM     10  C   UNL A   1      30.156  27.737  23.605  1.00  0.00     0.007 C 
ATOM     11  C   UNL A   1      27.979  26.585  23.897  1.00  0.00     0.007 C 
ENDBRANCH   8   9
ENDBRANCH   7   8
BRANCH   7  12
ATOM     12  N   UNL A   1      31.170  22.861  24.272  1.00  0.00    -0.358 N 
ATOM     13  H   UNL A   1      30.454  22.415  23.763  1.00  0.00     0.162 HD
BRANCH  12  14
ATOM     14  C   UNL A   1      32.246  22.087  24.620  1.00  0.00     0.139 A 
ATOM     15  N   UNL A   1      32.010  20.984  25.363  1.00  0.00    -0.219 NA
ATOM     16  C   UNL A   1      33.590  22.394  24.259  1.00  0.00     0.062 A 
ATOM     17  C   UNL A   1      33.026  20.193  25.720  1.00  0.00     0.225 A 
ATOM     18  C   UNL A   1      34.539  21.500  24.756  1.00  0.00     0.129 A 
ATOM     19  C   UNL A   1      34.259  23.469  23.515  1.00  0.00     0.006 A 
ATOM     20  N   UNL A   1      34.312  20.387  25.469  1.00  0.00    -0.225 NA
ATOM     21  S   UNL A   1      36.143  21.944  24.416  1.00  0.00    -0.123 S 
ATOM     22  C   UNL A   1      35.639  23.343  23.594  1.00  0.00     0.076 A 
BRANCH  19  23
ATOM     23  C   UNL A   1      33.729  24.652  22.821  1.00  0.00    -0.017 A 
ATOM     24  C   UNL A   1      33.015  24.516  21.621  1.00  0.00     0.009 A 
ATOM     25  C   UNL A   1      34.006  25.946  23.268  1.00  0.00     0.009 A 
ATOM     26  C   UNL A   1      32.601  25.642  20.899  1.00  0.00     0.001 A 
ATOM     27  C   UNL A   1      33.576  27.074  22.566  1.00  0.00     0.001 A 
ATOM     28  C   UNL A   1      32.878  26.922  21.376  1.00  0.00     0.000 A 
ENDBRANCH  19  23
ENDBRANCH  12  14
ENDBRANCH   7  12
ENDBRANCH   4   7
ENDBRANCH   2   3
ENDBRANCH   1   2
BRANCH   1  29
ATOM     29  C   UNL A   1      33.195  28.826  25.871  1.00  0.00     0.118 C 
BRANCH  29  30
ATOM     30  N   UNL A   1      32.809  30.208  26.100  1.00  0.00    -0.352 N 
ATOM     31  C   UNL A   1      33.324  31.111  26.998  1.00  0.00     0.251 C 
ATOM     32  H   UNL A   1      32.078  30.544  25.533  1.00  0.00     0.163 HD
ATOM     33  O   UNL A   1      32.687  32.134  27.257  1.00  0.00    -0.269 OA
BRANCH  31  34
ATOM     34  C   UNL A   1      34.618  30.845  27.664  1.00  0.00     0.039 A 
ATOM     35  C   UNL A   1      35.593  31.843  27.701  1.00  0.00     0.014 A 
ATOM     36  C   UNL A   1      34.879  29.600  28.242  1.00  0.00     0.014 A 
ATOM     37  C   UNL A   1      36.802  31.610  28.364  1.00  0.00     0.010 A 
ATOM     38  C   UNL A   1      36.029  29.410  28.999  1.00  0.00     0.010 A 
ATOM     39  C   UNL A   1      37.018  30.401  29.046  1.00  0.00    -0.014 A 
BRANCH  39  40
ATOM     40  C   UNL A   1      38.291  30.122  29.766  1.00  0.00     0.031 A 
ATOM     41  C   UNL A   1      39.297  29.177  29.159  1.00  0.00     0.074 A 
ATOM     42  C   UNL A   1      38.513  30.658  30.983  1.00  0.00     0.049 A 
ATOM     43  N   UNL A   1      40.411  28.711  29.664  1.00  0.00    -0.248 NA
ATOM     44  C   UNL A   1      38.983  28.650  27.821  1.00  0.00     0.031 C 
ATOM     45  C   UNL A   1      37.596  31.550  31.697  1.00  0.00     0.029 A 
ATOM     46  N   UNL A   1      39.577  30.524  31.839  1.00  0.00    -0.354 N 
ATOM     47  C   UNL A   1      40.912  27.820  28.721  1.00  0.00     0.074 A 
ATOM     48  C   UNL A   1      39.943  27.756  27.649  1.00  0.00     0.031 C 
ATOM     49  C   UNL A   1      38.151  31.907  32.866  1.00  0.00     0.029 A 
ATOM     50  C   UNL A   1      39.439  31.235  33.010  1.00  0.00     0.049 A 
ATOM     51  H   UNL A   1      40.365  29.971  31.636  1.00  0.00     0.167 HD
ATOM     52  C   UNL A   1      42.086  27.140  28.730  1.00  0.00     0.034 A 
ATOM     53  C   UNL A   1      40.253  31.326  34.081  1.00  0.00     0.034 A 
ATOM     54  C   UNL A   1      43.058  27.245  29.789  1.00  0.00     0.049 A 
ATOM     55  C   UNL A   1      41.554  30.564  34.070  1.00  0.00     0.074 A 
ATOM     56  C   UNL A   1      44.308  26.656  29.876  1.00  0.00     0.029 A 
ATOM     57  N   UNL A   1      42.891  27.991  30.950  1.00  0.00    -0.354 N 
ATOM     58  N   UNL A   1      42.035  29.760  33.149  1.00  0.00    -0.248 NA
ATOM     59  C   UNL A   1      42.429  30.731  35.238  1.00  0.00     0.031 C 
ATOM     60  C   UNL A   1      44.867  26.994  31.112  1.00  0.00     0.029 A 
ATOM     61  C   UNL A   1      44.002  27.855  31.768  1.00  0.00     0.049 A 
ATOM     62  H   UNL A   1      42.098  28.536  31.161  1.00  0.00     0.167 HD
ATOM     63  C   UNL A   1      43.282  29.352  33.615  1.00  0.00     0.074 A 
ATOM     64  C   UNL A   1      43.484  30.010  34.890  1.00  0.00     0.031 C 
ATOM     65  C   UNL A   1      44.182  28.513  33.041  1.00  0.00     0.034 A 
BRANCH  52  66
ATOM     66  C   UNL A   1      42.364  26.215  27.567  1.00  0.00     0.023 A 
ATOM     67  C   UNL A   1      41.839  24.912  27.516  1.00  0.00     0.031 A 
ATOM     68  C   UNL A   1      43.196  26.629  26.511  1.00  0.00     0.131 A 
ATOM     69  C   UNL A   1      42.220  24.042  26.485  1.00  0.00     0.055 A 
ATOM     70  C   UNL A   1      43.499  25.786  25.439  1.00  0.00     0.041 A 
ATOM     71  F   UNL A   1      43.744  27.854  26.511  1.00  0.00    -0.206 F 
ATOM     72  C   UNL A   1      43.025  24.478  25.431  1.00  0.00     0.022 A 
BRANCH  69  73
ATOM     73  S   UNL A   1      41.776  22.288  26.625  1.00  0.00     0.124 S 
ATOM     74  O   UNL A   1      42.418  21.922  27.886  1.00  0.00    -0.237 OA
ATOM     75  O   UNL A   1      40.319  22.332  26.637  1.00  0.00    -0.237 OA
ATOM     76  O   UNL A   1      42.373  21.687  25.433  1.00  0.00    -0.744 OA
ENDBRANCH  69  73
ENDBRANCH  52  66
BRANCH  53  77
ATOM     77  C   UNL A   1      39.869  32.163  35.254  1.00  0.00     0.023 A 
ATOM     78  C   UNL A   1      39.043  31.652  36.267  1.00  0.00     0.031 A 
ATOM     79  C   UNL A   1      40.292  33.500  35.360  1.00  0.00     0.131 A 
ATOM     80  C   UNL A   1      38.624  32.483  37.317  1.00  0.00     0.055 A 
ATOM     81  C   UNL A   1      39.916  34.308  36.435  1.00  0.00     0.041 A 
ATOM     82  F   UNL A   1      41.089  34.037  34.423  1.00  0.00    -0.206 F 
ATOM     83  C   UNL A   1      39.066  33.805  37.414  1.00  0.00     0.022 A 
BRANCH  80  84
ATOM     84  S   UNL A   1      37.421  31.837  38.510  1.00  0.00     0.124 S 
ATOM     85  O   UNL A   1      36.285  32.726  38.298  1.00  0.00    -0.237 OA
ATOM     86  O   UNL A   1      37.254  30.460  38.055  1.00  0.00    -0.237 OA
ATOM     87  O   UNL A   1      38.102  31.988  39.794  1.00  0.00    -0.744 OA
ENDBRANCH  80  84
ENDBRANCH  53  77
BRANCH  65  88
ATOM     88  C   UNL A   1      45.484  28.301  33.772  1.00  0.00     0.023 A 
ATOM     89  C   UNL A   1      46.608  29.110  33.532  1.00  0.00     0.031 A 
ATOM     90  C   UNL A   1      45.601  27.267  34.718  1.00  0.00     0.131 A 
ATOM     91  C   UNL A   1      47.817  28.837  34.189  1.00  0.00     0.055 A 
ATOM     92  C   UNL A   1      46.789  27.038  35.412  1.00  0.00     0.041 A 
ATOM     93  F   UNL A   1      44.559  26.463  34.985  1.00  0.00    -0.206 F 
ATOM     94  C   UNL A   1      47.910  27.817  35.140  1.00  0.00     0.022 A 
BRANCH  91  95
ATOM     95  S   UNL A   1      49.294  29.778  33.720  1.00  0.00     0.124 S 
ATOM     96  O   UNL A   1      49.543  29.297  32.364  1.00  0.00    -0.237 OA
ATOM     97  O   UNL A   1      48.834  31.158  33.831  1.00  0.00    -0.237 OA
ATOM     98  O   UNL A   1      50.288  29.375  34.713  1.00  0.00    -0.744 OA
ENDBRANCH  91  95
ENDBRANCH  65  88
ENDBRANCH  39  40
ENDBRANCH  31  34
ENDBRANCH  29  30
ENDBRANCH   1  29
TORSDOF 18
ENDMDL
MODEL 2
REMARK VINA RESULT:     -11.4      2.166      7.979
REMARK SMILES CC(C)C[C@H](Nc1ncnc2scc(-c3ccccc3)c12)C(=O)NCCCNC(=O)c1ccc(-c2c3nc(c(-c4cc(S(=O)(=O)[O-])ccc4F)c4ccc([nH]4)c(-c4cc(S(=O)(=O)[O-])ccc4F)c4nc(c(-c5cc(S(=O)(=O)[O-])ccc5F)c5ccc2[nH]5)C=C4)C=C3)cc1
REMARK SMILES IDX 26 1 25 2 24 3 22 4 23 5 5 7 4 8 2 9 1 10 3 11 6 12 7 14
REMARK SMILES IDX 8 15 21 16 9 17 11 18 14 19 10 20 12 21 13 22 15 23 16 24
REMARK SMILES IDX 20 25 17 26 19 27 18 28 27 29 28 30 29 31 30 33 31 34 32 35
REMARK SMILES IDX 93 36 33 37 92 38 34 39 35 40 36 41 86 42 37 43 91 44 85 45
REMARK SMILES IDX 87 46 38 47 90 48 84 49 83 50 39 52 71 53 51 54 70 55 52 56
REMARK SMILES IDX 55 57 69 58 88 59 53 60 54 61 68 63 89 64 56 65 40 66 41 67
REMARK SMILES IDX 49 68 42 69 48 70 50 71 47 72 43 73 44 74 45 75 46 76 72 77
REMARK SMILES IDX 73 78 81 79 74 80 80 81 82 82 79 83 75 84 76 85 77 86 78 87
REMARK SMILES IDX 57 88 58 89 66 90 59 91 65 92 67 93 64 94 60 95 61 96 62 97
REMARK SMILES IDX 63 98
REMARK H PARENT 24 6 6 13 28 32 87 51 55 62
REMARK Flexibility Score: inf
ROOT
ATOM      1  C   UNL A   1      32.060  28.248  26.698  1.00  0.00     0.042 C 
ENDROOT
BRANCH   1   2
ATOM      2  C   UNL A   1      31.965  26.731  26.718  1.00  0.00     0.117 C 
BRANCH   2   3
ATOM      3  N   UNL A   1      30.623  26.210  26.922  1.00  0.00    -0.354 N 
ATOM      4  C   UNL A   1      30.021  25.062  26.495  1.00  0.00     0.242 C 
ATOM      5  O   UNL A   1      28.873  24.861  26.913  1.00  0.00    -0.273 OA
ATOM      6  H   UNL A   1      30.043  26.791  27.466  1.00  0.00     0.163 HD
BRANCH   4   7
ATOM      7  C   UNL A   1      30.680  24.058  25.523  1.00  0.00     0.170 C 
BRANCH   7   8
ATOM      8  C   UNL A   1      31.938  23.308  26.025  1.00  0.00     0.038 C 
BRANCH   8   9
ATOM      9  C   UNL A   1      32.095  21.791  25.768  1.00  0.00    -0.015 C 
ATOM     10  C   UNL A   1      32.128  21.427  24.278  1.00  0.00     0.007 C 
ATOM     11  C   UNL A   1      33.374  21.247  26.415  1.00  0.00     0.007 C 
ENDBRANCH   8   9
ENDBRANCH   7   8
BRANCH   7  12
ATOM     12  N   UNL A   1      30.621  24.558  24.133  1.00  0.00    -0.358 N 
ATOM     13  H   UNL A   1      30.625  23.879  23.421  1.00  0.00     0.162 HD
BRANCH  12  14
ATOM     14  C   UNL A   1      30.560  25.867  23.731  1.00  0.00     0.139 A 
ATOM     15  N   UNL A   1      29.337  26.425  23.598  1.00  0.00    -0.219 NA
ATOM     16  C   UNL A   1      31.707  26.655  23.428  1.00  0.00     0.062 A 
ATOM     17  C   UNL A   1      29.226  27.700  23.217  1.00  0.00     0.225 A 
ATOM     18  C   UNL A   1      31.420  27.948  22.991  1.00  0.00     0.129 A 
ATOM     19  C   UNL A   1      33.159  26.435  23.413  1.00  0.00     0.006 A 
ATOM     20  N   UNL A   1      30.211  28.521  22.885  1.00  0.00    -0.225 NA
ATOM     21  S   UNL A   1      32.791  28.835  22.524  1.00  0.00    -0.123 S 
ATOM     22  C   UNL A   1      33.823  27.534  22.885  1.00  0.00     0.076 A 
BRANCH  19  23
ATOM     23  C   UNL A   1      33.972  25.258  23.755  1.00  0.00    -0.017 A 
ATOM     24  C   UNL A   1      34.674  25.204  24.969  1.00  0.00     0.009 A 
ATOM     25  C   UNL A   1      34.160  24.211  22.850  1.00  0.00     0.009 A 
ATOM     26  C   UNL A   1      35.534  24.136  25.255  1.00  0.00     0.001 A 
ATOM     27  C   UNL A   1      34.997  23.131  23.138  1.00  0.00     0.001 A 
ATOM     28  C   UNL A   1      35.691  23.098  24.340  1.00  0.00     0.000 A 
ENDBRANCH  19  23
ENDBRANCH  12  14
ENDBRANCH   7  12
ENDBRANCH   4   7
ENDBRANCH   2   3
ENDBRANCH   1   2
BRANCH   1  29
ATOM     29  C   UNL A   1      33.452  28.776  26.981  1.00  0.00     0.118 C 
BRANCH  29  30
ATOM     30  N   UNL A   1      33.470  30.228  27.042  1.00  0.00    -0.352 N 
ATOM     31  C   UNL A   1      34.330  31.053  27.726  1.00  0.00     0.251 C 
ATOM     32  H   UNL A   1      32.770  30.683  26.521  1.00  0.00     0.163 HD
ATOM     33  O   UNL A   1      34.021  32.233  27.901  1.00  0.00    -0.269 OA
BRANCH  31  34
ATOM     34  C   UNL A   1      35.600  30.522  28.268  1.00  0.00     0.039 A 
ATOM     35  C   UNL A   1      35.598  29.844  29.489  1.00  0.00     0.014 A 
ATOM     36  C   UNL A   1      36.801  30.706  27.579  1.00  0.00     0.014 A 
ATOM     37  C   UNL A   1      36.790  29.307  29.986  1.00  0.00     0.010 A 
ATOM     38  C   UNL A   1      37.959  30.072  28.014  1.00  0.00     0.010 A 
ATOM     39  C   UNL A   1      37.975  29.388  29.237  1.00  0.00    -0.014 A 
BRANCH  39  40
ATOM     40  C   UNL A   1      39.258  28.822  29.734  1.00  0.00     0.031 A 
ATOM     41  C   UNL A   1      39.945  29.460  30.916  1.00  0.00     0.074 A 
ATOM     42  C   UNL A   1      39.838  27.788  29.091  1.00  0.00     0.049 A 
ATOM     43  N   UNL A   1      41.116  29.198  31.439  1.00  0.00    -0.248 NA
ATOM     44  C   UNL A   1      39.236  30.572  31.569  1.00  0.00     0.031 C 
ATOM     45  C   UNL A   1      39.296  27.114  27.909  1.00  0.00     0.029 A 
ATOM     46  N   UNL A   1      41.015  27.127  29.338  1.00  0.00    -0.354 N 
ATOM     47  C   UNL A   1      41.293  30.128  32.458  1.00  0.00     0.074 A 
ATOM     48  C   UNL A   1      40.143  31.005  32.429  1.00  0.00     0.031 C 
ATOM     49  C   UNL A   1      40.123  26.117  27.554  1.00  0.00     0.029 A 
ATOM     50  C   UNL A   1      41.276  26.109  28.449  1.00  0.00     0.049 A 
ATOM     51  H   UNL A   1      41.617  27.359  30.081  1.00  0.00     0.167 HD
ATOM     52  C   UNL A   1      42.305  30.226  33.356  1.00  0.00     0.034 A 
ATOM     53  C   UNL A   1      42.328  25.271  28.361  1.00  0.00     0.034 A 
ATOM     54  C   UNL A   1      43.426  29.320  33.394  1.00  0.00     0.049 A 
ATOM     55  C   UNL A   1      43.441  25.395  29.371  1.00  0.00     0.074 A 
ATOM     56  C   UNL A   1      44.475  29.282  34.297  1.00  0.00     0.029 A 
ATOM     57  N   UNL A   1      43.645  28.289  32.488  1.00  0.00    -0.354 N 
ATOM     58  N   UNL A   1      43.572  26.252  30.358  1.00  0.00    -0.248 NA
ATOM     59  C   UNL A   1      44.544  24.430  29.262  1.00  0.00     0.031 C 
ATOM     60  C   UNL A   1      45.357  28.271  33.901  1.00  0.00     0.029 A 
ATOM     61  C   UNL A   1      44.823  27.627  32.797  1.00  0.00     0.049 A 
ATOM     62  H   UNL A   1      43.049  28.061  31.738  1.00  0.00     0.167 HD
ATOM     63  C   UNL A   1      44.755  25.908  31.005  1.00  0.00     0.074 A 
ATOM     64  C   UNL A   1      45.291  24.758  30.306  1.00  0.00     0.031 C 
ATOM     65  C   UNL A   1      45.346  26.486  32.082  1.00  0.00     0.034 A 
BRANCH  52  66
ATOM     66  C   UNL A   1      42.245  31.363  34.351  1.00  0.00     0.023 A 
ATOM     67  C   UNL A   1      41.306  31.381  35.398  1.00  0.00     0.031 A 
ATOM     68  C   UNL A   1      43.114  32.462  34.231  1.00  0.00     0.131 A 
ATOM     69  C   UNL A   1      41.199  32.508  36.225  1.00  0.00     0.055 A 
ATOM     70  C   UNL A   1      43.062  33.543  35.115  1.00  0.00     0.041 A 
ATOM     71  F   UNL A   1      44.020  32.513  33.241  1.00  0.00    -0.206 F 
ATOM     72  C   UNL A   1      42.087  33.579  36.108  1.00  0.00     0.022 A 
BRANCH  69  73
ATOM     73  S   UNL A   1      39.780  32.623  37.350  1.00  0.00     0.124 S 
ATOM     74  O   UNL A   1      39.199  33.906  36.960  1.00  0.00    -0.237 OA
ATOM     75  O   UNL A   1      39.005  31.438  37.003  1.00  0.00    -0.237 OA
ATOM     76  O   UNL A   1      40.393  32.602  38.677  1.00  0.00    -0.744 OA
ENDBRANCH  69  73
ENDBRANCH  52  66
BRANCH  53  77
ATOM     77  C   UNL A   1      42.389  24.243  27.282  1.00  0.00     0.023 A 
ATOM     78  C   UNL A   1      41.575  23.100  27.327  1.00  0.00     0.031 A 
ATOM     79  C   UNL A   1      43.290  24.369  26.210  1.00  0.00     0.131 A 
ATOM     80  C   UNL A   1      41.709  22.105  26.347  1.00  0.00     0.055 A 
ATOM     81  C   UNL A   1      43.382  23.401  25.207  1.00  0.00     0.041 A 
ATOM     82  F   UNL A   1      44.087  25.445  26.114  1.00  0.00    -0.206 F 
ATOM     83  C   UNL A   1      42.599  22.254  25.280  1.00  0.00     0.022 A 
BRANCH  80  84
ATOM     84  S   UNL A   1      40.764  20.569  26.534  1.00  0.00     0.124 S 
ATOM     85  O   UNL A   1      40.852  20.339  27.971  1.00  0.00    -0.237 OA
ATOM     86  O   UNL A   1      39.453  20.956  26.025  1.00  0.00    -0.237 OA
ATOM     87  O   UNL A   1      41.496  19.615  25.703  1.00  0.00    -0.744 OA
ENDBRANCH  80  84
ENDBRANCH  53  77
BRANCH  65  88
ATOM     88  C   UNL A   1      46.615  25.849  32.592  1.00  0.00     0.023 A 
ATOM     89  C   UNL A   1      47.870  26.153  32.036  1.00  0.00     0.031 A 
ATOM     90  C   UNL A   1      46.563  24.919  33.646  1.00  0.00     0.131 A 
ATOM     91  C   UNL A   1      49.016  25.489  32.500  1.00  0.00     0.055 A 
ATOM     92  C   UNL A   1      47.714  24.308  34.142  1.00  0.00     0.041 A 
ATOM     93  F   UNL A   1      45.390  24.592  34.212  1.00  0.00    -0.206 F 
ATOM     94  C   UNL A   1      48.948  24.582  33.561  1.00  0.00     0.022 A 
BRANCH  91  95
ATOM     95  S   UNL A   1      50.588  25.764  31.638  1.00  0.00     0.124 S 
ATOM     96  O   UNL A   1      50.541  27.198  31.370  1.00  0.00    -0.237 OA
ATOM     97  O   UNL A   1      51.568  25.334  32.630  1.00  0.00    -0.237 OA
ATOM     98  O   UNL A   1      50.485  24.909  30.457  1.00  0.00    -0.744 OA
ENDBRANCH  91  95
ENDBRANCH  65  88
ENDBRANCH  39  40
ENDBRANCH  31  34
ENDBRANCH  29  30
ENDBRANCH   1  29
TORSDOF 18
ENDMDL
MODEL 3
REMARK VINA RESULT:     -11.4      4.536      9.568
REMARK SMILES CC(C)C[C@H](Nc1ncnc2scc(-c3ccccc3)c12)C(=O)NCCCNC(=O)c1ccc(-c2c3nc(c(-c4cc(S(=O)(=O)[O-])ccc4F)c4ccc([nH]4)c(-c4cc(S(=O)(=O)[O-])ccc4F)c4nc(c(-c5cc(S(=O)(=O)[O-])ccc5F)c5ccc2[nH]5)C=C4)C=C3)cc1
REMARK SMILES IDX 26 1 25 2 24 3 22 4 23 5 5 7 4 8 2 9 1 10 3 11 6 12 7 14
REMARK SMILES IDX 8 15 21 16 9 17 11 18 14 19 10 20 12 21 13 22 15 23 16 24
REMARK SMILES IDX 20 25 17 26 19 27 18 28 27 29 28 30 29 31 30 33 31 34 32 35
REMARK SMILES IDX 93 36 33 37 92 38 34 39 35 40 36 41 86 42 37 43 91 44 85 45
REMARK SMILES IDX 87 46 38 47 90 48 84 49 83 50 39 52 71 53 51 54 70 55 52 56
REMARK SMILES IDX 55 57 69 58 88 59 53 60 54 61 68 63 89 64 56 65 40 66 41 67
REMARK SMILES IDX 49 68 42 69 48 70 50 71 47 72 43 73 44 74 45 75 46 76 72 77
REMARK SMILES IDX 73 78 81 79 74 80 80 81 82 82 79 83 75 84 76 85 77 86 78 87
REMARK SMILES IDX 57 88 58 89 66 90 59 91 65 92 67 93 64 94 60 95 61 96 62 97
REMARK SMILES IDX 63 98
REMARK H PARENT 24 6 6 13 28 32 87 51 55 62
REMARK Flexibility Score: inf
ROOT
ATOM      1  C   UNL A   1      37.659  20.119  24.969  1.00  0.00     0.042 C 
ENDROOT
BRANCH   1   2
ATOM      2  C   UNL A   1      36.396  20.961  25.041  1.00  0.00     0.117 C 
BRANCH   2   3
ATOM      3  N   UNL A   1      35.964  21.291  26.391  1.00  0.00    -0.354 N 
ATOM      4  C   UNL A   1      34.789  21.791  26.869  1.00  0.00     0.242 C 
ATOM      5  O   UNL A   1      34.697  21.886  28.100  1.00  0.00    -0.273 OA
ATOM      6  H   UNL A   1      36.643  21.123  27.083  1.00  0.00     0.163 HD
BRANCH   4   7
ATOM      7  C   UNL A   1      33.623  22.257  25.967  1.00  0.00     0.170 C 
BRANCH   7   8
ATOM      8  C   UNL A   1      33.293  23.770  25.962  1.00  0.00     0.038 C 
BRANCH   8   9
ATOM      9  C   UNL A   1      34.410  24.810  25.715  1.00  0.00    -0.015 C 
ATOM     10  C   UNL A   1      35.351  24.430  24.564  1.00  0.00     0.007 C 
ATOM     11  C   UNL A   1      33.824  26.192  25.406  1.00  0.00     0.007 C 
ENDBRANCH   8   9
ENDBRANCH   7   8
BRANCH   7  12
ATOM     12  N   UNL A   1      32.532  21.260  25.965  1.00  0.00    -0.358 N 
ATOM     13  H   UNL A   1      31.749  21.464  26.525  1.00  0.00     0.162 HD
BRANCH  12  14
ATOM     14  C   UNL A   1      32.495  20.082  25.266  1.00  0.00     0.139 A 
ATOM     15  N   UNL A   1      32.683  18.937  25.958  1.00  0.00    -0.219 NA
ATOM     16  C   UNL A   1      32.290  20.003  23.858  1.00  0.00     0.062 A 
ATOM     17  C   UNL A   1      32.647  17.763  25.324  1.00  0.00     0.225 A 
ATOM     18  C   UNL A   1      32.335  18.709  23.340  1.00  0.00     0.129 A 
ATOM     19  C   UNL A   1      32.084  20.968  22.771  1.00  0.00     0.006 A 
ATOM     20  N   UNL A   1      32.492  17.565  24.023  1.00  0.00    -0.225 NA
ATOM     21  S   UNL A   1      32.206  18.643  21.647  1.00  0.00    -0.123 S 
ATOM     22  C   UNL A   1      32.085  20.334  21.536  1.00  0.00     0.076 A 
BRANCH  19  23
ATOM     23  C   UNL A   1      31.983  22.436  22.774  1.00  0.00    -0.017 A 
ATOM     24  C   UNL A   1      30.888  23.076  23.375  1.00  0.00     0.009 A 
ATOM     25  C   UNL A   1      32.906  23.233  22.093  1.00  0.00     0.009 A 
ATOM     26  C   UNL A   1      30.731  24.464  23.288  1.00  0.00     0.001 A 
ATOM     27  C   UNL A   1      32.769  24.620  22.022  1.00  0.00     0.001 A 
ATOM     28  C   UNL A   1      31.675  25.236  22.615  1.00  0.00     0.000 A 
ENDBRANCH  19  23
ENDBRANCH  12  14
ENDBRANCH   7  12
ENDBRANCH   4   7
ENDBRANCH   2   3
ENDBRANCH   1   2
BRANCH   1  29
ATOM     29  C   UNL A   1      38.814  20.680  25.775  1.00  0.00     0.118 C 
BRANCH  29  30
ATOM     30  N   UNL A   1      39.852  19.685  25.984  1.00  0.00    -0.352 N 
ATOM     31  C   UNL A   1      41.201  19.869  26.164  1.00  0.00     0.251 C 
ATOM     32  H   UNL A   1      39.546  18.749  26.001  1.00  0.00     0.163 HD
ATOM     33  O   UNL A   1      41.964  18.910  26.033  1.00  0.00    -0.269 OA
BRANCH  31  34
ATOM     34  C   UNL A   1      41.734  21.211  26.486  1.00  0.00     0.039 A 
ATOM     35  C   UNL A   1      42.113  21.507  27.797  1.00  0.00     0.014 A 
ATOM     36  C   UNL A   1      41.846  22.190  25.496  1.00  0.00     0.014 A 
ATOM     37  C   UNL A   1      42.653  22.761  28.098  1.00  0.00     0.010 A 
ATOM     38  C   UNL A   1      42.491  23.390  25.771  1.00  0.00     0.010 A 
ATOM     39  C   UNL A   1      42.877  23.703  27.081  1.00  0.00    -0.014 A 
BRANCH  39  40
ATOM     40  C   UNL A   1      43.455  25.044  27.366  1.00  0.00     0.031 A 
ATOM     41  C   UNL A   1      42.584  26.116  27.973  1.00  0.00     0.074 A 
ATOM     42  C   UNL A   1      44.729  25.320  27.022  1.00  0.00     0.049 A 
ATOM     43  N   UNL A   1      42.853  27.378  28.198  1.00  0.00    -0.248 NA
ATOM     44  C   UNL A   1      41.212  25.726  28.333  1.00  0.00     0.031 C 
ATOM     45  C   UNL A   1      45.658  24.383  26.387  1.00  0.00     0.029 A 
ATOM     46  N   UNL A   1      45.462  26.474  27.152  1.00  0.00    -0.354 N 
ATOM     47  C   UNL A   1      41.679  27.932  28.697  1.00  0.00     0.074 A 
ATOM     48  C   UNL A   1      40.678  26.888  28.670  1.00  0.00     0.031 C 
ATOM     49  C   UNL A   1      46.844  24.989  26.213  1.00  0.00     0.029 A 
ATOM     50  C   UNL A   1      46.749  26.369  26.677  1.00  0.00     0.049 A 
ATOM     51  H   UNL A   1      45.100  27.299  27.549  1.00  0.00     0.167 HD
ATOM     52  C   UNL A   1      41.461  29.187  29.163  1.00  0.00     0.034 A 
ATOM     53  C   UNL A   1      47.737  27.285  26.613  1.00  0.00     0.034 A 
ATOM     54  C   UNL A   1      42.480  30.205  29.218  1.00  0.00     0.049 A 
ATOM     55  C   UNL A   1      47.474  28.673  27.140  1.00  0.00     0.074 A 
ATOM     56  C   UNL A   1      42.392  31.488  29.729  1.00  0.00     0.029 A 
ATOM     57  N   UNL A   1      43.778  30.054  28.744  1.00  0.00    -0.354 N 
ATOM     58  N   UNL A   1      46.370  29.169  27.651  1.00  0.00    -0.248 NA
ATOM     59  C   UNL A   1      48.594  29.622  27.093  1.00  0.00     0.031 C 
ATOM     60  C   UNL A   1      43.614  32.132  29.509  1.00  0.00     0.029 A 
ATOM     61  C   UNL A   1      44.491  31.229  28.928  1.00  0.00     0.049 A 
ATOM     62  H   UNL A   1      44.139  29.234  28.338  1.00  0.00     0.167 HD
ATOM     63  C   UNL A   1      46.675  30.479  28.013  1.00  0.00     0.074 A 
ATOM     64  C   UNL A   1      48.068  30.689  27.676  1.00  0.00     0.031 C 
ATOM     65  C   UNL A   1      45.879  31.423  28.578  1.00  0.00     0.034 A 
BRANCH  52  66
ATOM     66  C   UNL A   1      40.063  29.522  29.631  1.00  0.00     0.023 A 
ATOM     67  C   UNL A   1      39.743  29.620  30.997  1.00  0.00     0.031 A 
ATOM     68  C   UNL A   1      39.026  29.712  28.700  1.00  0.00     0.131 A 
ATOM     69  C   UNL A   1      38.412  29.808  31.395  1.00  0.00     0.055 A 
ATOM     70  C   UNL A   1      37.716  29.989  29.102  1.00  0.00     0.041 A 
ATOM     71  F   UNL A   1      39.262  29.612  27.383  1.00  0.00    -0.206 F 
ATOM     72  C   UNL A   1      37.400  30.021  30.456  1.00  0.00     0.022 A 
BRANCH  69  73
ATOM     73  S   UNL A   1      37.997  29.615  33.150  1.00  0.00     0.124 S 
ATOM     74  O   UNL A   1      39.324  29.512  33.756  1.00  0.00    -0.237 OA
ATOM     75  O   UNL A   1      37.257  30.838  33.436  1.00  0.00    -0.237 OA
ATOM     76  O   UNL A   1      37.209  28.385  33.184  1.00  0.00    -0.744 OA
ENDBRANCH  69  73
ENDBRANCH  52  66
BRANCH  53  77
ATOM     77  C   UNL A   1      49.062  26.929  26.031  1.00  0.00     0.023 A 
ATOM     78  C   UNL A   1      49.411  27.329  24.731  1.00  0.00     0.031 A 
ATOM     79  C   UNL A   1      49.985  26.149  26.750  1.00  0.00     0.131 A 
ATOM     80  C   UNL A   1      50.628  26.910  24.171  1.00  0.00     0.055 A 
ATOM     81  C   UNL A   1      51.218  25.780  26.208  1.00  0.00     0.041 A 
ATOM     82  F   UNL A   1      49.705  25.745  27.999  1.00  0.00    -0.206 F 
ATOM     83  C   UNL A   1      51.539  26.148  24.906  1.00  0.00     0.022 A 
BRANCH  80  84
ATOM     84  S   UNL A   1      50.965  27.303  22.433  1.00  0.00     0.124 S 
ATOM     85  O   UNL A   1      50.875  28.759  22.435  1.00  0.00    -0.237 OA
ATOM     86  O   UNL A   1      52.299  26.742  22.249  1.00  0.00    -0.237 OA
ATOM     87  O   UNL A   1      49.896  26.613  21.715  1.00  0.00    -0.744 OA
ENDBRANCH  80  84
ENDBRANCH  53  77
BRANCH  65  88
ATOM     88  C   UNL A   1      46.516  32.750  28.905  1.00  0.00     0.023 A 
ATOM     89  C   UNL A   1      47.132  32.989  30.147  1.00  0.00     0.031 A 
ATOM     90  C   UNL A   1      46.497  33.793  27.962  1.00  0.00     0.131 A 
ATOM     91  C   UNL A   1      47.656  34.259  30.431  1.00  0.00     0.055 A 
ATOM     92  C   UNL A   1      47.073  35.035  28.230  1.00  0.00     0.041 A 
ATOM     93  F   UNL A   1      45.921  33.619  26.762  1.00  0.00    -0.206 F 
ATOM     94  C   UNL A   1      47.646  35.278  29.475  1.00  0.00     0.022 A 
BRANCH  91  95
ATOM     95  S   UNL A   1      48.274  34.589  32.104  1.00  0.00     0.124 S 
ATOM     96  O   UNL A   1      49.612  34.006  32.054  1.00  0.00    -0.237 OA
ATOM     97  O   UNL A   1      48.216  36.045  32.177  1.00  0.00    -0.237 OA
ATOM     98  O   UNL A   1      47.324  33.887  32.965  1.00  0.00    -0.744 OA
ENDBRANCH  91  95
ENDBRANCH  65  88
ENDBRANCH  39  40
ENDBRANCH  31  34
ENDBRANCH  29  30
ENDBRANCH   1  29
TORSDOF 18
ENDMDL
