MODEL 1
REMARK VINA RESULT:     -10.3      0.000      0.000
REMARK SMILES C[C@H](CNS(=O)(=O)CCC(=O)NCCCNC(=O)c1ccc(-c2c3nc(c(-c4cc(S(=O)(=O)[O-])ccc4F)c4ccc([nH]4)c(-c4cc(S(=O)(=O)[O-])ccc4F)c4nc(c(-c5cc(S(=O)(=O)[O-])ccc5F)c5ccc2[nH]5)C=C4)C=C3)cc1)c1ccccc1
REMARK SMILES IDX 10 1 11 2 12 3 9 5 8 6 5 7 6 8 7 9 4 10 3 12 2 13 1 14 82 15
REMARK SMILES IDX 83 16 87 17 84 18 86 19 85 20 13 21 14 22 15 23 16 24 17 25
REMARK SMILES IDX 18 27 19 28 20 29 81 30 21 31 80 32 22 33 23 34 24 35 74 36
REMARK SMILES IDX 25 37 79 38 73 39 75 40 26 41 78 42 72 43 71 44 27 46 59 47
REMARK SMILES IDX 39 48 58 49 40 50 43 51 57 52 76 53 41 54 42 55 56 57 77 58
REMARK SMILES IDX 44 59 28 60 29 61 37 62 30 63 36 64 38 65 35 66 31 67 32 68
REMARK SMILES IDX 33 69 34 70 60 71 61 72 69 73 62 74 68 75 70 76 67 77 63 78
REMARK SMILES IDX 64 79 65 80 66 81 45 82 46 83 54 84 47 85 53 86 55 87 52 88
REMARK SMILES IDX 48 89 49 90 50 91 51 92
REMARK H PARENT 12 4 4 11 16 26 75 45 43 56
REMARK Flexibility Score: inf
ROOT
ATOM      1  C   UNL A   1      32.684  22.587  23.672  1.00  0.00     0.221 C 
ATOM      2  O   UNL A   1      32.524  22.798  22.468  1.00  0.00    -0.275 OA
ATOM      3  N   UNL A   1      33.895  22.109  24.085  1.00  0.00    -0.356 N 
ATOM      4  H   UNL A   1      34.473  21.789  23.356  1.00  0.00     0.163 HD
ENDROOT
BRANCH   1   5
ATOM      5  C   UNL A   1      31.523  22.744  24.621  1.00  0.00     0.117 C 
BRANCH   5   6
ATOM      6  C   UNL A   1      31.083  24.200  24.709  1.00  0.00     0.164 C 
BRANCH   6   7
ATOM      7  S   UNL A   1      31.144  24.860  26.367  1.00  0.00     0.212 S 
ATOM      8  O   UNL A   1      31.440  23.776  27.269  1.00  0.00    -0.212 OA
ATOM      9  O   UNL A   1      29.950  25.662  26.532  1.00  0.00    -0.212 OA
BRANCH   7  10
ATOM     10  N   UNL A   1      32.468  25.904  26.337  1.00  0.00    -0.215 NA
ATOM     11  H   UNL A   1      32.166  26.794  26.731  1.00  0.00     0.141 HD
BRANCH  10  12
ATOM     12  C   UNL A   1      33.081  26.187  25.018  1.00  0.00     0.106 C 
BRANCH  12  13
ATOM     13  C   UNL A   1      33.019  27.668  24.569  1.00  0.00     0.031 C 
ATOM     14  C   UNL A   1      31.839  28.034  23.667  1.00  0.00     0.014 C 
BRANCH  13  15
ATOM     15  C   UNL A   1      33.240  28.692  25.669  1.00  0.00    -0.044 A 
ATOM     16  C   UNL A   1      32.230  29.648  25.893  1.00  0.00     0.004 A 
ATOM     17  C   UNL A   1      34.410  28.773  26.435  1.00  0.00     0.004 A 
ATOM     18  C   UNL A   1      32.411  30.690  26.801  1.00  0.00     0.000 A 
ATOM     19  C   UNL A   1      34.594  29.827  27.335  1.00  0.00     0.000 A 
ATOM     20  C   UNL A   1      33.603  30.790  27.510  1.00  0.00     0.000 A 
ENDBRANCH  13  15
ENDBRANCH  12  13
ENDBRANCH  10  12
ENDBRANCH   7  10
ENDBRANCH   6   7
ENDBRANCH   5   6
ENDBRANCH   1   5
BRANCH   3  21
ATOM     21  C   UNL A   1      34.484  21.989  25.416  1.00  0.00     0.117 C 
BRANCH  21  22
ATOM     22  C   UNL A   1      35.093  23.261  26.025  1.00  0.00     0.042 C 
BRANCH  22  23
ATOM     23  C   UNL A   1      36.532  23.639  25.686  1.00  0.00     0.118 C 
BRANCH  23  24
ATOM     24  N   UNL A   1      37.485  22.576  25.917  1.00  0.00    -0.352 N 
ATOM     25  C   UNL A   1      38.781  22.713  26.366  1.00  0.00     0.251 C 
ATOM     26  H   UNL A   1      37.177  21.660  25.734  1.00  0.00     0.163 HD
ATOM     27  O   UNL A   1      39.538  21.748  26.352  1.00  0.00    -0.269 OA
BRANCH  25  28
ATOM     28  C   UNL A   1      39.252  24.029  26.856  1.00  0.00     0.039 A 
ATOM     29  C   UNL A   1      39.857  24.923  25.970  1.00  0.00     0.014 A 
ATOM     30  C   UNL A   1      39.133  24.358  28.205  1.00  0.00     0.014 A 
ATOM     31  C   UNL A   1      40.315  26.167  26.434  1.00  0.00     0.010 A 
ATOM     32  C   UNL A   1      39.577  25.608  28.653  1.00  0.00     0.010 A 
ATOM     33  C   UNL A   1      40.164  26.540  27.781  1.00  0.00    -0.014 A 
BRANCH  33  34
ATOM     34  C   UNL A   1      40.622  27.882  28.271  1.00  0.00     0.031 A 
ATOM     35  C   UNL A   1      42.089  28.249  28.287  1.00  0.00     0.074 A 
ATOM     36  C   UNL A   1      39.730  28.784  28.735  1.00  0.00     0.049 A 
ATOM     37  N   UNL A   1      42.663  29.369  28.658  1.00  0.00    -0.248 NA
ATOM     38  C   UNL A   1      43.032  27.208  27.860  1.00  0.00     0.031 C 
ATOM     39  C   UNL A   1      38.287  28.566  28.840  1.00  0.00     0.029 A 
ATOM     40  N   UNL A   1      39.900  30.071  29.195  1.00  0.00    -0.354 N 
ATOM     41  C   UNL A   1      44.033  29.165  28.509  1.00  0.00     0.074 A 
ATOM     42  C   UNL A   1      44.198  27.783  28.107  1.00  0.00     0.031 C 
ATOM     43  C   UNL A   1      37.700  29.693  29.275  1.00  0.00     0.029 A 
ATOM     44  C   UNL A   1      38.723  30.706  29.525  1.00  0.00     0.049 A 
ATOM     45  H   UNL A   1      40.783  30.499  29.280  1.00  0.00     0.167 HD
ATOM     46  C   UNL A   1      45.058  30.047  28.651  1.00  0.00     0.034 A 
ATOM     47  C   UNL A   1      38.483  31.957  29.973  1.00  0.00     0.034 A 
ATOM     48  C   UNL A   1      44.895  31.424  29.055  1.00  0.00     0.049 A 
ATOM     49  C   UNL A   1      39.638  32.909  30.179  1.00  0.00     0.074 A 
ATOM     50  C   UNL A   1      45.862  32.406  29.181  1.00  0.00     0.029 A 
ATOM     51  N   UNL A   1      43.689  32.014  29.414  1.00  0.00    -0.354 N 
ATOM     52  N   UNL A   1      40.919  32.717  29.968  1.00  0.00    -0.248 NA
ATOM     53  C   UNL A   1      39.307  34.253  30.673  1.00  0.00     0.031 C 
ATOM     54  C   UNL A   1      45.260  33.560  29.695  1.00  0.00     0.029 A 
ATOM     55  C   UNL A   1      43.897  33.332  29.799  1.00  0.00     0.049 A 
ATOM     56  H   UNL A   1      42.814  31.563  29.398  1.00  0.00     0.167 HD
ATOM     57  C   UNL A   1      41.540  33.927  30.268  1.00  0.00     0.074 A 
ATOM     58  C   UNL A   1      40.493  34.845  30.663  1.00  0.00     0.031 C 
ATOM     59  C   UNL A   1      42.858  34.251  30.208  1.00  0.00     0.034 A 
BRANCH  46  60
ATOM     60  C   UNL A   1      46.456  29.525  28.384  1.00  0.00     0.023 A 
ATOM     61  C   UNL A   1      46.876  29.190  27.084  1.00  0.00     0.031 A 
ATOM     62  C   UNL A   1      47.359  29.305  29.439  1.00  0.00     0.131 A 
ATOM     63  C   UNL A   1      48.106  28.543  26.888  1.00  0.00     0.055 A 
ATOM     64  C   UNL A   1      48.628  28.761  29.222  1.00  0.00     0.041 A 
ATOM     65  F   UNL A   1      47.018  29.591  30.705  1.00  0.00    -0.206 F 
ATOM     66  C   UNL A   1      48.998  28.352  27.945  1.00  0.00     0.022 A 
BRANCH  63  67
ATOM     67  S   UNL A   1      48.423  27.770  25.277  1.00  0.00     0.124 S 
ATOM     68  O   UNL A   1      48.156  26.363  25.569  1.00  0.00    -0.237 OA
ATOM     69  O   UNL A   1      47.459  28.438  24.412  1.00  0.00    -0.237 OA
ATOM     70  O   UNL A   1      49.825  28.088  25.016  1.00  0.00    -0.744 OA
ENDBRANCH  63  67
ENDBRANCH  46  60
BRANCH  47  71
ATOM     71  C   UNL A   1      37.086  32.405  30.251  1.00  0.00     0.023 A 
ATOM     72  C   UNL A   1      36.336  33.084  29.274  1.00  0.00     0.031 A 
ATOM     73  C   UNL A   1      36.494  32.203  31.510  1.00  0.00     0.131 A 
ATOM     74  C   UNL A   1      35.055  33.570  29.585  1.00  0.00     0.055 A 
ATOM     75  C   UNL A   1      35.199  32.637  31.796  1.00  0.00     0.041 A 
ATOM     76  F   UNL A   1      37.167  31.564  32.480  1.00  0.00    -0.206 F 
ATOM     77  C   UNL A   1      34.475  33.336  30.834  1.00  0.00     0.022 A 
BRANCH  74  78
ATOM     78  S   UNL A   1      34.185  34.582  28.356  1.00  0.00     0.124 S 
ATOM     79  O   UNL A   1      34.355  35.924  28.903  1.00  0.00    -0.237 OA
ATOM     80  O   UNL A   1      34.928  34.288  27.136  1.00  0.00    -0.237 OA
ATOM     81  O   UNL A   1      32.819  34.062  28.392  1.00  0.00    -0.744 OA
ENDBRANCH  74  78
ENDBRANCH  47  71
BRANCH  59  82
ATOM     82  C   UNL A   1      43.243  35.678  30.529  1.00  0.00     0.023 A 
ATOM     83  C   UNL A   1      43.523  36.102  31.841  1.00  0.00     0.031 A 
ATOM     84  C   UNL A   1      43.321  36.636  29.500  1.00  0.00     0.131 A 
ATOM     85  C   UNL A   1      43.812  37.454  32.095  1.00  0.00     0.055 A 
ATOM     86  C   UNL A   1      43.676  37.963  29.750  1.00  0.00     0.041 A 
ATOM     87  F   UNL A   1      43.058  36.295  28.228  1.00  0.00    -0.206 F 
ATOM     88  C   UNL A   1      43.910  38.382  31.056  1.00  0.00     0.022 A 
BRANCH  85  89
ATOM     89  S   UNL A   1      43.954  38.008  33.818  1.00  0.00     0.124 S 
ATOM     90  O   UNL A   1      42.969  39.082  33.873  1.00  0.00    -0.237 OA
ATOM     91  O   UNL A   1      43.623  36.798  34.563  1.00  0.00    -0.237 OA
ATOM     92  O   UNL A   1      45.347  38.439  33.925  1.00  0.00    -0.744 OA
ENDBRANCH  85  89
ENDBRANCH  59  82
ENDBRANCH  33  34
ENDBRANCH  25  28
ENDBRANCH  23  24
ENDBRANCH  22  23
ENDBRANCH  21  22
ENDBRANCH   3  21
TORSDOF 19
ENDMDL
MODEL 2
REMARK VINA RESULT:     -10.3      4.993      9.762
REMARK SMILES C[C@H](CNS(=O)(=O)CCC(=O)NCCCNC(=O)c1ccc(-c2c3nc(c(-c4cc(S(=O)(=O)[O-])ccc4F)c4ccc([nH]4)c(-c4cc(S(=O)(=O)[O-])ccc4F)c4nc(c(-c5cc(S(=O)(=O)[O-])ccc5F)c5ccc2[nH]5)C=C4)C=C3)cc1)c1ccccc1
REMARK SMILES IDX 10 1 11 2 12 3 9 5 8 6 5 7 6 8 7 9 4 10 3 12 2 13 1 14 82 15
REMARK SMILES IDX 83 16 87 17 84 18 86 19 85 20 13 21 14 22 15 23 16 24 17 25
REMARK SMILES IDX 18 27 19 28 20 29 81 30 21 31 80 32 22 33 23 34 24 35 74 36
REMARK SMILES IDX 25 37 79 38 73 39 75 40 26 41 78 42 72 43 71 44 27 46 59 47
REMARK SMILES IDX 39 48 58 49 40 50 43 51 57 52 76 53 41 54 42 55 56 57 77 58
REMARK SMILES IDX 44 59 28 60 29 61 37 62 30 63 36 64 38 65 35 66 31 67 32 68
REMARK SMILES IDX 33 69 34 70 60 71 61 72 69 73 62 74 68 75 70 76 67 77 63 78
REMARK SMILES IDX 64 79 65 80 66 81 45 82 46 83 54 84 47 85 53 86 55 87 52 88
REMARK SMILES IDX 48 89 49 90 50 91 51 92
REMARK H PARENT 12 4 4 11 16 26 75 45 43 56
REMARK Flexibility Score: inf
ROOT
ATOM      1  C   UNL A   1      33.499  29.396  26.271  1.00  0.00     0.221 C 
ATOM      2  O   UNL A   1      34.535  28.961  26.780  1.00  0.00    -0.275 OA
ATOM      3  N   UNL A   1      32.531  29.882  27.103  1.00  0.00    -0.356 N 
ATOM      4  H   UNL A   1      32.666  29.662  28.052  1.00  0.00     0.163 HD
ENDROOT
BRANCH   1   5
ATOM      5  C   UNL A   1      33.284  29.271  24.784  1.00  0.00     0.117 C 
BRANCH   5   6
ATOM      6  C   UNL A   1      32.605  27.952  24.440  1.00  0.00     0.164 C 
BRANCH   6   7
ATOM      7  S   UNL A   1      32.630  27.575  22.695  1.00  0.00     0.212 S 
ATOM      8  O   UNL A   1      32.818  26.154  22.547  1.00  0.00    -0.212 OA
ATOM      9  O   UNL A   1      33.547  28.516  22.086  1.00  0.00    -0.212 OA
BRANCH   7  10
ATOM     10  N   UNL A   1      31.072  27.961  22.177  1.00  0.00    -0.215 NA
ATOM     11  H   UNL A   1      31.118  28.870  21.717  1.00  0.00     0.141 HD
BRANCH  10  12
ATOM     12  C   UNL A   1      30.012  28.038  23.210  1.00  0.00     0.106 C 
BRANCH  12  13
ATOM     13  C   UNL A   1      28.670  28.644  22.728  1.00  0.00     0.031 C 
ATOM     14  C   UNL A   1      27.428  28.186  23.496  1.00  0.00     0.014 C 
BRANCH  13  15
ATOM     15  C   UNL A   1      28.679  30.145  22.494  1.00  0.00    -0.044 A 
ATOM     16  C   UNL A   1      28.988  30.981  23.583  1.00  0.00     0.004 A 
ATOM     17  C   UNL A   1      28.344  30.745  21.273  1.00  0.00     0.004 A 
ATOM     18  C   UNL A   1      28.900  32.368  23.477  1.00  0.00     0.000 A 
ATOM     19  C   UNL A   1      28.244  32.135  21.172  1.00  0.00     0.000 A 
ATOM     20  C   UNL A   1      28.509  32.946  22.275  1.00  0.00     0.000 A 
ENDBRANCH  13  15
ENDBRANCH  12  13
ENDBRANCH  10  12
ENDBRANCH   7  10
ENDBRANCH   6   7
ENDBRANCH   5   6
ENDBRANCH   1   5
BRANCH   3  21
ATOM     21  C   UNL A   1      31.330  30.669  26.834  1.00  0.00     0.117 C 
BRANCH  21  22
ATOM     22  C   UNL A   1      31.526  32.173  26.591  1.00  0.00     0.042 C 
BRANCH  22  23
ATOM     23  C   UNL A   1      32.755  32.871  27.166  1.00  0.00     0.118 C 
BRANCH  23  24
ATOM     24  N   UNL A   1      32.485  34.190  27.695  1.00  0.00    -0.352 N 
ATOM     25  C   UNL A   1      33.108  34.792  28.767  1.00  0.00     0.251 C 
ATOM     26  H   UNL A   1      31.783  34.711  27.243  1.00  0.00     0.163 HD
ATOM     27  O   UNL A   1      32.664  35.842  29.220  1.00  0.00    -0.269 OA
BRANCH  25  28
ATOM     28  C   UNL A   1      34.306  34.162  29.368  1.00  0.00     0.039 A 
ATOM     29  C   UNL A   1      34.169  33.339  30.487  1.00  0.00     0.014 A 
ATOM     30  C   UNL A   1      35.571  34.423  28.846  1.00  0.00     0.014 A 
ATOM     31  C   UNL A   1      35.304  32.750  31.067  1.00  0.00     0.010 A 
ATOM     32  C   UNL A   1      36.694  33.815  29.420  1.00  0.00     0.010 A 
ATOM     33  C   UNL A   1      36.586  32.961  30.530  1.00  0.00    -0.014 A 
BRANCH  33  34
ATOM     34  C   UNL A   1      37.796  32.305  31.127  1.00  0.00     0.031 A 
ATOM     35  C   UNL A   1      38.375  32.782  32.440  1.00  0.00     0.074 A 
ATOM     36  C   UNL A   1      38.410  31.287  30.487  1.00  0.00     0.049 A 
ATOM     37  N   UNL A   1      39.403  32.321  33.113  1.00  0.00    -0.248 NA
ATOM     38  C   UNL A   1      37.733  33.948  33.057  1.00  0.00     0.031 C 
ATOM     39  C   UNL A   1      38.012  30.745  29.187  1.00  0.00     0.029 A 
ATOM     40  N   UNL A   1      39.493  30.514  30.845  1.00  0.00    -0.354 N 
ATOM     41  C   UNL A   1      39.529  33.141  34.231  1.00  0.00     0.074 A 
ATOM     42  C   UNL A   1      38.531  34.182  34.086  1.00  0.00     0.031 C 
ATOM     43  C   UNL A   1      38.797  29.698  28.886  1.00  0.00     0.029 A 
ATOM     44  C   UNL A   1      39.787  29.513  29.944  1.00  0.00     0.049 A 
ATOM     45  H   UNL A   1      40.010  30.662  31.670  1.00  0.00     0.167 HD
ATOM     46  C   UNL A   1      40.363  33.026  35.298  1.00  0.00     0.034 A 
ATOM     47  C   UNL A   1      40.735  28.553  29.962  1.00  0.00     0.034 A 
ATOM     48  C   UNL A   1      41.361  31.991  35.441  1.00  0.00     0.049 A 
ATOM     49  C   UNL A   1      41.691  28.470  31.129  1.00  0.00     0.074 A 
ATOM     50  C   UNL A   1      42.219  31.761  36.503  1.00  0.00     0.029 A 
ATOM     51  N   UNL A   1      41.648  31.021  34.489  1.00  0.00    -0.354 N 
ATOM     52  N   UNL A   1      41.750  29.215  32.207  1.00  0.00    -0.248 NA
ATOM     53  C   UNL A   1      42.703  27.405  31.081  1.00  0.00     0.031 C 
ATOM     54  C   UNL A   1      43.078  30.710  36.160  1.00  0.00     0.029 A 
ATOM     55  C   UNL A   1      42.695  30.218  34.923  1.00  0.00     0.049 A 
ATOM     56  H   UNL A   1      41.177  30.917  33.630  1.00  0.00     0.167 HD
ATOM     57  C   UNL A   1      42.778  28.684  32.982  1.00  0.00     0.074 A 
ATOM     58  C   UNL A   1      43.304  27.550  32.252  1.00  0.00     0.031 C 
ATOM     59  C   UNL A   1      43.235  29.092  34.194  1.00  0.00     0.034 A 
BRANCH  46  60
ATOM     60  C   UNL A   1      40.236  34.072  36.387  1.00  0.00     0.023 A 
ATOM     61  C   UNL A   1      41.209  35.075  36.557  1.00  0.00     0.031 A 
ATOM     62  C   UNL A   1      39.169  34.038  37.302  1.00  0.00     0.131 A 
ATOM     63  C   UNL A   1      41.162  35.917  37.678  1.00  0.00     0.055 A 
ATOM     64  C   UNL A   1      39.070  34.951  38.355  1.00  0.00     0.041 A 
ATOM     65  F   UNL A   1      38.214  33.100  37.206  1.00  0.00    -0.206 F 
ATOM     66  C   UNL A   1      40.083  35.882  38.563  1.00  0.00     0.022 A 
BRANCH  63  67
ATOM     67  S   UNL A   1      42.632  36.905  38.073  1.00  0.00     0.124 S 
ATOM     68  O   UNL A   1      43.047  37.357  36.746  1.00  0.00    -0.237 OA
ATOM     69  O   UNL A   1      42.095  37.930  38.959  1.00  0.00    -0.237 OA
ATOM     70  O   UNL A   1      43.533  35.941  38.702  1.00  0.00    -0.744 OA
ENDBRANCH  63  67
ENDBRANCH  46  60
BRANCH  47  71
ATOM     71  C   UNL A   1      40.834  27.568  28.843  1.00  0.00     0.023 A 
ATOM     72  C   UNL A   1      41.796  27.718  27.829  1.00  0.00     0.031 A 
ATOM     73  C   UNL A   1      39.940  26.487  28.744  1.00  0.00     0.131 A 
ATOM     74  C   UNL A   1      41.816  26.828  26.743  1.00  0.00     0.055 A 
ATOM     75  C   UNL A   1      40.000  25.572  27.693  1.00  0.00     0.041 A 
ATOM     76  F   UNL A   1      38.998  26.299  29.684  1.00  0.00    -0.206 F 
ATOM     77  C   UNL A   1      40.935  25.746  26.677  1.00  0.00     0.022 A 
BRANCH  74  78
ATOM     78  S   UNL A   1      42.962  27.149  25.374  1.00  0.00     0.124 S 
ATOM     79  O   UNL A   1      42.990  25.854  24.702  1.00  0.00    -0.237 OA
ATOM     80  O   UNL A   1      42.290  28.228  24.658  1.00  0.00    -0.237 OA
ATOM     81  O   UNL A   1      44.202  27.529  26.048  1.00  0.00    -0.744 OA
ENDBRANCH  74  78
ENDBRANCH  47  71
BRANCH  59  82
ATOM     82  C   UNL A   1      44.332  28.275  34.840  1.00  0.00     0.023 A 
ATOM     83  C   UNL A   1      44.067  27.074  35.525  1.00  0.00     0.031 A 
ATOM     84  C   UNL A   1      45.668  28.713  34.779  1.00  0.00     0.131 A 
ATOM     85  C   UNL A   1      45.112  26.386  36.164  1.00  0.00     0.055 A 
ATOM     86  C   UNL A   1      46.712  27.989  35.358  1.00  0.00     0.041 A 
ATOM     87  F   UNL A   1      45.984  29.855  34.147  1.00  0.00    -0.206 F 
ATOM     88  C   UNL A   1      46.434  26.825  36.068  1.00  0.00     0.022 A 
BRANCH  85  89
ATOM     89  S   UNL A   1      44.706  24.963  37.216  1.00  0.00     0.124 S 
ATOM     90  O   UNL A   1      44.928  23.843  36.309  1.00  0.00    -0.237 OA
ATOM     91  O   UNL A   1      45.664  25.099  38.309  1.00  0.00    -0.237 OA
ATOM     92  O   UNL A   1      43.310  25.195  37.583  1.00  0.00    -0.744 OA
ENDBRANCH  85  89
ENDBRANCH  59  82
ENDBRANCH  33  34
ENDBRANCH  25  28
ENDBRANCH  23  24
ENDBRANCH  22  23
ENDBRANCH  21  22
ENDBRANCH   3  21
TORSDOF 19
ENDMDL
MODEL 3
REMARK VINA RESULT:     -10.2      5.294      8.574
REMARK SMILES C[C@H](CNS(=O)(=O)CCC(=O)NCCCNC(=O)c1ccc(-c2c3nc(c(-c4cc(S(=O)(=O)[O-])ccc4F)c4ccc([nH]4)c(-c4cc(S(=O)(=O)[O-])ccc4F)c4nc(c(-c5cc(S(=O)(=O)[O-])ccc5F)c5ccc2[nH]5)C=C4)C=C3)cc1)c1ccccc1
REMARK SMILES IDX 10 1 11 2 12 3 9 5 8 6 5 7 6 8 7 9 4 10 3 12 2 13 1 14 82 15
REMARK SMILES IDX 83 16 87 17 84 18 86 19 85 20 13 21 14 22 15 23 16 24 17 25
REMARK SMILES IDX 18 27 19 28 20 29 81 30 21 31 80 32 22 33 23 34 24 35 74 36
REMARK SMILES IDX 25 37 79 38 73 39 75 40 26 41 78 42 72 43 71 44 27 46 59 47
REMARK SMILES IDX 39 48 58 49 40 50 43 51 57 52 76 53 41 54 42 55 56 57 77 58
REMARK SMILES IDX 44 59 28 60 29 61 37 62 30 63 36 64 38 65 35 66 31 67 32 68
REMARK SMILES IDX 33 69 34 70 60 71 61 72 69 73 62 74 68 75 70 76 67 77 63 78
REMARK SMILES IDX 64 79 65 80 66 81 45 82 46 83 54 84 47 85 53 86 55 87 52 88
REMARK SMILES IDX 48 89 49 90 50 91 51 92
REMARK H PARENT 12 4 4 11 16 26 75 45 43 56
REMARK Flexibility Score: inf
ROOT
ATOM      1  C   UNL A   1      33.449  29.436  26.187  1.00  0.00     0.221 C 
ATOM      2  O   UNL A   1      34.368  28.962  26.859  1.00  0.00    -0.275 OA
ATOM      3  N   UNL A   1      32.489  30.161  26.834  1.00  0.00    -0.356 N 
ATOM      4  H   UNL A   1      32.510  30.077  27.814  1.00  0.00     0.163 HD
ENDROOT
BRANCH   1   5
ATOM      5  C   UNL A   1      33.348  29.109  24.719  1.00  0.00     0.117 C 
BRANCH   5   6
ATOM      6  C   UNL A   1      32.066  28.344  24.418  1.00  0.00     0.164 C 
BRANCH   6   7
ATOM      7  S   UNL A   1      32.047  27.602  22.794  1.00  0.00     0.212 S 
ATOM      8  O   UNL A   1      32.090  26.170  22.956  1.00  0.00    -0.212 OA
ATOM      9  O   UNL A   1      33.053  28.295  22.015  1.00  0.00    -0.212 OA
BRANCH   7  10
ATOM     10  N   UNL A   1      30.536  28.021  22.176  1.00  0.00    -0.215 NA
ATOM     11  H   UNL A   1      30.574  29.004  21.913  1.00  0.00     0.141 HD
BRANCH  10  12
ATOM     12  C   UNL A   1      29.364  27.843  23.067  1.00  0.00     0.106 C 
BRANCH  12  13
ATOM     13  C   UNL A   1      28.103  28.645  22.660  1.00  0.00     0.031 C 
ATOM     14  C   UNL A   1      26.851  28.371  23.495  1.00  0.00     0.014 C 
BRANCH  13  15
ATOM     15  C   UNL A   1      28.322  30.130  22.425  1.00  0.00    -0.044 A 
ATOM     16  C   UNL A   1      28.736  30.917  23.517  1.00  0.00     0.004 A 
ATOM     17  C   UNL A   1      28.084  30.769  21.202  1.00  0.00     0.004 A 
ATOM     18  C   UNL A   1      28.843  32.303  23.410  1.00  0.00     0.000 A 
ATOM     19  C   UNL A   1      28.179  32.160  21.100  1.00  0.00     0.000 A 
ATOM     20  C   UNL A   1      28.545  32.927  22.204  1.00  0.00     0.000 A 
ENDBRANCH  13  15
ENDBRANCH  12  13
ENDBRANCH  10  12
ENDBRANCH   7  10
ENDBRANCH   6   7
ENDBRANCH   5   6
ENDBRANCH   1   5
BRANCH   3  21
ATOM     21  C   UNL A   1      31.436  31.039  26.328  1.00  0.00     0.117 C 
BRANCH  21  22
ATOM     22  C   UNL A   1      31.583  32.540  26.618  1.00  0.00     0.042 C 
BRANCH  22  23
ATOM     23  C   UNL A   1      32.799  33.036  27.396  1.00  0.00     0.118 C 
BRANCH  23  24
ATOM     24  N   UNL A   1      32.734  34.438  27.749  1.00  0.00    -0.352 N 
ATOM     25  C   UNL A   1      33.435  35.069  28.754  1.00  0.00     0.251 C 
ATOM     26  H   UNL A   1      32.127  34.999  27.216  1.00  0.00     0.163 HD
ATOM     27  O   UNL A   1      33.158  36.224  29.060  1.00  0.00    -0.269 OA
BRANCH  25  28
ATOM     28  C   UNL A   1      34.514  34.343  29.463  1.00  0.00     0.039 A 
ATOM     29  C   UNL A   1      35.838  34.485  29.042  1.00  0.00     0.014 A 
ATOM     30  C   UNL A   1      34.208  33.487  30.518  1.00  0.00     0.014 A 
ATOM     31  C   UNL A   1      36.863  33.789  29.704  1.00  0.00     0.010 A 
ATOM     32  C   UNL A   1      35.239  32.812  31.183  1.00  0.00     0.010 A 
ATOM     33  C   UNL A   1      36.583  32.956  30.801  1.00  0.00    -0.014 A 
BRANCH  33  34
ATOM     34  C   UNL A   1      37.680  32.237  31.531  1.00  0.00     0.031 A 
ATOM     35  C   UNL A   1      38.419  31.085  30.891  1.00  0.00     0.074 A 
ATOM     36  C   UNL A   1      38.011  32.593  32.791  1.00  0.00     0.049 A 
ATOM     37  N   UNL A   1      39.407  30.363  31.366  1.00  0.00    -0.248 NA
ATOM     38  C   UNL A   1      37.968  30.673  29.557  1.00  0.00     0.031 C 
ATOM     39  C   UNL A   1      37.358  33.645  33.571  1.00  0.00     0.029 A 
ATOM     40  N   UNL A   1      38.989  32.119  33.638  1.00  0.00    -0.354 N 
ATOM     41  C   UNL A   1      39.691  29.412  30.389  1.00  0.00     0.074 A 
ATOM     42  C   UNL A   1      38.706  29.596  29.343  1.00  0.00     0.031 C 
ATOM     43  C   UNL A   1      37.986  33.775  34.751  1.00  0.00     0.029 A 
ATOM     44  C   UNL A   1      39.060  32.789  34.840  1.00  0.00     0.049 A 
ATOM     45  H   UNL A   1      39.583  31.369  33.405  1.00  0.00     0.167 HD
ATOM     46  C   UNL A   1      40.696  28.498  30.340  1.00  0.00     0.034 A 
ATOM     47  C   UNL A   1      39.892  32.639  35.892  1.00  0.00     0.034 A 
ATOM     48  C   UNL A   1      41.677  28.312  31.384  1.00  0.00     0.049 A 
ATOM     49  C   UNL A   1      40.970  31.582  35.846  1.00  0.00     0.074 A 
ATOM     50  C   UNL A   1      42.760  27.449  31.407  1.00  0.00     0.029 A 
ATOM     51  N   UNL A   1      41.690  28.987  32.598  1.00  0.00    -0.354 N 
ATOM     52  N   UNL A   1      41.263  30.738  34.885  1.00  0.00    -0.248 NA
ATOM     53  C   UNL A   1      41.836  31.468  37.028  1.00  0.00     0.031 C 
ATOM     54  C   UNL A   1      43.374  27.540  32.661  1.00  0.00     0.029 A 
ATOM     55  C   UNL A   1      42.736  28.531  33.389  1.00  0.00     0.049 A 
ATOM     56  H   UNL A   1      41.051  29.689  32.860  1.00  0.00     0.167 HD
ATOM     57  C   UNL A   1      42.372  30.022  35.332  1.00  0.00     0.074 A 
ATOM     58  C   UNL A   1      42.699  30.540  36.644  1.00  0.00     0.031 C 
ATOM     59  C   UNL A   1      43.061  29.034  34.706  1.00  0.00     0.034 A 
BRANCH  46  60
ATOM     60  C   UNL A   1      40.763  27.613  29.111  1.00  0.00     0.023 A 
ATOM     61  C   UNL A   1      41.730  27.821  28.110  1.00  0.00     0.031 A 
ATOM     62  C   UNL A   1      39.819  26.592  28.904  1.00  0.00     0.131 A 
ATOM     63  C   UNL A   1      41.657  27.108  26.904  1.00  0.00     0.055 A 
ATOM     64  C   UNL A   1      39.821  25.809  27.746  1.00  0.00     0.041 A 
ATOM     65  F   UNL A   1      38.861  26.349  29.812  1.00  0.00    -0.206 F 
ATOM     66  C   UNL A   1      40.727  26.082  26.726  1.00  0.00     0.022 A 
BRANCH  63  67
ATOM     67  S   UNL A   1      42.655  27.686  25.503  1.00  0.00     0.124 S 
ATOM     68  O   UNL A   1      42.648  26.511  24.633  1.00  0.00    -0.237 OA
ATOM     69  O   UNL A   1      41.898  28.838  25.029  1.00  0.00    -0.237 OA
ATOM     70  O   UNL A   1      43.949  27.993  26.109  1.00  0.00    -0.744 OA
ENDBRANCH  63  67
ENDBRANCH  46  60
BRANCH  47  71
ATOM     71  C   UNL A   1      39.758  33.519  37.092  1.00  0.00     0.023 A 
ATOM     72  C   UNL A   1      40.586  34.642  37.260  1.00  0.00     0.031 A 
ATOM     73  C   UNL A   1      38.833  33.227  38.109  1.00  0.00     0.131 A 
ATOM     74  C   UNL A   1      40.500  35.407  38.435  1.00  0.00     0.055 A 
ATOM     75  C   UNL A   1      38.711  34.023  39.249  1.00  0.00     0.041 A 
ATOM     76  F   UNL A   1      38.020  32.163  38.001  1.00  0.00    -0.206 F 
ATOM     77  C   UNL A   1      39.557  35.115  39.423  1.00  0.00     0.022 A 
BRANCH  74  78
ATOM     78  S   UNL A   1      41.695  36.749  38.691  1.00  0.00     0.124 S 
ATOM     79  O   UNL A   1      42.149  37.005  37.329  1.00  0.00    -0.237 OA
ATOM     80  O   UNL A   1      40.864  37.786  39.296  1.00  0.00    -0.237 OA
ATOM     81  O   UNL A   1      42.690  36.154  39.580  1.00  0.00    -0.744 OA
ENDBRANCH  74  78
ENDBRANCH  47  71
BRANCH  59  82
ATOM     82  C   UNL A   1      44.280  28.476  35.409  1.00  0.00     0.023 A 
ATOM     83  C   UNL A   1      44.217  27.331  36.224  1.00  0.00     0.031 A 
ATOM     84  C   UNL A   1      45.527  29.113  35.268  1.00  0.00     0.131 A 
ATOM     85  C   UNL A   1      45.363  26.892  36.907  1.00  0.00     0.055 A 
ATOM     86  C   UNL A   1      46.678  28.632  35.896  1.00  0.00     0.041 A 
ATOM     87  F   UNL A   1      45.651  30.215  34.511  1.00  0.00    -0.206 F 
ATOM     88  C   UNL A   1      46.597  27.523  36.733  1.00  0.00     0.022 A 
BRANCH  85  89
ATOM     89  S   UNL A   1      45.199  25.547  38.114  1.00  0.00     0.124 S 
ATOM     90  O   UNL A   1      46.591  25.183  38.354  1.00  0.00    -0.237 OA
ATOM     91  O   UNL A   1      44.511  26.202  39.221  1.00  0.00    -0.237 OA
ATOM     92  O   UNL A   1      44.410  24.542  37.402  1.00  0.00    -0.744 OA
ENDBRANCH  85  89
ENDBRANCH  59  82
ENDBRANCH  33  34
ENDBRANCH  25  28
ENDBRANCH  23  24
ENDBRANCH  22  23
ENDBRANCH  21  22
ENDBRANCH   3  21
TORSDOF 19
ENDMDL
