MODEL 1
REMARK VINA RESULT:     -12.6      0.000      0.000
REMARK SMILES Cc1cc2c(c(C)c1Cl)C=C(C(=O)NCCCNC(=O)c1ccc(-c3c4nc(c(-c5cc(S(=O)(=O)[O-])ccc5F)c5ccc([nH]5)c(-c5cc(S(=O)(=O)[O-])ccc5F)c5nc(c(-c6cc(S(=O)(=O)[O-])ccc6F)c6ccc3[nH]6)C=C5)C=C4)cc1)[C@@H](C(F)(F)F)O2
REMARK SMILES IDX 17 1 16 2 15 3 14 4 12 5 13 6 11 8 1 9 2 10 3 11 8 12 4 13
REMARK SMILES IDX 6 14 9 15 5 16 89 17 7 18 10 19 84 20 85 21 86 22 87 23
REMARK SMILES IDX 88 24 18 25 19 26 20 28 21 29 22 30 83 31 23 32 82 33 24 34
REMARK SMILES IDX 25 35 26 36 76 37 27 38 81 39 75 40 77 41 28 42 80 43 74 44
REMARK SMILES IDX 73 45 29 47 61 48 41 49 60 50 42 51 45 52 59 53 78 54 43 55
REMARK SMILES IDX 44 56 58 58 79 59 46 60 30 61 31 62 39 63 32 64 38 65 40 66
REMARK SMILES IDX 37 67 33 68 34 69 35 70 36 71 62 72 63 73 71 74 64 75 70 76
REMARK SMILES IDX 72 77 69 78 65 79 66 80 67 81 68 82 47 83 48 84 56 85 49 86
REMARK SMILES IDX 55 87 57 88 54 89 50 90 51 91 52 92 53 93
REMARK H PARENT 14 7 18 27 77 46 45 57
REMARK Flexibility Score: inf
ROOT
ATOM      1  C   UNL A   1      33.543  29.291  24.899  1.00  0.00     0.118 C 
ENDROOT
BRANCH   1   2
ATOM      2  C   UNL A   1      32.826  28.878  23.619  1.00  0.00     0.042 C 
BRANCH   2   3
ATOM      3  C   UNL A   1      31.905  27.686  23.832  1.00  0.00     0.118 C 
BRANCH   3   4
ATOM      4  N   UNL A   1      31.616  27.467  25.241  1.00  0.00    -0.352 N 
ATOM      5  C   UNL A   1      31.591  26.424  26.102  1.00  0.00     0.251 C 
ATOM      6  O   UNL A   1      31.280  26.708  27.264  1.00  0.00    -0.270 OA
ATOM      7  H   UNL A   1      31.372  28.308  25.692  1.00  0.00     0.163 HD
BRANCH   5   8
ATOM      8  C   UNL A   1      31.913  25.010  25.751  1.00  0.00     0.067 C 
ATOM      9  C   UNL A   1      34.494  19.145  24.628  1.00  0.00     0.046 C 
ATOM     10  C   UNL A   1      34.225  20.581  24.981  1.00  0.00    -0.028 A 
ATOM     11  C   UNL A   1      32.898  21.016  25.025  1.00  0.00     0.052 A 
ATOM     12  C   UNL A   1      35.255  21.510  25.240  1.00  0.00     0.047 A 
ATOM     13  C   UNL A   1      32.599  22.341  25.320  1.00  0.00     0.128 A 
ATOM     14  C   UNL A   1      34.962  22.858  25.564  1.00  0.00    -0.021 A 
ATOM     15  Cl  UNL A   1      36.901  20.958  25.148  1.00  0.00    -0.084 Cl
ATOM     16  C   UNL A   1      33.607  23.267  25.603  1.00  0.00     0.022 A 
ATOM     17  O   UNL A   1      31.268  22.647  25.351  1.00  0.00    -0.475 OA
ATOM     18  C   UNL A   1      36.050  23.862  25.867  1.00  0.00     0.047 C 
ATOM     19  C   UNL A   1      33.188  24.628  25.959  1.00  0.00     0.026 C 
ATOM     20  C   UNL A   1      30.927  24.045  25.165  1.00  0.00     0.314 C 
BRANCH  20  21
ATOM     21  C   UNL A   1      30.653  24.312  23.672  1.00  0.00     0.429 C 
ATOM     22  F   UNL A   1      30.227  23.181  23.056  1.00  0.00    -0.167 F 
ATOM     23  F   UNL A   1      29.687  25.241  23.477  1.00  0.00    -0.167 F 
ATOM     24  F   UNL A   1      31.748  24.746  23.008  1.00  0.00    -0.167 F 
ENDBRANCH  20  21
ENDBRANCH   5   8
ENDBRANCH   3   4
ENDBRANCH   2   3
ENDBRANCH   1   2
BRANCH   1  25
ATOM     25  N   UNL A   1      32.913  30.453  25.520  1.00  0.00    -0.352 N 
ATOM     26  C   UNL A   1      33.146  31.037  26.741  1.00  0.00     0.251 C 
ATOM     27  H   UNL A   1      32.212  30.885  24.979  1.00  0.00     0.163 HD
ATOM     28  O   UNL A   1      32.315  31.813  27.207  1.00  0.00    -0.269 OA
BRANCH  26  29
ATOM     29  C   UNL A   1      34.381  30.724  27.485  1.00  0.00     0.039 A 
ATOM     30  C   UNL A   1      35.336  31.722  27.687  1.00  0.00     0.014 A 
ATOM     31  C   UNL A   1      34.602  29.432  27.968  1.00  0.00     0.014 A 
ATOM     32  C   UNL A   1      36.480  31.439  28.435  1.00  0.00     0.010 A 
ATOM     33  C   UNL A   1      35.690  29.178  28.792  1.00  0.00     0.010 A 
ATOM     34  C   UNL A   1      36.647  30.175  29.025  1.00  0.00    -0.014 A 
BRANCH  34  35
ATOM     35  C   UNL A   1      37.830  29.861  29.863  1.00  0.00     0.031 A 
ATOM     36  C   UNL A   1      38.919  28.979  29.314  1.00  0.00     0.074 A 
ATOM     37  C   UNL A   1      37.897  30.328  31.124  1.00  0.00     0.049 A 
ATOM     38  N   UNL A   1      39.989  28.522  29.910  1.00  0.00    -0.248 NA
ATOM     39  C   UNL A   1      38.768  28.525  27.921  1.00  0.00     0.031 C 
ATOM     40  C   UNL A   1      36.884  31.166  31.772  1.00  0.00     0.029 A 
ATOM     41  N   UNL A   1      38.860  30.170  32.088  1.00  0.00    -0.354 N 
ATOM     42  C   UNL A   1      40.633  27.726  28.969  1.00  0.00     0.074 A 
ATOM     43  C   UNL A   1      39.797  27.704  27.789  1.00  0.00     0.031 C 
ATOM     44  C   UNL A   1      37.304  31.488  33.005  1.00  0.00     0.029 A 
ATOM     45  C   UNL A   1      38.590  30.845  33.256  1.00  0.00     0.049 A 
ATOM     46  H   UNL A   1      39.670  29.626  31.956  1.00  0.00     0.167 HD
ATOM     47  C   UNL A   1      41.829  27.099  29.068  1.00  0.00     0.034 A 
ATOM     48  C   UNL A   1      39.299  30.935  34.398  1.00  0.00     0.034 A 
ATOM     49  C   UNL A   1      42.665  27.156  30.238  1.00  0.00     0.049 A 
ATOM     50  C   UNL A   1      40.611  30.202  34.497  1.00  0.00     0.074 A 
ATOM     51  C   UNL A   1      43.912  26.590  30.433  1.00  0.00     0.029 A 
ATOM     52  N   UNL A   1      42.342  27.826  31.410  1.00  0.00    -0.354 N 
ATOM     53  N   UNL A   1      41.206  29.457  33.595  1.00  0.00    -0.248 NA
ATOM     54  C   UNL A   1      41.344  30.320  35.764  1.00  0.00     0.031 C 
ATOM     55  C   UNL A   1      44.321  26.874  31.739  1.00  0.00     0.029 A 
ATOM     56  C   UNL A   1      43.356  27.668  32.339  1.00  0.00     0.049 A 
ATOM     57  H   UNL A   1      41.514  28.337  31.559  1.00  0.00     0.167 HD
ATOM     58  C   UNL A   1      42.396  29.033  34.180  1.00  0.00     0.074 A 
ATOM     59  C   UNL A   1      42.435  29.610  35.509  1.00  0.00     0.031 C 
ATOM     60  C   UNL A   1      43.368  28.243  33.662  1.00  0.00     0.034 A 
BRANCH  47  61
ATOM     61  C   UNL A   1      42.301  26.307  27.878  1.00  0.00     0.023 A 
ATOM     62  C   UNL A   1      41.899  24.975  27.683  1.00  0.00     0.031 A 
ATOM     63  C   UNL A   1      43.156  26.887  26.926  1.00  0.00     0.131 A 
ATOM     64  C   UNL A   1      42.394  24.248  26.591  1.00  0.00     0.055 A 
ATOM     65  C   UNL A   1      43.590  26.181  25.803  1.00  0.00     0.041 A 
ATOM     66  F   UNL A   1      43.585  28.151  27.074  1.00  0.00    -0.206 F 
ATOM     67  C   UNL A   1      43.218  24.849  25.636  1.00  0.00     0.022 A 
BRANCH  64  68
ATOM     68  S   UNL A   1      42.019  22.478  26.485  1.00  0.00     0.124 S 
ATOM     69  O   UNL A   1      40.559  22.486  26.509  1.00  0.00    -0.237 OA
ATOM     70  O   UNL A   1      42.635  22.098  25.220  1.00  0.00    -0.237 OA
ATOM     71  O   UNL A   1      42.653  21.921  27.679  1.00  0.00    -0.744 OA
ENDBRANCH  64  68
ENDBRANCH  47  61
BRANCH  48  72
ATOM     72  C   UNL A   1      38.792  31.758  35.530  1.00  0.00     0.023 A 
ATOM     73  C   UNL A   1      38.159  31.155  36.628  1.00  0.00     0.031 A 
ATOM     74  C   UNL A   1      38.935  33.156  35.534  1.00  0.00     0.131 A 
ATOM     75  C   UNL A   1      37.673  31.949  37.677  1.00  0.00     0.055 A 
ATOM     76  C   UNL A   1      38.483  33.940  36.597  1.00  0.00     0.041 A 
ATOM     77  F   UNL A   1      39.543  33.779  34.512  1.00  0.00    -0.206 F 
ATOM     78  C   UNL A   1      37.841  33.336  37.674  1.00  0.00     0.022 A 
BRANCH  75  79
ATOM     79  S   UNL A   1      36.787  31.145  39.040  1.00  0.00     0.124 S 
ATOM     80  O   UNL A   1      35.615  32.003  39.179  1.00  0.00    -0.237 OA
ATOM     81  O   UNL A   1      36.547  29.810  38.502  1.00  0.00    -0.237 OA
ATOM     82  O   UNL A   1      37.740  31.204  40.146  1.00  0.00    -0.744 OA
ENDBRANCH  75  79
ENDBRANCH  48  72
BRANCH  60  83
ATOM     83  C   UNL A   1      44.571  27.972  34.523  1.00  0.00     0.023 A 
ATOM     84  C   UNL A   1      44.642  26.830  35.337  1.00  0.00     0.031 A 
ATOM     85  C   UNL A   1      45.682  28.832  34.476  1.00  0.00     0.131 A 
ATOM     86  C   UNL A   1      45.799  26.589  36.093  1.00  0.00     0.055 A 
ATOM     87  C   UNL A   1      46.845  28.564  35.196  1.00  0.00     0.041 A 
ATOM     88  F   UNL A   1      45.660  29.933  33.708  1.00  0.00    -0.206 F 
ATOM     89  C   UNL A   1      46.906  27.438  36.014  1.00  0.00     0.022 A 
BRANCH  86  90
ATOM     90  S   UNL A   1      45.831  25.155  37.201  1.00  0.00     0.124 S 
ATOM     91  O   UNL A   1      45.867  25.790  38.515  1.00  0.00    -0.237 OA
ATOM     92  O   UNL A   1      44.591  24.464  36.862  1.00  0.00    -0.237 OA
ATOM     93  O   UNL A   1      47.054  24.453  36.818  1.00  0.00    -0.744 OA
ENDBRANCH  86  90
ENDBRANCH  60  83
ENDBRANCH  34  35
ENDBRANCH  26  29
ENDBRANCH   1  25
TORSDOF 14
ENDMDL
MODEL 2
REMARK VINA RESULT:     -12.5      2.615      3.562
REMARK SMILES Cc1cc2c(c(C)c1Cl)C=C(C(=O)NCCCNC(=O)c1ccc(-c3c4nc(c(-c5cc(S(=O)(=O)[O-])ccc5F)c5ccc([nH]5)c(-c5cc(S(=O)(=O)[O-])ccc5F)c5nc(c(-c6cc(S(=O)(=O)[O-])ccc6F)c6ccc3[nH]6)C=C5)C=C4)cc1)[C@@H](C(F)(F)F)O2
REMARK SMILES IDX 17 1 16 2 15 3 14 4 12 5 13 6 11 8 1 9 2 10 3 11 8 12 4 13
REMARK SMILES IDX 6 14 9 15 5 16 89 17 7 18 10 19 84 20 85 21 86 22 87 23
REMARK SMILES IDX 88 24 18 25 19 26 20 28 21 29 22 30 83 31 23 32 82 33 24 34
REMARK SMILES IDX 25 35 26 36 76 37 27 38 81 39 75 40 77 41 28 42 80 43 74 44
REMARK SMILES IDX 73 45 29 47 61 48 41 49 60 50 42 51 45 52 59 53 78 54 43 55
REMARK SMILES IDX 44 56 58 58 79 59 46 60 30 61 31 62 39 63 32 64 38 65 40 66
REMARK SMILES IDX 37 67 33 68 34 69 35 70 36 71 62 72 63 73 71 74 64 75 70 76
REMARK SMILES IDX 72 77 69 78 65 79 66 80 67 81 68 82 47 83 48 84 56 85 49 86
REMARK SMILES IDX 55 87 57 88 54 89 50 90 51 91 52 92 53 93
REMARK H PARENT 14 7 18 27 77 46 45 57
REMARK Flexibility Score: inf
ROOT
ATOM      1  C   UNL A   1      32.743  32.158  27.220  1.00  0.00     0.118 C 
ENDROOT
BRANCH   1   2
ATOM      2  C   UNL A   1      31.449  31.578  26.662  1.00  0.00     0.042 C 
BRANCH   2   3
ATOM      3  C   UNL A   1      31.701  30.433  25.693  1.00  0.00     0.118 C 
BRANCH   3   4
ATOM      4  N   UNL A   1      30.742  30.426  24.598  1.00  0.00    -0.352 N 
ATOM      5  C   UNL A   1      30.339  29.567  23.633  1.00  0.00     0.251 C 
ATOM      6  O   UNL A   1      29.453  29.995  22.885  1.00  0.00    -0.270 OA
ATOM      7  H   UNL A   1      30.253  31.278  24.544  1.00  0.00     0.163 HD
BRANCH   5   8
ATOM      8  C   UNL A   1      30.870  28.187  23.432  1.00  0.00     0.067 C 
ATOM      9  C   UNL A   1      32.362  21.855  23.484  1.00  0.00     0.046 C 
ATOM     10  C   UNL A   1      31.807  23.230  23.738  1.00  0.00    -0.028 A 
ATOM     11  C   UNL A   1      32.101  24.243  22.821  1.00  0.00     0.052 A 
ATOM     12  C   UNL A   1      31.030  23.542  24.873  1.00  0.00     0.047 A 
ATOM     13  C   UNL A   1      31.634  25.536  23.025  1.00  0.00     0.128 A 
ATOM     14  C   UNL A   1      30.530  24.852  25.081  1.00  0.00    -0.021 A 
ATOM     15  Cl  UNL A   1      30.704  22.276  26.019  1.00  0.00    -0.084 Cl
ATOM     16  C   UNL A   1      30.842  25.856  24.133  1.00  0.00     0.022 A 
ATOM     17  O   UNL A   1      31.969  26.438  22.057  1.00  0.00    -0.475 OA
ATOM     18  C   UNL A   1      29.677  25.201  26.278  1.00  0.00     0.047 C 
ATOM     19  C   UNL A   1      30.350  27.235  24.229  1.00  0.00     0.026 C 
ATOM     20  C   UNL A   1      31.942  27.836  22.445  1.00  0.00     0.314 C 
BRANCH  20  21
ATOM     21  C   UNL A   1      33.346  28.265  22.916  1.00  0.00     0.429 C 
ATOM     22  F   UNL A   1      33.596  27.790  24.162  1.00  0.00    -0.167 F 
ATOM     23  F   UNL A   1      34.331  27.788  22.119  1.00  0.00    -0.167 F 
ATOM     24  F   UNL A   1      33.496  29.608  22.957  1.00  0.00    -0.167 F 
ENDBRANCH  20  21
ENDBRANCH   5   8
ENDBRANCH   3   4
ENDBRANCH   2   3
ENDBRANCH   1   2
BRANCH   1  25
ATOM     25  N   UNL A   1      32.633  33.596  27.455  1.00  0.00    -0.352 N 
ATOM     26  C   UNL A   1      33.195  34.376  28.436  1.00  0.00     0.251 C 
ATOM     27  H   UNL A   1      32.067  34.081  26.810  1.00  0.00     0.163 HD
ATOM     28  O   UNL A   1      32.745  35.500  28.643  1.00  0.00    -0.269 OA
BRANCH  26  29
ATOM     29  C   UNL A   1      34.322  33.859  29.234  1.00  0.00     0.039 A 
ATOM     30  C   UNL A   1      34.072  32.989  30.297  1.00  0.00     0.014 A 
ATOM     31  C   UNL A   1      35.630  34.252  28.942  1.00  0.00     0.014 A 
ATOM     32  C   UNL A   1      35.143  32.460  31.020  1.00  0.00     0.010 A 
ATOM     33  C   UNL A   1      36.697  33.652  29.596  1.00  0.00     0.010 A 
ATOM     34  C   UNL A   1      36.465  32.758  30.651  1.00  0.00    -0.014 A 
BRANCH  34  35
ATOM     35  C   UNL A   1      37.622  32.174  31.371  1.00  0.00     0.031 A 
ATOM     36  C   UNL A   1      38.415  31.066  30.732  1.00  0.00     0.074 A 
ATOM     37  C   UNL A   1      37.923  32.605  32.611  1.00  0.00     0.049 A 
ATOM     38  N   UNL A   1      39.405  30.368  31.226  1.00  0.00    -0.248 NA
ATOM     39  C   UNL A   1      38.021  30.667  29.370  1.00  0.00     0.031 C 
ATOM     40  C   UNL A   1      37.205  33.653  33.341  1.00  0.00     0.029 A 
ATOM     41  N   UNL A   1      38.917  32.223  33.476  1.00  0.00    -0.354 N 
ATOM     42  C   UNL A   1      39.747  29.450  30.241  1.00  0.00     0.074 A 
ATOM     43  C   UNL A   1      38.813  29.629  29.151  1.00  0.00     0.031 C 
ATOM     44  C   UNL A   1      37.811  33.863  34.520  1.00  0.00     0.029 A 
ATOM     45  C   UNL A   1      38.931  32.936  34.652  1.00  0.00     0.049 A 
ATOM     46  H   UNL A   1      39.560  31.506  33.273  1.00  0.00     0.167 HD
ATOM     47  C   UNL A   1      40.769  28.561  30.231  1.00  0.00     0.034 A 
ATOM     48  C   UNL A   1      39.754  32.853  35.716  1.00  0.00     0.034 A 
ATOM     49  C   UNL A   1      41.710  28.417  31.310  1.00  0.00     0.049 A 
ATOM     50  C   UNL A   1      40.864  31.835  35.696  1.00  0.00     0.074 A 
ATOM     51  C   UNL A   1      42.806  27.575  31.389  1.00  0.00     0.029 A 
ATOM     52  N   UNL A   1      41.672  29.137  32.496  1.00  0.00    -0.354 N 
ATOM     53  N   UNL A   1      41.175  30.976  34.753  1.00  0.00    -0.248 NA
ATOM     54  C   UNL A   1      41.729  31.772  36.881  1.00  0.00     0.031 C 
ATOM     55  C   UNL A   1      43.399  27.750  32.643  1.00  0.00     0.029 A 
ATOM     56  C   UNL A   1      42.712  28.743  33.321  1.00  0.00     0.049 A 
ATOM     57  H   UNL A   1      41.005  29.825  32.718  1.00  0.00     0.167 HD
ATOM     58  C   UNL A   1      42.287  30.284  35.223  1.00  0.00     0.074 A 
ATOM     59  C   UNL A   1      42.594  30.829  36.530  1.00  0.00     0.031 C 
ATOM     60  C   UNL A   1      42.992  29.293  34.625  1.00  0.00     0.034 A 
BRANCH  47  61
ATOM     61  C   UNL A   1      40.920  27.687  29.015  1.00  0.00     0.023 A 
ATOM     62  C   UNL A   1      41.895  27.957  28.040  1.00  0.00     0.031 A 
ATOM     63  C   UNL A   1      40.086  26.572  28.827  1.00  0.00     0.131 A 
ATOM     64  C   UNL A   1      41.979  27.154  26.895  1.00  0.00     0.055 A 
ATOM     65  C   UNL A   1      40.220  25.734  27.719  1.00  0.00     0.041 A 
ATOM     66  F   UNL A   1      39.126  26.280  29.718  1.00  0.00    -0.206 F 
ATOM     67  C   UNL A   1      41.164  26.029  26.738  1.00  0.00     0.022 A 
BRANCH  64  68
ATOM     68  S   UNL A   1      43.108  27.651  25.566  1.00  0.00     0.124 S 
ATOM     69  O   UNL A   1      42.192  28.303  24.633  1.00  0.00    -0.237 OA
ATOM     70  O   UNL A   1      44.045  28.528  26.257  1.00  0.00    -0.237 OA
ATOM     71  O   UNL A   1      43.667  26.384  25.099  1.00  0.00    -0.744 OA
ENDBRANCH  64  68
ENDBRANCH  47  61
BRANCH  48  72
ATOM     72  C   UNL A   1      39.570  33.766  36.877  1.00  0.00     0.023 A 
ATOM     73  C   UNL A   1      38.958  33.311  38.055  1.00  0.00     0.031 A 
ATOM     74  C   UNL A   1      40.005  35.101  36.829  1.00  0.00     0.131 A 
ATOM     75  C   UNL A   1      38.778  34.192  39.133  1.00  0.00     0.055 A 
ATOM     76  C   UNL A   1      39.858  35.963  37.917  1.00  0.00     0.041 A 
ATOM     77  F   UNL A   1      40.607  35.579  35.728  1.00  0.00    -0.206 F 
ATOM     78  C   UNL A   1      39.234  35.511  39.076  1.00  0.00     0.022 A 
BRANCH  75  79
ATOM     79  S   UNL A   1      37.909  33.595  40.609  1.00  0.00     0.124 S 
ATOM     80  O   UNL A   1      36.689  33.043  40.031  1.00  0.00    -0.237 OA
ATOM     81  O   UNL A   1      38.858  32.628  41.151  1.00  0.00    -0.237 OA
ATOM     82  O   UNL A   1      37.731  34.804  41.410  1.00  0.00    -0.744 OA
ENDBRANCH  75  79
ENDBRANCH  48  72
BRANCH  60  83
ATOM     83  C   UNL A   1      44.180  28.744  35.366  1.00  0.00     0.023 A 
ATOM     84  C   UNL A   1      44.036  27.732  36.329  1.00  0.00     0.031 A 
ATOM     85  C   UNL A   1      45.475  29.196  35.057  1.00  0.00     0.131 A 
ATOM     86  C   UNL A   1      45.173  27.217  36.968  1.00  0.00     0.055 A 
ATOM     87  C   UNL A   1      46.604  28.648  35.664  1.00  0.00     0.041 A 
ATOM     88  F   UNL A   1      45.661  30.158  34.139  1.00  0.00    -0.206 F 
ATOM     89  C   UNL A   1      46.456  27.654  36.628  1.00  0.00     0.022 A 
BRANCH  86  90
ATOM     90  S   UNL A   1      44.951  25.973  38.268  1.00  0.00     0.124 S 
ATOM     91  O   UNL A   1      44.639  24.778  37.490  1.00  0.00    -0.237 OA
ATOM     92  O   UNL A   1      46.248  25.977  38.936  1.00  0.00    -0.237 OA
ATOM     93  O   UNL A   1      43.844  26.502  39.063  1.00  0.00    -0.744 OA
ENDBRANCH  86  90
ENDBRANCH  60  83
ENDBRANCH  34  35
ENDBRANCH  26  29
ENDBRANCH   1  25
TORSDOF 14
ENDMDL
MODEL 3
REMARK VINA RESULT:     -12.5      5.875     10.738
REMARK SMILES Cc1cc2c(c(C)c1Cl)C=C(C(=O)NCCCNC(=O)c1ccc(-c3c4nc(c(-c5cc(S(=O)(=O)[O-])ccc5F)c5ccc([nH]5)c(-c5cc(S(=O)(=O)[O-])ccc5F)c5nc(c(-c6cc(S(=O)(=O)[O-])ccc6F)c6ccc3[nH]6)C=C5)C=C4)cc1)[C@@H](C(F)(F)F)O2
REMARK SMILES IDX 17 1 16 2 15 3 14 4 12 5 13 6 11 8 1 9 2 10 3 11 8 12 4 13
REMARK SMILES IDX 6 14 9 15 5 16 89 17 7 18 10 19 84 20 85 21 86 22 87 23
REMARK SMILES IDX 88 24 18 25 19 26 20 28 21 29 22 30 83 31 23 32 82 33 24 34
REMARK SMILES IDX 25 35 26 36 76 37 27 38 81 39 75 40 77 41 28 42 80 43 74 44
REMARK SMILES IDX 73 45 29 47 61 48 41 49 60 50 42 51 45 52 59 53 78 54 43 55
REMARK SMILES IDX 44 56 58 58 79 59 46 60 30 61 31 62 39 63 32 64 38 65 40 66
REMARK SMILES IDX 37 67 33 68 34 69 35 70 36 71 62 72 63 73 71 74 64 75 70 76
REMARK SMILES IDX 72 77 69 78 65 79 66 80 67 81 68 82 47 83 48 84 56 85 49 86
REMARK SMILES IDX 55 87 57 88 54 89 50 90 51 91 52 92 53 93
REMARK H PARENT 14 7 18 27 77 46 45 57
REMARK Flexibility Score: inf
ROOT
ATOM      1  C   UNL A   1      38.993  20.482  25.750  1.00  0.00     0.118 C 
ENDROOT
BRANCH   1   2
ATOM      2  C   UNL A   1      37.865  19.957  24.872  1.00  0.00     0.042 C 
BRANCH   2   3
ATOM      3  C   UNL A   1      36.520  20.574  25.228  1.00  0.00     0.118 C 
BRANCH   3   4
ATOM      4  N   UNL A   1      35.420  19.650  25.001  1.00  0.00    -0.352 N 
ATOM      5  C   UNL A   1      34.073  19.713  24.890  1.00  0.00     0.251 C 
ATOM      6  O   UNL A   1      33.511  18.633  24.684  1.00  0.00    -0.270 OA
ATOM      7  H   UNL A   1      35.743  18.725  24.899  1.00  0.00     0.163 HD
BRANCH   5   8
ATOM      8  C   UNL A   1      33.259  20.960  24.989  1.00  0.00     0.067 C 
ATOM      9  C   UNL A   1      29.981  26.520  24.172  1.00  0.00     0.046 C 
ATOM     10  C   UNL A   1      30.824  25.283  24.025  1.00  0.00    -0.028 A 
ATOM     11  C   UNL A   1      30.822  24.351  25.066  1.00  0.00     0.052 A 
ATOM     12  C   UNL A   1      31.635  25.042  22.896  1.00  0.00     0.047 A 
ATOM     13  C   UNL A   1      31.605  23.205  24.989  1.00  0.00     0.128 A 
ATOM     14  C   UNL A   1      32.421  23.867  22.796  1.00  0.00    -0.021 A 
ATOM     15  Cl  UNL A   1      31.650  26.229  21.626  1.00  0.00    -0.084 Cl
ATOM     16  C   UNL A   1      32.395  22.940  23.867  1.00  0.00     0.022 A 
ATOM     17  O   UNL A   1      31.510  22.360  26.057  1.00  0.00    -0.475 OA
ATOM     18  C   UNL A   1      33.278  23.579  21.585  1.00  0.00     0.047 C 
ATOM     19  C   UNL A   1      33.141  21.677  23.855  1.00  0.00     0.026 C 
ATOM     20  C   UNL A   1      32.622  21.449  26.255  1.00  0.00     0.314 C 
BRANCH  20  21
ATOM     21  C   UNL A   1      33.639  22.084  27.223  1.00  0.00     0.429 C 
ATOM     22  F   UNL A   1      34.403  21.127  27.807  1.00  0.00    -0.167 F 
ATOM     23  F   UNL A   1      34.494  22.930  26.601  1.00  0.00    -0.167 F 
ATOM     24  F   UNL A   1      33.048  22.790  28.214  1.00  0.00    -0.167 F 
ENDBRANCH  20  21
ENDBRANCH   5   8
ENDBRANCH   3   4
ENDBRANCH   2   3
ENDBRANCH   1   2
BRANCH   1  25
ATOM     25  N   UNL A   1      39.991  19.450  26.021  1.00  0.00    -0.352 N 
ATOM     26  C   UNL A   1      41.353  19.555  26.164  1.00  0.00     0.251 C 
ATOM     27  H   UNL A   1      39.631  18.538  26.116  1.00  0.00     0.163 HD
ATOM     28  O   UNL A   1      42.047  18.544  26.088  1.00  0.00    -0.269 OA
BRANCH  26  29
ATOM     29  C   UNL A   1      41.971  20.873  26.398  1.00  0.00     0.039 A 
ATOM     30  C   UNL A   1      42.264  21.700  25.313  1.00  0.00     0.014 A 
ATOM     31  C   UNL A   1      42.281  21.284  27.697  1.00  0.00     0.014 A 
ATOM     32  C   UNL A   1      42.802  22.969  25.538  1.00  0.00     0.010 A 
ATOM     33  C   UNL A   1      42.724  22.579  27.927  1.00  0.00     0.010 A 
ATOM     34  C   UNL A   1      43.001  23.432  26.850  1.00  0.00    -0.014 A 
BRANCH  34  35
ATOM     35  C   UNL A   1      43.527  24.792  27.120  1.00  0.00     0.031 A 
ATOM     36  C   UNL A   1      42.607  25.852  27.662  1.00  0.00     0.074 A 
ATOM     37  C   UNL A   1      44.810  25.080  26.831  1.00  0.00     0.049 A 
ATOM     38  N   UNL A   1      42.849  27.117  27.888  1.00  0.00    -0.248 NA
ATOM     39  C   UNL A   1      41.223  25.443  27.959  1.00  0.00     0.031 C 
ATOM     40  C   UNL A   1      45.785  24.139  26.273  1.00  0.00     0.029 A 
ATOM     41  N   UNL A   1      45.520  26.245  26.974  1.00  0.00    -0.354 N 
ATOM     42  C   UNL A   1      41.651  27.653  28.348  1.00  0.00     0.074 A 
ATOM     43  C   UNL A   1      40.666  26.595  28.299  1.00  0.00     0.031 C 
ATOM     44  C   UNL A   1      46.975  24.750  26.168  1.00  0.00     0.029 A 
ATOM     45  C   UNL A   1      46.841  26.136  26.605  1.00  0.00     0.049 A 
ATOM     46  H   UNL A   1      45.123  27.080  27.309  1.00  0.00     0.167 HD
ATOM     47  C   UNL A   1      41.404  28.905  28.802  1.00  0.00     0.034 A 
ATOM     48  C   UNL A   1      47.832  27.050  26.619  1.00  0.00     0.034 A 
ATOM     49  C   UNL A   1      42.403  29.939  28.874  1.00  0.00     0.049 A 
ATOM     50  C   UNL A   1      47.525  28.444  27.098  1.00  0.00     0.074 A 
ATOM     51  C   UNL A   1      42.270  31.230  29.353  1.00  0.00     0.029 A 
ATOM     52  N   UNL A   1      43.721  29.797  28.464  1.00  0.00    -0.354 N 
ATOM     53  N   UNL A   1      46.387  28.932  27.532  1.00  0.00    -0.248 NA
ATOM     54  C   UNL A   1      48.632  29.409  27.085  1.00  0.00     0.031 C 
ATOM     55  C   UNL A   1      43.494  31.884  29.185  1.00  0.00     0.029 A 
ATOM     56  C   UNL A   1      44.406  30.984  28.658  1.00  0.00     0.049 A 
ATOM     57  H   UNL A   1      44.111  28.974  28.090  1.00  0.00     0.167 HD
ATOM     58  C   UNL A   1      46.646  30.258  27.865  1.00  0.00     0.074 A 
ATOM     59  C   UNL A   1      48.049  30.491  27.586  1.00  0.00     0.031 C 
ATOM     60  C   UNL A   1      45.802  31.195  28.362  1.00  0.00     0.034 A 
BRANCH  47  61
ATOM     61  C   UNL A   1      40.003  29.216  29.258  1.00  0.00     0.023 A 
ATOM     62  C   UNL A   1      39.667  29.229  30.622  1.00  0.00     0.031 A 
ATOM     63  C   UNL A   1      38.994  29.506  28.325  1.00  0.00     0.131 A 
ATOM     64  C   UNL A   1      38.344  29.473  31.014  1.00  0.00     0.055 A 
ATOM     65  C   UNL A   1      37.694  29.818  28.724  1.00  0.00     0.041 A 
ATOM     66  F   UNL A   1      39.257  29.489  27.008  1.00  0.00    -0.206 F 
ATOM     67  C   UNL A   1      37.359  29.792  30.075  1.00  0.00     0.022 A 
BRANCH  64  68
ATOM     68  S   UNL A   1      37.906  29.279  32.762  1.00  0.00     0.124 S 
ATOM     69  O   UNL A   1      37.778  27.828  32.873  1.00  0.00    -0.237 OA
ATOM     70  O   UNL A   1      39.050  29.873  33.444  1.00  0.00    -0.237 OA
ATOM     71  O   UNL A   1      36.653  30.021  32.885  1.00  0.00    -0.744 OA
ENDBRANCH  64  68
ENDBRANCH  47  61
BRANCH  48  72
ATOM     72  C   UNL A   1      49.204  26.672  26.181  1.00  0.00     0.023 A 
ATOM     73  C   UNL A   1      49.696  27.082  24.933  1.00  0.00     0.031 A 
ATOM     74  C   UNL A   1      50.043  25.901  27.004  1.00  0.00     0.131 A 
ATOM     75  C   UNL A   1      50.985  26.702  24.531  1.00  0.00     0.055 A 
ATOM     76  C   UNL A   1      51.339  25.556  26.616  1.00  0.00     0.041 A 
ATOM     77  F   UNL A   1      49.621  25.494  28.212  1.00  0.00    -0.206 F 
ATOM     78  C   UNL A   1      51.814  25.952  25.369  1.00  0.00     0.022 A 
BRANCH  75  79
ATOM     79  S   UNL A   1      51.559  27.180  22.879  1.00  0.00     0.124 S 
ATOM     80  O   UNL A   1      52.740  26.338  22.720  1.00  0.00    -0.237 OA
ATOM     81  O   UNL A   1      50.409  26.838  22.047  1.00  0.00    -0.237 OA
ATOM     82  O   UNL A   1      51.824  28.610  23.011  1.00  0.00    -0.744 OA
ENDBRANCH  75  79
ENDBRANCH  48  72
BRANCH  60  83
ATOM     83  C   UNL A   1      46.373  32.555  28.658  1.00  0.00     0.023 A 
ATOM     84  C   UNL A   1      46.347  33.582  27.700  1.00  0.00     0.031 A 
ATOM     85  C   UNL A   1      46.890  32.841  29.933  1.00  0.00     0.131 A 
ATOM     86  C   UNL A   1      46.851  34.848  28.028  1.00  0.00     0.055 A 
ATOM     87  C   UNL A   1      47.349  34.114  30.267  1.00  0.00     0.041 A 
ATOM     88  F   UNL A   1      46.930  31.891  30.882  1.00  0.00    -0.206 F 
ATOM     89  C   UNL A   1      47.334  35.126  29.310  1.00  0.00     0.022 A 
BRANCH  86  90
ATOM     90  S   UNL A   1      46.883  36.130  26.747  1.00  0.00     0.124 S 
ATOM     91  O   UNL A   1      48.226  36.680  26.906  1.00  0.00    -0.237 OA
ATOM     92  O   UNL A   1      46.649  35.366  25.526  1.00  0.00    -0.237 OA
ATOM     93  O   UNL A   1      45.795  37.028  27.132  1.00  0.00    -0.744 OA
ENDBRANCH  86  90
ENDBRANCH  60  83
ENDBRANCH  34  35
ENDBRANCH  26  29
ENDBRANCH   1  25
TORSDOF 14
ENDMDL
