MODEL 1
REMARK VINA RESULT:     -12.5      0.000      0.000
REMARK SMILES N#C/C(=C/c1cccc(OC2CCCC2)c1)C(=O)NCCCNC(=O)c1ccc(-c2c3nc(c(-c4cc(S(=O)(=O)[O-])ccc4F)c4ccc([nH]4)c(-c4cc(S(=O)(=O)[O-])ccc4F)c4nc(c(-c5cc(S(=O)(=O)[O-])ccc5F)c5ccc2[nH]5)C=C4)C=C3)cc1
REMARK SMILES IDX 21 1 20 2 19 3 17 4 18 5 3 7 4 8 2 9 1 10 5 11 6 12 16 13
REMARK SMILES IDX 7 14 9 15 8 16 10 17 11 18 12 19 15 20 13 21 14 22 22 23
REMARK SMILES IDX 23 24 24 25 25 27 26 28 27 29 88 30 28 31 87 32 29 33 30 34
REMARK SMILES IDX 31 35 81 36 32 37 86 38 80 39 82 40 33 41 85 42 79 43 78 44
REMARK SMILES IDX 34 46 66 47 46 48 65 49 47 50 50 51 64 52 83 53 48 54 49 55
REMARK SMILES IDX 63 57 84 58 51 59 35 60 36 61 44 62 37 63 43 64 45 65 42 66
REMARK SMILES IDX 38 67 39 68 40 69 41 70 67 71 68 72 76 73 69 74 75 75 77 76
REMARK SMILES IDX 74 77 70 78 71 79 72 80 73 81 52 82 53 83 61 84 54 85 60 86
REMARK SMILES IDX 62 87 59 88 55 89 56 90 57 91 58 92
REMARK H PARENT 19 6 23 26 82 45 50 56
REMARK Flexibility Score: inf
ROOT
ATOM      1  C   UNL A   1      31.463  28.083  26.145  1.00  0.00     0.042 C 
ENDROOT
BRANCH   1   2
ATOM      2  C   UNL A   1      31.841  26.615  26.066  1.00  0.00     0.118 C 
BRANCH   2   3
ATOM      3  N   UNL A   1      31.100  25.847  25.083  1.00  0.00    -0.351 N 
ATOM      4  C   UNL A   1      31.539  25.063  24.060  1.00  0.00     0.261 C 
ATOM      5  O   UNL A   1      30.699  24.421  23.428  1.00  0.00    -0.268 OA
ATOM      6  H   UNL A   1      30.121  25.902  25.170  1.00  0.00     0.163 HD
BRANCH   4   7
ATOM      7  C   UNL A   1      32.962  25.021  23.637  1.00  0.00     0.117 C 
ATOM      8  C   UNL A   1      34.024  24.322  24.106  1.00  0.00     0.033 C 
BRANCH   7   9
ATOM      9  C   UNL A   1      33.281  25.747  22.340  1.00  0.00     0.105 C 
ATOM     10  N   UNL A   1      33.545  26.349  21.264  1.00  0.00    -0.192 NA
ENDBRANCH   7   9
BRANCH   8  11
ATOM     11  C   UNL A   1      34.073  23.321  25.167  1.00  0.00    -0.020 A 
ATOM     12  C   UNL A   1      34.140  23.706  26.509  1.00  0.00     0.008 A 
ATOM     13  C   UNL A   1      33.981  21.967  24.830  1.00  0.00     0.054 A 
ATOM     14  C   UNL A   1      34.002  22.743  27.507  1.00  0.00     0.004 A 
ATOM     15  C   UNL A   1      33.773  21.010  25.815  1.00  0.00     0.120 A 
ATOM     16  C   UNL A   1      33.797  21.404  27.156  1.00  0.00     0.046 A 
BRANCH  15  17
ATOM     17  O   UNL A   1      33.490  19.696  25.603  1.00  0.00    -0.490 OA
BRANCH  17  18
ATOM     18  C   UNL A   1      33.785  19.028  24.380  1.00  0.00     0.173 C 
ATOM     19  C   UNL A   1      34.462  17.654  24.456  1.00  0.00     0.045 C 
ATOM     20  C   UNL A   1      32.597  18.897  23.422  1.00  0.00     0.045 C 
ATOM     21  C   UNL A   1      34.085  16.996  23.137  1.00  0.00     0.004 C 
ATOM     22  C   UNL A   1      32.666  17.477  22.863  1.00  0.00     0.004 C 
ENDBRANCH  17  18
ENDBRANCH  15  17
ENDBRANCH   8  11
ENDBRANCH   4   7
ENDBRANCH   2   3
ENDBRANCH   1   2
BRANCH   1  23
ATOM     23  C   UNL A   1      32.296  28.859  27.164  1.00  0.00     0.118 C 
BRANCH  23  24
ATOM     24  N   UNL A   1      32.128  30.312  27.124  1.00  0.00    -0.352 N 
ATOM     25  C   UNL A   1      33.001  31.362  27.291  1.00  0.00     0.251 C 
ATOM     26  H   UNL A   1      31.203  30.594  26.942  1.00  0.00     0.163 HD
ATOM     27  O   UNL A   1      32.575  32.514  27.218  1.00  0.00    -0.269 OA
BRANCH  25  28
ATOM     28  C   UNL A   1      34.418  31.134  27.646  1.00  0.00     0.039 A 
ATOM     29  C   UNL A   1      35.257  32.241  27.819  1.00  0.00     0.014 A 
ATOM     30  C   UNL A   1      34.921  29.858  27.854  1.00  0.00     0.014 A 
ATOM     31  C   UNL A   1      36.540  32.069  28.347  1.00  0.00     0.010 A 
ATOM     32  C   UNL A   1      36.131  29.700  28.514  1.00  0.00     0.010 A 
ATOM     33  C   UNL A   1      36.951  30.805  28.788  1.00  0.00    -0.014 A 
BRANCH  33  34
ATOM     34  C   UNL A   1      38.209  30.577  29.555  1.00  0.00     0.031 A 
ATOM     35  C   UNL A   1      39.236  29.616  29.016  1.00  0.00     0.074 A 
ATOM     36  C   UNL A   1      38.343  31.077  30.799  1.00  0.00     0.049 A 
ATOM     37  N   UNL A   1      40.209  29.002  29.637  1.00  0.00    -0.248 NA
ATOM     38  C   UNL A   1      39.088  29.238  27.604  1.00  0.00     0.031 C 
ATOM     39  C   UNL A   1      37.395  31.975  31.466  1.00  0.00     0.029 A 
ATOM     40  N   UNL A   1      39.314  30.865  31.748  1.00  0.00    -0.354 N 
ATOM     41  C   UNL A   1      40.733  28.102  28.714  1.00  0.00     0.074 A 
ATOM     42  C   UNL A   1      39.931  28.223  27.514  1.00  0.00     0.031 C 
ATOM     43  C   UNL A   1      37.833  32.240  32.705  1.00  0.00     0.029 A 
ATOM     44  C   UNL A   1      39.053  31.482  32.951  1.00  0.00     0.049 A 
ATOM     45  H   UNL A   1      40.119  30.324  31.582  1.00  0.00     0.167 HD
ATOM     46  C   UNL A   1      41.791  27.262  28.854  1.00  0.00     0.034 A 
ATOM     47  C   UNL A   1      39.697  31.414  34.132  1.00  0.00     0.034 A 
ATOM     48  C   UNL A   1      42.619  27.222  30.035  1.00  0.00     0.049 A 
ATOM     49  C   UNL A   1      40.916  30.541  34.248  1.00  0.00     0.074 A 
ATOM     50  C   UNL A   1      43.781  26.504  30.252  1.00  0.00     0.029 A 
ATOM     51  N   UNL A   1      42.375  27.943  31.199  1.00  0.00    -0.354 N 
ATOM     52  N   UNL A   1      41.426  29.718  33.360  1.00  0.00    -0.248 NA
ATOM     53  C   UNL A   1      41.651  30.588  35.519  1.00  0.00     0.031 C 
ATOM     54  C   UNL A   1      44.213  26.752  31.559  1.00  0.00     0.029 A 
ATOM     55  C   UNL A   1      43.356  27.673  32.139  1.00  0.00     0.049 A 
ATOM     56  H   UNL A   1      41.616  28.555  31.334  1.00  0.00     0.167 HD
ATOM     57  C   UNL A   1      42.556  29.169  33.957  1.00  0.00     0.074 A 
ATOM     58  C   UNL A   1      42.654  29.754  35.279  1.00  0.00     0.031 C 
ATOM     59  C   UNL A   1      43.436  28.268  33.453  1.00  0.00     0.034 A 
BRANCH  46  60
ATOM     60  C   UNL A   1      42.083  26.313  27.714  1.00  0.00     0.023 A 
ATOM     61  C   UNL A   1      41.535  25.019  27.667  1.00  0.00     0.031 A 
ATOM     62  C   UNL A   1      42.982  26.679  26.696  1.00  0.00     0.131 A 
ATOM     63  C   UNL A   1      41.986  24.101  26.706  1.00  0.00     0.055 A 
ATOM     64  C   UNL A   1      43.344  25.794  25.678  1.00  0.00     0.041 A 
ATOM     65  F   UNL A   1      43.550  27.895  26.690  1.00  0.00    -0.206 F 
ATOM     66  C   UNL A   1      42.866  24.487  25.694  1.00  0.00     0.022 A 
BRANCH  63  67
ATOM     67  S   UNL A   1      41.563  22.351  26.929  1.00  0.00     0.124 S 
ATOM     68  O   UNL A   1      40.132  22.430  27.217  1.00  0.00    -0.237 OA
ATOM     69  O   UNL A   1      41.924  21.773  25.640  1.00  0.00    -0.237 OA
ATOM     70  O   UNL A   1      42.396  21.938  28.056  1.00  0.00    -0.744 OA
ENDBRANCH  63  67
ENDBRANCH  46  60
BRANCH  47  71
ATOM     71  C   UNL A   1      39.183  32.177  35.302  1.00  0.00     0.023 A 
ATOM     72  C   UNL A   1      38.508  31.528  36.346  1.00  0.00     0.031 A 
ATOM     73  C   UNL A   1      39.379  33.566  35.401  1.00  0.00     0.131 A 
ATOM     74  C   UNL A   1      38.027  32.272  37.435  1.00  0.00     0.055 A 
ATOM     75  C   UNL A   1      38.932  34.296  36.505  1.00  0.00     0.041 A 
ATOM     76  F   UNL A   1      40.037  34.229  34.436  1.00  0.00    -0.206 F 
ATOM     77  C   UNL A   1      38.244  33.649  37.527  1.00  0.00     0.022 A 
BRANCH  74  78
ATOM     78  S   UNL A   1      37.080  31.415  38.723  1.00  0.00     0.124 S 
ATOM     79  O   UNL A   1      37.967  31.539  39.875  1.00  0.00    -0.237 OA
ATOM     80  O   UNL A   1      35.852  32.202  38.772  1.00  0.00    -0.237 OA
ATOM     81  O   UNL A   1      36.930  30.063  38.191  1.00  0.00    -0.744 OA
ENDBRANCH  74  78
ENDBRANCH  47  71
BRANCH  59  82
ATOM     82  C   UNL A   1      44.619  27.909  34.311  1.00  0.00     0.023 A 
ATOM     83  C   UNL A   1      44.598  26.801  35.176  1.00  0.00     0.031 A 
ATOM     84  C   UNL A   1      45.797  28.673  34.234  1.00  0.00     0.131 A 
ATOM     85  C   UNL A   1      45.728  26.505  35.952  1.00  0.00     0.055 A 
ATOM     86  C   UNL A   1      46.931  28.347  34.975  1.00  0.00     0.041 A 
ATOM     87  F   UNL A   1      45.863  29.740  33.422  1.00  0.00    -0.206 F 
ATOM     88  C   UNL A   1      46.900  27.261  35.844  1.00  0.00     0.022 A 
BRANCH  85  89
ATOM     89  S   UNL A   1      45.642  25.135  37.137  1.00  0.00     0.124 S 
ATOM     90  O   UNL A   1      46.368  25.678  38.280  1.00  0.00    -0.237 OA
ATOM     91  O   UNL A   1      44.204  24.964  37.317  1.00  0.00    -0.237 OA
ATOM     92  O   UNL A   1      46.312  24.037  36.442  1.00  0.00    -0.744 OA
ENDBRANCH  85  89
ENDBRANCH  59  82
ENDBRANCH  33  34
ENDBRANCH  25  28
ENDBRANCH  23  24
ENDBRANCH   1  23
TORSDOF 17
ENDMDL
MODEL 2
REMARK VINA RESULT:     -12.4      2.274      4.381
REMARK SMILES N#C/C(=C/c1cccc(OC2CCCC2)c1)C(=O)NCCCNC(=O)c1ccc(-c2c3nc(c(-c4cc(S(=O)(=O)[O-])ccc4F)c4ccc([nH]4)c(-c4cc(S(=O)(=O)[O-])ccc4F)c4nc(c(-c5cc(S(=O)(=O)[O-])ccc5F)c5ccc2[nH]5)C=C4)C=C3)cc1
REMARK SMILES IDX 21 1 20 2 19 3 17 4 18 5 3 7 4 8 2 9 1 10 5 11 6 12 16 13
REMARK SMILES IDX 7 14 9 15 8 16 10 17 11 18 12 19 15 20 13 21 14 22 22 23
REMARK SMILES IDX 23 24 24 25 25 27 26 28 27 29 88 30 28 31 87 32 29 33 30 34
REMARK SMILES IDX 31 35 81 36 32 37 86 38 80 39 82 40 33 41 85 42 79 43 78 44
REMARK SMILES IDX 34 46 66 47 46 48 65 49 47 50 50 51 64 52 83 53 48 54 49 55
REMARK SMILES IDX 63 57 84 58 51 59 35 60 36 61 44 62 37 63 43 64 45 65 42 66
REMARK SMILES IDX 38 67 39 68 40 69 41 70 67 71 68 72 76 73 69 74 75 75 77 76
REMARK SMILES IDX 74 77 70 78 71 79 72 80 73 81 52 82 53 83 61 84 54 85 60 86
REMARK SMILES IDX 62 87 59 88 55 89 56 90 57 91 58 92
REMARK H PARENT 19 6 23 26 82 45 50 56
REMARK Flexibility Score: inf
ROOT
ATOM      1  C   UNL A   1      31.742  28.680  27.176  1.00  0.00     0.042 C 
ENDROOT
BRANCH   1   2
ATOM      2  C   UNL A   1      32.139  27.242  26.895  1.00  0.00     0.118 C 
BRANCH   2   3
ATOM      3  N   UNL A   1      31.035  26.301  26.858  1.00  0.00    -0.351 N 
ATOM      4  C   UNL A   1      30.926  25.088  26.250  1.00  0.00     0.261 C 
ATOM      5  O   UNL A   1      29.910  24.427  26.465  1.00  0.00    -0.268 OA
ATOM      6  H   UNL A   1      30.233  26.588  27.354  1.00  0.00     0.163 HD
BRANCH   4   7
ATOM      7  C   UNL A   1      31.940  24.581  25.289  1.00  0.00     0.117 C 
ATOM      8  C   UNL A   1      32.541  25.159  24.221  1.00  0.00     0.033 C 
BRANCH   7   9
ATOM      9  C   UNL A   1      32.562  23.240  25.642  1.00  0.00     0.105 C 
ATOM     10  N   UNL A   1      33.079  22.128  25.935  1.00  0.00    -0.192 NA
ENDBRANCH   7   9
BRANCH   8  11
ATOM     11  C   UNL A   1      32.411  26.522  23.716  1.00  0.00    -0.020 A 
ATOM     12  C   UNL A   1      33.537  27.338  23.569  1.00  0.00     0.008 A 
ATOM     13  C   UNL A   1      31.155  26.983  23.312  1.00  0.00     0.054 A 
ATOM     14  C   UNL A   1      33.416  28.564  22.918  1.00  0.00     0.004 A 
ATOM     15  C   UNL A   1      31.036  28.170  22.601  1.00  0.00     0.120 A 
ATOM     16  C   UNL A   1      32.172  28.964  22.417  1.00  0.00     0.046 A 
BRANCH  15  17
ATOM     17  O   UNL A   1      29.904  28.631  22.002  1.00  0.00    -0.490 OA
BRANCH  17  18
ATOM     18  C   UNL A   1      29.458  29.979  22.122  1.00  0.00     0.173 C 
ATOM     19  C   UNL A   1      28.271  30.423  21.259  1.00  0.00     0.045 C 
ATOM     20  C   UNL A   1      29.170  30.429  23.558  1.00  0.00     0.045 C 
ATOM     21  C   UNL A   1      27.694  31.604  22.026  1.00  0.00     0.004 C 
ATOM     22  C   UNL A   1      27.872  31.231  23.492  1.00  0.00     0.004 C 
ENDBRANCH  17  18
ENDBRANCH  15  17
ENDBRANCH   8  11
ENDBRANCH   4   7
ENDBRANCH   2   3
ENDBRANCH   1   2
BRANCH   1  23
ATOM     23  C   UNL A   1      32.587  29.693  26.404  1.00  0.00     0.118 C 
BRANCH  23  24
ATOM     24  N   UNL A   1      32.434  31.083  26.833  1.00  0.00    -0.352 N 
ATOM     25  C   UNL A   1      33.301  31.993  27.392  1.00  0.00     0.251 C 
ATOM     26  H   UNL A   1      31.527  31.438  26.695  1.00  0.00     0.163 HD
ATOM     27  O   UNL A   1      32.892  33.118  27.673  1.00  0.00    -0.269 OA
BRANCH  25  28
ATOM     28  C   UNL A   1      34.688  31.618  27.741  1.00  0.00     0.039 A 
ATOM     29  C   UNL A   1      35.660  32.622  27.821  1.00  0.00     0.014 A 
ATOM     30  C   UNL A   1      35.036  30.307  28.035  1.00  0.00     0.014 A 
ATOM     31  C   UNL A   1      36.924  32.331  28.342  1.00  0.00     0.010 A 
ATOM     32  C   UNL A   1      36.232  30.048  28.687  1.00  0.00     0.010 A 
ATOM     33  C   UNL A   1      37.188  31.060  28.868  1.00  0.00    -0.014 A 
BRANCH  33  34
ATOM     34  C   UNL A   1      38.425  30.734  29.632  1.00  0.00     0.031 A 
ATOM     35  C   UNL A   1      39.395  29.729  29.068  1.00  0.00     0.074 A 
ATOM     36  C   UNL A   1      38.583  31.188  30.891  1.00  0.00     0.049 A 
ATOM     37  N   UNL A   1      40.326  29.039  29.673  1.00  0.00    -0.248 NA
ATOM     38  C   UNL A   1      39.231  29.403  27.644  1.00  0.00     0.031 C 
ATOM     39  C   UNL A   1      37.688  32.121  31.581  1.00  0.00     0.029 A 
ATOM     40  N   UNL A   1      39.536  30.889  31.836  1.00  0.00    -0.354 N 
ATOM     41  C   UNL A   1      40.799  28.136  28.725  1.00  0.00     0.074 A 
ATOM     42  C   UNL A   1      40.012  28.341  27.527  1.00  0.00     0.031 C 
ATOM     43  C   UNL A   1      38.136  32.322  32.830  1.00  0.00     0.029 A 
ATOM     44  C   UNL A   1      39.307  31.484  33.056  1.00  0.00     0.049 A 
ATOM     45  H   UNL A   1      40.307  30.305  31.657  1.00  0.00     0.167 HD
ATOM     46  C   UNL A   1      41.803  27.230  28.843  1.00  0.00     0.034 A 
ATOM     47  C   UNL A   1      39.940  31.342  34.236  1.00  0.00     0.034 A 
ATOM     48  C   UNL A   1      42.622  27.105  30.024  1.00  0.00     0.049 A 
ATOM     49  C   UNL A   1      41.103  30.394  34.330  1.00  0.00     0.074 A 
ATOM     50  C   UNL A   1      43.737  26.311  30.223  1.00  0.00     0.029 A 
ATOM     51  N   UNL A   1      42.416  27.804  31.209  1.00  0.00    -0.354 N 
ATOM     52  N   UNL A   1      41.566  29.568  33.419  1.00  0.00    -0.248 NA
ATOM     53  C   UNL A   1      41.833  30.359  35.604  1.00  0.00     0.031 C 
ATOM     54  C   UNL A   1      44.177  26.493  31.539  1.00  0.00     0.029 A 
ATOM     55  C   UNL A   1      43.374  27.448  32.144  1.00  0.00     0.049 A 
ATOM     56  H   UNL A   1      41.695  28.457  31.360  1.00  0.00     0.167 HD
ATOM     57  C   UNL A   1      42.658  28.934  34.003  1.00  0.00     0.074 A 
ATOM     58  C   UNL A   1      42.785  29.473  35.342  1.00  0.00     0.031 C 
ATOM     59  C   UNL A   1      43.485  27.997  33.475  1.00  0.00     0.034 A 
BRANCH  46  60
ATOM     60  C   UNL A   1      42.043  26.299  27.676  1.00  0.00     0.023 A 
ATOM     61  C   UNL A   1      41.493  25.006  27.633  1.00  0.00     0.031 A 
ATOM     62  C   UNL A   1      42.895  26.682  26.624  1.00  0.00     0.131 A 
ATOM     63  C   UNL A   1      41.899  24.103  26.638  1.00  0.00     0.055 A 
ATOM     64  C   UNL A   1      43.210  25.812  25.577  1.00  0.00     0.041 A 
ATOM     65  F   UNL A   1      43.463  27.897  26.612  1.00  0.00    -0.206 F 
ATOM     66  C   UNL A   1      42.733  24.506  25.593  1.00  0.00     0.022 A 
BRANCH  63  67
ATOM     67  S   UNL A   1      41.486  22.350  26.852  1.00  0.00     0.124 S 
ATOM     68  O   UNL A   1      41.899  21.793  25.565  1.00  0.00    -0.237 OA
ATOM     69  O   UNL A   1      42.300  21.973  28.001  1.00  0.00    -0.237 OA
ATOM     70  O   UNL A   1      40.043  22.363  27.082  1.00  0.00    -0.744 OA
ENDBRANCH  63  67
ENDBRANCH  46  60
BRANCH  47  71
ATOM     71  C   UNL A   1      39.467  32.100  35.428  1.00  0.00     0.023 A 
ATOM     72  C   UNL A   1      39.874  33.425  35.647  1.00  0.00     0.031 A 
ATOM     73  C   UNL A   1      38.585  31.516  36.352  1.00  0.00     0.131 A 
ATOM     74  C   UNL A   1      39.420  34.115  36.782  1.00  0.00     0.055 A 
ATOM     75  C   UNL A   1      38.105  32.219  37.459  1.00  0.00     0.041 A 
ATOM     76  F   UNL A   1      38.151  30.257  36.175  1.00  0.00    -0.206 F 
ATOM     77  C   UNL A   1      38.530  33.525  37.683  1.00  0.00     0.022 A 
BRANCH  74  78
ATOM     78  S   UNL A   1      40.037  35.794  37.082  1.00  0.00     0.124 S 
ATOM     79  O   UNL A   1      39.309  36.164  38.291  1.00  0.00    -0.237 OA
ATOM     80  O   UNL A   1      41.470  35.567  37.241  1.00  0.00    -0.237 OA
ATOM     81  O   UNL A   1      39.653  36.519  35.874  1.00  0.00    -0.744 OA
ENDBRANCH  74  78
ENDBRANCH  47  71
BRANCH  59  82
ATOM     82  C   UNL A   1      44.639  27.541  34.325  1.00  0.00     0.023 A 
ATOM     83  C   UNL A   1      44.535  26.437  35.188  1.00  0.00     0.031 A 
ATOM     84  C   UNL A   1      45.874  28.208  34.243  1.00  0.00     0.131 A 
ATOM     85  C   UNL A   1      45.641  26.048  35.957  1.00  0.00     0.055 A 
ATOM     86  C   UNL A   1      46.983  27.791  34.977  1.00  0.00     0.041 A 
ATOM     87  F   UNL A   1      46.022  29.269  33.433  1.00  0.00    -0.206 F 
ATOM     88  C   UNL A   1      46.869  26.708  35.843  1.00  0.00     0.022 A 
BRANCH  85  89
ATOM     89  S   UNL A   1      45.451  24.686  37.139  1.00  0.00     0.124 S 
ATOM     90  O   UNL A   1      45.714  23.521  36.301  1.00  0.00    -0.237 OA
ATOM     91  O   UNL A   1      46.466  24.994  38.141  1.00  0.00    -0.237 OA
ATOM     92  O   UNL A   1      44.070  24.820  37.597  1.00  0.00    -0.744 OA
ENDBRANCH  85  89
ENDBRANCH  59  82
ENDBRANCH  33  34
ENDBRANCH  25  28
ENDBRANCH  23  24
ENDBRANCH   1  23
TORSDOF 17
ENDMDL
MODEL 3
REMARK VINA RESULT:     -12.3      2.719      4.662
REMARK SMILES N#C/C(=C/c1cccc(OC2CCCC2)c1)C(=O)NCCCNC(=O)c1ccc(-c2c3nc(c(-c4cc(S(=O)(=O)[O-])ccc4F)c4ccc([nH]4)c(-c4cc(S(=O)(=O)[O-])ccc4F)c4nc(c(-c5cc(S(=O)(=O)[O-])ccc5F)c5ccc2[nH]5)C=C4)C=C3)cc1
REMARK SMILES IDX 21 1 20 2 19 3 17 4 18 5 3 7 4 8 2 9 1 10 5 11 6 12 16 13
REMARK SMILES IDX 7 14 9 15 8 16 10 17 11 18 12 19 15 20 13 21 14 22 22 23
REMARK SMILES IDX 23 24 24 25 25 27 26 28 27 29 88 30 28 31 87 32 29 33 30 34
REMARK SMILES IDX 31 35 81 36 32 37 86 38 80 39 82 40 33 41 85 42 79 43 78 44
REMARK SMILES IDX 34 46 66 47 46 48 65 49 47 50 50 51 64 52 83 53 48 54 49 55
REMARK SMILES IDX 63 57 84 58 51 59 35 60 36 61 44 62 37 63 43 64 45 65 42 66
REMARK SMILES IDX 38 67 39 68 40 69 41 70 67 71 68 72 76 73 69 74 75 75 77 76
REMARK SMILES IDX 74 77 70 78 71 79 72 80 73 81 52 82 53 83 61 84 54 85 60 86
REMARK SMILES IDX 62 87 59 88 55 89 56 90 57 91 58 92
REMARK H PARENT 19 6 23 26 82 45 50 56
REMARK Flexibility Score: inf
ROOT
ATOM      1  C   UNL A   1      33.022  28.971  24.809  1.00  0.00     0.042 C 
ENDROOT
BRANCH   1   2
ATOM      2  C   UNL A   1      33.868  27.748  24.503  1.00  0.00     0.118 C 
BRANCH   2   3
ATOM      3  N   UNL A   1      33.706  26.647  25.435  1.00  0.00    -0.351 N 
ATOM      4  C   UNL A   1      33.573  25.311  25.211  1.00  0.00     0.261 C 
ATOM      5  O   UNL A   1      33.562  24.563  26.189  1.00  0.00    -0.268 OA
ATOM      6  H   UNL A   1      33.689  26.910  26.384  1.00  0.00     0.163 HD
BRANCH   4   7
ATOM      7  C   UNL A   1      33.364  24.744  23.854  1.00  0.00     0.117 C 
ATOM      8  C   UNL A   1      32.353  24.883  22.963  1.00  0.00     0.033 C 
BRANCH   7   9
ATOM      9  C   UNL A   1      34.557  24.014  23.259  1.00  0.00     0.105 C 
ATOM     10  N   UNL A   1      35.547  23.408  22.766  1.00  0.00    -0.192 NA
ENDBRANCH   7   9
BRANCH   8  11
ATOM     11  C   UNL A   1      31.154  25.710  23.050  1.00  0.00    -0.020 A 
ATOM     12  C   UNL A   1      30.115  25.371  23.922  1.00  0.00     0.008 A 
ATOM     13  C   UNL A   1      31.083  26.889  22.302  1.00  0.00     0.054 A 
ATOM     14  C   UNL A   1      29.067  26.267  24.122  1.00  0.00     0.004 A 
ATOM     15  C   UNL A   1      30.080  27.818  22.546  1.00  0.00     0.120 A 
ATOM     16  C   UNL A   1      29.065  27.495  23.452  1.00  0.00     0.046 A 
BRANCH  15  17
ATOM     17  O   UNL A   1      30.007  29.070  22.018  1.00  0.00    -0.490 OA
BRANCH  17  18
ATOM     18  C   UNL A   1      28.949  29.977  22.316  1.00  0.00     0.173 C 
ATOM     19  C   UNL A   1      29.146  30.952  23.483  1.00  0.00     0.045 C 
ATOM     20  C   UNL A   1      28.454  30.795  21.119  1.00  0.00     0.045 C 
ATOM     21  C   UNL A   1      28.199  32.097  23.155  1.00  0.00     0.004 C 
ATOM     22  C   UNL A   1      28.258  32.217  21.638  1.00  0.00     0.004 C 
ENDBRANCH  17  18
ENDBRANCH  15  17
ENDBRANCH   8  11
ENDBRANCH   4   7
ENDBRANCH   2   3
ENDBRANCH   1   2
BRANCH   1  23
ATOM     23  C   UNL A   1      32.652  29.084  26.287  1.00  0.00     0.118 C 
BRANCH  23  24
ATOM     24  N   UNL A   1      32.415  30.446  26.764  1.00  0.00    -0.352 N 
ATOM     25  C   UNL A   1      33.231  31.396  27.335  1.00  0.00     0.251 C 
ATOM     26  H   UNL A   1      31.483  30.743  26.656  1.00  0.00     0.163 HD
ATOM     27  O   UNL A   1      32.752  32.481  27.660  1.00  0.00    -0.269 OA
BRANCH  25  28
ATOM     28  C   UNL A   1      34.647  31.106  27.645  1.00  0.00     0.039 A 
ATOM     29  C   UNL A   1      35.556  32.168  27.707  1.00  0.00     0.014 A 
ATOM     30  C   UNL A   1      35.083  29.817  27.920  1.00  0.00     0.014 A 
ATOM     31  C   UNL A   1      36.849  31.953  28.192  1.00  0.00     0.010 A 
ATOM     32  C   UNL A   1      36.310  29.629  28.538  1.00  0.00     0.010 A 
ATOM     33  C   UNL A   1      37.206  30.697  28.701  1.00  0.00    -0.014 A 
BRANCH  33  34
ATOM     34  C   UNL A   1      38.481  30.444  29.429  1.00  0.00     0.031 A 
ATOM     35  C   UNL A   1      39.472  29.465  28.859  1.00  0.00     0.074 A 
ATOM     36  C   UNL A   1      38.663  30.940  30.669  1.00  0.00     0.049 A 
ATOM     37  N   UNL A   1      40.452  28.831  29.450  1.00  0.00    -0.248 NA
ATOM     38  C   UNL A   1      39.274  29.092  27.451  1.00  0.00     0.031 C 
ATOM     39  C   UNL A   1      37.753  31.855  31.365  1.00  0.00     0.029 A 
ATOM     40  N   UNL A   1      39.659  30.708  31.588  1.00  0.00    -0.354 N 
ATOM     41  C   UNL A   1      40.930  27.922  28.510  1.00  0.00     0.074 A 
ATOM     42  C   UNL A   1      40.095  28.060  27.335  1.00  0.00     0.031 C 
ATOM     43  C   UNL A   1      38.234  32.111  32.591  1.00  0.00     0.029 A 
ATOM     44  C   UNL A   1      39.446  31.328  32.799  1.00  0.00     0.049 A 
ATOM     45  H   UNL A   1      40.447  30.152  31.398  1.00  0.00     0.167 HD
ATOM     46  C   UNL A   1      41.975  27.061  28.618  1.00  0.00     0.034 A 
ATOM     47  C   UNL A   1      40.124  31.246  33.960  1.00  0.00     0.034 A 
ATOM     48  C   UNL A   1      42.838  27.004  29.772  1.00  0.00     0.049 A 
ATOM     49  C   UNL A   1      41.329  30.349  34.038  1.00  0.00     0.074 A 
ATOM     50  C   UNL A   1      43.992  26.263  29.953  1.00  0.00     0.029 A 
ATOM     51  N   UNL A   1      42.643  27.728  30.944  1.00  0.00    -0.354 N 
ATOM     52  N   UNL A   1      41.795  29.518  33.134  1.00  0.00    -0.248 NA
ATOM     53  C   UNL A   1      42.103  30.381  35.286  1.00  0.00     0.031 C 
ATOM     54  C   UNL A   1      44.468  26.500  31.247  1.00  0.00     0.029 A 
ATOM     55  C   UNL A   1      43.647  27.438  31.854  1.00  0.00     0.049 A 
ATOM     56  H   UNL A   1      41.901  28.354  31.102  1.00  0.00     0.167 HD
ATOM     57  C   UNL A   1      42.932  28.946  33.696  1.00  0.00     0.074 A 
ATOM     58  C   UNL A   1      43.082  29.527  35.015  1.00  0.00     0.031 C 
ATOM     59  C   UNL A   1      43.779  28.029  33.165  1.00  0.00     0.034 A 
BRANCH  46  60
ATOM     60  C   UNL A   1      42.213  26.108  27.468  1.00  0.00     0.023 A 
ATOM     61  C   UNL A   1      41.642  24.824  27.438  1.00  0.00     0.031 A 
ATOM     62  C   UNL A   1      43.085  26.460  26.422  1.00  0.00     0.131 A 
ATOM     63  C   UNL A   1      42.045  23.899  26.463  1.00  0.00     0.055 A 
ATOM     64  C   UNL A   1      43.399  25.569  25.392  1.00  0.00     0.041 A 
ATOM     65  F   UNL A   1      43.675  27.665  26.398  1.00  0.00    -0.206 F 
ATOM     66  C   UNL A   1      42.899  24.271  25.423  1.00  0.00     0.022 A 
BRANCH  63  67
ATOM     67  S   UNL A   1      41.600  22.157  26.699  1.00  0.00     0.124 S 
ATOM     68  O   UNL A   1      42.307  21.521  25.588  1.00  0.00    -0.237 OA
ATOM     69  O   UNL A   1      42.122  21.877  28.031  1.00  0.00    -0.237 OA
ATOM     70  O   UNL A   1      40.144  22.156  26.583  1.00  0.00    -0.744 OA
ENDBRANCH  63  67
ENDBRANCH  46  60
BRANCH  47  71
ATOM     71  C   UNL A   1      39.661  32.018  35.146  1.00  0.00     0.023 A 
ATOM     72  C   UNL A   1      40.173  33.295  35.420  1.00  0.00     0.031 A 
ATOM     73  C   UNL A   1      38.683  31.496  36.010  1.00  0.00     0.131 A 
ATOM     74  C   UNL A   1      39.725  33.998  36.548  1.00  0.00     0.055 A 
ATOM     75  C   UNL A   1      38.213  32.216  37.110  1.00  0.00     0.041 A 
ATOM     76  F   UNL A   1      38.149  30.285  35.779  1.00  0.00    -0.206 F 
ATOM     77  C   UNL A   1      38.741  33.473  37.389  1.00  0.00     0.022 A 
BRANCH  74  78
ATOM     78  S   UNL A   1      40.474  35.607  36.923  1.00  0.00     0.124 S 
ATOM     79  O   UNL A   1      40.366  35.652  38.378  1.00  0.00    -0.237 OA
ATOM     80  O   UNL A   1      41.820  35.449  36.384  1.00  0.00    -0.237 OA
ATOM     81  O   UNL A   1      39.624  36.553  36.204  1.00  0.00    -0.744 OA
ENDBRANCH  74  78
ENDBRANCH  47  71
BRANCH  59  82
ATOM     82  C   UNL A   1      44.980  27.645  33.986  1.00  0.00     0.023 A 
ATOM     83  C   UNL A   1      46.190  28.355  33.908  1.00  0.00     0.031 A 
ATOM     84  C   UNL A   1      44.896  26.569  34.887  1.00  0.00     0.131 A 
ATOM     85  C   UNL A   1      47.279  27.961  34.698  1.00  0.00     0.055 A 
ATOM     86  C   UNL A   1      45.968  26.208  35.701  1.00  0.00     0.041 A 
ATOM     87  F   UNL A   1      43.760  25.860  34.996  1.00  0.00    -0.206 F 
ATOM     88  C   UNL A   1      47.170  26.903  35.606  1.00  0.00     0.022 A 
BRANCH  85  89
ATOM     89  S   UNL A   1      48.861  28.826  34.503  1.00  0.00     0.124 S 
ATOM     90  O   UNL A   1      49.480  28.621  35.808  1.00  0.00    -0.237 OA
ATOM     91  O   UNL A   1      49.474  28.115  33.386  1.00  0.00    -0.237 OA
ATOM     92  O   UNL A   1      48.465  30.204  34.215  1.00  0.00    -0.744 OA
ENDBRANCH  85  89
ENDBRANCH  59  82
ENDBRANCH  33  34
ENDBRANCH  25  28
ENDBRANCH  23  24
ENDBRANCH   1  23
TORSDOF 17
ENDMDL
