MODEL 1
REMARK VINA RESULT:     -13.8      0.000      0.000
REMARK SMILES Cc1c(CC(=O)N[C@H](CO)C(=O)NCCCNC(=O)c2ccc(-c3c4nc(c(-c5cc(S(=O)(=O)[O-])ccc5F)c5ccc([nH]5)c(-c5cc(S(=O)(=O)[O-])ccc5F)c5nc(c(-c6cc(S(=O)(=O)[O-])ccc6F)c6ccc3[nH]6)C=C5)C=C4)cc2)cc(-c2ccc(S(C)(=O)=O)cc2)n1-c1cccc(F)c1
REMARK SMILES IDX 14 1 13 2 11 3 12 4 8 6 7 7 5 8 6 9 4 11 3 12 1 13 2 14
REMARK SMILES IDX 95 15 83 16 84 17 96 18 97 19 102 20 98 21 100 22 99 23
REMARK SMILES IDX 101 24 85 25 86 26 94 27 87 28 93 29 88 30 89 31 90 32 91 33
REMARK SMILES IDX 92 34 9 35 10 36 15 38 16 39 17 40 18 41 19 43 20 44 21 45
REMARK SMILES IDX 82 46 22 47 81 48 23 49 24 50 25 51 75 52 26 53 80 54 74 55
REMARK SMILES IDX 76 56 27 57 79 58 73 59 72 60 28 62 60 63 40 64 59 65 41 66
REMARK SMILES IDX 44 67 58 68 77 69 42 70 43 71 57 73 78 74 45 75 29 76 30 77
REMARK SMILES IDX 38 78 31 79 37 80 39 81 36 82 32 83 33 84 34 85 35 86 61 87
REMARK SMILES IDX 62 88 70 89 63 90 69 91 71 92 68 93 64 94 65 95 66 96 67 97
REMARK SMILES IDX 46 98 47 99 55 100 48 101 54 102 56 103 53 104 49 105 50 106
REMARK SMILES IDX 51 107 52 108
REMARK H PARENT 13 5 7 10 10 37 17 42 76 61 44 72
REMARK Flexibility Score: inf
ROOT
ATOM      1  C   UNL A   1      31.820  28.961  26.849  1.00  0.00     0.117 C 
ENDROOT
BRANCH   1   2
ATOM      2  N   UNL A   1      31.767  29.811  25.680  1.00  0.00    -0.354 N 
ATOM      3  C   UNL A   1      31.769  29.331  24.392  1.00  0.00     0.244 C 
ATOM      4  O   UNL A   1      32.842  29.180  23.809  1.00  0.00    -0.273 OA
ATOM      5  H   UNL A   1      31.728  30.786  25.814  1.00  0.00     0.163 HD
BRANCH   3   6
ATOM      6  C   UNL A   1      30.432  28.880  23.774  1.00  0.00     0.197 C 
BRANCH   6   7
ATOM      7  N   UNL A   1      30.631  28.051  22.585  1.00  0.00    -0.342 N 
ATOM      8  C   UNL A   1      30.866  26.715  22.472  1.00  0.00     0.225 C 
ATOM      9  O   UNL A   1      31.192  26.292  21.356  1.00  0.00    -0.275 OA
ATOM     10  H   UNL A   1      30.587  28.536  21.730  1.00  0.00     0.164 HD
BRANCH   8  11
ATOM     11  C   UNL A   1      30.608  25.735  23.610  1.00  0.00     0.137 C 
BRANCH  11  12
ATOM     12  C   UNL A   1      31.614  24.645  23.829  1.00  0.00    -0.017 A 
ATOM     13  C   UNL A   1      33.783  25.992  24.286  1.00  0.00     0.065 C 
ATOM     14  C   UNL A   1      32.958  24.749  24.175  1.00  0.00     0.024 A 
ATOM     15  N   UNL A   1      33.473  23.458  24.334  1.00  0.00    -0.313 N 
ATOM     16  C   UNL A   1      31.351  23.262  23.647  1.00  0.00     0.033 A 
ATOM     17  C   UNL A   1      32.473  22.540  24.004  1.00  0.00     0.053 A 
BRANCH  15  18
ATOM     18  C   UNL A   1      34.768  23.115  24.822  1.00  0.00     0.049 A 
ATOM     19  C   UNL A   1      35.355  23.830  25.870  1.00  0.00     0.027 A 
ATOM     20  C   UNL A   1      35.513  22.147  24.150  1.00  0.00     0.065 A 
ATOM     21  C   UNL A   1      36.675  23.553  26.247  1.00  0.00     0.005 A 
ATOM     22  C   UNL A   1      36.824  21.892  24.520  1.00  0.00     0.125 A 
ATOM     23  C   UNL A   1      37.413  22.582  25.567  1.00  0.00     0.039 A 
ATOM     24  F   UNL A   1      37.531  20.986  23.833  1.00  0.00    -0.207 F 
ENDBRANCH  15  18
BRANCH  17  25
ATOM     25  C   UNL A   1      32.577  21.086  24.163  1.00  0.00    -0.001 A 
ATOM     26  C   UNL A   1      32.857  20.522  25.418  1.00  0.00     0.011 A 
ATOM     27  C   UNL A   1      32.396  20.243  23.060  1.00  0.00     0.011 A 
ATOM     28  C   UNL A   1      33.042  19.148  25.557  1.00  0.00     0.021 A 
ATOM     29  C   UNL A   1      32.572  18.864  23.192  1.00  0.00     0.021 A 
ATOM     30  C   UNL A   1      32.926  18.329  24.433  1.00  0.00     0.067 A 
BRANCH  30  31
ATOM     31  S   UNL A   1      33.240  16.587  24.590  1.00  0.00     0.175 S 
ATOM     32  C   UNL A   1      34.821  16.511  25.396  1.00  0.00     0.163 C 
ATOM     33  O   UNL A   1      32.224  16.059  25.487  1.00  0.00    -0.224 OA
ATOM     34  O   UNL A   1      33.397  16.052  23.254  1.00  0.00    -0.224 OA
ENDBRANCH  30  31
ENDBRANCH  17  25
ENDBRANCH  11  12
ENDBRANCH   8  11
ENDBRANCH   6   7
BRANCH   6  35
ATOM     35  C   UNL A   1      29.562  30.117  23.502  1.00  0.00     0.191 C 
BRANCH  35  36
ATOM     36  O   UNL A   1      28.269  29.767  22.999  1.00  0.00    -0.394 OA
ATOM     37  H   UNL A   1      27.735  29.387  23.716  1.00  0.00     0.210 HD
ENDBRANCH  35  36
ENDBRANCH   6  35
ENDBRANCH   3   6
ENDBRANCH   1   2
BRANCH   1  38
ATOM     38  C   UNL A   1      33.205  28.347  27.145  1.00  0.00     0.042 C 
BRANCH  38  39
ATOM     39  C   UNL A   1      34.453  29.262  27.040  1.00  0.00     0.118 C 
BRANCH  39  40
ATOM     40  N   UNL A   1      34.407  30.448  27.875  1.00  0.00    -0.352 N 
ATOM     41  C   UNL A   1      35.438  31.170  28.464  1.00  0.00     0.251 C 
ATOM     42  H   UNL A   1      33.503  30.795  28.053  1.00  0.00     0.163 HD
ATOM     43  O   UNL A   1      35.120  32.230  29.004  1.00  0.00    -0.269 OA
BRANCH  41  44
ATOM     44  C   UNL A   1      36.872  30.686  28.562  1.00  0.00     0.039 A 
ATOM     45  C   UNL A   1      37.462  30.129  27.436  1.00  0.00     0.014 A 
ATOM     46  C   UNL A   1      37.557  30.460  29.773  1.00  0.00     0.014 A 
ATOM     47  C   UNL A   1      38.723  29.444  27.518  1.00  0.00     0.010 A 
ATOM     48  C   UNL A   1      38.813  29.700  29.860  1.00  0.00     0.010 A 
ATOM     49  C   UNL A   1      39.456  29.152  28.729  1.00  0.00    -0.014 A 
BRANCH  49  50
ATOM     50  C   UNL A   1      40.447  27.840  28.679  1.00  0.00     0.031 A 
ATOM     51  C   UNL A   1      41.318  28.099  29.865  1.00  0.00     0.074 A 
ATOM     52  C   UNL A   1      40.806  26.703  27.933  1.00  0.00     0.049 A 
ATOM     53  N   UNL A   1      41.974  29.223  29.952  1.00  0.00    -0.248 NA
ATOM     54  C   UNL A   1      41.151  27.393  31.137  1.00  0.00     0.031 C 
ATOM     55  C   UNL A   1      40.311  26.293  26.606  1.00  0.00     0.029 A 
ATOM     56  N   UNL A   1      41.719  25.605  28.175  1.00  0.00    -0.354 N 
ATOM     57  C   UNL A   1      42.572  29.230  31.187  1.00  0.00     0.074 A 
ATOM     58  C   UNL A   1      41.829  28.222  31.940  1.00  0.00     0.031 C 
ATOM     59  C   UNL A   1      40.761  25.051  26.243  1.00  0.00     0.029 A 
ATOM     60  C   UNL A   1      41.666  24.482  27.246  1.00  0.00     0.049 A 
ATOM     61  H   UNL A   1      42.349  25.617  28.932  1.00  0.00     0.167 HD
ATOM     62  C   UNL A   1      43.924  29.422  31.177  1.00  0.00     0.034 A 
ATOM     63  C   UNL A   1      42.326  23.236  27.223  1.00  0.00     0.034 A 
ATOM     64  C   UNL A   1      44.631  28.168  31.220  1.00  0.00     0.049 A 
ATOM     65  C   UNL A   1      43.571  23.410  27.967  1.00  0.00     0.074 A 
ATOM     66  C   UNL A   1      44.489  27.049  32.015  1.00  0.00     0.029 A 
ATOM     67  N   UNL A   1      45.275  27.761  30.069  1.00  0.00    -0.354 N 
ATOM     68  N   UNL A   1      44.594  24.014  27.457  1.00  0.00    -0.248 NA
ATOM     69  C   UNL A   1      43.752  22.878  29.312  1.00  0.00     0.031 C 
ATOM     70  C   UNL A   1      44.568  25.967  31.113  1.00  0.00     0.029 A 
ATOM     71  C   UNL A   1      45.171  26.393  29.934  1.00  0.00     0.049 A 
ATOM     72  H   UNL A   1      45.737  28.359  29.438  1.00  0.00     0.167 HD
ATOM     73  C   UNL A   1      45.259  24.437  28.563  1.00  0.00     0.074 A 
ATOM     74  C   UNL A   1      44.899  23.492  29.607  1.00  0.00     0.031 C 
ATOM     75  C   UNL A   1      45.484  25.774  28.659  1.00  0.00     0.034 A 
BRANCH  62  76
ATOM     76  C   UNL A   1      44.359  30.614  30.372  1.00  0.00     0.023 A 
ATOM     77  C   UNL A   1      44.104  30.629  28.996  1.00  0.00     0.031 A 
ATOM     78  C   UNL A   1      45.127  31.669  30.910  1.00  0.00     0.131 A 
ATOM     79  C   UNL A   1      44.662  31.638  28.194  1.00  0.00     0.055 A 
ATOM     80  C   UNL A   1      45.726  32.635  30.104  1.00  0.00     0.041 A 
ATOM     81  F   UNL A   1      45.305  31.784  32.237  1.00  0.00    -0.206 F 
ATOM     82  C   UNL A   1      45.501  32.618  28.734  1.00  0.00     0.022 A 
BRANCH  79  83
ATOM     83  S   UNL A   1      44.246  31.674  26.430  1.00  0.00     0.124 S 
ATOM     84  O   UNL A   1      43.663  33.002  26.269  1.00  0.00    -0.237 OA
ATOM     85  O   UNL A   1      45.549  31.479  25.800  1.00  0.00    -0.237 OA
ATOM     86  O   UNL A   1      43.312  30.559  26.269  1.00  0.00    -0.744 OA
ENDBRANCH  79  83
ENDBRANCH  62  76
BRANCH  63  87
ATOM     87  C   UNL A   1      42.328  21.793  26.595  1.00  0.00     0.023 A 
ATOM     88  C   UNL A   1      43.413  21.292  25.749  1.00  0.00     0.031 A 
ATOM     89  C   UNL A   1      41.513  20.783  27.118  1.00  0.00     0.131 A 
ATOM     90  C   UNL A   1      43.651  19.898  25.523  1.00  0.00     0.055 A 
ATOM     91  C   UNL A   1      41.749  19.403  26.885  1.00  0.00     0.041 A 
ATOM     92  F   UNL A   1      40.521  21.092  27.965  1.00  0.00    -0.206 F 
ATOM     93  C   UNL A   1      42.819  18.956  26.110  1.00  0.00     0.022 A 
BRANCH  90  94
ATOM     94  S   UNL A   1      45.144  19.254  24.628  1.00  0.00     0.124 S 
ATOM     95  O   UNL A   1      44.638  18.992  23.288  1.00  0.00    -0.237 OA
ATOM     96  O   UNL A   1      46.105  20.342  24.764  1.00  0.00    -0.237 OA
ATOM     97  O   UNL A   1      45.502  18.049  25.385  1.00  0.00    -0.744 OA
ENDBRANCH  90  94
ENDBRANCH  63  87
BRANCH  75  98
ATOM     98  C   UNL A   1      45.893  26.510  27.377  1.00  0.00     0.023 A 
ATOM     99  C   UNL A   1      47.201  26.579  26.820  1.00  0.00     0.031 A 
ATOM    100  C   UNL A   1      44.908  27.271  26.728  1.00  0.00     0.131 A 
ATOM    101  C   UNL A   1      47.482  27.405  25.711  1.00  0.00     0.055 A 
ATOM    102  C   UNL A   1      45.175  28.053  25.600  1.00  0.00     0.041 A 
ATOM    103  F   UNL A   1      43.648  27.284  27.192  1.00  0.00    -0.206 F 
ATOM    104  C   UNL A   1      46.468  28.137  25.098  1.00  0.00     0.022 A 
BRANCH 101 105
ATOM    105  S   UNL A   1      49.194  27.614  25.107  1.00  0.00     0.124 S 
ATOM    106  O   UNL A   1      49.878  26.421  25.591  1.00  0.00    -0.237 OA
ATOM    107  O   UNL A   1      49.014  27.701  23.660  1.00  0.00    -0.237 OA
ATOM    108  O   UNL A   1      49.629  28.860  25.741  1.00  0.00    -0.744 OA
ENDBRANCH 101 105
ENDBRANCH  75  98
ENDBRANCH  49  50
ENDBRANCH  41  44
ENDBRANCH  39  40
ENDBRANCH  38  39
ENDBRANCH   1  38
TORSDOF 21
ENDMDL
MODEL 2
REMARK VINA RESULT:     -12.8      1.776      2.091
REMARK SMILES Cc1c(CC(=O)N[C@H](CO)C(=O)NCCCNC(=O)c2ccc(-c3c4nc(c(-c5cc(S(=O)(=O)[O-])ccc5F)c5ccc([nH]5)c(-c5cc(S(=O)(=O)[O-])ccc5F)c5nc(c(-c6cc(S(=O)(=O)[O-])ccc6F)c6ccc3[nH]6)C=C5)C=C4)cc2)cc(-c2ccc(S(C)(=O)=O)cc2)n1-c1cccc(F)c1
REMARK SMILES IDX 14 1 13 2 11 3 12 4 8 6 7 7 5 8 6 9 4 11 3 12 1 13 2 14
REMARK SMILES IDX 95 15 83 16 84 17 96 18 97 19 102 20 98 21 100 22 99 23
REMARK SMILES IDX 101 24 85 25 86 26 94 27 87 28 93 29 88 30 89 31 90 32 91 33
REMARK SMILES IDX 92 34 9 35 10 36 15 38 16 39 17 40 18 41 19 43 20 44 21 45
REMARK SMILES IDX 82 46 22 47 81 48 23 49 24 50 25 51 75 52 26 53 80 54 74 55
REMARK SMILES IDX 76 56 27 57 79 58 73 59 72 60 28 62 60 63 40 64 59 65 41 66
REMARK SMILES IDX 44 67 58 68 77 69 42 70 43 71 57 73 78 74 45 75 29 76 30 77
REMARK SMILES IDX 38 78 31 79 37 80 39 81 36 82 32 83 33 84 34 85 35 86 61 87
REMARK SMILES IDX 62 88 70 89 63 90 69 91 71 92 68 93 64 94 65 95 66 96 67 97
REMARK SMILES IDX 46 98 47 99 55 100 48 101 54 102 56 103 53 104 49 105 50 106
REMARK SMILES IDX 51 107 52 108
REMARK H PARENT 13 5 7 10 10 37 17 42 76 61 44 72
REMARK Flexibility Score: inf
ROOT
ATOM      1  C   UNL A   1      31.708  29.727  26.546  1.00  0.00     0.117 C 
ENDROOT
BRANCH   1   2
ATOM      2  N   UNL A   1      31.771  30.228  25.191  1.00  0.00    -0.354 N 
ATOM      3  C   UNL A   1      31.848  29.415  24.085  1.00  0.00     0.244 C 
ATOM      4  O   UNL A   1      32.954  29.094  23.651  1.00  0.00    -0.273 OA
ATOM      5  H   UNL A   1      31.760  31.203  25.053  1.00  0.00     0.163 HD
BRANCH   3   6
ATOM      6  C   UNL A   1      30.543  28.836  23.507  1.00  0.00     0.197 C 
BRANCH   6   7
ATOM      7  N   UNL A   1      30.780  28.063  22.288  1.00  0.00    -0.342 N 
ATOM      8  C   UNL A   1      31.090  26.747  22.125  1.00  0.00     0.225 C 
ATOM      9  O   UNL A   1      31.432  26.384  20.993  1.00  0.00    -0.275 OA
ATOM     10  H   UNL A   1      30.703  28.576  21.451  1.00  0.00     0.164 HD
BRANCH   8  11
ATOM     11  C   UNL A   1      30.896  25.714  23.228  1.00  0.00     0.137 C 
BRANCH  11  12
ATOM     12  C   UNL A   1      31.976  24.690  23.418  1.00  0.00    -0.017 A 
ATOM     13  C   UNL A   1      34.103  26.166  23.567  1.00  0.00     0.065 C 
ATOM     14  C   UNL A   1      33.339  24.881  23.621  1.00  0.00     0.024 A 
ATOM     15  N   UNL A   1      33.935  23.631  23.814  1.00  0.00    -0.313 N 
ATOM     16  C   UNL A   1      31.771  23.287  23.355  1.00  0.00     0.033 A 
ATOM     17  C   UNL A   1      32.959  22.646  23.646  1.00  0.00     0.053 A 
BRANCH  15  18
ATOM     18  C   UNL A   1      35.287  23.384  24.193  1.00  0.00     0.049 A 
ATOM     19  C   UNL A   1      36.112  22.560  23.421  1.00  0.00     0.027 A 
ATOM     20  C   UNL A   1      35.745  23.854  25.423  1.00  0.00     0.065 A 
ATOM     21  C   UNL A   1      37.394  22.235  23.880  1.00  0.00     0.005 A 
ATOM     22  C   UNL A   1      37.011  23.513  25.875  1.00  0.00     0.125 A 
ATOM     23  C   UNL A   1      37.844  22.711  25.113  1.00  0.00     0.039 A 
ATOM     24  F   UNL A   1      37.411  23.945  27.077  1.00  0.00    -0.207 F 
ENDBRANCH  15  18
BRANCH  17  25
ATOM     25  C   UNL A   1      33.154  21.213  23.890  1.00  0.00    -0.001 A 
ATOM     26  C   UNL A   1      34.214  20.763  24.694  1.00  0.00     0.011 A 
ATOM     27  C   UNL A   1      32.283  20.277  23.321  1.00  0.00     0.011 A 
ATOM     28  C   UNL A   1      34.456  19.400  24.857  1.00  0.00     0.021 A 
ATOM     29  C   UNL A   1      32.513  18.909  23.486  1.00  0.00     0.021 A 
ATOM     30  C   UNL A   1      33.617  18.480  24.226  1.00  0.00     0.067 A 
BRANCH  30  31
ATOM     31  S   UNL A   1      33.969  16.744  24.366  1.00  0.00     0.175 S 
ATOM     32  C   UNL A   1      32.566  16.094  25.240  1.00  0.00     0.163 C 
ATOM     33  O   UNL A   1      33.976  16.209  23.014  1.00  0.00    -0.224 OA
ATOM     34  O   UNL A   1      35.129  16.605  25.223  1.00  0.00    -0.224 OA
ENDBRANCH  30  31
ENDBRANCH  17  25
ENDBRANCH  11  12
ENDBRANCH   8  11
ENDBRANCH   6   7
BRANCH   6  35
ATOM     35  C   UNL A   1      29.533  29.977  23.305  1.00  0.00     0.191 C 
BRANCH  35  36
ATOM     36  O   UNL A   1      29.903  30.840  22.225  1.00  0.00    -0.394 OA
ATOM     37  H   UNL A   1      29.694  30.409  21.381  1.00  0.00     0.210 HD
ENDBRANCH  35  36
ENDBRANCH   6  35
ENDBRANCH   3   6
ENDBRANCH   1   2
BRANCH   1  38
ATOM     38  C   UNL A   1      32.929  28.895  26.991  1.00  0.00     0.042 C 
BRANCH  38  39
ATOM     39  C   UNL A   1      34.285  29.623  27.185  1.00  0.00     0.118 C 
BRANCH  39  40
ATOM     40  N   UNL A   1      34.204  30.865  27.931  1.00  0.00    -0.352 N 
ATOM     41  C   UNL A   1      35.175  31.532  28.669  1.00  0.00     0.251 C 
ATOM     42  H   UNL A   1      33.323  31.304  27.912  1.00  0.00     0.163 HD
ATOM     43  O   UNL A   1      34.871  32.652  29.079  1.00  0.00    -0.269 OA
BRANCH  41  44
ATOM     44  C   UNL A   1      36.509  30.930  29.068  1.00  0.00     0.039 A 
ATOM     45  C   UNL A   1      37.482  30.770  28.091  1.00  0.00     0.014 A 
ATOM     46  C   UNL A   1      36.740  30.227  30.268  1.00  0.00     0.014 A 
ATOM     47  C   UNL A   1      38.670  30.000  28.344  1.00  0.00     0.010 A 
ATOM     48  C   UNL A   1      37.924  29.387  30.495  1.00  0.00     0.010 A 
ATOM     49  C   UNL A   1      38.949  29.232  29.536  1.00  0.00    -0.014 A 
BRANCH  49  50
ATOM     50  C   UNL A   1      39.962  27.950  29.352  1.00  0.00     0.031 A 
ATOM     51  C   UNL A   1      40.792  28.067  30.589  1.00  0.00     0.074 A 
ATOM     52  C   UNL A   1      40.364  26.922  28.479  1.00  0.00     0.049 A 
ATOM     53  N   UNL A   1      41.427  29.178  30.839  1.00  0.00    -0.248 NA
ATOM     54  C   UNL A   1      40.598  27.202  31.755  1.00  0.00     0.031 C 
ATOM     55  C   UNL A   1      39.916  26.678  27.096  1.00  0.00     0.029 A 
ATOM     56  N   UNL A   1      41.287  25.814  28.610  1.00  0.00    -0.354 N 
ATOM     57  C   UNL A   1      41.985  29.035  32.085  1.00  0.00     0.074 A 
ATOM     58  C   UNL A   1      41.237  27.931  32.678  1.00  0.00     0.031 C 
ATOM     59  C   UNL A   1      40.398  25.499  26.593  1.00  0.00     0.029 A 
ATOM     60  C   UNL A   1      41.281  24.817  27.544  1.00  0.00     0.049 A 
ATOM     61  H   UNL A   1      41.892  25.737  29.383  1.00  0.00     0.167 HD
ATOM     62  C   UNL A   1      43.334  29.245  32.143  1.00  0.00     0.034 A 
ATOM     63  C   UNL A   1      41.963  23.594  27.385  1.00  0.00     0.034 A 
ATOM     64  C   UNL A   1      44.060  28.004  32.050  1.00  0.00     0.049 A 
ATOM     65  C   UNL A   1      43.180  23.686  28.186  1.00  0.00     0.074 A 
ATOM     66  C   UNL A   1      43.913  26.791  32.691  1.00  0.00     0.029 A 
ATOM     67  N   UNL A   1      44.746  27.756  30.877  1.00  0.00    -0.354 N 
ATOM     68  N   UNL A   1      44.209  24.364  27.790  1.00  0.00    -0.248 NA
ATOM     69  C   UNL A   1      43.329  22.990  29.457  1.00  0.00     0.031 C 
ATOM     70  C   UNL A   1      44.037  25.835  31.662  1.00  0.00     0.029 A 
ATOM     71  C   UNL A   1      44.669  26.414  30.567  1.00  0.00     0.049 A 
ATOM     72  H   UNL A   1      45.218  28.435  30.344  1.00  0.00     0.167 HD
ATOM     73  C   UNL A   1      44.832  24.651  28.963  1.00  0.00     0.074 A 
ATOM     74  C   UNL A   1      44.457  23.576  29.865  1.00  0.00     0.031 C 
ATOM     75  C   UNL A   1      45.032  25.967  29.234  1.00  0.00     0.034 A 
BRANCH  62  76
ATOM     76  C   UNL A   1      43.774  30.535  31.510  1.00  0.00     0.023 A 
ATOM     77  C   UNL A   1      44.153  31.598  32.338  1.00  0.00     0.031 A 
ATOM     78  C   UNL A   1      43.705  30.776  30.121  1.00  0.00     0.131 A 
ATOM     79  C   UNL A   1      44.387  32.866  31.782  1.00  0.00     0.055 A 
ATOM     80  C   UNL A   1      43.881  32.047  29.580  1.00  0.00     0.041 A 
ATOM     81  F   UNL A   1      43.468  29.773  29.260  1.00  0.00    -0.206 F 
ATOM     82  C   UNL A   1      44.217  33.106  30.415  1.00  0.00     0.022 A 
BRANCH  79  83
ATOM     83  S   UNL A   1      44.955  34.199  32.871  1.00  0.00     0.124 S 
ATOM     84  O   UNL A   1      45.039  33.535  34.168  1.00  0.00    -0.237 OA
ATOM     85  O   UNL A   1      46.234  34.567  32.270  1.00  0.00    -0.237 OA
ATOM     86  O   UNL A   1      43.908  35.214  32.757  1.00  0.00    -0.744 OA
ENDBRANCH  79  83
ENDBRANCH  62  76
BRANCH  63  87
ATOM     87  C   UNL A   1      42.008  22.242  26.580  1.00  0.00     0.023 A 
ATOM     88  C   UNL A   1      43.220  21.741  25.930  1.00  0.00     0.031 A 
ATOM     89  C   UNL A   1      41.026  21.263  26.768  1.00  0.00     0.131 A 
ATOM     90  C   UNL A   1      43.406  20.367  25.571  1.00  0.00     0.055 A 
ATOM     91  C   UNL A   1      41.214  19.904  26.403  1.00  0.00     0.041 A 
ATOM     92  F   UNL A   1      39.890  21.565  27.412  1.00  0.00    -0.206 F 
ATOM     93  C   UNL A   1      42.399  19.449  25.826  1.00  0.00     0.022 A 
BRANCH  90  94
ATOM     94  S   UNL A   1      45.016  19.689  24.943  1.00  0.00     0.124 S 
ATOM     95  O   UNL A   1      45.994  20.649  25.437  1.00  0.00    -0.237 OA
ATOM     96  O   UNL A   1      45.060  18.352  25.525  1.00  0.00    -0.237 OA
ATOM     97  O   UNL A   1      44.846  19.696  23.487  1.00  0.00    -0.744 OA
ENDBRANCH  90  94
ENDBRANCH  63  87
BRANCH  75  98
ATOM     98  C   UNL A   1      45.467  26.865  28.070  1.00  0.00     0.023 A 
ATOM     99  C   UNL A   1      46.802  27.096  27.631  1.00  0.00     0.031 A 
ATOM    100  C   UNL A   1      44.471  27.612  27.423  1.00  0.00     0.131 A 
ATOM    101  C   UNL A   1      47.090  28.055  26.637  1.00  0.00     0.055 A 
ATOM    102  C   UNL A   1      44.750  28.529  26.406  1.00  0.00     0.041 A 
ATOM    103  F   UNL A   1      43.184  27.478  27.783  1.00  0.00    -0.206 F 
ATOM    104  C   UNL A   1      46.064  28.767  26.021  1.00  0.00     0.022 A 
BRANCH 101 105
ATOM    105  S   UNL A   1      48.817  28.461  26.198  1.00  0.00     0.124 S 
ATOM    106  O   UNL A   1      48.920  28.060  24.800  1.00  0.00    -0.237 OA
ATOM    107  O   UNL A   1      48.883  29.897  26.454  1.00  0.00    -0.237 OA
ATOM    108  O   UNL A   1      49.604  27.642  27.122  1.00  0.00    -0.744 OA
ENDBRANCH 101 105
ENDBRANCH  75  98
ENDBRANCH  49  50
ENDBRANCH  41  44
ENDBRANCH  39  40
ENDBRANCH  38  39
ENDBRANCH   1  38
TORSDOF 21
ENDMDL
MODEL 3
REMARK VINA RESULT:     -12.8      2.602      3.507
REMARK SMILES Cc1c(CC(=O)N[C@H](CO)C(=O)NCCCNC(=O)c2ccc(-c3c4nc(c(-c5cc(S(=O)(=O)[O-])ccc5F)c5ccc([nH]5)c(-c5cc(S(=O)(=O)[O-])ccc5F)c5nc(c(-c6cc(S(=O)(=O)[O-])ccc6F)c6ccc3[nH]6)C=C5)C=C4)cc2)cc(-c2ccc(S(C)(=O)=O)cc2)n1-c1cccc(F)c1
REMARK SMILES IDX 14 1 13 2 11 3 12 4 8 6 7 7 5 8 6 9 4 11 3 12 1 13 2 14
REMARK SMILES IDX 95 15 83 16 84 17 96 18 97 19 102 20 98 21 100 22 99 23
REMARK SMILES IDX 101 24 85 25 86 26 94 27 87 28 93 29 88 30 89 31 90 32 91 33
REMARK SMILES IDX 92 34 9 35 10 36 15 38 16 39 17 40 18 41 19 43 20 44 21 45
REMARK SMILES IDX 82 46 22 47 81 48 23 49 24 50 25 51 75 52 26 53 80 54 74 55
REMARK SMILES IDX 76 56 27 57 79 58 73 59 72 60 28 62 60 63 40 64 59 65 41 66
REMARK SMILES IDX 44 67 58 68 77 69 42 70 43 71 57 73 78 74 45 75 29 76 30 77
REMARK SMILES IDX 38 78 31 79 37 80 39 81 36 82 32 83 33 84 34 85 35 86 61 87
REMARK SMILES IDX 62 88 70 89 63 90 69 91 71 92 68 93 64 94 65 95 66 96 67 97
REMARK SMILES IDX 46 98 47 99 55 100 48 101 54 102 56 103 53 104 49 105 50 106
REMARK SMILES IDX 51 107 52 108
REMARK H PARENT 13 5 7 10 10 37 17 42 76 61 44 72
REMARK Flexibility Score: inf
ROOT
ATOM      1  C   UNL A   1      31.763  29.571  26.601  1.00  0.00     0.117 C 
ENDROOT
BRANCH   1   2
ATOM      2  N   UNL A   1      31.788  30.134  25.269  1.00  0.00    -0.354 N 
ATOM      3  C   UNL A   1      31.891  29.376  24.127  1.00  0.00     0.244 C 
ATOM      4  O   UNL A   1      33.006  29.128  23.670  1.00  0.00    -0.273 OA
ATOM      5  H   UNL A   1      31.728  31.113  25.175  1.00  0.00     0.163 HD
BRANCH   3   6
ATOM      6  C   UNL A   1      30.609  28.761  23.536  1.00  0.00     0.197 C 
BRANCH   6   7
ATOM      7  N   UNL A   1      30.878  28.006  22.311  1.00  0.00    -0.342 N 
ATOM      8  C   UNL A   1      31.060  26.670  22.123  1.00  0.00     0.225 C 
ATOM      9  O   UNL A   1      31.469  26.308  21.013  1.00  0.00    -0.275 OA
ATOM     10  H   UNL A   1      30.937  28.551  21.494  1.00  0.00     0.164 HD
BRANCH   8  11
ATOM     11  C   UNL A   1      30.651  25.630  23.158  1.00  0.00     0.137 C 
BRANCH  11  12
ATOM     12  C   UNL A   1      31.639  24.548  23.483  1.00  0.00    -0.017 A 
ATOM     13  C   UNL A   1      33.787  25.909  23.992  1.00  0.00     0.065 C 
ATOM     14  C   UNL A   1      32.963  24.665  23.895  1.00  0.00     0.024 A 
ATOM     15  N   UNL A   1      33.461  23.381  24.143  1.00  0.00    -0.313 N 
ATOM     16  C   UNL A   1      31.378  23.159  23.353  1.00  0.00     0.033 A 
ATOM     17  C   UNL A   1      32.475  22.452  23.803  1.00  0.00     0.053 A 
BRANCH  15  18
ATOM     18  C   UNL A   1      34.725  23.057  24.716  1.00  0.00     0.049 A 
ATOM     19  C   UNL A   1      35.149  23.652  25.908  1.00  0.00     0.027 A 
ATOM     20  C   UNL A   1      35.608  22.248  24.001  1.00  0.00     0.065 A 
ATOM     21  C   UNL A   1      36.444  23.410  26.383  1.00  0.00     0.005 A 
ATOM     22  C   UNL A   1      36.893  22.028  24.472  1.00  0.00     0.125 A 
ATOM     23  C   UNL A   1      37.320  22.598  25.661  1.00  0.00     0.039 A 
ATOM     24  F   UNL A   1      37.734  21.279  23.748  1.00  0.00    -0.207 F 
ENDBRANCH  15  18
BRANCH  17  25
ATOM     25  C   UNL A   1      32.561  21.006  24.036  1.00  0.00    -0.001 A 
ATOM     26  C   UNL A   1      32.780  20.502  25.328  1.00  0.00     0.011 A 
ATOM     27  C   UNL A   1      32.427  20.112  22.967  1.00  0.00     0.011 A 
ATOM     28  C   UNL A   1      32.949  19.135  25.541  1.00  0.00     0.021 A 
ATOM     29  C   UNL A   1      32.587  18.740  23.172  1.00  0.00     0.021 A 
ATOM     30  C   UNL A   1      32.880  18.264  24.452  1.00  0.00     0.067 A 
BRANCH  30  31
ATOM     31  S   UNL A   1      33.175  16.530  24.707  1.00  0.00     0.175 S 
ATOM     32  C   UNL A   1      34.811  16.473  25.397  1.00  0.00     0.163 C 
ATOM     33  O   UNL A   1      32.220  16.088  25.711  1.00  0.00    -0.224 OA
ATOM     34  O   UNL A   1      33.222  15.902  23.403  1.00  0.00    -0.224 OA
ENDBRANCH  30  31
ENDBRANCH  17  25
ENDBRANCH  11  12
ENDBRANCH   8  11
ENDBRANCH   6   7
BRANCH   6  35
ATOM     35  C   UNL A   1      29.565  29.871  23.335  1.00  0.00     0.191 C 
BRANCH  35  36
ATOM     36  O   UNL A   1      28.807  29.689  22.135  1.00  0.00    -0.394 OA
ATOM     37  H   UNL A   1      27.869  29.575  22.359  1.00  0.00     0.210 HD
ENDBRANCH  35  36
ENDBRANCH   6  35
ENDBRANCH   3   6
ENDBRANCH   1   2
BRANCH   1  38
ATOM     38  C   UNL A   1      33.110  28.999  27.091  1.00  0.00     0.042 C 
BRANCH  38  39
ATOM     39  C   UNL A   1      34.298  29.977  27.285  1.00  0.00     0.118 C 
BRANCH  39  40
ATOM     40  N   UNL A   1      33.971  31.192  28.008  1.00  0.00    -0.352 N 
ATOM     41  C   UNL A   1      34.741  31.948  28.885  1.00  0.00     0.251 C 
ATOM     42  H   UNL A   1      33.061  31.534  27.854  1.00  0.00     0.163 HD
ATOM     43  O   UNL A   1      34.258  33.022  29.243  1.00  0.00    -0.269 OA
BRANCH  41  44
ATOM     44  C   UNL A   1      36.055  31.486  29.484  1.00  0.00     0.039 A 
ATOM     45  C   UNL A   1      37.213  31.627  28.731  1.00  0.00     0.014 A 
ATOM     46  C   UNL A   1      36.167  30.638  30.605  1.00  0.00     0.014 A 
ATOM     47  C   UNL A   1      38.444  31.006  29.135  1.00  0.00     0.010 A 
ATOM     48  C   UNL A   1      37.413  29.950  30.974  1.00  0.00     0.010 A 
ATOM     49  C   UNL A   1      38.616  30.102  30.250  1.00  0.00    -0.014 A 
BRANCH  49  50
ATOM     50  C   UNL A   1      39.852  29.025  30.128  1.00  0.00     0.031 A 
ATOM     51  C   UNL A   1      40.414  29.083  31.512  1.00  0.00     0.074 A 
ATOM     52  C   UNL A   1      40.576  28.206  29.242  1.00  0.00     0.049 A 
ATOM     53  N   UNL A   1      40.791  30.228  32.009  1.00  0.00    -0.248 NA
ATOM     54  C   UNL A   1      40.167  28.038  32.508  1.00  0.00     0.031 C 
ATOM     55  C   UNL A   1      40.433  28.102  27.778  1.00  0.00     0.029 A 
ATOM     56  N   UNL A   1      41.639  27.241  29.427  1.00  0.00    -0.354 N 
ATOM     57  C   UNL A   1      41.133  29.990  33.316  1.00  0.00     0.074 A 
ATOM     58  C   UNL A   1      40.495  28.711  33.618  1.00  0.00     0.031 C 
ATOM     59  C   UNL A   1      41.194  27.094  27.250  1.00  0.00     0.029 A 
ATOM     60  C   UNL A   1      41.998  26.420  28.275  1.00  0.00     0.049 A 
ATOM     61  H   UNL A   1      42.101  27.143  30.292  1.00  0.00     0.167 HD
ATOM     62  C   UNL A   1      42.392  30.386  33.667  1.00  0.00     0.034 A 
ATOM     63  C   UNL A   1      42.899  25.348  28.117  1.00  0.00     0.034 A 
ATOM     64  C   UNL A   1      43.328  29.294  33.581  1.00  0.00     0.049 A 
ATOM     65  C   UNL A   1      43.919  25.503  29.151  1.00  0.00     0.074 A 
ATOM     66  C   UNL A   1      43.281  27.993  34.036  1.00  0.00     0.029 A 
ATOM     67  N   UNL A   1      44.245  29.324  32.549  1.00  0.00    -0.354 N 
ATOM     68  N   UNL A   1      44.868  26.376  29.049  1.00  0.00    -0.248 NA
ATOM     69  C   UNL A   1      43.956  24.659  30.338  1.00  0.00     0.031 C 
ATOM     70  C   UNL A   1      43.752  27.225  32.951  1.00  0.00     0.029 A 
ATOM     71  C   UNL A   1      44.460  28.046  32.078  1.00  0.00     0.049 A 
ATOM     72  H   UNL A   1      44.680  30.136  32.202  1.00  0.00     0.167 HD
ATOM     73  C   UNL A   1      45.211  26.578  30.348  1.00  0.00     0.074 A 
ATOM     74  C   UNL A   1      44.873  25.340  31.028  1.00  0.00     0.031 C 
ATOM     75  C   UNL A   1      45.127  27.856  30.803  1.00  0.00     0.034 A 
BRANCH  62  76
ATOM     76  C   UNL A   1      42.707  31.806  33.288  1.00  0.00     0.023 A 
ATOM     77  C   UNL A   1      42.617  32.802  34.267  1.00  0.00     0.031 A 
ATOM     78  C   UNL A   1      42.968  32.210  31.960  1.00  0.00     0.131 A 
ATOM     79  C   UNL A   1      42.723  34.154  33.898  1.00  0.00     0.055 A 
ATOM     80  C   UNL A   1      43.015  33.552  31.590  1.00  0.00     0.041 A 
ATOM     81  F   UNL A   1      43.189  31.301  30.996  1.00  0.00    -0.206 F 
ATOM     82  C   UNL A   1      42.883  34.535  32.562  1.00  0.00     0.022 A 
BRANCH  79  83
ATOM     83  S   UNL A   1      42.683  35.413  35.201  1.00  0.00     0.124 S 
ATOM     84  O   UNL A   1      42.853  36.652  34.449  1.00  0.00    -0.237 OA
ATOM     85  O   UNL A   1      41.361  35.210  35.788  1.00  0.00    -0.237 OA
ATOM     86  O   UNL A   1      43.802  35.052  36.070  1.00  0.00    -0.744 OA
ENDBRANCH  79  83
ENDBRANCH  62  76
BRANCH  63  87
ATOM     87  C   UNL A   1      43.322  24.149  27.188  1.00  0.00     0.023 A 
ATOM     88  C   UNL A   1      42.741  22.811  27.298  1.00  0.00     0.031 A 
ATOM     89  C   UNL A   1      43.969  24.383  25.969  1.00  0.00     0.131 A 
ATOM     90  C   UNL A   1      42.782  21.849  26.238  1.00  0.00     0.055 A 
ATOM     91  C   UNL A   1      44.012  23.423  24.924  1.00  0.00     0.041 A 
ATOM     92  F   UNL A   1      44.488  25.589  25.703  1.00  0.00    -0.206 F 
ATOM     93  C   UNL A   1      43.409  22.171  25.043  1.00  0.00     0.022 A 
BRANCH  90  94
ATOM     94  S   UNL A   1      41.868  20.235  26.293  1.00  0.00     0.124 S 
ATOM     95  O   UNL A   1      42.444  19.491  25.181  1.00  0.00    -0.237 OA
ATOM     96  O   UNL A   1      42.158  19.737  27.634  1.00  0.00    -0.237 OA
ATOM     97  O   UNL A   1      40.469  20.627  26.097  1.00  0.00    -0.744 OA
ENDBRANCH  90  94
ENDBRANCH  63  87
BRANCH  75  98
ATOM     98  C   UNL A   1      45.601  28.969  29.860  1.00  0.00     0.023 A 
ATOM     99  C   UNL A   1      44.804  29.680  28.920  1.00  0.00     0.031 A 
ATOM    100  C   UNL A   1      46.974  29.263  29.847  1.00  0.00     0.131 A 
ATOM    101  C   UNL A   1      45.382  30.587  28.006  1.00  0.00     0.055 A 
ATOM    102  C   UNL A   1      47.541  30.196  28.974  1.00  0.00     0.041 A 
ATOM    103  F   UNL A   1      47.810  28.629  30.685  1.00  0.00    -0.206 F 
ATOM    104  C   UNL A   1      46.749  30.848  28.037  1.00  0.00     0.022 A 
BRANCH 101 105
ATOM    105  S   UNL A   1      44.374  31.369  26.696  1.00  0.00     0.124 S 
ATOM    106  O   UNL A   1      45.320  31.560  25.603  1.00  0.00    -0.237 OA
ATOM    107  O   UNL A   1      43.328  30.377  26.464  1.00  0.00    -0.237 OA
ATOM    108  O   UNL A   1      43.910  32.609  27.319  1.00  0.00    -0.744 OA
ENDBRANCH 101 105
ENDBRANCH  75  98
ENDBRANCH  49  50
ENDBRANCH  41  44
ENDBRANCH  39  40
ENDBRANCH  38  39
ENDBRANCH   1  38
TORSDOF 21
ENDMDL
