MODEL 1
REMARK VINA RESULT:     -14.2      0.000      0.000
REMARK SMILES C[C@]12C(=O)N(c3ccc(C(=O)NCCCNC(=O)c4ccc(-c5c6nc(c(-c7cc(S(=O)(=O)[O-])ccc7F)c7ccc([nH]7)c(-c7cc(S(=O)(=O)[O-])ccc7F)c7nc(c(-c8cc(S(=O)(=O)[O-])ccc8F)c8ccc5[nH]8)C=C7)C=C6)cc4)cc3)C(=O)C1[C@H]1c3ccccc3[C@@H]2c2ccccc21
REMARK SMILES IDX 15 1 14 2 13 3 12 4 10 5 11 6 9 8 6 9 7 10 83 11 8 12 82 13
REMARK SMILES IDX 5 14 1 15 2 16 3 17 86 18 94 19 4 20 84 21 87 22 93 23 95 24
REMARK SMILES IDX 85 25 88 26 100 27 92 28 96 29 89 30 99 31 91 32 97 33 90 34
REMARK SMILES IDX 98 35 16 36 17 37 18 39 19 40 20 41 81 42 21 43 80 44 22 45
REMARK SMILES IDX 23 46 24 47 74 48 25 49 79 50 73 51 75 52 26 53 78 54 72 55
REMARK SMILES IDX 71 56 27 58 59 59 39 60 58 61 40 62 43 63 57 64 76 65 41 66
REMARK SMILES IDX 42 67 56 69 77 70 44 71 28 72 29 73 37 74 30 75 36 76 38 77
REMARK SMILES IDX 35 78 31 79 32 80 33 81 34 82 60 83 61 84 69 85 62 86 68 87
REMARK SMILES IDX 70 88 67 89 63 90 64 91 65 92 66 93 45 94 46 95 54 96 47 97
REMARK SMILES IDX 53 98 55 99 52 100 48 101 49 102 50 103 51 104
REMARK H PARENT 12 7 16 38 75 57 43 68
REMARK Flexibility Score: inf
ROOT
ATOM      1  C   UNL A   1      32.491  32.465  26.509  1.00  0.00     0.118 C 
ENDROOT
BRANCH   1   2
ATOM      2  C   UNL A   1      31.354  31.493  26.801  1.00  0.00     0.042 C 
BRANCH   2   3
ATOM      3  C   UNL A   1      31.756  30.033  26.655  1.00  0.00     0.118 C 
BRANCH   3   4
ATOM      4  N   UNL A   1      33.172  29.804  26.893  1.00  0.00    -0.352 N 
ATOM      5  C   UNL A   1      34.020  28.785  26.547  1.00  0.00     0.251 C 
ATOM      6  O   UNL A   1      35.168  28.813  26.992  1.00  0.00    -0.269 OA
ATOM      7  H   UNL A   1      33.608  30.523  27.406  1.00  0.00     0.163 HD
BRANCH   5   8
ATOM      8  C   UNL A   1      33.615  27.644  25.684  1.00  0.00     0.039 A 
ATOM      9  C   UNL A   1      33.024  25.298  24.169  1.00  0.00     0.052 A 
ATOM     10  C   UNL A   1      32.987  25.296  25.575  1.00  0.00     0.027 A 
ATOM     11  C   UNL A   1      33.323  26.518  23.543  1.00  0.00     0.027 A 
ATOM     12  C   UNL A   1      33.282  26.447  26.321  1.00  0.00     0.016 A 
ATOM     13  C   UNL A   1      33.662  27.659  24.292  1.00  0.00     0.016 A 
BRANCH   9  14
ATOM     14  N   UNL A   1      33.051  24.067  23.418  1.00  0.00    -0.250 N 
ATOM     15  C   UNL A   1      32.379  21.154  22.183  1.00  0.00     0.024 C 
ATOM     16  C   UNL A   1      32.594  21.774  23.581  1.00  0.00     0.071 C 
ATOM     17  C   UNL A   1      31.996  23.159  23.532  1.00  0.00     0.241 C 
ATOM     18  C   UNL A   1      34.071  22.099  23.876  1.00  0.00     0.107 C 
ATOM     19  C   UNL A   1      32.082  20.897  24.767  1.00  0.00     0.066 C 
ATOM     20  O   UNL A   1      30.789  23.355  23.559  1.00  0.00    -0.273 OA
ATOM     21  C   UNL A   1      34.264  23.385  23.135  1.00  0.00     0.238 C 
ATOM     22  C   UNL A   1      34.749  21.006  24.759  1.00  0.00     0.063 C 
ATOM     23  C   UNL A   1      32.678  21.444  26.089  1.00  0.00    -0.036 A 
ATOM     24  C   UNL A   1      32.757  19.540  24.557  1.00  0.00    -0.036 A 
ATOM     25  O   UNL A   1      35.274  23.764  22.571  1.00  0.00    -0.274 OA
ATOM     26  C   UNL A   1      34.118  21.384  26.155  1.00  0.00    -0.036 A 
ATOM     27  C   UNL A   1      34.179  19.608  24.495  1.00  0.00    -0.036 A 
ATOM     28  C   UNL A   1      31.971  22.158  27.042  1.00  0.00     0.005 A 
ATOM     29  C   UNL A   1      32.086  18.326  24.500  1.00  0.00     0.005 A 
ATOM     30  C   UNL A   1      34.820  22.008  27.179  1.00  0.00     0.004 A 
ATOM     31  C   UNL A   1      34.919  18.437  24.399  1.00  0.00     0.004 A 
ATOM     32  C   UNL A   1      32.686  22.801  28.058  1.00  0.00     0.000 A 
ATOM     33  C   UNL A   1      32.838  17.159  24.395  1.00  0.00     0.000 A 
ATOM     34  C   UNL A   1      34.089  22.720  28.131  1.00  0.00     0.000 A 
ATOM     35  C   UNL A   1      34.240  17.214  24.348  1.00  0.00     0.000 A 
ENDBRANCH   9  14
ENDBRANCH   5   8
ENDBRANCH   3   4
ENDBRANCH   2   3
ENDBRANCH   1   2
BRANCH   1  36
ATOM     36  N   UNL A   1      32.400  33.696  27.291  1.00  0.00    -0.352 N 
ATOM     37  C   UNL A   1      33.114  34.143  28.378  1.00  0.00     0.251 C 
ATOM     38  H   UNL A   1      31.700  34.318  26.983  1.00  0.00     0.163 HD
ATOM     39  O   UNL A   1      32.694  35.117  29.001  1.00  0.00    -0.269 OA
BRANCH  37  40
ATOM     40  C   UNL A   1      34.345  33.453  28.825  1.00  0.00     0.039 A 
ATOM     41  C   UNL A   1      34.291  32.182  29.390  1.00  0.00     0.014 A 
ATOM     42  C   UNL A   1      35.587  34.073  28.646  1.00  0.00     0.014 A 
ATOM     43  C   UNL A   1      35.428  31.631  29.972  1.00  0.00     0.010 A 
ATOM     44  C   UNL A   1      36.752  33.463  29.129  1.00  0.00     0.010 A 
ATOM     45  C   UNL A   1      36.676  32.263  29.852  1.00  0.00    -0.014 A 
BRANCH  45  46
ATOM     46  C   UNL A   1      37.871  31.637  30.481  1.00  0.00     0.031 A 
ATOM     47  C   UNL A   1      38.250  31.947  31.905  1.00  0.00     0.074 A 
ATOM     48  C   UNL A   1      38.585  30.731  29.781  1.00  0.00     0.049 A 
ATOM     49  N   UNL A   1      39.230  31.456  32.619  1.00  0.00    -0.248 NA
ATOM     50  C   UNL A   1      37.433  32.940  32.624  1.00  0.00     0.031 C 
ATOM     51  C   UNL A   1      38.322  30.359  28.389  1.00  0.00     0.029 A 
ATOM     52  N   UNL A   1      39.653  29.944  30.137  1.00  0.00    -0.354 N 
ATOM     53  C   UNL A   1      39.166  32.093  33.853  1.00  0.00     0.074 A 
ATOM     54  C   UNL A   1      38.066  33.029  33.786  1.00  0.00     0.031 C 
ATOM     55  C   UNL A   1      39.162  29.379  28.030  1.00  0.00     0.029 A 
ATOM     56  C   UNL A   1      40.080  29.106  29.133  1.00  0.00     0.049 A 
ATOM     57  H   UNL A   1      40.073  29.977  31.027  1.00  0.00     0.167 HD
ATOM     58  C   UNL A   1      39.945  31.902  34.944  1.00  0.00     0.034 A 
ATOM     59  C   UNL A   1      41.103  28.227  29.086  1.00  0.00     0.034 A 
ATOM     60  C   UNL A   1      41.009  30.933  35.013  1.00  0.00     0.049 A 
ATOM     61  C   UNL A   1      41.947  28.028  30.318  1.00  0.00     0.074 A 
ATOM     62  C   UNL A   1      41.814  30.632  36.098  1.00  0.00     0.029 A 
ATOM     63  N   UNL A   1      41.416  30.112  33.973  1.00  0.00    -0.354 N 
ATOM     64  N   UNL A   1      41.827  28.595  31.495  1.00  0.00    -0.248 NA
ATOM     65  C   UNL A   1      43.058  27.071  30.226  1.00  0.00     0.031 C 
ATOM     66  C   UNL A   1      42.746  29.677  35.698  1.00  0.00     0.029 A 
ATOM     67  C   UNL A   1      42.480  29.326  34.385  1.00  0.00     0.049 A 
ATOM     68  H   UNL A   1      41.011  30.091  33.077  1.00  0.00     0.167 HD
ATOM     69  C   UNL A   1      42.840  28.060  32.284  1.00  0.00     0.074 A 
ATOM     70  C   UNL A   1      43.540  27.095  31.463  1.00  0.00     0.031 C 
ATOM     71  C   UNL A   1      43.166  28.353  33.567  1.00  0.00     0.034 A 
BRANCH  58  72
ATOM     72  C   UNL A   1      39.690  32.728  36.181  1.00  0.00     0.023 A 
ATOM     73  C   UNL A   1      38.809  32.249  37.169  1.00  0.00     0.031 A 
ATOM     74  C   UNL A   1      40.175  34.042  36.300  1.00  0.00     0.131 A 
ATOM     75  C   UNL A   1      38.398  33.096  38.206  1.00  0.00     0.055 A 
ATOM     76  C   UNL A   1      39.794  34.869  37.358  1.00  0.00     0.041 A 
ATOM     77  F   UNL A   1      41.017  34.544  35.383  1.00  0.00    -0.206 F 
ATOM     78  C   UNL A   1      38.889  34.402  38.307  1.00  0.00     0.022 A 
BRANCH  75  79
ATOM     79  S   UNL A   1      37.156  32.563  39.415  1.00  0.00     0.124 S 
ATOM     80  O   UNL A   1      35.909  32.808  38.693  1.00  0.00    -0.237 OA
ATOM     81  O   UNL A   1      37.500  31.158  39.607  1.00  0.00    -0.237 OA
ATOM     82  O   UNL A   1      37.388  33.435  40.562  1.00  0.00    -0.744 OA
ENDBRANCH  75  79
ENDBRANCH  58  72
BRANCH  59  83
ATOM     83  C   UNL A   1      41.349  27.468  27.823  1.00  0.00     0.023 A 
ATOM     84  C   UNL A   1      41.089  26.086  27.757  1.00  0.00     0.031 A 
ATOM     85  C   UNL A   1      41.955  28.077  26.713  1.00  0.00     0.131 A 
ATOM     86  C   UNL A   1      41.509  25.348  26.644  1.00  0.00     0.055 A 
ATOM     87  C   UNL A   1      42.299  27.351  25.571  1.00  0.00     0.041 A 
ATOM     88  F   UNL A   1      42.236  29.390  26.731  1.00  0.00    -0.206 F 
ATOM     89  C   UNL A   1      42.097  25.975  25.542  1.00  0.00     0.022 A 
BRANCH  86  90
ATOM     90  S   UNL A   1      41.461  23.534  26.667  1.00  0.00     0.124 S 
ATOM     91  O   UNL A   1      42.295  23.194  25.520  1.00  0.00    -0.237 OA
ATOM     92  O   UNL A   1      42.035  23.234  27.978  1.00  0.00    -0.237 OA
ATOM     93  O   UNL A   1      40.041  23.225  26.532  1.00  0.00    -0.744 OA
ENDBRANCH  86  90
ENDBRANCH  59  83
BRANCH  71  94
ATOM     94  C   UNL A   1      44.336  27.641  34.199  1.00  0.00     0.023 A 
ATOM     95  C   UNL A   1      44.121  26.493  34.986  1.00  0.00     0.031 A 
ATOM     96  C   UNL A   1      45.630  28.190  34.162  1.00  0.00     0.131 A 
ATOM     97  C   UNL A   1      45.172  25.959  35.743  1.00  0.00     0.055 A 
ATOM     98  C   UNL A   1      46.685  27.625  34.880  1.00  0.00     0.041 A 
ATOM     99  F   UNL A   1      45.883  29.289  33.436  1.00  0.00    -0.206 F 
ATOM    100  C   UNL A   1      46.454  26.515  35.689  1.00  0.00     0.022 A 
BRANCH  97 101
ATOM    101  S   UNL A   1      44.892  24.589  36.898  1.00  0.00     0.124 S 
ATOM    102  O   UNL A   1      43.675  25.016  37.584  1.00  0.00    -0.237 OA
ATOM    103  O   UNL A   1      44.733  23.452  35.996  1.00  0.00    -0.237 OA
ATOM    104  O   UNL A   1      46.096  24.572  37.723  1.00  0.00    -0.744 OA
ENDBRANCH  97 101
ENDBRANCH  71  94
ENDBRANCH  45  46
ENDBRANCH  37  40
ENDBRANCH   1  36
TORSDOF 14
ENDMDL
MODEL 2
REMARK VINA RESULT:     -14.2      1.637      7.480
REMARK SMILES C[C@]12C(=O)N(c3ccc(C(=O)NCCCNC(=O)c4ccc(-c5c6nc(c(-c7cc(S(=O)(=O)[O-])ccc7F)c7ccc([nH]7)c(-c7cc(S(=O)(=O)[O-])ccc7F)c7nc(c(-c8cc(S(=O)(=O)[O-])ccc8F)c8ccc5[nH]8)C=C7)C=C6)cc4)cc3)C(=O)C1[C@H]1c3ccccc3[C@@H]2c2ccccc21
REMARK SMILES IDX 15 1 14 2 13 3 12 4 10 5 11 6 9 8 6 9 7 10 83 11 8 12 82 13
REMARK SMILES IDX 5 14 1 15 2 16 3 17 86 18 94 19 4 20 84 21 87 22 93 23 95 24
REMARK SMILES IDX 85 25 88 26 100 27 92 28 96 29 89 30 99 31 91 32 97 33 90 34
REMARK SMILES IDX 98 35 16 36 17 37 18 39 19 40 20 41 81 42 21 43 80 44 22 45
REMARK SMILES IDX 23 46 24 47 74 48 25 49 79 50 73 51 75 52 26 53 78 54 72 55
REMARK SMILES IDX 71 56 27 58 59 59 39 60 58 61 40 62 43 63 57 64 76 65 41 66
REMARK SMILES IDX 42 67 56 69 77 70 44 71 28 72 29 73 37 74 30 75 36 76 38 77
REMARK SMILES IDX 35 78 31 79 32 80 33 81 34 82 60 83 61 84 69 85 62 86 68 87
REMARK SMILES IDX 70 88 67 89 63 90 64 91 65 92 66 93 45 94 46 95 54 96 47 97
REMARK SMILES IDX 53 98 55 99 52 100 48 101 49 102 50 103 51 104
REMARK H PARENT 12 7 16 38 75 57 43 68
REMARK Flexibility Score: inf
ROOT
ATOM      1  C   UNL A   1      32.405  32.731  26.981  1.00  0.00     0.118 C 
ENDROOT
BRANCH   1   2
ATOM      2  C   UNL A   1      30.976  32.511  26.501  1.00  0.00     0.042 C 
BRANCH   2   3
ATOM      3  C   UNL A   1      30.867  31.491  25.377  1.00  0.00     0.118 C 
BRANCH   3   4
ATOM      4  N   UNL A   1      29.662  31.649  24.578  1.00  0.00    -0.352 N 
ATOM      5  C   UNL A   1      29.131  30.926  23.543  1.00  0.00     0.251 C 
ATOM      6  O   UNL A   1      28.132  31.373  22.978  1.00  0.00    -0.269 OA
ATOM      7  H   UNL A   1      29.121  32.433  24.831  1.00  0.00     0.163 HD
BRANCH   5   8
ATOM      8  C   UNL A   1      29.714  29.647  23.059  1.00  0.00     0.039 A 
ATOM      9  C   UNL A   1      30.828  27.103  22.395  1.00  0.00     0.052 A 
ATOM     10  C   UNL A   1      29.631  27.217  23.126  1.00  0.00     0.027 A 
ATOM     11  C   UNL A   1      31.427  28.299  21.970  1.00  0.00     0.027 A 
ATOM     12  C   UNL A   1      29.086  28.466  23.457  1.00  0.00     0.016 A 
ATOM     13  C   UNL A   1      30.905  29.551  22.340  1.00  0.00     0.016 A 
BRANCH   9  14
ATOM     14  N   UNL A   1      31.558  25.861  22.340  1.00  0.00    -0.250 N 
ATOM     15  C   UNL A   1      32.628  22.850  22.839  1.00  0.00     0.024 C 
ATOM     16  C   UNL A   1      32.383  24.123  23.678  1.00  0.00     0.071 C 
ATOM     17  C   UNL A   1      31.144  24.776  23.115  1.00  0.00     0.241 C 
ATOM     18  C   UNL A   1      33.435  25.221  23.431  1.00  0.00     0.107 C 
ATOM     19  C   UNL A   1      32.336  23.886  25.222  1.00  0.00     0.066 C 
ATOM     20  O   UNL A   1      30.020  24.342  23.324  1.00  0.00    -0.273 OA
ATOM     21  C   UNL A   1      32.964  25.824  22.144  1.00  0.00     0.238 C 
ATOM     22  C   UNL A   1      34.528  25.250  24.544  1.00  0.00     0.063 C 
ATOM     23  C   UNL A   1      32.456  25.253  25.942  1.00  0.00    -0.036 A 
ATOM     24  C   UNL A   1      33.642  23.153  25.534  1.00  0.00    -0.036 A 
ATOM     25  O   UNL A   1      33.653  26.281  21.251  1.00  0.00    -0.274 OA
ATOM     26  C   UNL A   1      33.698  25.943  25.693  1.00  0.00    -0.036 A 
ATOM     27  C   UNL A   1      34.810  23.858  25.119  1.00  0.00    -0.036 A 
ATOM     28  C   UNL A   1      31.413  25.911  26.573  1.00  0.00     0.005 A 
ATOM     29  C   UNL A   1      33.727  21.950  26.221  1.00  0.00     0.005 A 
ATOM     30  C   UNL A   1      33.887  27.258  26.100  1.00  0.00     0.004 A 
ATOM     31  C   UNL A   1      36.065  23.348  25.426  1.00  0.00     0.004 A 
ATOM     32  C   UNL A   1      31.604  27.241  26.962  1.00  0.00     0.000 A 
ATOM     33  C   UNL A   1      34.990  21.444  26.515  1.00  0.00     0.000 A 
ATOM     34  C   UNL A   1      32.825  27.902  26.737  1.00  0.00     0.000 A 
ATOM     35  C   UNL A   1      36.147  22.137  26.124  1.00  0.00     0.000 A 
ENDBRANCH   9  14
ENDBRANCH   5   8
ENDBRANCH   3   4
ENDBRANCH   2   3
ENDBRANCH   1   2
BRANCH   1  36
ATOM     36  N   UNL A   1      32.619  34.067  27.532  1.00  0.00    -0.352 N 
ATOM     37  C   UNL A   1      33.508  34.538  28.470  1.00  0.00     0.251 C 
ATOM     38  H   UNL A   1      32.017  34.756  27.165  1.00  0.00     0.163 HD
ATOM     39  O   UNL A   1      33.336  35.664  28.934  1.00  0.00    -0.269 OA
BRANCH  37  40
ATOM     40  C   UNL A   1      34.632  33.702  28.951  1.00  0.00     0.039 A 
ATOM     41  C   UNL A   1      34.402  32.475  29.566  1.00  0.00     0.014 A 
ATOM     42  C   UNL A   1      35.947  34.136  28.754  1.00  0.00     0.014 A 
ATOM     43  C   UNL A   1      35.451  31.796  30.175  1.00  0.00     0.010 A 
ATOM     44  C   UNL A   1      37.016  33.390  29.266  1.00  0.00     0.010 A 
ATOM     45  C   UNL A   1      36.775  32.242  30.036  1.00  0.00    -0.014 A 
BRANCH  45  46
ATOM     46  C   UNL A   1      37.872  31.482  30.696  1.00  0.00     0.031 A 
ATOM     47  C   UNL A   1      38.658  30.442  29.941  1.00  0.00     0.074 A 
ATOM     48  C   UNL A   1      38.205  31.779  31.969  1.00  0.00     0.049 A 
ATOM     49  N   UNL A   1      39.672  29.724  30.350  1.00  0.00    -0.248 NA
ATOM     50  C   UNL A   1      38.255  30.163  28.553  1.00  0.00     0.031 C 
ATOM     51  C   UNL A   1      37.508  32.758  32.806  1.00  0.00     0.029 A 
ATOM     52  N   UNL A   1      39.215  31.315  32.776  1.00  0.00    -0.354 N 
ATOM     53  C   UNL A   1      40.011  28.894  29.287  1.00  0.00     0.074 A 
ATOM     54  C   UNL A   1      39.077  29.176  28.220  1.00  0.00     0.031 C 
ATOM     55  C   UNL A   1      38.142  32.864  33.980  1.00  0.00     0.029 A 
ATOM     56  C   UNL A   1      39.243  31.904  34.019  1.00  0.00     0.049 A 
ATOM     57  H   UNL A   1      39.857  30.626  32.492  1.00  0.00     0.167 HD
ATOM     58  C   UNL A   1      41.017  27.992  29.207  1.00  0.00     0.034 A 
ATOM     59  C   UNL A   1      40.046  31.693  35.083  1.00  0.00     0.034 A 
ATOM     60  C   UNL A   1      41.969  27.753  30.262  1.00  0.00     0.049 A 
ATOM     61  C   UNL A   1      41.163  30.690  34.963  1.00  0.00     0.074 A 
ATOM     62  C   UNL A   1      43.056  26.897  30.246  1.00  0.00     0.029 A 
ATOM     63  N   UNL A   1      41.958  28.362  31.507  1.00  0.00    -0.354 N 
ATOM     64  N   UNL A   1      41.504  29.963  33.925  1.00  0.00    -0.248 NA
ATOM     65  C   UNL A   1      42.009  30.478  36.144  1.00  0.00     0.031 C 
ATOM     66  C   UNL A   1      43.664  26.941  31.499  1.00  0.00     0.029 A 
ATOM     67  C   UNL A   1      43.003  27.877  32.277  1.00  0.00     0.049 A 
ATOM     68  H   UNL A   1      41.305  29.037  31.801  1.00  0.00     0.167 HD
ATOM     69  C   UNL A   1      42.606  29.214  34.326  1.00  0.00     0.074 A 
ATOM     70  C   UNL A   1      42.899  29.605  35.689  1.00  0.00     0.031 C 
ATOM     71  C   UNL A   1      43.302  28.280  33.630  1.00  0.00     0.034 A 
BRANCH  58  72
ATOM     72  C   UNL A   1      41.184  27.190  27.940  1.00  0.00     0.023 A 
ATOM     73  C   UNL A   1      40.881  25.815  27.942  1.00  0.00     0.031 A 
ATOM     74  C   UNL A   1      41.798  27.736  26.800  1.00  0.00     0.131 A 
ATOM     75  C   UNL A   1      41.239  25.022  26.844  1.00  0.00     0.055 A 
ATOM     76  C   UNL A   1      42.115  26.949  25.692  1.00  0.00     0.041 A 
ATOM     77  F   UNL A   1      42.107  29.042  26.751  1.00  0.00    -0.206 F 
ATOM     78  C   UNL A   1      41.851  25.582  25.718  1.00  0.00     0.022 A 
BRANCH  75  79
ATOM     79  S   UNL A   1      40.994  23.225  26.867  1.00  0.00     0.124 S 
ATOM     80  O   UNL A   1      39.562  23.113  26.597  1.00  0.00    -0.237 OA
ATOM     81  O   UNL A   1      41.869  22.785  25.785  1.00  0.00    -0.237 OA
ATOM     82  O   UNL A   1      41.403  22.833  28.211  1.00  0.00    -0.744 OA
ENDBRANCH  75  79
ENDBRANCH  58  72
BRANCH  59  83
ATOM     83  C   UNL A   1      39.811  32.474  36.334  1.00  0.00     0.023 A 
ATOM     84  C   UNL A   1      38.883  32.026  37.294  1.00  0.00     0.031 A 
ATOM     85  C   UNL A   1      40.411  33.728  36.535  1.00  0.00     0.131 A 
ATOM     86  C   UNL A   1      38.521  32.859  38.359  1.00  0.00     0.055 A 
ATOM     87  C   UNL A   1      40.108  34.520  37.643  1.00  0.00     0.041 A 
ATOM     88  F   UNL A   1      41.294  34.206  35.643  1.00  0.00    -0.206 F 
ATOM     89  C   UNL A   1      39.141  34.097  38.550  1.00  0.00     0.022 A 
BRANCH  86  90
ATOM     90  S   UNL A   1      37.116  32.436  39.427  1.00  0.00     0.124 S 
ATOM     91  O   UNL A   1      37.289  33.367  40.537  1.00  0.00    -0.237 OA
ATOM     92  O   UNL A   1      35.979  32.703  38.549  1.00  0.00    -0.237 OA
ATOM     93  O   UNL A   1      37.335  31.027  39.741  1.00  0.00    -0.744 OA
ENDBRANCH  86  90
ENDBRANCH  59  83
BRANCH  71  94
ATOM     94  C   UNL A   1      44.458  27.586  34.305  1.00  0.00     0.023 A 
ATOM     95  C   UNL A   1      44.265  26.336  34.925  1.00  0.00     0.031 A 
ATOM     96  C   UNL A   1      45.695  28.232  34.479  1.00  0.00     0.131 A 
ATOM     97  C   UNL A   1      45.275  25.794  35.731  1.00  0.00     0.055 A 
ATOM     98  C   UNL A   1      46.715  27.664  35.243  1.00  0.00     0.041 A 
ATOM     99  F   UNL A   1      45.923  29.429  33.917  1.00  0.00    -0.206 F 
ATOM    100  C   UNL A   1      46.502  26.448  35.887  1.00  0.00     0.022 A 
BRANCH  97 101
ATOM    101  S   UNL A   1      45.000  24.274  36.681  1.00  0.00     0.124 S 
ATOM    102  O   UNL A   1      43.993  23.590  35.872  1.00  0.00    -0.237 OA
ATOM    103  O   UNL A   1      46.325  23.662  36.675  1.00  0.00    -0.237 OA
ATOM    104  O   UNL A   1      44.534  24.749  37.980  1.00  0.00    -0.744 OA
ENDBRANCH  97 101
ENDBRANCH  71  94
ENDBRANCH  45  46
ENDBRANCH  37  40
ENDBRANCH   1  36
TORSDOF 14
ENDMDL
MODEL 3
REMARK VINA RESULT:     -14.1      1.623      2.479
REMARK SMILES C[C@]12C(=O)N(c3ccc(C(=O)NCCCNC(=O)c4ccc(-c5c6nc(c(-c7cc(S(=O)(=O)[O-])ccc7F)c7ccc([nH]7)c(-c7cc(S(=O)(=O)[O-])ccc7F)c7nc(c(-c8cc(S(=O)(=O)[O-])ccc8F)c8ccc5[nH]8)C=C7)C=C6)cc4)cc3)C(=O)C1[C@H]1c3ccccc3[C@@H]2c2ccccc21
REMARK SMILES IDX 15 1 14 2 13 3 12 4 10 5 11 6 9 8 6 9 7 10 83 11 8 12 82 13
REMARK SMILES IDX 5 14 1 15 2 16 3 17 86 18 94 19 4 20 84 21 87 22 93 23 95 24
REMARK SMILES IDX 85 25 88 26 100 27 92 28 96 29 89 30 99 31 91 32 97 33 90 34
REMARK SMILES IDX 98 35 16 36 17 37 18 39 19 40 20 41 81 42 21 43 80 44 22 45
REMARK SMILES IDX 23 46 24 47 74 48 25 49 79 50 73 51 75 52 26 53 78 54 72 55
REMARK SMILES IDX 71 56 27 58 59 59 39 60 58 61 40 62 43 63 57 64 76 65 41 66
REMARK SMILES IDX 42 67 56 69 77 70 44 71 28 72 29 73 37 74 30 75 36 76 38 77
REMARK SMILES IDX 35 78 31 79 32 80 33 81 34 82 60 83 61 84 69 85 62 86 68 87
REMARK SMILES IDX 70 88 67 89 63 90 64 91 65 92 66 93 45 94 46 95 54 96 47 97
REMARK SMILES IDX 53 98 55 99 52 100 48 101 49 102 50 103 51 104
REMARK H PARENT 12 7 16 38 75 57 43 68
REMARK Flexibility Score: inf
ROOT
ATOM      1  C   UNL A   1      32.451  32.784  26.914  1.00  0.00     0.118 C 
ENDROOT
BRANCH   1   2
ATOM      2  C   UNL A   1      31.034  32.320  26.601  1.00  0.00     0.042 C 
BRANCH   2   3
ATOM      3  C   UNL A   1      30.954  31.396  25.395  1.00  0.00     0.118 C 
BRANCH   3   4
ATOM      4  N   UNL A   1      29.729  31.563  24.629  1.00  0.00    -0.352 N 
ATOM      5  C   UNL A   1      29.174  30.852  23.598  1.00  0.00     0.251 C 
ATOM      6  O   UNL A   1      28.159  31.305  23.065  1.00  0.00    -0.269 OA
ATOM      7  H   UNL A   1      29.193  32.341  24.906  1.00  0.00     0.163 HD
BRANCH   5   8
ATOM      8  C   UNL A   1      29.746  29.581  23.082  1.00  0.00     0.039 A 
ATOM      9  C   UNL A   1      30.845  27.048  22.356  1.00  0.00     0.052 A 
ATOM     10  C   UNL A   1      29.665  27.150  23.114  1.00  0.00     0.027 A 
ATOM     11  C   UNL A   1      31.435  28.250  21.936  1.00  0.00     0.027 A 
ATOM     12  C   UNL A   1      29.127  28.394  23.476  1.00  0.00     0.016 A 
ATOM     13  C   UNL A   1      30.921  29.496  22.336  1.00  0.00     0.016 A 
BRANCH   9  14
ATOM     14  N   UNL A   1      31.575  25.807  22.266  1.00  0.00    -0.250 N 
ATOM     15  C   UNL A   1      32.664  22.793  22.704  1.00  0.00     0.024 C 
ATOM     16  C   UNL A   1      32.445  24.059  23.562  1.00  0.00     0.071 C 
ATOM     17  C   UNL A   1      31.188  24.715  23.045  1.00  0.00     0.241 C 
ATOM     18  C   UNL A   1      33.488  25.161  23.289  1.00  0.00     0.107 C 
ATOM     19  C   UNL A   1      32.450  23.809  25.104  1.00  0.00     0.066 C 
ATOM     20  O   UNL A   1      30.072  24.278  23.288  1.00  0.00    -0.273 OA
ATOM     21  C   UNL A   1      32.974  25.773  22.023  1.00  0.00     0.238 C 
ATOM     22  C   UNL A   1      34.617  25.182  24.365  1.00  0.00     0.063 C 
ATOM     23  C   UNL A   1      32.593  25.170  25.831  1.00  0.00    -0.036 A 
ATOM     24  C   UNL A   1      33.767  23.076  25.366  1.00  0.00    -0.036 A 
ATOM     25  O   UNL A   1      33.632  26.239  21.111  1.00  0.00    -0.274 OA
ATOM     26  C   UNL A   1      33.825  25.864  25.547  1.00  0.00    -0.036 A 
ATOM     27  C   UNL A   1      34.920  23.785  24.919  1.00  0.00    -0.036 A 
ATOM     28  C   UNL A   1      31.571  25.822  26.502  1.00  0.00     0.005 A 
ATOM     29  C   UNL A   1      33.876  21.867  26.040  1.00  0.00     0.005 A 
ATOM     30  C   UNL A   1      34.026  27.176  25.958  1.00  0.00     0.004 A 
ATOM     31  C   UNL A   1      36.184  23.274  25.179  1.00  0.00     0.004 A 
ATOM     32  C   UNL A   1      31.773  27.149  26.895  1.00  0.00     0.000 A 
ATOM     33  C   UNL A   1      35.149  21.360  26.287  1.00  0.00     0.000 A 
ATOM     34  C   UNL A   1      32.986  27.814  26.635  1.00  0.00     0.000 A 
ATOM     35  C   UNL A   1      36.290  22.058  25.864  1.00  0.00     0.000 A 
ENDBRANCH   9  14
ENDBRANCH   5   8
ENDBRANCH   3   4
ENDBRANCH   2   3
ENDBRANCH   1   2
BRANCH   1  36
ATOM     36  N   UNL A   1      32.485  34.054  27.636  1.00  0.00    -0.352 N 
ATOM     37  C   UNL A   1      33.278  34.499  28.668  1.00  0.00     0.251 C 
ATOM     38  H   UNL A   1      31.819  34.711  27.327  1.00  0.00     0.163 HD
ATOM     39  O   UNL A   1      32.959  35.529  29.258  1.00  0.00    -0.269 OA
BRANCH  37  40
ATOM     40  C   UNL A   1      34.476  33.740  29.097  1.00  0.00     0.039 A 
ATOM     41  C   UNL A   1      34.357  32.577  29.852  1.00  0.00     0.014 A 
ATOM     42  C   UNL A   1      35.746  34.181  28.710  1.00  0.00     0.014 A 
ATOM     43  C   UNL A   1      35.489  31.986  30.402  1.00  0.00     0.010 A 
ATOM     44  C   UNL A   1      36.890  33.514  29.168  1.00  0.00     0.010 A 
ATOM     45  C   UNL A   1      36.774  32.445  30.070  1.00  0.00    -0.014 A 
BRANCH  45  46
ATOM     46  C   UNL A   1      37.962  31.780  30.672  1.00  0.00     0.031 A 
ATOM     47  C   UNL A   1      38.386  32.081  32.086  1.00  0.00     0.074 A 
ATOM     48  C   UNL A   1      38.627  30.849  29.958  1.00  0.00     0.049 A 
ATOM     49  N   UNL A   1      39.366  31.559  32.777  1.00  0.00    -0.248 NA
ATOM     50  C   UNL A   1      37.621  33.103  32.820  1.00  0.00     0.031 C 
ATOM     51  C   UNL A   1      38.317  30.482  28.574  1.00  0.00     0.029 A 
ATOM     52  N   UNL A   1      39.676  30.026  30.290  1.00  0.00    -0.354 N 
ATOM     53  C   UNL A   1      39.354  32.201  34.010  1.00  0.00     0.074 A 
ATOM     54  C   UNL A   1      38.285  33.173  33.967  1.00  0.00     0.031 C 
ATOM     55  C   UNL A   1      39.114  29.474  28.198  1.00  0.00     0.029 A 
ATOM     56  C   UNL A   1      40.049  29.171  29.279  1.00  0.00     0.049 A 
ATOM     57  H   UNL A   1      40.118  30.047  31.170  1.00  0.00     0.167 HD
ATOM     58  C   UNL A   1      40.151  31.986  35.082  1.00  0.00     0.034 A 
ATOM     59  C   UNL A   1      41.040  28.258  29.211  1.00  0.00     0.034 A 
ATOM     60  C   UNL A   1      41.184  30.981  35.129  1.00  0.00     0.049 A 
ATOM     61  C   UNL A   1      41.906  28.033  30.422  1.00  0.00     0.074 A 
ATOM     62  C   UNL A   1      42.004  30.656  36.194  1.00  0.00     0.029 A 
ATOM     63  N   UNL A   1      41.537  30.144  34.082  1.00  0.00    -0.354 N 
ATOM     64  N   UNL A   1      41.834  28.608  31.599  1.00  0.00    -0.248 NA
ATOM     65  C   UNL A   1      42.981  27.038  30.307  1.00  0.00     0.031 C 
ATOM     66  C   UNL A   1      42.893  29.668  35.775  1.00  0.00     0.029 A 
ATOM     67  C   UNL A   1      42.583  29.322  34.470  1.00  0.00     0.049 A 
ATOM     68  H   UNL A   1      41.109  30.134  33.196  1.00  0.00     0.167 HD
ATOM     69  C   UNL A   1      42.848  28.040  32.366  1.00  0.00     0.074 A 
ATOM     70  C   UNL A   1      43.494  27.049  31.531  1.00  0.00     0.031 C 
ATOM     71  C   UNL A   1      43.215  28.325  33.640  1.00  0.00     0.034 A 
BRANCH  58  72
ATOM     72  C   UNL A   1      39.956  32.823  36.323  1.00  0.00     0.023 A 
ATOM     73  C   UNL A   1      39.066  32.387  37.323  1.00  0.00     0.031 A 
ATOM     74  C   UNL A   1      40.505  34.112  36.433  1.00  0.00     0.131 A 
ATOM     75  C   UNL A   1      38.712  33.254  38.365  1.00  0.00     0.055 A 
ATOM     76  C   UNL A   1      40.181  34.956  37.496  1.00  0.00     0.041 A 
ATOM     77  F   UNL A   1      41.358  34.572  35.503  1.00  0.00    -0.206 F 
ATOM     78  C   UNL A   1      39.269  34.534  38.459  1.00  0.00     0.022 A 
BRANCH  75  79
ATOM     79  S   UNL A   1      37.464  32.782  39.593  1.00  0.00     0.124 S 
ATOM     80  O   UNL A   1      36.244  32.762  38.789  1.00  0.00    -0.237 OA
ATOM     81  O   UNL A   1      37.945  31.476  40.030  1.00  0.00    -0.237 OA
ATOM     82  O   UNL A   1      37.531  33.848  40.587  1.00  0.00    -0.744 OA
ENDBRANCH  75  79
ENDBRANCH  58  72
BRANCH  59  83
ATOM     83  C   UNL A   1      41.229  27.488  27.945  1.00  0.00     0.023 A 
ATOM     84  C   UNL A   1      40.875  26.127  27.875  1.00  0.00     0.031 A 
ATOM     85  C   UNL A   1      41.871  28.058  26.833  1.00  0.00     0.131 A 
ATOM     86  C   UNL A   1      41.239  25.365  26.759  1.00  0.00     0.055 A 
ATOM     87  C   UNL A   1      42.160  27.314  25.688  1.00  0.00     0.041 A 
ATOM     88  F   UNL A   1      42.240  29.349  26.854  1.00  0.00    -0.206 F 
ATOM     89  C   UNL A   1      41.865  25.954  25.657  1.00  0.00     0.022 A 
BRANCH  86  90
ATOM     90  S   UNL A   1      41.068  23.559  26.777  1.00  0.00     0.124 S 
ATOM     91  O   UNL A   1      41.487  23.228  28.135  1.00  0.00    -0.237 OA
ATOM     92  O   UNL A   1      39.643  23.389  26.496  1.00  0.00    -0.237 OA
ATOM     93  O   UNL A   1      41.963  23.117  25.712  1.00  0.00    -0.744 OA
ENDBRANCH  86  90
ENDBRANCH  59  83
BRANCH  71  94
ATOM     94  C   UNL A   1      44.375  27.574  34.245  1.00  0.00     0.023 A 
ATOM     95  C   UNL A   1      44.161  26.329  34.868  1.00  0.00     0.031 A 
ATOM     96  C   UNL A   1      45.647  28.163  34.354  1.00  0.00     0.131 A 
ATOM     97  C   UNL A   1      45.188  25.737  35.613  1.00  0.00     0.055 A 
ATOM     98  C   UNL A   1      46.682  27.544  35.056  1.00  0.00     0.041 A 
ATOM     99  F   UNL A   1      45.897  29.354  33.787  1.00  0.00    -0.206 F 
ATOM    100  C   UNL A   1      46.450  26.334  35.704  1.00  0.00     0.022 A 
BRANCH  97 101
ATOM    101  S   UNL A   1      44.899  24.223  36.569  1.00  0.00     0.124 S 
ATOM    102  O   UNL A   1      43.869  23.556  35.774  1.00  0.00    -0.237 OA
ATOM    103  O   UNL A   1      46.213  23.587  36.546  1.00  0.00    -0.237 OA
ATOM    104  O   UNL A   1      44.459  24.707  37.873  1.00  0.00    -0.744 OA
ENDBRANCH  97 101
ENDBRANCH  71  94
ENDBRANCH  45  46
ENDBRANCH  37  40
ENDBRANCH   1  36
TORSDOF 14
ENDMDL
