MODEL 1
REMARK VINA RESULT:     -10.5      0.000      0.000
REMARK SMILES O=C(C[C@](O)(c1ccco1)C(F)(F)F)NCCCNC(=O)c1ccc(-c2c3nc(c(-c4cc(S(=O)(=O)[O-])ccc4F)c4ccc([nH]4)c(-c4cc(S(=O)(=O)[O-])ccc4F)c4nc(c(-c5cc(S(=O)(=O)[O-])ccc5F)c5ccc2[nH]5)C=C4)C=C3)cc1
REMARK SMILES IDX 17 1 16 2 15 3 1 4 2 5 3 7 4 8 6 9 7 10 10 11 8 12 9 13
REMARK SMILES IDX 11 14 12 15 13 16 14 17 5 18 18 20 19 21 20 22 21 24 22 25
REMARK SMILES IDX 23 26 84 27 24 28 83 29 25 30 26 31 27 32 77 33 28 34 82 35
REMARK SMILES IDX 76 36 78 37 29 38 81 39 75 40 74 41 30 43 62 44 42 45 61 46
REMARK SMILES IDX 43 47 46 48 60 49 79 50 44 51 45 52 59 54 80 55 47 56 31 57
REMARK SMILES IDX 32 58 40 59 33 60 39 61 41 62 38 63 34 64 35 65 36 66 37 67
REMARK SMILES IDX 63 68 64 69 72 70 65 71 71 72 73 73 70 74 66 75 67 76 68 77
REMARK SMILES IDX 69 78 48 79 49 80 57 81 50 82 56 83 58 84 55 85 51 86 52 87
REMARK SMILES IDX 53 88 54 89
REMARK H PARENT 15 6 5 19 19 23 78 42 46 53
REMARK Flexibility Score: inf
ROOT
ATOM      1  C   UNL A   1      41.522  19.839  26.736  1.00  0.00     0.042 C 
ENDROOT
BRANCH   1   2
ATOM      2  C   UNL A   1      42.767  19.451  25.947  1.00  0.00     0.117 C 
BRANCH   2   3
ATOM      3  N   UNL A   1      43.839  20.413  26.108  1.00  0.00    -0.356 N 
ATOM      4  O   UNL A   1      44.521  20.411  23.905  1.00  0.00    -0.275 OA
ATOM      5  C   UNL A   1      44.628  20.817  25.062  1.00  0.00     0.223 C 
ATOM      6  H   UNL A   1      44.007  20.791  27.001  1.00  0.00     0.163 HD
BRANCH   5   7
ATOM      7  C   UNL A   1      45.613  21.895  25.425  1.00  0.00     0.153 C 
BRANCH   7   8
ATOM      8  C   UNL A   1      45.299  23.218  24.701  1.00  0.00     0.227 C 
BRANCH   8   9
ATOM      9  C   UNL A   1      46.415  24.182  25.006  1.00  0.00     0.145 A 
ATOM     10  C   UNL A   1      46.906  24.713  26.185  1.00  0.00     0.049 A 
ATOM     11  O   UNL A   1      47.092  24.723  23.951  1.00  0.00    -0.466 OA
ATOM     12  C   UNL A   1      47.939  25.611  25.827  1.00  0.00     0.042 A 
ATOM     13  C   UNL A   1      48.022  25.570  24.456  1.00  0.00     0.195 A 
ENDBRANCH   8   9
BRANCH   8  14
ATOM     14  C   UNL A   1      43.906  23.784  25.100  1.00  0.00     0.425 C 
ATOM     15  F   UNL A   1      43.740  25.085  24.781  1.00  0.00    -0.167 F 
ATOM     16  F   UNL A   1      42.915  23.113  24.457  1.00  0.00    -0.167 F 
ATOM     17  F   UNL A   1      43.672  23.640  26.429  1.00  0.00    -0.167 F 
ENDBRANCH   8  14
BRANCH   8  18
ATOM     18  O   UNL A   1      45.387  22.979  23.274  1.00  0.00    -0.374 OA
ATOM     19  H   UNL A   1      45.720  22.083  23.117  1.00  0.00     0.212 HD
ENDBRANCH   8  18
ENDBRANCH   7   8
ENDBRANCH   5   7
ENDBRANCH   2   3
ENDBRANCH   1   2
BRANCH   1  20
ATOM     20  C   UNL A   1      41.100  21.300  26.599  1.00  0.00     0.118 C 
BRANCH  20  21
ATOM     21  N   UNL A   1      39.762  21.464  26.059  1.00  0.00    -0.352 N 
ATOM     22  C   UNL A   1      38.925  22.552  26.117  1.00  0.00     0.251 C 
ATOM     23  H   UNL A   1      39.403  20.683  25.581  1.00  0.00     0.163 HD
ATOM     24  O   UNL A   1      37.764  22.431  25.720  1.00  0.00    -0.269 OA
BRANCH  22  25
ATOM     25  C   UNL A   1      39.386  23.845  26.675  1.00  0.00     0.039 A 
ATOM     26  C   UNL A   1      39.996  24.764  25.816  1.00  0.00     0.014 A 
ATOM     27  C   UNL A   1      39.261  24.150  28.034  1.00  0.00     0.014 A 
ATOM     28  C   UNL A   1      40.439  25.995  26.307  1.00  0.00     0.010 A 
ATOM     29  C   UNL A   1      39.631  25.410  28.507  1.00  0.00     0.010 A 
ATOM     30  C   UNL A   1      40.241  26.341  27.653  1.00  0.00    -0.014 A 
BRANCH  30  31
ATOM     31  C   UNL A   1      40.708  27.653  28.179  1.00  0.00     0.031 A 
ATOM     32  C   UNL A   1      42.175  28.001  28.159  1.00  0.00     0.074 A 
ATOM     33  C   UNL A   1      39.819  28.526  28.695  1.00  0.00     0.049 A 
ATOM     34  N   UNL A   1      42.777  29.084  28.579  1.00  0.00    -0.248 NA
ATOM     35  C   UNL A   1      43.087  26.979  27.625  1.00  0.00     0.031 C 
ATOM     36  C   UNL A   1      38.377  28.292  28.812  1.00  0.00     0.029 A 
ATOM     37  N   UNL A   1      39.992  29.785  29.213  1.00  0.00    -0.354 N 
ATOM     38  C   UNL A   1      44.136  28.873  28.367  1.00  0.00     0.074 A 
ATOM     39  C   UNL A   1      44.271  27.528  27.850  1.00  0.00     0.031 C 
ATOM     40  C   UNL A   1      37.796  29.384  29.335  1.00  0.00     0.029 A 
ATOM     41  C   UNL A   1      38.822  30.382  29.625  1.00  0.00     0.049 A 
ATOM     42  H   UNL A   1      40.871  30.222  29.284  1.00  0.00     0.167 HD
ATOM     43  C   UNL A   1      45.173  29.727  28.558  1.00  0.00     0.034 A 
ATOM     44  C   UNL A   1      38.599  31.593  30.172  1.00  0.00     0.034 A 
ATOM     45  C   UNL A   1      45.022  31.072  29.062  1.00  0.00     0.049 A 
ATOM     46  C   UNL A   1      39.766  32.528  30.375  1.00  0.00     0.074 A 
ATOM     47  C   UNL A   1      45.997  32.035  29.257  1.00  0.00     0.029 A 
ATOM     48  N   UNL A   1      43.819  31.645  29.455  1.00  0.00    -0.354 N 
ATOM     49  N   UNL A   1      41.040  32.329  30.122  1.00  0.00    -0.248 NA
ATOM     50  C   UNL A   1      39.460  33.858  30.916  1.00  0.00     0.031 C 
ATOM     51  C   UNL A   1      45.396  33.163  29.825  1.00  0.00     0.029 A 
ATOM     52  C   UNL A   1      44.031  32.938  29.910  1.00  0.00     0.049 A 
ATOM     53  H   UNL A   1      42.943  31.198  29.416  1.00  0.00     0.167 HD
ATOM     54  C   UNL A   1      41.679  33.527  30.435  1.00  0.00     0.074 A 
ATOM     55  C   UNL A   1      40.648  34.442  30.880  1.00  0.00     0.031 C 
ATOM     56  C   UNL A   1      42.998  33.843  30.356  1.00  0.00     0.034 A 
BRANCH  43  57
ATOM     57  C   UNL A   1      46.560  29.216  28.238  1.00  0.00     0.023 A 
ATOM     58  C   UNL A   1      47.318  28.498  29.180  1.00  0.00     0.031 A 
ATOM     59  C   UNL A   1      47.148  29.479  26.988  1.00  0.00     0.131 A 
ATOM     60  C   UNL A   1      48.645  28.143  28.890  1.00  0.00     0.055 A 
ATOM     61  C   UNL A   1      48.436  29.044  26.673  1.00  0.00     0.041 A 
ATOM     62  F   UNL A   1      46.483  30.177  26.053  1.00  0.00    -0.206 F 
ATOM     63  C   UNL A   1      49.201  28.388  27.633  1.00  0.00     0.022 A 
BRANCH  60  64
ATOM     64  S   UNL A   1      49.683  27.502  30.233  1.00  0.00     0.124 S 
ATOM     65  O   UNL A   1      49.242  26.111  30.306  1.00  0.00    -0.237 OA
ATOM     66  O   UNL A   1      51.031  27.721  29.722  1.00  0.00    -0.237 OA
ATOM     67  O   UNL A   1      49.308  28.328  31.379  1.00  0.00    -0.744 OA
ENDBRANCH  60  64
ENDBRANCH  43  57
BRANCH  44  68
ATOM     68  C   UNL A   1      37.219  32.007  30.561  1.00  0.00     0.023 A 
ATOM     69  C   UNL A   1      36.358  32.618  29.637  1.00  0.00     0.031 A 
ATOM     70  C   UNL A   1      36.761  31.841  31.879  1.00  0.00     0.131 A 
ATOM     71  C   UNL A   1      35.103  33.089  30.054  1.00  0.00     0.055 A 
ATOM     72  C   UNL A   1      35.490  32.261  32.277  1.00  0.00     0.041 A 
ATOM     73  F   UNL A   1      37.541  31.256  32.803  1.00  0.00    -0.206 F 
ATOM     74  C   UNL A   1      34.659  32.904  31.365  1.00  0.00     0.022 A 
BRANCH  71  75
ATOM     75  S   UNL A   1      34.093  34.034  28.879  1.00  0.00     0.124 S 
ATOM     76  O   UNL A   1      33.075  34.604  29.754  1.00  0.00    -0.237 OA
ATOM     77  O   UNL A   1      35.068  34.971  28.330  1.00  0.00    -0.237 OA
ATOM     78  O   UNL A   1      33.617  33.016  27.946  1.00  0.00    -0.744 OA
ENDBRANCH  71  75
ENDBRANCH  44  68
BRANCH  56  79
ATOM     79  C   UNL A   1      43.384  35.262  30.701  1.00  0.00     0.023 A 
ATOM     80  C   UNL A   1      43.572  35.682  32.030  1.00  0.00     0.031 A 
ATOM     81  C   UNL A   1      43.538  36.218  29.680  1.00  0.00     0.131 A 
ATOM     82  C   UNL A   1      43.829  37.033  32.308  1.00  0.00     0.055 A 
ATOM     83  C   UNL A   1      43.862  37.546  29.958  1.00  0.00     0.041 A 
ATOM     84  F   UNL A   1      43.370  35.876  28.392  1.00  0.00    -0.206 F 
ATOM     85  C   UNL A   1      43.991  37.965  31.279  1.00  0.00     0.022 A 
BRANCH  82  86
ATOM     86  S   UNL A   1      43.829  37.583  34.036  1.00  0.00     0.124 S 
ATOM     87  O   UNL A   1      43.367  36.389  34.735  1.00  0.00    -0.237 OA
ATOM     88  O   UNL A   1      45.228  37.943  34.248  1.00  0.00    -0.237 OA
ATOM     89  O   UNL A   1      42.893  38.705  34.041  1.00  0.00    -0.744 OA
ENDBRANCH  82  86
ENDBRANCH  56  79
ENDBRANCH  30  31
ENDBRANCH  22  25
ENDBRANCH  20  21
ENDBRANCH   1  20
TORSDOF 17
ENDMDL
MODEL 2
REMARK VINA RESULT:     -10.3      4.277     11.890
REMARK SMILES O=C(C[C@](O)(c1ccco1)C(F)(F)F)NCCCNC(=O)c1ccc(-c2c3nc(c(-c4cc(S(=O)(=O)[O-])ccc4F)c4ccc([nH]4)c(-c4cc(S(=O)(=O)[O-])ccc4F)c4nc(c(-c5cc(S(=O)(=O)[O-])ccc5F)c5ccc2[nH]5)C=C4)C=C3)cc1
REMARK SMILES IDX 17 1 16 2 15 3 1 4 2 5 3 7 4 8 6 9 7 10 10 11 8 12 9 13
REMARK SMILES IDX 11 14 12 15 13 16 14 17 5 18 18 20 19 21 20 22 21 24 22 25
REMARK SMILES IDX 23 26 84 27 24 28 83 29 25 30 26 31 27 32 77 33 28 34 82 35
REMARK SMILES IDX 76 36 78 37 29 38 81 39 75 40 74 41 30 43 62 44 42 45 61 46
REMARK SMILES IDX 43 47 46 48 60 49 79 50 44 51 45 52 59 54 80 55 47 56 31 57
REMARK SMILES IDX 32 58 40 59 33 60 39 61 41 62 38 63 34 64 35 65 36 66 37 67
REMARK SMILES IDX 63 68 64 69 72 70 65 71 71 72 73 73 70 74 66 75 67 76 68 77
REMARK SMILES IDX 69 78 48 79 49 80 57 81 50 82 56 83 58 84 55 85 51 86 52 87
REMARK SMILES IDX 53 88 54 89
REMARK H PARENT 15 6 5 19 19 23 78 42 46 53
REMARK Flexibility Score: inf
ROOT
ATOM      1  C   UNL A   1      34.037  34.718  28.013  1.00  0.00     0.042 C 
ENDROOT
BRANCH   1   2
ATOM      2  C   UNL A   1      33.454  35.335  29.278  1.00  0.00     0.117 C 
BRANCH   2   3
ATOM      3  N   UNL A   1      34.399  35.328  30.377  1.00  0.00    -0.356 N 
ATOM      4  O   UNL A   1      32.855  34.941  32.045  1.00  0.00    -0.275 OA
ATOM      5  C   UNL A   1      34.015  35.125  31.677  1.00  0.00     0.223 C 
ATOM      6  H   UNL A   1      35.352  35.475  30.182  1.00  0.00     0.163 HD
BRANCH   5   7
ATOM      7  C   UNL A   1      35.163  35.056  32.645  1.00  0.00     0.153 C 
BRANCH   7   8
ATOM      8  C   UNL A   1      35.320  33.644  33.241  1.00  0.00     0.227 C 
BRANCH   8   9
ATOM      9  C   UNL A   1      36.461  33.686  34.224  1.00  0.00     0.145 A 
ATOM     10  C   UNL A   1      37.748  34.188  34.153  1.00  0.00     0.049 A 
ATOM     11  O   UNL A   1      36.278  33.080  35.433  1.00  0.00    -0.466 OA
ATOM     12  C   UNL A   1      38.371  33.881  35.386  1.00  0.00     0.042 A 
ATOM     13  C   UNL A   1      37.429  33.219  36.135  1.00  0.00     0.195 A 
ENDBRANCH   8   9
BRANCH   8  14
ATOM     14  C   UNL A   1      35.533  32.568  32.138  1.00  0.00     0.425 C 
ATOM     15  F   UNL A   1      34.413  32.280  31.440  1.00  0.00    -0.167 F 
ATOM     16  F   UNL A   1      36.442  32.994  31.223  1.00  0.00    -0.167 F 
ATOM     17  F   UNL A   1      36.018  31.412  32.657  1.00  0.00    -0.167 F 
ENDBRANCH   8  14
BRANCH   8  18
ATOM     18  O   UNL A   1      34.144  33.362  34.040  1.00  0.00    -0.374 OA
ATOM     19  H   UNL A   1      33.505  34.084  33.940  1.00  0.00     0.212 HD
ENDBRANCH   8  18
ENDBRANCH   7   8
ENDBRANCH   5   7
ENDBRANCH   2   3
ENDBRANCH   1   2
BRANCH   1  20
ATOM     20  C   UNL A   1      34.684  33.348  28.201  1.00  0.00     0.118 C 
BRANCH  20  21
ATOM     21  N   UNL A   1      33.861  32.252  27.724  1.00  0.00    -0.352 N 
ATOM     22  C   UNL A   1      34.160  30.915  27.627  1.00  0.00     0.251 C 
ATOM     23  H   UNL A   1      32.956  32.502  27.429  1.00  0.00     0.163 HD
ATOM     24  O   UNL A   1      33.365  30.168  27.051  1.00  0.00    -0.269 OA
BRANCH  22  25
ATOM     25  C   UNL A   1      35.427  30.370  28.170  1.00  0.00     0.039 A 
ATOM     26  C   UNL A   1      36.578  30.445  27.381  1.00  0.00     0.014 A 
ATOM     27  C   UNL A   1      35.489  29.755  29.424  1.00  0.00     0.014 A 
ATOM     28  C   UNL A   1      37.791  29.945  27.863  1.00  0.00     0.010 A 
ATOM     29  C   UNL A   1      36.715  29.329  29.936  1.00  0.00     0.010 A 
ATOM     30  C   UNL A   1      37.878  29.402  29.154  1.00  0.00    -0.014 A 
BRANCH  30  31
ATOM     31  C   UNL A   1      39.169  28.872  29.673  1.00  0.00     0.031 A 
ATOM     32  C   UNL A   1      39.813  29.496  30.885  1.00  0.00     0.074 A 
ATOM     33  C   UNL A   1      39.775  27.845  29.045  1.00  0.00     0.049 A 
ATOM     34  N   UNL A   1      40.937  29.185  31.480  1.00  0.00    -0.248 NA
ATOM     35  C   UNL A   1      39.116  30.642  31.486  1.00  0.00     0.031 C 
ATOM     36  C   UNL A   1      39.278  27.181  27.838  1.00  0.00     0.029 A 
ATOM     37  N   UNL A   1      40.939  27.174  29.334  1.00  0.00    -0.354 N 
ATOM     38  C   UNL A   1      41.084  30.099  32.519  1.00  0.00     0.074 A 
ATOM     39  C   UNL A   1      39.971  31.019  32.423  1.00  0.00     0.031 C 
ATOM     40  C   UNL A   1      40.112  26.180  27.511  1.00  0.00     0.029 A 
ATOM     41  C   UNL A   1      41.221  26.150  28.459  1.00  0.00     0.049 A 
ATOM     42  H   UNL A   1      41.517  27.404  30.096  1.00  0.00     0.167 HD
ATOM     43  C   UNL A   1      42.041  30.152  33.480  1.00  0.00     0.034 A 
ATOM     44  C   UNL A   1      42.253  25.284  28.424  1.00  0.00     0.034 A 
ATOM     45  C   UNL A   1      43.139  29.219  33.572  1.00  0.00     0.049 A 
ATOM     46  C   UNL A   1      43.306  25.360  29.503  1.00  0.00     0.074 A 
ATOM     47  C   UNL A   1      44.141  29.155  34.526  1.00  0.00     0.029 A 
ATOM     48  N   UNL A   1      43.384  28.186  32.675  1.00  0.00    -0.354 N 
ATOM     49  N   UNL A   1      43.402  26.201  30.508  1.00  0.00    -0.248 NA
ATOM     50  C   UNL A   1      44.375  24.354  29.455  1.00  0.00     0.031 C 
ATOM     51  C   UNL A   1      45.023  28.129  34.171  1.00  0.00     0.029 A 
ATOM     52  C   UNL A   1      44.530  27.495  33.042  1.00  0.00     0.049 A 
ATOM     53  H   UNL A   1      42.824  27.975  31.893  1.00  0.00     0.167 HD
ATOM     54  C   UNL A   1      44.521  25.796  31.233  1.00  0.00     0.074 A 
ATOM     55  C   UNL A   1      45.053  24.631  30.558  1.00  0.00     0.031 C 
ATOM     56  C   UNL A   1      45.056  26.336  32.360  1.00  0.00     0.034 A 
BRANCH  43  57
ATOM     57  C   UNL A   1      41.946  31.272  34.492  1.00  0.00     0.023 A 
ATOM     58  C   UNL A   1      42.389  32.574  34.198  1.00  0.00     0.031 A 
ATOM     59  C   UNL A   1      41.437  31.029  35.781  1.00  0.00     0.131 A 
ATOM     60  C   UNL A   1      42.394  33.557  35.199  1.00  0.00     0.055 A 
ATOM     61  C   UNL A   1      41.362  32.036  36.745  1.00  0.00     0.041 A 
ATOM     62  F   UNL A   1      41.017  29.803  36.130  1.00  0.00    -0.206 F 
ATOM     63  C   UNL A   1      41.859  33.305  36.464  1.00  0.00     0.022 A 
BRANCH  60  64
ATOM     64  S   UNL A   1      43.257  35.120  34.873  1.00  0.00     0.124 S 
ATOM     65  O   UNL A   1      44.272  34.699  33.911  1.00  0.00    -0.237 OA
ATOM     66  O   UNL A   1      42.190  35.966  34.349  1.00  0.00    -0.237 OA
ATOM     67  O   UNL A   1      43.773  35.505  36.185  1.00  0.00    -0.744 OA
ENDBRANCH  60  64
ENDBRANCH  43  57
BRANCH  44  68
ATOM     68  C   UNL A   1      42.349  24.261  27.343  1.00  0.00     0.023 A 
ATOM     69  C   UNL A   1      41.709  23.018  27.462  1.00  0.00     0.031 A 
ATOM     70  C   UNL A   1      43.124  24.496  26.193  1.00  0.00     0.131 A 
ATOM     71  C   UNL A   1      41.898  22.035  26.477  1.00  0.00     0.055 A 
ATOM     72  C   UNL A   1      43.264  23.536  25.189  1.00  0.00     0.041 A 
ATOM     73  F   UNL A   1      43.751  25.671  26.025  1.00  0.00    -0.206 F 
ATOM     74  C   UNL A   1      42.661  22.291  25.335  1.00  0.00     0.022 A 
BRANCH  71  75
ATOM     75  S   UNL A   1      41.205  20.381  26.754  1.00  0.00     0.124 S 
ATOM     76  O   UNL A   1      42.357  19.528  26.484  1.00  0.00    -0.237 OA
ATOM     77  O   UNL A   1      40.779  20.463  28.147  1.00  0.00    -0.237 OA
ATOM     78  O   UNL A   1      40.123  20.298  25.776  1.00  0.00    -0.744 OA
ENDBRANCH  71  75
ENDBRANCH  44  68
BRANCH  56  79
ATOM     79  C   UNL A   1      46.245  25.625  32.963  1.00  0.00     0.023 A 
ATOM     80  C   UNL A   1      46.096  24.584  33.895  1.00  0.00     0.031 A 
ATOM     81  C   UNL A   1      47.550  26.021  32.618  1.00  0.00     0.131 A 
ATOM     82  C   UNL A   1      47.229  24.024  34.505  1.00  0.00     0.055 A 
ATOM     83  C   UNL A   1      48.675  25.413  33.177  1.00  0.00     0.041 A 
ATOM     84  F   UNL A   1      47.754  27.011  31.734  1.00  0.00    -0.206 F 
ATOM     85  C   UNL A   1      48.518  24.421  34.140  1.00  0.00     0.022 A 
BRANCH  82  86
ATOM     86  S   UNL A   1      46.995  22.853  35.871  1.00  0.00     0.124 S 
ATOM     87  O   UNL A   1      46.309  21.748  35.210  1.00  0.00    -0.237 OA
ATOM     88  O   UNL A   1      48.367  22.589  36.294  1.00  0.00    -0.237 OA
ATOM     89  O   UNL A   1      46.184  23.601  36.830  1.00  0.00    -0.744 OA
ENDBRANCH  82  86
ENDBRANCH  56  79
ENDBRANCH  30  31
ENDBRANCH  22  25
ENDBRANCH  20  21
ENDBRANCH   1  20
TORSDOF 17
ENDMDL
MODEL 3
REMARK VINA RESULT:     -10.1      1.566      2.231
REMARK SMILES O=C(C[C@](O)(c1ccco1)C(F)(F)F)NCCCNC(=O)c1ccc(-c2c3nc(c(-c4cc(S(=O)(=O)[O-])ccc4F)c4ccc([nH]4)c(-c4cc(S(=O)(=O)[O-])ccc4F)c4nc(c(-c5cc(S(=O)(=O)[O-])ccc5F)c5ccc2[nH]5)C=C4)C=C3)cc1
REMARK SMILES IDX 17 1 16 2 15 3 1 4 2 5 3 7 4 8 6 9 7 10 10 11 8 12 9 13
REMARK SMILES IDX 11 14 12 15 13 16 14 17 5 18 18 20 19 21 20 22 21 24 22 25
REMARK SMILES IDX 23 26 84 27 24 28 83 29 25 30 26 31 27 32 77 33 28 34 82 35
REMARK SMILES IDX 76 36 78 37 29 38 81 39 75 40 74 41 30 43 62 44 42 45 61 46
REMARK SMILES IDX 43 47 46 48 60 49 79 50 44 51 45 52 59 54 80 55 47 56 31 57
REMARK SMILES IDX 32 58 40 59 33 60 39 61 41 62 38 63 34 64 35 65 36 66 37 67
REMARK SMILES IDX 63 68 64 69 72 70 65 71 71 72 73 73 70 74 66 75 67 76 68 77
REMARK SMILES IDX 69 78 48 79 49 80 57 81 50 82 56 83 58 84 55 85 51 86 52 87
REMARK SMILES IDX 53 88 54 89
REMARK H PARENT 15 6 5 19 19 23 78 42 46 53
REMARK Flexibility Score: inf
ROOT
ATOM      1  C   UNL A   1      41.283  19.946  27.084  1.00  0.00     0.042 C 
ENDROOT
BRANCH   1   2
ATOM      2  C   UNL A   1      42.413  19.879  26.063  1.00  0.00     0.117 C 
BRANCH   2   3
ATOM      3  N   UNL A   1      42.889  21.195  25.687  1.00  0.00    -0.356 N 
ATOM      4  O   UNL A   1      45.078  20.579  25.304  1.00  0.00    -0.275 OA
ATOM      5  C   UNL A   1      44.192  21.433  25.332  1.00  0.00     0.223 C 
ATOM      6  H   UNL A   1      42.254  21.946  25.686  1.00  0.00     0.163 HD
BRANCH   5   7
ATOM      7  C   UNL A   1      44.451  22.844  24.881  1.00  0.00     0.153 C 
BRANCH   7   8
ATOM      8  C   UNL A   1      45.285  23.626  25.913  1.00  0.00     0.227 C 
BRANCH   8   9
ATOM      9  C   UNL A   1      44.534  23.606  27.219  1.00  0.00     0.145 A 
ATOM     10  C   UNL A   1      44.922  23.374  28.526  1.00  0.00     0.049 A 
ATOM     11  O   UNL A   1      43.183  23.797  27.175  1.00  0.00    -0.466 OA
ATOM     12  C   UNL A   1      43.749  23.440  29.315  1.00  0.00     0.042 A 
ATOM     13  C   UNL A   1      42.720  23.713  28.447  1.00  0.00     0.195 A 
ENDBRANCH   8   9
BRANCH   8  14
ATOM     14  C   UNL A   1      45.596  25.073  25.434  1.00  0.00     0.425 C 
ATOM     15  F   UNL A   1      46.075  25.874  26.410  1.00  0.00    -0.167 F 
ATOM     16  F   UNL A   1      46.546  25.061  24.463  1.00  0.00    -0.167 F 
ATOM     17  F   UNL A   1      44.500  25.666  24.898  1.00  0.00    -0.167 F 
ENDBRANCH   8  14
BRANCH   8  18
ATOM     18  O   UNL A   1      46.500  22.877  26.167  1.00  0.00    -0.374 OA
ATOM     19  H   UNL A   1      46.617  22.765  27.122  1.00  0.00     0.212 HD
ENDBRANCH   8  18
ENDBRANCH   7   8
ENDBRANCH   5   7
ENDBRANCH   2   3
ENDBRANCH   1   2
BRANCH   1  20
ATOM     20  C   UNL A   1      40.655  21.326  27.263  1.00  0.00     0.118 C 
BRANCH  20  21
ATOM     21  N   UNL A   1      39.472  21.531  26.446  1.00  0.00    -0.352 N 
ATOM     22  C   UNL A   1      38.764  22.684  26.212  1.00  0.00     0.251 C 
ATOM     23  H   UNL A   1      39.130  20.728  25.994  1.00  0.00     0.163 HD
ATOM     24  O   UNL A   1      37.695  22.611  25.602  1.00  0.00    -0.269 OA
BRANCH  22  25
ATOM     25  C   UNL A   1      39.246  23.996  26.706  1.00  0.00     0.039 A 
ATOM     26  C   UNL A   1      38.943  24.367  28.019  1.00  0.00     0.014 A 
ATOM     27  C   UNL A   1      39.957  24.878  25.886  1.00  0.00     0.014 A 
ATOM     28  C   UNL A   1      39.385  25.595  28.519  1.00  0.00     0.010 A 
ATOM     29  C   UNL A   1      40.466  26.067  26.411  1.00  0.00     0.010 A 
ATOM     30  C   UNL A   1      40.171  26.448  27.728  1.00  0.00    -0.014 A 
BRANCH  30  31
ATOM     31  C   UNL A   1      40.648  27.756  28.259  1.00  0.00     0.031 A 
ATOM     32  C   UNL A   1      42.124  28.047  28.342  1.00  0.00     0.074 A 
ATOM     33  C   UNL A   1      39.757  28.673  28.686  1.00  0.00     0.049 A 
ATOM     34  N   UNL A   1      42.735  29.118  28.782  1.00  0.00    -0.248 NA
ATOM     35  C   UNL A   1      43.033  26.980  27.901  1.00  0.00     0.031 C 
ATOM     36  C   UNL A   1      38.303  28.496  28.699  1.00  0.00     0.029 A 
ATOM     37  N   UNL A   1      39.940  29.938  29.188  1.00  0.00    -0.354 N 
ATOM     38  C   UNL A   1      44.097  28.851  28.678  1.00  0.00     0.074 A 
ATOM     39  C   UNL A   1      44.217  27.490  28.203  1.00  0.00     0.031 C 
ATOM     40  C   UNL A   1      37.727  29.621  29.153  1.00  0.00     0.029 A 
ATOM     41  C   UNL A   1      38.766  30.588  29.497  1.00  0.00     0.049 A 
ATOM     42  H   UNL A   1      40.828  30.343  29.315  1.00  0.00     0.167 HD
ATOM     43  C   UNL A   1      45.149  29.671  28.928  1.00  0.00     0.034 A 
ATOM     44  C   UNL A   1      38.551  31.819  29.999  1.00  0.00     0.034 A 
ATOM     45  C   UNL A   1      45.013  31.033  29.389  1.00  0.00     0.049 A 
ATOM     46  C   UNL A   1      39.735  32.715  30.269  1.00  0.00     0.074 A 
ATOM     47  C   UNL A   1      46.008  31.964  29.636  1.00  0.00     0.029 A 
ATOM     48  N   UNL A   1      43.808  31.660  29.678  1.00  0.00    -0.354 N 
ATOM     49  N   UNL A   1      41.015  32.463  30.117  1.00  0.00    -0.248 NA
ATOM     50  C   UNL A   1      39.441  34.069  30.755  1.00  0.00     0.031 C 
ATOM     51  C   UNL A   1      45.411  33.127  30.132  1.00  0.00     0.029 A 
ATOM     52  C   UNL A   1      44.036  32.955  30.118  1.00  0.00     0.049 A 
ATOM     53  H   UNL A   1      42.920  31.245  29.582  1.00  0.00     0.167 HD
ATOM     54  C   UNL A   1      41.675  33.643  30.451  1.00  0.00     0.074 A 
ATOM     55  C   UNL A   1      40.650  34.607  30.797  1.00  0.00     0.031 C 
ATOM     56  C   UNL A   1      43.007  33.909  30.465  1.00  0.00     0.034 A 
BRANCH  43  57
ATOM     57  C   UNL A   1      46.535  29.101  28.726  1.00  0.00     0.023 A 
ATOM     58  C   UNL A   1      47.097  28.960  27.444  1.00  0.00     0.031 A 
ATOM     59  C   UNL A   1      47.294  28.661  29.825  1.00  0.00     0.131 A 
ATOM     60  C   UNL A   1      48.335  28.319  27.287  1.00  0.00     0.055 A 
ATOM     61  C   UNL A   1      48.565  28.106  29.668  1.00  0.00     0.041 A 
ATOM     62  F   UNL A   1      46.805  28.749  31.073  1.00  0.00    -0.206 F 
ATOM     63  C   UNL A   1      49.086  27.915  28.391  1.00  0.00     0.022 A 
BRANCH  60  64
ATOM     64  S   UNL A   1      48.875  27.879  25.611  1.00  0.00     0.124 S 
ATOM     65  O   UNL A   1      50.060  28.719  25.454  1.00  0.00    -0.237 OA
ATOM     66  O   UNL A   1      49.117  26.445  25.724  1.00  0.00    -0.237 OA
ATOM     67  O   UNL A   1      47.737  28.257  24.775  1.00  0.00    -0.744 OA
ENDBRANCH  60  64
ENDBRANCH  43  57
BRANCH  44  68
ATOM     68  C   UNL A   1      37.163  32.294  30.273  1.00  0.00     0.023 A 
ATOM     69  C   UNL A   1      36.372  32.849  29.255  1.00  0.00     0.031 A 
ATOM     70  C   UNL A   1      36.626  32.243  31.571  1.00  0.00     0.131 A 
ATOM     71  C   UNL A   1      35.108  33.380  29.561  1.00  0.00     0.055 A 
ATOM     72  C   UNL A   1      35.347  32.722  31.860  1.00  0.00     0.041 A 
ATOM     73  F   UNL A   1      37.337  31.715  32.581  1.00  0.00    -0.206 F 
ATOM     74  C   UNL A   1      34.586  33.309  30.854  1.00  0.00     0.022 A 
BRANCH  71  75
ATOM     75  S   UNL A   1      34.193  34.252  28.259  1.00  0.00     0.124 S 
ATOM     76  O   UNL A   1      33.108  33.317  27.982  1.00  0.00    -0.237 OA
ATOM     77  O   UNL A   1      33.817  35.491  28.932  1.00  0.00    -0.237 OA
ATOM     78  O   UNL A   1      35.179  34.399  27.191  1.00  0.00    -0.744 OA
ENDBRANCH  71  75
ENDBRANCH  44  68
BRANCH  56  79
ATOM     79  C   UNL A   1      43.422  35.321  30.807  1.00  0.00     0.023 A 
ATOM     80  C   UNL A   1      43.579  35.750  32.137  1.00  0.00     0.031 A 
ATOM     81  C   UNL A   1      43.634  36.260  29.781  1.00  0.00     0.131 A 
ATOM     82  C   UNL A   1      43.864  37.097  32.408  1.00  0.00     0.055 A 
ATOM     83  C   UNL A   1      43.986  37.582  30.055  1.00  0.00     0.041 A 
ATOM     84  F   UNL A   1      43.497  35.907  28.492  1.00  0.00    -0.206 F 
ATOM     85  C   UNL A   1      44.085  38.012  31.375  1.00  0.00     0.022 A 
BRANCH  82  86
ATOM     86  S   UNL A   1      43.826  37.667  34.129  1.00  0.00     0.124 S 
ATOM     87  O   UNL A   1      45.191  38.146  34.322  1.00  0.00    -0.237 OA
ATOM     88  O   UNL A   1      42.789  38.693  34.094  1.00  0.00    -0.237 OA
ATOM     89  O   UNL A   1      43.481  36.463  34.882  1.00  0.00    -0.744 OA
ENDBRANCH  82  86
ENDBRANCH  56  79
ENDBRANCH  30  31
ENDBRANCH  22  25
ENDBRANCH  20  21
ENDBRANCH   1  20
TORSDOF 17
ENDMDL
