MODEL 1
REMARK VINA RESULT:      -9.4      0.000      0.000
REMARK SMILES C=CC[N@@H+](CC(=O)NCCCNC(=O)c1ccc(-c2c3nc(c(-c4cc(S(=O)(=O)[O-])ccc4F)c4ccc([nH]4)c(-c4cc(S(=O)(=O)[O-])ccc4F)c4nc(c(-c5cc(S(=O)(=O)[O-])ccc5F)c5ccc2[nH]5)C=C4)C=C3)cc1)C1CCCCC1
REMARK SMILES IDX 10 1 9 2 8 3 6 4 7 5 5 7 4 8 3 10 2 11 1 12 78 13 79 14
REMARK SMILES IDX 83 15 80 16 82 17 81 18 11 19 12 20 13 21 14 23 15 24 16 25
REMARK SMILES IDX 77 26 17 27 76 28 18 29 19 30 20 31 70 32 21 33 75 34 69 35
REMARK SMILES IDX 71 36 22 37 74 38 68 39 67 40 23 42 55 43 35 44 54 45 36 46
REMARK SMILES IDX 39 47 53 48 72 49 37 50 38 51 52 53 73 54 40 55 24 56 25 57
REMARK SMILES IDX 33 58 26 59 32 60 34 61 31 62 27 63 28 64 29 65 30 66 56 67
REMARK SMILES IDX 57 68 65 69 58 70 64 71 66 72 63 73 59 74 60 75 61 76 62 77
REMARK SMILES IDX 41 78 42 79 50 80 43 81 49 82 51 83 48 84 44 85 45 86 46 87
REMARK SMILES IDX 47 88
REMARK H PARENT 8 6 4 9 12 22 71 41 39 52
REMARK Flexibility Score: inf
ROOT
ATOM      1  C   UNL A   1      33.983  34.529  28.118  1.00  0.00     0.042 C 
ENDROOT
BRANCH   1   2
ATOM      2  C   UNL A   1      33.891  35.137  29.520  1.00  0.00     0.118 C 
BRANCH   2   3
ATOM      3  N   UNL A   1      33.735  34.133  30.557  1.00  0.00    -0.351 N 
ATOM      4  C   UNL A   1      34.424  33.880  31.702  1.00  0.00     0.275 C 
ATOM      5  O   UNL A   1      33.871  33.093  32.485  1.00  0.00    -0.269 OA
ATOM      6  H   UNL A   1      32.985  33.515  30.401  1.00  0.00     0.163 HD
BRANCH   4   7
ATOM      7  C   UNL A   1      35.752  34.547  32.109  1.00  0.00     0.364 C 
BRANCH   7   8
ATOM      8  N   UNL A   1      37.024  33.791  31.959  1.00  0.00    -0.321 N 
ATOM      9  H   UNL A   1      37.767  34.450  31.726  1.00  0.00     0.349 HD
BRANCH   8  10
ATOM     10  C   UNL A   1      37.032  32.962  30.764  1.00  0.00     0.291 C 
BRANCH  10  11
ATOM     11  C   UNL A   1      38.021  33.214  29.668  1.00  0.00     0.025 C 
ATOM     12  C   UNL A   1      38.854  34.268  29.684  1.00  0.00     0.010 C 
ENDBRANCH  10  11
ENDBRANCH   8  10
BRANCH   8  13
ATOM     13  C   UNL A   1      37.749  33.405  33.198  1.00  0.00     0.184 C 
ATOM     14  C   UNL A   1      38.113  34.557  34.165  1.00  0.00     0.065 C 
ATOM     15  C   UNL A   1      37.096  32.253  33.998  1.00  0.00     0.065 C 
ATOM     16  C   UNL A   1      38.820  34.117  35.449  1.00  0.00     0.006 C 
ATOM     17  C   UNL A   1      37.861  31.838  35.251  1.00  0.00     0.006 C 
ATOM     18  C   UNL A   1      38.060  33.026  36.176  1.00  0.00     0.000 C 
ENDBRANCH   8  13
ENDBRANCH   7   8
ENDBRANCH   4   7
ENDBRANCH   2   3
ENDBRANCH   1   2
BRANCH   1  19
ATOM     19  C   UNL A   1      34.829  33.271  28.002  1.00  0.00     0.118 C 
BRANCH  19  20
ATOM     20  N   UNL A   1      34.051  32.099  27.644  1.00  0.00    -0.352 N 
ATOM     21  C   UNL A   1      34.381  30.767  27.559  1.00  0.00     0.251 C 
ATOM     22  H   UNL A   1      33.113  32.295  27.418  1.00  0.00     0.163 HD
ATOM     23  O   UNL A   1      33.565  30.012  27.032  1.00  0.00    -0.269 OA
BRANCH  21  24
ATOM     24  C   UNL A   1      35.677  30.220  28.046  1.00  0.00     0.039 A 
ATOM     25  C   UNL A   1      35.725  29.695  29.345  1.00  0.00     0.014 A 
ATOM     26  C   UNL A   1      36.859  30.283  27.306  1.00  0.00     0.014 A 
ATOM     27  C   UNL A   1      36.927  29.202  29.871  1.00  0.00     0.010 A 
ATOM     28  C   UNL A   1      38.034  29.703  27.792  1.00  0.00     0.010 A 
ATOM     29  C   UNL A   1      38.091  29.173  29.089  1.00  0.00    -0.014 A 
BRANCH  29  30
ATOM     30  C   UNL A   1      39.377  28.641  29.626  1.00  0.00     0.031 A 
ATOM     31  C   UNL A   1      40.010  29.269  30.844  1.00  0.00     0.074 A 
ATOM     32  C   UNL A   1      40.001  27.621  29.003  1.00  0.00     0.049 A 
ATOM     33  N   UNL A   1      41.156  29.002  31.419  1.00  0.00    -0.248 NA
ATOM     34  C   UNL A   1      39.265  30.365  31.479  1.00  0.00     0.031 C 
ATOM     35  C   UNL A   1      39.514  26.938  27.803  1.00  0.00     0.029 A 
ATOM     36  N   UNL A   1      41.182  26.981  29.288  1.00  0.00    -0.354 N 
ATOM     37  C   UNL A   1      41.275  29.905  32.472  1.00  0.00     0.074 A 
ATOM     38  C   UNL A   1      40.118  30.771  32.407  1.00  0.00     0.031 C 
ATOM     39  C   UNL A   1      40.368  25.955  27.478  1.00  0.00     0.029 A 
ATOM     40  C   UNL A   1      41.490  25.967  28.411  1.00  0.00     0.049 A 
ATOM     41  H   UNL A   1      41.756  27.225  30.051  1.00  0.00     0.167 HD
ATOM     42  C   UNL A   1      42.242  29.988  33.422  1.00  0.00     0.034 A 
ATOM     43  C   UNL A   1      42.558  25.145  28.356  1.00  0.00     0.034 A 
ATOM     44  C   UNL A   1      43.384  29.108  33.485  1.00  0.00     0.049 A 
ATOM     45  C   UNL A   1      43.641  25.281  29.396  1.00  0.00     0.074 A 
ATOM     46  C   UNL A   1      44.401  29.077  34.426  1.00  0.00     0.029 A 
ATOM     47  N   UNL A   1      43.668  28.104  32.567  1.00  0.00    -0.354 N 
ATOM     48  N   UNL A   1      43.722  26.120  30.403  1.00  0.00    -0.248 NA
ATOM     49  C   UNL A   1      44.774  24.351  29.295  1.00  0.00     0.031 C 
ATOM     50  C   UNL A   1      45.328  28.101  34.042  1.00  0.00     0.029 A 
ATOM     51  C   UNL A   1      44.855  27.470  32.904  1.00  0.00     0.049 A 
ATOM     52  H   UNL A   1      43.108  27.876  31.791  1.00  0.00     0.167 HD
ATOM     53  C   UNL A   1      44.897  25.794  31.074  1.00  0.00     0.074 A 
ATOM     54  C   UNL A   1      45.485  24.677  30.365  1.00  0.00     0.031 C 
ATOM     55  C   UNL A   1      45.438  26.363  32.182  1.00  0.00     0.034 A 
BRANCH  42  56
ATOM     56  C   UNL A   1      42.106  31.088  34.451  1.00  0.00     0.023 A 
ATOM     57  C   UNL A   1      42.540  32.399  34.189  1.00  0.00     0.031 A 
ATOM     58  C   UNL A   1      41.578  30.816  35.726  1.00  0.00     0.131 A 
ATOM     59  C   UNL A   1      42.529  33.360  35.212  1.00  0.00     0.055 A 
ATOM     60  C   UNL A   1      41.484  31.802  36.712  1.00  0.00     0.041 A 
ATOM     61  F   UNL A   1      41.162  29.580  36.045  1.00  0.00    -0.206 F 
ATOM     62  C   UNL A   1      41.980  33.078  36.464  1.00  0.00     0.022 A 
BRANCH  59  63
ATOM     63  S   UNL A   1      43.401  34.927  34.935  1.00  0.00     0.124 S 
ATOM     64  O   UNL A   1      43.828  35.268  36.291  1.00  0.00    -0.237 OA
ATOM     65  O   UNL A   1      44.463  34.537  34.012  1.00  0.00    -0.237 OA
ATOM     66  O   UNL A   1      42.374  35.798  34.375  1.00  0.00    -0.744 OA
ENDBRANCH  59  63
ENDBRANCH  42  56
BRANCH  43  67
ATOM     67  C   UNL A   1      42.666  24.117  27.280  1.00  0.00     0.023 A 
ATOM     68  C   UNL A   1      42.002  22.886  27.392  1.00  0.00     0.031 A 
ATOM     69  C   UNL A   1      43.467  24.335  26.145  1.00  0.00     0.131 A 
ATOM     70  C   UNL A   1      42.184  21.901  26.409  1.00  0.00     0.055 A 
ATOM     71  C   UNL A   1      43.605  23.370  25.145  1.00  0.00     0.041 A 
ATOM     72  F   UNL A   1      44.121  25.496  25.988  1.00  0.00    -0.206 F 
ATOM     73  C   UNL A   1      42.970  22.140  25.280  1.00  0.00     0.022 A 
BRANCH  70  74
ATOM     74  S   UNL A   1      41.438  20.267  26.668  1.00  0.00     0.124 S 
ATOM     75  O   UNL A   1      40.058  20.619  26.984  1.00  0.00    -0.237 OA
ATOM     76  O   UNL A   1      41.657  19.627  25.375  1.00  0.00    -0.237 OA
ATOM     77  O   UNL A   1      42.212  19.711  27.776  1.00  0.00    -0.744 OA
ENDBRANCH  70  74
ENDBRANCH  43  67
BRANCH  55  78
ATOM     78  C   UNL A   1      46.709  25.748  32.718  1.00  0.00     0.023 A 
ATOM     79  C   UNL A   1      46.688  24.676  33.627  1.00  0.00     0.031 A 
ATOM     80  C   UNL A   1      47.959  26.257  32.325  1.00  0.00     0.131 A 
ATOM     81  C   UNL A   1      47.891  24.184  34.155  1.00  0.00     0.055 A 
ATOM     82  C   UNL A   1      49.155  25.724  32.807  1.00  0.00     0.041 A 
ATOM     83  F   UNL A   1      48.039  27.282  31.461  1.00  0.00    -0.206 F 
ATOM     84  C   UNL A   1      49.125  24.690  33.738  1.00  0.00     0.022 A 
BRANCH  81  85
ATOM     85  S   UNL A   1      47.821  22.930  35.464  1.00  0.00     0.124 S 
ATOM     86  O   UNL A   1      48.361  23.656  36.609  1.00  0.00    -0.237 OA
ATOM     87  O   UNL A   1      46.397  22.617  35.521  1.00  0.00    -0.237 OA
ATOM     88  O   UNL A   1      48.670  21.854  34.956  1.00  0.00    -0.744 OA
ENDBRANCH  81  85
ENDBRANCH  55  78
ENDBRANCH  29  30
ENDBRANCH  21  24
ENDBRANCH  19  20
ENDBRANCH   1  19
TORSDOF 17
ENDMDL
MODEL 2
REMARK VINA RESULT:      -9.4      3.836      9.947
REMARK SMILES C=CC[N@@H+](CC(=O)NCCCNC(=O)c1ccc(-c2c3nc(c(-c4cc(S(=O)(=O)[O-])ccc4F)c4ccc([nH]4)c(-c4cc(S(=O)(=O)[O-])ccc4F)c4nc(c(-c5cc(S(=O)(=O)[O-])ccc5F)c5ccc2[nH]5)C=C4)C=C3)cc1)C1CCCCC1
REMARK SMILES IDX 10 1 9 2 8 3 6 4 7 5 5 7 4 8 3 10 2 11 1 12 78 13 79 14
REMARK SMILES IDX 83 15 80 16 82 17 81 18 11 19 12 20 13 21 14 23 15 24 16 25
REMARK SMILES IDX 77 26 17 27 76 28 18 29 19 30 20 31 70 32 21 33 75 34 69 35
REMARK SMILES IDX 71 36 22 37 74 38 68 39 67 40 23 42 55 43 35 44 54 45 36 46
REMARK SMILES IDX 39 47 53 48 72 49 37 50 38 51 52 53 73 54 40 55 24 56 25 57
REMARK SMILES IDX 33 58 26 59 32 60 34 61 31 62 27 63 28 64 29 65 30 66 56 67
REMARK SMILES IDX 57 68 65 69 58 70 64 71 66 72 63 73 59 74 60 75 61 76 62 77
REMARK SMILES IDX 41 78 42 79 50 80 43 81 49 82 51 83 48 84 44 85 45 86 46 87
REMARK SMILES IDX 47 88
REMARK H PARENT 8 6 4 9 12 22 71 41 39 52
REMARK Flexibility Score: inf
ROOT
ATOM      1  C   UNL A   1      32.802  29.272  23.370  1.00  0.00     0.042 C 
ENDROOT
BRANCH   1   2
ATOM      2  C   UNL A   1      31.795  28.296  22.756  1.00  0.00     0.118 C 
BRANCH   2   3
ATOM      3  N   UNL A   1      32.403  27.399  21.790  1.00  0.00    -0.351 N 
ATOM      4  C   UNL A   1      33.112  26.246  21.925  1.00  0.00     0.275 C 
ATOM      5  O   UNL A   1      33.274  25.603  20.878  1.00  0.00    -0.269 OA
ATOM      6  H   UNL A   1      32.277  27.680  20.855  1.00  0.00     0.163 HD
BRANCH   4   7
ATOM      7  C   UNL A   1      33.631  25.671  23.257  1.00  0.00     0.364 C 
BRANCH   7   8
ATOM      8  N   UNL A   1      33.426  24.228  23.558  1.00  0.00    -0.321 N 
ATOM      9  H   UNL A   1      33.581  23.694  22.703  1.00  0.00     0.349 HD
BRANCH   8  10
ATOM     10  C   UNL A   1      32.029  23.914  23.810  1.00  0.00     0.291 C 
BRANCH  10  11
ATOM     11  C   UNL A   1      31.155  24.873  24.559  1.00  0.00     0.025 C 
ATOM     12  C   UNL A   1      31.059  24.857  25.899  1.00  0.00     0.010 C 
ENDBRANCH  10  11
ENDBRANCH   8  10
BRANCH   8  13
ATOM     13  C   UNL A   1      34.537  23.496  24.222  1.00  0.00     0.184 C 
ATOM     14  C   UNL A   1      35.650  22.954  23.294  1.00  0.00     0.065 C 
ATOM     15  C   UNL A   1      35.184  24.243  25.413  1.00  0.00     0.065 C 
ATOM     16  C   UNL A   1      36.797  22.244  24.016  1.00  0.00     0.006 C 
ATOM     17  C   UNL A   1      36.300  23.474  26.112  1.00  0.00     0.006 C 
ATOM     18  C   UNL A   1      37.389  23.093  25.124  1.00  0.00     0.000 C 
ENDBRANCH   8  13
ENDBRANCH   7   8
ENDBRANCH   4   7
ENDBRANCH   2   3
ENDBRANCH   1   2
BRANCH   1  19
ATOM     19  C   UNL A   1      32.881  29.266  24.889  1.00  0.00     0.118 C 
BRANCH  19  20
ATOM     20  N   UNL A   1      32.363  30.484  25.485  1.00  0.00    -0.352 N 
ATOM     21  C   UNL A   1      32.710  31.167  26.627  1.00  0.00     0.251 C 
ATOM     22  H   UNL A   1      31.628  30.897  24.978  1.00  0.00     0.163 HD
ATOM     23  O   UNL A   1      31.961  32.071  26.997  1.00  0.00    -0.269 OA
BRANCH  21  24
ATOM     24  C   UNL A   1      33.917  30.840  27.433  1.00  0.00     0.039 A 
ATOM     25  C   UNL A   1      34.872  31.847  27.630  1.00  0.00     0.014 A 
ATOM     26  C   UNL A   1      34.183  29.561  27.926  1.00  0.00     0.014 A 
ATOM     27  C   UNL A   1      36.047  31.586  28.347  1.00  0.00     0.010 A 
ATOM     28  C   UNL A   1      35.306  29.326  28.724  1.00  0.00     0.010 A 
ATOM     29  C   UNL A   1      36.265  30.328  28.930  1.00  0.00    -0.014 A 
BRANCH  29  30
ATOM     30  C   UNL A   1      37.503  30.034  29.707  1.00  0.00     0.031 A 
ATOM     31  C   UNL A   1      38.562  29.124  29.134  1.00  0.00     0.074 A 
ATOM     32  C   UNL A   1      37.666  30.548  30.943  1.00  0.00     0.049 A 
ATOM     33  N   UNL A   1      39.670  28.688  29.680  1.00  0.00    -0.248 NA
ATOM     34  C   UNL A   1      38.325  28.613  27.776  1.00  0.00     0.031 C 
ATOM     35  C   UNL A   1      36.711  31.422  31.627  1.00  0.00     0.029 A 
ATOM     36  N   UNL A   1      38.690  30.410  31.847  1.00  0.00    -0.354 N 
ATOM     37  C   UNL A   1      40.252  27.842  28.740  1.00  0.00     0.074 A 
ATOM     38  C   UNL A   1      39.336  27.773  27.621  1.00  0.00     0.031 C 
ATOM     39  C   UNL A   1      37.209  31.768  32.825  1.00  0.00     0.029 A 
ATOM     40  C   UNL A   1      38.494  31.103  33.019  1.00  0.00     0.049 A 
ATOM     41  H   UNL A   1      39.492  29.864  31.673  1.00  0.00     0.167 HD
ATOM     42  C   UNL A   1      41.451  27.204  28.788  1.00  0.00     0.034 A 
ATOM     43  C   UNL A   1      39.255  31.188  34.129  1.00  0.00     0.034 A 
ATOM     44  C   UNL A   1      42.363  27.292  29.902  1.00  0.00     0.049 A 
ATOM     45  C   UNL A   1      40.564  30.439  34.179  1.00  0.00     0.074 A 
ATOM     46  C   UNL A   1      43.618  26.722  30.039  1.00  0.00     0.029 A 
ATOM     47  N   UNL A   1      42.119  27.992  31.078  1.00  0.00    -0.354 N 
ATOM     48  N   UNL A   1      41.113  29.670  33.268  1.00  0.00    -0.248 NA
ATOM     49  C   UNL A   1      41.358  30.579  35.407  1.00  0.00     0.031 C 
ATOM     50  C   UNL A   1      44.103  27.023  31.318  1.00  0.00     0.029 A 
ATOM     51  C   UNL A   1      43.186  27.844  31.953  1.00  0.00     0.049 A 
ATOM     52  H   UNL A   1      41.308  28.517  31.263  1.00  0.00     0.167 HD
ATOM     53  C   UNL A   1      42.332  29.262  33.801  1.00  0.00     0.074 A 
ATOM     54  C   UNL A   1      42.442  29.880  35.107  1.00  0.00     0.031 C 
ATOM     55  C   UNL A   1      43.279  28.456  33.258  1.00  0.00     0.034 A 
BRANCH  42  56
ATOM     56  C   UNL A   1      41.821  26.339  27.604  1.00  0.00     0.023 A 
ATOM     57  C   UNL A   1      41.515  24.967  27.570  1.00  0.00     0.031 A 
ATOM     58  C   UNL A   1      42.528  26.879  26.514  1.00  0.00     0.131 A 
ATOM     59  C   UNL A   1      41.996  24.165  26.523  1.00  0.00     0.055 A 
ATOM     60  C   UNL A   1      42.923  26.092  25.429  1.00  0.00     0.041 A 
ATOM     61  F   UNL A   1      42.865  28.177  26.494  1.00  0.00    -0.206 F 
ATOM     62  C   UNL A   1      42.675  24.723  25.439  1.00  0.00     0.022 A 
BRANCH  59  63
ATOM     63  S   UNL A   1      41.871  22.362  26.687  1.00  0.00     0.124 S 
ATOM     64  O   UNL A   1      42.383  21.915  25.394  1.00  0.00    -0.237 OA
ATOM     65  O   UNL A   1      42.726  22.092  27.839  1.00  0.00    -0.237 OA
ATOM     66  O   UNL A   1      40.446  22.134  26.898  1.00  0.00    -0.744 OA
ENDBRANCH  59  63
ENDBRANCH  42  56
BRANCH  43  67
ATOM     67  C   UNL A   1      38.809  32.011  35.291  1.00  0.00     0.023 A 
ATOM     68  C   UNL A   1      38.272  31.405  36.437  1.00  0.00     0.031 A 
ATOM     69  C   UNL A   1      38.876  33.415  35.255  1.00  0.00     0.131 A 
ATOM     70  C   UNL A   1      37.781  32.201  37.484  1.00  0.00     0.055 A 
ATOM     71  C   UNL A   1      38.433  34.201  36.321  1.00  0.00     0.041 A 
ATOM     72  F   UNL A   1      39.385  34.044  34.184  1.00  0.00    -0.206 F 
ATOM     73  C   UNL A   1      37.871  33.594  37.439  1.00  0.00     0.022 A 
BRANCH  70  74
ATOM     74  S   UNL A   1      36.949  31.389  38.877  1.00  0.00     0.124 S 
ATOM     75  O   UNL A   1      37.917  31.580  39.951  1.00  0.00    -0.237 OA
ATOM     76  O   UNL A   1      35.714  32.158  38.981  1.00  0.00    -0.237 OA
ATOM     77  O   UNL A   1      36.787  30.011  38.419  1.00  0.00    -0.744 OA
ENDBRANCH  70  74
ENDBRANCH  43  67
BRANCH  55  78
ATOM     78  C   UNL A   1      44.539  28.239  34.062  1.00  0.00     0.023 A 
ATOM     79  C   UNL A   1      44.653  27.193  34.995  1.00  0.00     0.031 A 
ATOM     80  C   UNL A   1      45.635  29.105  33.903  1.00  0.00     0.131 A 
ATOM     81  C   UNL A   1      45.815  27.074  35.771  1.00  0.00     0.055 A 
ATOM     82  C   UNL A   1      46.812  28.945  34.635  1.00  0.00     0.041 A 
ATOM     83  F   UNL A   1      45.581  30.122  33.027  1.00  0.00    -0.206 F 
ATOM     84  C   UNL A   1      46.902  27.933  35.586  1.00  0.00     0.022 A 
BRANCH  81  85
ATOM     85  S   UNL A   1      45.856  25.833  37.095  1.00  0.00     0.124 S 
ATOM     86  O   UNL A   1      45.135  26.510  38.168  1.00  0.00    -0.237 OA
ATOM     87  O   UNL A   1      45.171  24.700  36.482  1.00  0.00    -0.237 OA
ATOM     88  O   UNL A   1      47.284  25.635  37.336  1.00  0.00    -0.744 OA
ENDBRANCH  81  85
ENDBRANCH  55  78
ENDBRANCH  29  30
ENDBRANCH  21  24
ENDBRANCH  19  20
ENDBRANCH   1  19
TORSDOF 17
ENDMDL
MODEL 3
REMARK VINA RESULT:      -9.2      4.216     10.006
REMARK SMILES C=CC[N@@H+](CC(=O)NCCCNC(=O)c1ccc(-c2c3nc(c(-c4cc(S(=O)(=O)[O-])ccc4F)c4ccc([nH]4)c(-c4cc(S(=O)(=O)[O-])ccc4F)c4nc(c(-c5cc(S(=O)(=O)[O-])ccc5F)c5ccc2[nH]5)C=C4)C=C3)cc1)C1CCCCC1
REMARK SMILES IDX 10 1 9 2 8 3 6 4 7 5 5 7 4 8 3 10 2 11 1 12 78 13 79 14
REMARK SMILES IDX 83 15 80 16 82 17 81 18 11 19 12 20 13 21 14 23 15 24 16 25
REMARK SMILES IDX 77 26 17 27 76 28 18 29 19 30 20 31 70 32 21 33 75 34 69 35
REMARK SMILES IDX 71 36 22 37 74 38 68 39 67 40 23 42 55 43 35 44 54 45 36 46
REMARK SMILES IDX 39 47 53 48 72 49 37 50 38 51 52 53 73 54 40 55 24 56 25 57
REMARK SMILES IDX 33 58 26 59 32 60 34 61 31 62 27 63 28 64 29 65 30 66 56 67
REMARK SMILES IDX 57 68 65 69 58 70 64 71 66 72 63 73 59 74 60 75 61 76 62 77
REMARK SMILES IDX 41 78 42 79 50 80 43 81 49 82 51 83 48 84 44 85 45 86 46 87
REMARK SMILES IDX 47 88
REMARK H PARENT 8 6 4 9 12 22 71 41 39 52
REMARK Flexibility Score: inf
ROOT
ATOM      1  C   UNL A   1      31.410  31.854  26.618  1.00  0.00     0.042 C 
ENDROOT
BRANCH   1   2
ATOM      2  C   UNL A   1      31.527  30.496  25.924  1.00  0.00     0.118 C 
BRANCH   2   3
ATOM      3  N   UNL A   1      30.851  30.462  24.640  1.00  0.00    -0.351 N 
ATOM      4  C   UNL A   1      30.401  29.439  23.864  1.00  0.00     0.275 C 
ATOM      5  O   UNL A   1      29.648  29.774  22.937  1.00  0.00    -0.269 OA
ATOM      6  H   UNL A   1      30.686  31.353  24.255  1.00  0.00     0.163 HD
BRANCH   4   7
ATOM      7  C   UNL A   1      30.688  27.945  24.106  1.00  0.00     0.364 C 
BRANCH   7   8
ATOM      8  N   UNL A   1      32.080  27.438  23.971  1.00  0.00    -0.321 N 
ATOM      9  H   UNL A   1      32.720  28.152  24.320  1.00  0.00     0.349 HD
BRANCH   8  10
ATOM     10  C   UNL A   1      32.505  27.366  22.582  1.00  0.00     0.291 C 
BRANCH  10  11
ATOM     11  C   UNL A   1      31.927  26.336  21.661  1.00  0.00     0.025 C 
ATOM     12  C   UNL A   1      32.605  25.231  21.307  1.00  0.00     0.010 C 
ENDBRANCH  10  11
ENDBRANCH   8  10
BRANCH   8  13
ATOM     13  C   UNL A   1      32.572  26.487  25.003  1.00  0.00     0.184 C 
ATOM     14  C   UNL A   1      31.576  25.393  25.456  1.00  0.00     0.065 C 
ATOM     15  C   UNL A   1      33.939  25.835  24.684  1.00  0.00     0.065 C 
ATOM     16  C   UNL A   1      32.131  24.408  26.486  1.00  0.00     0.006 C 
ATOM     17  C   UNL A   1      34.455  24.886  25.761  1.00  0.00     0.006 C 
ATOM     18  C   UNL A   1      33.442  23.790  26.040  1.00  0.00     0.000 C 
ENDBRANCH   8  13
ENDBRANCH   7   8
ENDBRANCH   4   7
ENDBRANCH   2   3
ENDBRANCH   1   2
BRANCH   1  19
ATOM     19  C   UNL A   1      32.725  32.563  26.901  1.00  0.00     0.118 C 
BRANCH  19  20
ATOM     20  N   UNL A   1      32.540  33.876  27.492  1.00  0.00    -0.352 N 
ATOM     21  C   UNL A   1      33.097  34.472  28.599  1.00  0.00     0.251 C 
ATOM     22  H   UNL A   1      31.897  34.446  27.011  1.00  0.00     0.163 HD
ATOM     23  O   UNL A   1      32.603  35.532  28.983  1.00  0.00    -0.269 OA
BRANCH  21  24
ATOM     24  C   UNL A   1      34.236  33.880  29.353  1.00  0.00     0.039 A 
ATOM     25  C   UNL A   1      35.534  34.290  29.021  1.00  0.00     0.014 A 
ATOM     26  C   UNL A   1      34.076  32.876  30.311  1.00  0.00     0.014 A 
ATOM     27  C   UNL A   1      36.645  33.737  29.671  1.00  0.00     0.010 A 
ATOM     28  C   UNL A   1      35.176  32.396  31.027  1.00  0.00     0.010 A 
ATOM     29  C   UNL A   1      36.478  32.804  30.704  1.00  0.00    -0.014 A 
BRANCH  29  30
ATOM     30  C   UNL A   1      37.648  32.213  31.416  1.00  0.00     0.031 A 
ATOM     31  C   UNL A   1      38.433  31.088  30.786  1.00  0.00     0.074 A 
ATOM     32  C   UNL A   1      37.987  32.654  32.644  1.00  0.00     0.049 A 
ATOM     33  N   UNL A   1      39.431  30.394  31.273  1.00  0.00    -0.248 NA
ATOM     34  C   UNL A   1      38.016  30.670  29.440  1.00  0.00     0.031 C 
ATOM     35  C   UNL A   1      37.300  33.717  33.380  1.00  0.00     0.029 A 
ATOM     36  N   UNL A   1      38.993  32.263  33.494  1.00  0.00    -0.354 N 
ATOM     37  C   UNL A   1      39.750  29.449  30.300  1.00  0.00     0.074 A 
ATOM     38  C   UNL A   1      38.790  29.617  29.230  1.00  0.00     0.031 C 
ATOM     39  C   UNL A   1      37.924  33.916  34.552  1.00  0.00     0.029 A 
ATOM     40  C   UNL A   1      39.023  32.963  34.678  1.00  0.00     0.049 A 
ATOM     41  H   UNL A   1      39.633  31.546  33.277  1.00  0.00     0.167 HD
ATOM     42  C   UNL A   1      40.764  28.546  30.285  1.00  0.00     0.034 A 
ATOM     43  C   UNL A   1      39.836  32.849  35.748  1.00  0.00     0.034 A 
ATOM     44  C   UNL A   1      41.725  28.398  31.351  1.00  0.00     0.049 A 
ATOM     45  C   UNL A   1      40.930  31.811  35.728  1.00  0.00     0.074 A 
ATOM     46  C   UNL A   1      42.814  27.545  31.422  1.00  0.00     0.029 A 
ATOM     47  N   UNL A   1      41.711  29.117  32.541  1.00  0.00    -0.354 N 
ATOM     48  N   UNL A   1      41.237  30.949  34.787  1.00  0.00    -0.248 NA
ATOM     49  C   UNL A   1      41.794  31.739  36.915  1.00  0.00     0.031 C 
ATOM     50  C   UNL A   1      43.417  27.703  32.676  1.00  0.00     0.029 A 
ATOM     51  C   UNL A   1      42.753  28.707  33.360  1.00  0.00     0.049 A 
ATOM     52  H   UNL A   1      41.056  29.815  32.770  1.00  0.00     0.167 HD
ATOM     53  C   UNL A   1      42.350  30.256  35.255  1.00  0.00     0.074 A 
ATOM     54  C   UNL A   1      42.666  30.809  36.557  1.00  0.00     0.031 C 
ATOM     55  C   UNL A   1      43.052  29.258  34.661  1.00  0.00     0.034 A 
BRANCH  42  56
ATOM     56  C   UNL A   1      40.861  27.638  29.080  1.00  0.00     0.023 A 
ATOM     57  C   UNL A   1      41.803  27.864  28.060  1.00  0.00     0.031 A 
ATOM     58  C   UNL A   1      39.973  26.558  28.921  1.00  0.00     0.131 A 
ATOM     59  C   UNL A   1      41.773  27.089  26.891  1.00  0.00     0.055 A 
ATOM     60  C   UNL A   1      40.010  25.732  27.796  1.00  0.00     0.041 A 
ATOM     61  F   UNL A   1      39.040  26.300  29.850  1.00  0.00    -0.206 F 
ATOM     62  C   UNL A   1      40.900  26.007  26.763  1.00  0.00     0.022 A 
BRANCH  59  63
ATOM     63  S   UNL A   1      42.772  27.623  25.473  1.00  0.00     0.124 S 
ATOM     64  O   UNL A   1      42.718  26.442  24.615  1.00  0.00    -0.237 OA
ATOM     65  O   UNL A   1      42.038  28.792  24.995  1.00  0.00    -0.237 OA
ATOM     66  O   UNL A   1      44.079  27.902  26.058  1.00  0.00    -0.744 OA
ENDBRANCH  59  63
ENDBRANCH  42  56
BRANCH  43  67
ATOM     67  C   UNL A   1      39.654  33.734  36.935  1.00  0.00     0.023 A 
ATOM     68  C   UNL A   1      39.017  33.263  38.094  1.00  0.00     0.031 A 
ATOM     69  C   UNL A   1      40.076  35.075  36.912  1.00  0.00     0.131 A 
ATOM     70  C   UNL A   1      38.781  34.136  39.167  1.00  0.00     0.055 A 
ATOM     71  C   UNL A   1      39.885  35.927  38.002  1.00  0.00     0.041 A 
ATOM     72  F   UNL A   1      40.693  35.574  35.830  1.00  0.00    -0.206 F 
ATOM     73  C   UNL A   1      39.223  35.461  39.134  1.00  0.00     0.022 A 
BRANCH  70  74
ATOM     74  S   UNL A   1      37.817  33.535  40.580  1.00  0.00     0.124 S 
ATOM     75  O   UNL A   1      36.659  32.944  39.919  1.00  0.00    -0.237 OA
ATOM     76  O   UNL A   1      38.746  32.600  41.205  1.00  0.00    -0.237 OA
ATOM     77  O   UNL A   1      37.546  34.748  41.348  1.00  0.00    -0.744 OA
ENDBRANCH  70  74
ENDBRANCH  43  67
BRANCH  55  78
ATOM     78  C   UNL A   1      44.262  28.736  35.399  1.00  0.00     0.023 A 
ATOM     79  C   UNL A   1      44.164  27.705  36.350  1.00  0.00     0.031 A 
ATOM     80  C   UNL A   1      45.529  29.295  35.158  1.00  0.00     0.131 A 
ATOM     81  C   UNL A   1      45.302  27.303  37.063  1.00  0.00     0.055 A 
ATOM     82  C   UNL A   1      46.670  28.849  35.828  1.00  0.00     0.041 A 
ATOM     83  F   UNL A   1      45.681  30.284  34.262  1.00  0.00    -0.206 F 
ATOM     84  C   UNL A   1      46.557  27.856  36.797  1.00  0.00     0.022 A 
BRANCH  81  85
ATOM     85  S   UNL A   1      45.108  26.105  38.412  1.00  0.00     0.124 S 
ATOM     86  O   UNL A   1      44.177  26.795  39.299  1.00  0.00    -0.237 OA
ATOM     87  O   UNL A   1      44.579  24.935  37.718  1.00  0.00    -0.237 OA
ATOM     88  O   UNL A   1      46.465  25.952  38.934  1.00  0.00    -0.744 OA
ENDBRANCH  81  85
ENDBRANCH  55  78
ENDBRANCH  29  30
ENDBRANCH  21  24
ENDBRANCH  19  20
ENDBRANCH   1  19
TORSDOF 17
ENDMDL
