MODEL 1
REMARK VINA RESULT:     -10.8      0.000      0.000
REMARK SMILES CC(C)n1c([C@H](O)CC(=O)NCCCNC(=O)c2ccc(-c3c4nc(c(-c5cc(S(=O)(=O)[O-])ccc5F)c5ccc([nH]5)c(-c5cc(S(=O)(=O)[O-])ccc5F)c5nc(c(-c6cc(S(=O)(=O)[O-])ccc6F)c6ccc3[nH]6)C=C5)C=C4)cc2)nc2cc(Cl)ccc21
REMARK SMILES IDX 13 1 12 2 11 3 9 4 10 5 8 7 6 8 5 9 4 10 88 11 81 12 82 13
REMARK SMILES IDX 87 14 83 15 86 16 84 17 85 18 2 19 1 20 3 21 7 22 14 24
REMARK SMILES IDX 15 25 16 26 17 28 18 29 19 30 80 31 20 32 79 33 21 34 22 35
REMARK SMILES IDX 23 36 73 37 24 38 78 39 72 40 74 41 25 42 77 43 71 44 70 45
REMARK SMILES IDX 26 47 58 48 38 49 57 50 39 51 42 52 56 53 75 54 40 55 41 56
REMARK SMILES IDX 55 58 76 59 43 60 27 61 28 62 36 63 29 64 35 65 37 66 34 67
REMARK SMILES IDX 30 68 31 69 32 70 33 71 59 72 60 73 68 74 61 75 67 76 69 77
REMARK SMILES IDX 66 78 62 79 63 80 64 81 65 82 44 83 45 84 53 85 46 86 52 87
REMARK SMILES IDX 54 88 51 89 47 90 48 91 49 92 50 93
REMARK H PARENT 11 6 7 23 15 27 74 46 42 57
REMARK Flexibility Score: inf
ROOT
ATOM      1  C   UNL A   1      42.514  19.890  26.570  1.00  0.00     0.042 C 
ENDROOT
BRANCH   1   2
ATOM      2  C   UNL A   1      43.332  19.138  25.517  1.00  0.00     0.117 C 
BRANCH   2   3
ATOM      3  N   UNL A   1      44.755  19.272  25.788  1.00  0.00    -0.356 N 
ATOM      4  C   UNL A   1      45.681  19.941  25.046  1.00  0.00     0.223 C 
ATOM      5  O   UNL A   1      46.861  19.591  25.089  1.00  0.00    -0.275 OA
ATOM      6  H   UNL A   1      45.087  18.828  26.600  1.00  0.00     0.163 HD
BRANCH   4   7
ATOM      7  C   UNL A   1      45.267  21.221  24.385  1.00  0.00     0.140 C 
BRANCH   7   8
ATOM      8  C   UNL A   1      46.035  22.492  24.659  1.00  0.00     0.190 C 
BRANCH   8   9
ATOM      9  C   UNL A   1      45.543  23.197  25.916  1.00  0.00     0.139 A 
ATOM     10  N   UNL A   1      45.250  24.548  26.092  1.00  0.00    -0.323 N 
ATOM     11  C   UNL A   1      45.096  24.760  27.458  1.00  0.00     0.069 A 
ATOM     12  N   UNL A   1      45.347  22.545  27.053  1.00  0.00    -0.230 NA
ATOM     13  C   UNL A   1      45.098  23.488  28.015  1.00  0.00     0.090 A 
ATOM     14  C   UNL A   1      44.913  25.918  28.230  1.00  0.00     0.030 A 
ATOM     15  C   UNL A   1      44.868  23.330  29.391  1.00  0.00     0.051 A 
ATOM     16  C   UNL A   1      44.703  25.751  29.600  1.00  0.00     0.023 A 
ATOM     17  C   UNL A   1      44.672  24.478  30.167  1.00  0.00     0.043 A 
ATOM     18  Cl  UNL A   1      44.384  24.328  31.859  1.00  0.00    -0.084 Cl
BRANCH  10  19
ATOM     19  C   UNL A   1      44.919  25.593  25.119  1.00  0.00     0.083 C 
ATOM     20  C   UNL A   1      43.464  26.072  25.080  1.00  0.00     0.031 C 
ATOM     21  C   UNL A   1      45.941  26.728  25.101  1.00  0.00     0.031 C 
ENDBRANCH  10  19
ENDBRANCH   8   9
BRANCH   8  22
ATOM     22  O   UNL A   1      45.857  23.403  23.574  1.00  0.00    -0.385 OA
ATOM     23  H   UNL A   1      44.912  23.593  23.461  1.00  0.00     0.211 HD
ENDBRANCH   8  22
ENDBRANCH   7   8
ENDBRANCH   4   7
ENDBRANCH   2   3
ENDBRANCH   1   2
BRANCH   1  24
ATOM     24  C   UNL A   1      41.996  21.245  26.079  1.00  0.00     0.118 C 
BRANCH  24  25
ATOM     25  N   UNL A   1      40.558  21.392  26.163  1.00  0.00    -0.352 N 
ATOM     26  C   UNL A   1      39.736  22.437  26.484  1.00  0.00     0.251 C 
ATOM     27  H   UNL A   1      40.069  20.566  25.944  1.00  0.00     0.163 HD
ATOM     28  O   UNL A   1      38.526  22.229  26.368  1.00  0.00    -0.269 OA
BRANCH  26  29
ATOM     29  C   UNL A   1      40.207  23.742  27.023  1.00  0.00     0.039 A 
ATOM     30  C   UNL A   1      41.296  23.921  27.877  1.00  0.00     0.014 A 
ATOM     31  C   UNL A   1      39.434  24.864  26.677  1.00  0.00     0.014 A 
ATOM     32  C   UNL A   1      41.521  25.142  28.494  1.00  0.00     0.010 A 
ATOM     33  C   UNL A   1      39.683  26.102  27.254  1.00  0.00     0.010 A 
ATOM     34  C   UNL A   1      40.683  26.217  28.218  1.00  0.00    -0.014 A 
BRANCH  34  35
ATOM     35  C   UNL A   1      40.913  27.455  28.953  1.00  0.00     0.031 A 
ATOM     36  C   UNL A   1      42.022  28.326  28.451  1.00  0.00     0.074 A 
ATOM     37  C   UNL A   1      40.082  27.836  29.941  1.00  0.00     0.049 A 
ATOM     38  N   UNL A   1      43.027  28.838  29.092  1.00  0.00    -0.248 NA
ATOM     39  C   UNL A   1      42.046  28.586  27.004  1.00  0.00     0.031 C 
ATOM     40  C   UNL A   1      38.790  27.245  30.312  1.00  0.00     0.029 A 
ATOM     41  N   UNL A   1      40.160  28.929  30.745  1.00  0.00    -0.354 N 
ATOM     42  C   UNL A   1      43.730  29.613  28.161  1.00  0.00     0.074 A 
ATOM     43  C   UNL A   1      43.145  29.327  26.875  1.00  0.00     0.031 C 
ATOM     44  C   UNL A   1      38.101  28.128  31.068  1.00  0.00     0.029 A 
ATOM     45  C   UNL A   1      38.965  29.257  31.363  1.00  0.00     0.049 A 
ATOM     46  H   UNL A   1      40.990  29.441  30.876  1.00  0.00     0.167 HD
ATOM     47  C   UNL A   1      44.662  30.547  28.510  1.00  0.00     0.034 A 
ATOM     48  C   UNL A   1      38.673  30.424  31.983  1.00  0.00     0.034 A 
ATOM     49  C   UNL A   1      45.129  30.355  29.852  1.00  0.00     0.049 A 
ATOM     50  C   UNL A   1      39.945  31.132  32.260  1.00  0.00     0.074 A 
ATOM     51  C   UNL A   1      45.903  29.407  30.486  1.00  0.00     0.029 A 
ATOM     52  N   UNL A   1      44.551  31.098  30.849  1.00  0.00    -0.354 N 
ATOM     53  N   UNL A   1      40.842  30.735  33.119  1.00  0.00    -0.248 NA
ATOM     54  C   UNL A   1      40.412  32.080  31.260  1.00  0.00     0.031 C 
ATOM     55  C   UNL A   1      45.382  29.332  31.808  1.00  0.00     0.029 A 
ATOM     56  C   UNL A   1      44.342  30.260  31.913  1.00  0.00     0.049 A 
ATOM     57  H   UNL A   1      44.328  32.056  30.808  1.00  0.00     0.167 HD
ATOM     58  C   UNL A   1      42.060  31.043  32.527  1.00  0.00     0.074 A 
ATOM     59  C   UNL A   1      41.729  31.962  31.441  1.00  0.00     0.031 C 
ATOM     60  C   UNL A   1      43.190  30.323  32.793  1.00  0.00     0.034 A 
BRANCH  47  61
ATOM     61  C   UNL A   1      44.982  31.787  27.706  1.00  0.00     0.023 A 
ATOM     62  C   UNL A   1      44.120  32.898  27.647  1.00  0.00     0.031 A 
ATOM     63  C   UNL A   1      46.266  31.981  27.150  1.00  0.00     0.131 A 
ATOM     64  C   UNL A   1      44.507  34.104  27.045  1.00  0.00     0.055 A 
ATOM     65  C   UNL A   1      46.677  33.208  26.607  1.00  0.00     0.041 A 
ATOM     66  F   UNL A   1      47.182  31.002  27.161  1.00  0.00    -0.206 F 
ATOM     67  C   UNL A   1      45.795  34.278  26.551  1.00  0.00     0.022 A 
BRANCH  64  68
ATOM     68  S   UNL A   1      43.327  35.475  26.901  1.00  0.00     0.124 S 
ATOM     69  O   UNL A   1      44.214  36.631  26.852  1.00  0.00    -0.237 OA
ATOM     70  O   UNL A   1      42.642  35.149  25.652  1.00  0.00    -0.237 OA
ATOM     71  O   UNL A   1      42.509  35.348  28.103  1.00  0.00    -0.744 OA
ENDBRANCH  64  68
ENDBRANCH  47  61
BRANCH  48  72
ATOM     72  C   UNL A   1      37.381  31.138  31.889  1.00  0.00     0.023 A 
ATOM     73  C   UNL A   1      36.895  31.536  30.626  1.00  0.00     0.031 A 
ATOM     74  C   UNL A   1      36.760  31.679  33.023  1.00  0.00     0.131 A 
ATOM     75  C   UNL A   1      35.852  32.465  30.526  1.00  0.00     0.055 A 
ATOM     76  C   UNL A   1      35.708  32.596  32.921  1.00  0.00     0.041 A 
ATOM     77  F   UNL A   1      37.202  31.369  34.251  1.00  0.00    -0.206 F 
ATOM     78  C   UNL A   1      35.256  33.002  31.667  1.00  0.00     0.022 A 
BRANCH  75  79
ATOM     79  S   UNL A   1      35.294  33.052  28.902  1.00  0.00     0.124 S 
ATOM     80  O   UNL A   1      36.377  32.610  28.026  1.00  0.00    -0.237 OA
ATOM     81  O   UNL A   1      34.030  32.340  28.747  1.00  0.00    -0.237 OA
ATOM     82  O   UNL A   1      35.193  34.498  29.076  1.00  0.00    -0.744 OA
ENDBRANCH  75  79
ENDBRANCH  48  72
BRANCH  60  83
ATOM     83  C   UNL A   1      43.166  29.301  33.912  1.00  0.00     0.023 A 
ATOM     84  C   UNL A   1      43.740  29.665  35.142  1.00  0.00     0.031 A 
ATOM     85  C   UNL A   1      42.843  27.942  33.725  1.00  0.00     0.131 A 
ATOM     86  C   UNL A   1      44.024  28.690  36.109  1.00  0.00     0.055 A 
ATOM     87  C   UNL A   1      43.061  26.984  34.721  1.00  0.00     0.041 A 
ATOM     88  F   UNL A   1      42.401  27.483  32.548  1.00  0.00    -0.206 F 
ATOM     89  C   UNL A   1      43.672  27.353  35.913  1.00  0.00     0.022 A 
BRANCH  86  90
ATOM     90  S   UNL A   1      45.014  29.111  37.566  1.00  0.00     0.124 S 
ATOM     91  O   UNL A   1      46.209  29.707  36.965  1.00  0.00    -0.237 OA
ATOM     92  O   UNL A   1      44.140  30.053  38.271  1.00  0.00    -0.237 OA
ATOM     93  O   UNL A   1      45.221  27.841  38.238  1.00  0.00    -0.744 OA
ENDBRANCH  86  90
ENDBRANCH  60  83
ENDBRANCH  34  35
ENDBRANCH  26  29
ENDBRANCH  24  25
ENDBRANCH   1  24
TORSDOF 17
ENDMDL
MODEL 2
REMARK VINA RESULT:     -10.6      3.964      6.488
REMARK SMILES CC(C)n1c([C@H](O)CC(=O)NCCCNC(=O)c2ccc(-c3c4nc(c(-c5cc(S(=O)(=O)[O-])ccc5F)c5ccc([nH]5)c(-c5cc(S(=O)(=O)[O-])ccc5F)c5nc(c(-c6cc(S(=O)(=O)[O-])ccc6F)c6ccc3[nH]6)C=C5)C=C4)cc2)nc2cc(Cl)ccc21
REMARK SMILES IDX 13 1 12 2 11 3 9 4 10 5 8 7 6 8 5 9 4 10 88 11 81 12 82 13
REMARK SMILES IDX 87 14 83 15 86 16 84 17 85 18 2 19 1 20 3 21 7 22 14 24
REMARK SMILES IDX 15 25 16 26 17 28 18 29 19 30 80 31 20 32 79 33 21 34 22 35
REMARK SMILES IDX 23 36 73 37 24 38 78 39 72 40 74 41 25 42 77 43 71 44 70 45
REMARK SMILES IDX 26 47 58 48 38 49 57 50 39 51 42 52 56 53 75 54 40 55 41 56
REMARK SMILES IDX 55 58 76 59 43 60 27 61 28 62 36 63 29 64 35 65 37 66 34 67
REMARK SMILES IDX 30 68 31 69 32 70 33 71 59 72 60 73 68 74 61 75 67 76 69 77
REMARK SMILES IDX 66 78 62 79 63 80 64 81 65 82 44 83 45 84 53 85 46 86 52 87
REMARK SMILES IDX 54 88 51 89 47 90 48 91 49 92 50 93
REMARK H PARENT 11 6 7 23 15 27 74 46 42 57
REMARK Flexibility Score: inf
ROOT
ATOM      1  C   UNL A   1      37.557  21.186  25.122  1.00  0.00     0.042 C 
ENDROOT
BRANCH   1   2
ATOM      2  C   UNL A   1      36.142  21.654  24.776  1.00  0.00     0.117 C 
BRANCH   2   3
ATOM      3  N   UNL A   1      35.184  21.136  25.742  1.00  0.00    -0.356 N 
ATOM      4  C   UNL A   1      34.451  21.844  26.645  1.00  0.00     0.223 C 
ATOM      5  O   UNL A   1      34.077  21.298  27.684  1.00  0.00    -0.275 OA
ATOM      6  H   UNL A   1      35.053  20.161  25.743  1.00  0.00     0.163 HD
BRANCH   4   7
ATOM      7  C   UNL A   1      33.931  23.189  26.235  1.00  0.00     0.140 C 
BRANCH   7   8
ATOM      8  C   UNL A   1      32.449  23.470  26.286  1.00  0.00     0.190 C 
BRANCH   8   9
ATOM      9  C   UNL A   1      32.123  24.897  25.865  1.00  0.00     0.139 A 
ATOM     10  N   UNL A   1      32.042  25.423  24.577  1.00  0.00    -0.323 N 
ATOM     11  C   UNL A   1      31.981  26.806  24.702  1.00  0.00     0.069 A 
ATOM     12  N   UNL A   1      31.884  25.851  26.754  1.00  0.00    -0.230 NA
ATOM     13  C   UNL A   1      31.820  27.032  26.063  1.00  0.00     0.090 A 
ATOM     14  C   UNL A   1      32.006  27.851  23.765  1.00  0.00     0.030 A 
ATOM     15  C   UNL A   1      31.630  28.341  26.534  1.00  0.00     0.051 A 
ATOM     16  C   UNL A   1      31.835  29.151  24.247  1.00  0.00     0.023 A 
ATOM     17  C   UNL A   1      31.640  29.388  25.607  1.00  0.00     0.043 A 
ATOM     18  Cl  UNL A   1      31.408  31.009  26.143  1.00  0.00    -0.084 Cl
BRANCH  10  19
ATOM     19  C   UNL A   1      31.826  24.767  23.284  1.00  0.00     0.083 C 
ATOM     20  C   UNL A   1      33.043  24.106  22.629  1.00  0.00     0.031 C 
ATOM     21  C   UNL A   1      30.569  23.900  23.265  1.00  0.00     0.031 C 
ENDBRANCH  10  19
ENDBRANCH   8   9
BRANCH   8  22
ATOM     22  O   UNL A   1      31.977  23.313  27.625  1.00  0.00    -0.385 OA
ATOM     23  H   UNL A   1      32.609  22.777  28.130  1.00  0.00     0.211 HD
ENDBRANCH   8  22
ENDBRANCH   7   8
ENDBRANCH   4   7
ENDBRANCH   2   3
ENDBRANCH   1   2
BRANCH   1  24
ATOM     24  C   UNL A   1      38.329  22.182  25.993  1.00  0.00     0.118 C 
BRANCH  24  25
ATOM     25  N   UNL A   1      39.766  22.109  25.839  1.00  0.00    -0.352 N 
ATOM     26  C   UNL A   1      40.807  22.824  26.366  1.00  0.00     0.251 C 
ATOM     27  H   UNL A   1      40.056  21.395  25.226  1.00  0.00     0.163 HD
ATOM     28  O   UNL A   1      41.937  22.425  26.078  1.00  0.00    -0.269 OA
BRANCH  26  29
ATOM     29  C   UNL A   1      40.650  24.062  27.177  1.00  0.00     0.039 A 
ATOM     30  C   UNL A   1      39.629  25.003  27.032  1.00  0.00     0.014 A 
ATOM     31  C   UNL A   1      41.663  24.312  28.118  1.00  0.00     0.014 A 
ATOM     32  C   UNL A   1      39.692  26.225  27.683  1.00  0.00     0.010 A 
ATOM     33  C   UNL A   1      41.706  25.514  28.811  1.00  0.00     0.010 A 
ATOM     34  C   UNL A   1      40.758  26.496  28.534  1.00  0.00    -0.014 A 
BRANCH  34  35
ATOM     35  C   UNL A   1      40.819  27.825  29.133  1.00  0.00     0.031 A 
ATOM     36  C   UNL A   1      41.861  28.749  28.585  1.00  0.00     0.074 A 
ATOM     37  C   UNL A   1      39.899  28.221  30.033  1.00  0.00     0.049 A 
ATOM     38  N   UNL A   1      42.770  29.433  29.207  1.00  0.00    -0.248 NA
ATOM     39  C   UNL A   1      41.940  28.851  27.119  1.00  0.00     0.031 C 
ATOM     40  C   UNL A   1      38.655  27.538  30.410  1.00  0.00     0.029 A 
ATOM     41  N   UNL A   1      39.820  29.396  30.709  1.00  0.00    -0.354 N 
ATOM     42  C   UNL A   1      43.442  30.172  28.225  1.00  0.00     0.074 A 
ATOM     43  C   UNL A   1      42.964  29.687  26.956  1.00  0.00     0.031 C 
ATOM     44  C   UNL A   1      37.838  28.419  31.028  1.00  0.00     0.029 A 
ATOM     45  C   UNL A   1      38.565  29.660  31.230  1.00  0.00     0.049 A 
ATOM     46  H   UNL A   1      40.585  30.006  30.817  1.00  0.00     0.167 HD
ATOM     47  C   UNL A   1      44.254  31.234  28.507  1.00  0.00     0.034 A 
ATOM     48  C   UNL A   1      38.121  30.849  31.700  1.00  0.00     0.034 A 
ATOM     49  C   UNL A   1      44.661  31.241  29.882  1.00  0.00     0.049 A 
ATOM     50  C   UNL A   1      39.297  31.716  31.950  1.00  0.00     0.074 A 
ATOM     51  C   UNL A   1      45.490  30.456  30.654  1.00  0.00     0.029 A 
ATOM     52  N   UNL A   1      43.955  32.022  30.760  1.00  0.00    -0.354 N 
ATOM     53  N   UNL A   1      40.180  31.513  32.888  1.00  0.00    -0.248 NA
ATOM     54  C   UNL A   1      39.722  32.593  30.870  1.00  0.00     0.031 C 
ATOM     55  C   UNL A   1      44.906  30.471  31.952  1.00  0.00     0.029 A 
ATOM     56  C   UNL A   1      43.773  31.288  31.902  1.00  0.00     0.049 A 
ATOM     57  H   UNL A   1      43.639  32.941  30.600  1.00  0.00     0.167 HD
ATOM     58  C   UNL A   1      41.392  31.884  32.320  1.00  0.00     0.074 A 
ATOM     59  C   UNL A   1      41.031  32.638  31.122  1.00  0.00     0.031 C 
ATOM     60  C   UNL A   1      42.572  31.322  32.717  1.00  0.00     0.034 A 
BRANCH  47  61
ATOM     61  C   UNL A   1      44.491  32.406  27.582  1.00  0.00     0.023 A 
ATOM     62  C   UNL A   1      43.952  33.684  27.820  1.00  0.00     0.031 A 
ATOM     63  C   UNL A   1      45.448  32.332  26.545  1.00  0.00     0.131 A 
ATOM     64  C   UNL A   1      44.324  34.798  27.054  1.00  0.00     0.055 A 
ATOM     65  C   UNL A   1      45.869  33.458  25.823  1.00  0.00     0.041 A 
ATOM     66  F   UNL A   1      46.045  31.171  26.234  1.00  0.00    -0.206 F 
ATOM     67  C   UNL A   1      45.304  34.701  26.074  1.00  0.00     0.022 A 
BRANCH  64  68
ATOM     68  S   UNL A   1      43.527  36.405  27.331  1.00  0.00     0.124 S 
ATOM     69  O   UNL A   1      44.613  37.333  27.040  1.00  0.00    -0.237 OA
ATOM     70  O   UNL A   1      42.443  36.373  26.351  1.00  0.00    -0.237 OA
ATOM     71  O   UNL A   1      43.099  36.338  28.724  1.00  0.00    -0.744 OA
ENDBRANCH  64  68
ENDBRANCH  47  61
BRANCH  48  72
ATOM     72  C   UNL A   1      36.770  31.407  31.466  1.00  0.00     0.023 A 
ATOM     73  C   UNL A   1      36.297  31.557  30.146  1.00  0.00     0.031 A 
ATOM     74  C   UNL A   1      36.058  32.048  32.488  1.00  0.00     0.131 A 
ATOM     75  C   UNL A   1      35.174  32.348  29.879  1.00  0.00     0.055 A 
ATOM     76  C   UNL A   1      34.926  32.828  32.221  1.00  0.00     0.041 A 
ATOM     77  F   UNL A   1      36.481  31.975  33.759  1.00  0.00    -0.206 F 
ATOM     78  C   UNL A   1      34.486  32.990  30.909  1.00  0.00     0.022 A 
BRANCH  75  79
ATOM     79  S   UNL A   1      34.624  32.623  28.172  1.00  0.00     0.124 S 
ATOM     80  O   UNL A   1      35.753  33.351  27.598  1.00  0.00    -0.237 OA
ATOM     81  O   UNL A   1      34.450  31.256  27.693  1.00  0.00    -0.237 OA
ATOM     82  O   UNL A   1      33.400  33.403  28.326  1.00  0.00    -0.744 OA
ENDBRANCH  75  79
ENDBRANCH  48  72
BRANCH  60  83
ATOM     83  C   UNL A   1      42.588  30.432  33.944  1.00  0.00     0.023 A 
ATOM     84  C   UNL A   1      43.079  30.979  35.142  1.00  0.00     0.031 A 
ATOM     85  C   UNL A   1      42.390  29.038  33.902  1.00  0.00     0.131 A 
ATOM     86  C   UNL A   1      43.404  30.146  36.221  1.00  0.00     0.055 A 
ATOM     87  C   UNL A   1      42.647  28.218  35.007  1.00  0.00     0.041 A 
ATOM     88  F   UNL A   1      42.037  28.414  32.772  1.00  0.00    -0.206 F 
ATOM     89  C   UNL A   1      43.175  28.769  36.168  1.00  0.00     0.022 A 
BRANCH  86  90
ATOM     90  S   UNL A   1      44.294  30.812  37.652  1.00  0.00     0.124 S 
ATOM     91  O   UNL A   1      43.205  31.085  38.592  1.00  0.00    -0.237 OA
ATOM     92  O   UNL A   1      45.165  29.692  38.021  1.00  0.00    -0.237 OA
ATOM     93  O   UNL A   1      44.980  31.982  37.134  1.00  0.00    -0.744 OA
ENDBRANCH  86  90
ENDBRANCH  60  83
ENDBRANCH  34  35
ENDBRANCH  26  29
ENDBRANCH  24  25
ENDBRANCH   1  24
TORSDOF 17
ENDMDL
MODEL 3
REMARK VINA RESULT:     -10.5      4.093      6.507
REMARK SMILES CC(C)n1c([C@H](O)CC(=O)NCCCNC(=O)c2ccc(-c3c4nc(c(-c5cc(S(=O)(=O)[O-])ccc5F)c5ccc([nH]5)c(-c5cc(S(=O)(=O)[O-])ccc5F)c5nc(c(-c6cc(S(=O)(=O)[O-])ccc6F)c6ccc3[nH]6)C=C5)C=C4)cc2)nc2cc(Cl)ccc21
REMARK SMILES IDX 13 1 12 2 11 3 9 4 10 5 8 7 6 8 5 9 4 10 88 11 81 12 82 13
REMARK SMILES IDX 87 14 83 15 86 16 84 17 85 18 2 19 1 20 3 21 7 22 14 24
REMARK SMILES IDX 15 25 16 26 17 28 18 29 19 30 80 31 20 32 79 33 21 34 22 35
REMARK SMILES IDX 23 36 73 37 24 38 78 39 72 40 74 41 25 42 77 43 71 44 70 45
REMARK SMILES IDX 26 47 58 48 38 49 57 50 39 51 42 52 56 53 75 54 40 55 41 56
REMARK SMILES IDX 55 58 76 59 43 60 27 61 28 62 36 63 29 64 35 65 37 66 34 67
REMARK SMILES IDX 30 68 31 69 32 70 33 71 59 72 60 73 68 74 61 75 67 76 69 77
REMARK SMILES IDX 66 78 62 79 63 80 64 81 65 82 44 83 45 84 53 85 46 86 52 87
REMARK SMILES IDX 54 88 51 89 47 90 48 91 49 92 50 93
REMARK H PARENT 11 6 7 23 15 27 74 46 42 57
REMARK Flexibility Score: inf
ROOT
ATOM      1  C   UNL A   1      38.444  21.745  25.708  1.00  0.00     0.042 C 
ENDROOT
BRANCH   1   2
ATOM      2  C   UNL A   1      37.660  23.041  25.483  1.00  0.00     0.117 C 
BRANCH   2   3
ATOM      3  N   UNL A   1      37.092  23.066  24.144  1.00  0.00    -0.356 N 
ATOM      4  C   UNL A   1      35.832  23.438  23.784  1.00  0.00     0.223 C 
ATOM      5  O   UNL A   1      35.331  22.972  22.760  1.00  0.00    -0.275 OA
ATOM      6  H   UNL A   1      37.686  22.781  23.414  1.00  0.00     0.163 HD
BRANCH   4   7
ATOM      7  C   UNL A   1      35.193  24.576  24.522  1.00  0.00     0.140 C 
BRANCH   7   8
ATOM      8  C   UNL A   1      33.810  24.414  25.103  1.00  0.00     0.190 C 
BRANCH   8   9
ATOM      9  C   UNL A   1      33.033  25.723  25.105  1.00  0.00     0.139 A 
ATOM     10  N   UNL A   1      32.210  26.243  24.107  1.00  0.00    -0.323 N 
ATOM     11  C   UNL A   1      31.938  27.564  24.446  1.00  0.00     0.069 A 
ATOM     12  N   UNL A   1      33.082  26.565  26.127  1.00  0.00    -0.230 NA
ATOM     13  C   UNL A   1      32.440  27.709  25.733  1.00  0.00     0.090 A 
ATOM     14  C   UNL A   1      31.275  28.604  23.777  1.00  0.00     0.030 A 
ATOM     15  C   UNL A   1      32.249  28.917  26.423  1.00  0.00     0.051 A 
ATOM     16  C   UNL A   1      31.106  29.808  24.466  1.00  0.00     0.023 A 
ATOM     17  C   UNL A   1      31.577  29.955  25.769  1.00  0.00     0.043 A 
ATOM     18  Cl  UNL A   1      31.320  31.453  26.582  1.00  0.00    -0.084 Cl
BRANCH  10  19
ATOM     19  C   UNL A   1      31.514  25.585  22.997  1.00  0.00     0.083 C 
ATOM     20  C   UNL A   1      32.351  25.228  21.765  1.00  0.00     0.031 C 
ATOM     21  C   UNL A   1      30.592  24.461  23.463  1.00  0.00     0.031 C 
ENDBRANCH  10  19
ENDBRANCH   8   9
BRANCH   8  22
ATOM     22  O   UNL A   1      33.908  23.986  26.462  1.00  0.00    -0.385 OA
ATOM     23  H   UNL A   1      33.018  23.841  26.821  1.00  0.00     0.211 HD
ENDBRANCH   8  22
ENDBRANCH   7   8
ENDBRANCH   4   7
ENDBRANCH   2   3
ENDBRANCH   1   2
BRANCH   1  24
ATOM     24  C   UNL A   1      39.603  21.901  26.696  1.00  0.00     0.118 C 
BRANCH  24  25
ATOM     25  N   UNL A   1      40.864  22.245  26.075  1.00  0.00    -0.352 N 
ATOM     26  C   UNL A   1      41.737  23.287  26.231  1.00  0.00     0.251 C 
ATOM     27  H   UNL A   1      41.155  21.593  25.398  1.00  0.00     0.163 HD
ATOM     28  O   UNL A   1      42.784  23.217  25.583  1.00  0.00    -0.269 OA
BRANCH  26  29
ATOM     29  C   UNL A   1      41.463  24.497  27.053  1.00  0.00     0.039 A 
ATOM     30  C   UNL A   1      40.408  25.390  26.855  1.00  0.00     0.014 A 
ATOM     31  C   UNL A   1      42.394  24.774  28.068  1.00  0.00     0.014 A 
ATOM     32  C   UNL A   1      40.365  26.599  27.533  1.00  0.00     0.010 A 
ATOM     33  C   UNL A   1      42.329  25.960  28.786  1.00  0.00     0.010 A 
ATOM     34  C   UNL A   1      41.354  26.901  28.463  1.00  0.00    -0.014 A 
BRANCH  34  35
ATOM     35  C   UNL A   1      41.307  28.217  29.090  1.00  0.00     0.031 A 
ATOM     36  C   UNL A   1      42.271  29.235  28.565  1.00  0.00     0.074 A 
ATOM     37  C   UNL A   1      40.357  28.517  29.996  1.00  0.00     0.049 A 
ATOM     38  N   UNL A   1      43.121  29.976  29.204  1.00  0.00    -0.248 NA
ATOM     39  C   UNL A   1      42.343  29.375  27.102  1.00  0.00     0.031 C 
ATOM     40  C   UNL A   1      39.172  27.728  30.355  1.00  0.00     0.029 A 
ATOM     41  N   UNL A   1      40.183  29.667  30.697  1.00  0.00    -0.354 N 
ATOM     42  C   UNL A   1      43.732  30.789  28.241  1.00  0.00     0.074 A 
ATOM     43  C   UNL A   1      43.296  30.294  26.960  1.00  0.00     0.031 C 
ATOM     44  C   UNL A   1      38.287  28.526  30.990  1.00  0.00     0.029 A 
ATOM     45  C   UNL A   1      38.910  29.818  31.221  1.00  0.00     0.049 A 
ATOM     46  H   UNL A   1      40.896  30.335  30.821  1.00  0.00     0.167 HD
ATOM     47  C   UNL A   1      44.455  31.906  28.548  1.00  0.00     0.034 A 
ATOM     48  C   UNL A   1      38.371  30.956  31.715  1.00  0.00     0.034 A 
ATOM     49  C   UNL A   1      44.859  31.916  29.923  1.00  0.00     0.049 A 
ATOM     50  C   UNL A   1      39.473  31.909  31.987  1.00  0.00     0.074 A 
ATOM     51  C   UNL A   1      45.749  31.184  30.680  1.00  0.00     0.029 A 
ATOM     52  N   UNL A   1      44.092  32.618  30.817  1.00  0.00    -0.354 N 
ATOM     53  N   UNL A   1      40.368  31.759  32.923  1.00  0.00    -0.248 NA
ATOM     54  C   UNL A   1      39.826  32.842  30.928  1.00  0.00     0.031 C 
ATOM     55  C   UNL A   1      45.164  31.123  31.976  1.00  0.00     0.029 A 
ATOM     56  C   UNL A   1      43.968  31.846  31.942  1.00  0.00     0.049 A 
ATOM     57  H   UNL A   1      43.702  33.511  30.675  1.00  0.00     0.167 HD
ATOM     58  C   UNL A   1      41.547  32.238  32.367  1.00  0.00     0.074 A 
ATOM     59  C   UNL A   1      41.127  32.987  31.184  1.00  0.00     0.031 C 
ATOM     60  C   UNL A   1      42.769  31.765  32.754  1.00  0.00     0.034 A 
BRANCH  47  61
ATOM     61  C   UNL A   1      44.598  33.114  27.649  1.00  0.00     0.023 A 
ATOM     62  C   UNL A   1      43.969  34.343  27.921  1.00  0.00     0.031 A 
ATOM     63  C   UNL A   1      45.548  33.133  26.604  1.00  0.00     0.131 A 
ATOM     64  C   UNL A   1      44.250  35.499  27.179  1.00  0.00     0.055 A 
ATOM     65  C   UNL A   1      45.879  34.304  25.905  1.00  0.00     0.041 A 
ATOM     66  F   UNL A   1      46.226  32.028  26.261  1.00  0.00    -0.206 F 
ATOM     67  C   UNL A   1      45.227  35.496  26.190  1.00  0.00     0.022 A 
BRANCH  64  68
ATOM     68  S   UNL A   1      43.340  37.036  27.500  1.00  0.00     0.124 S 
ATOM     69  O   UNL A   1      44.232  38.038  26.927  1.00  0.00    -0.237 OA
ATOM     70  O   UNL A   1      42.097  36.804  26.768  1.00  0.00    -0.237 OA
ATOM     71  O   UNL A   1      43.206  37.055  28.953  1.00  0.00    -0.744 OA
ENDBRANCH  64  68
ENDBRANCH  47  61
BRANCH  48  72
ATOM     72  C   UNL A   1      36.980  31.408  31.490  1.00  0.00     0.023 A 
ATOM     73  C   UNL A   1      36.518  31.610  30.174  1.00  0.00     0.031 A 
ATOM     74  C   UNL A   1      36.196  31.908  32.539  1.00  0.00     0.131 A 
ATOM     75  C   UNL A   1      35.332  32.317  29.938  1.00  0.00     0.055 A 
ATOM     76  C   UNL A   1      35.003  32.601  32.301  1.00  0.00     0.041 A 
ATOM     77  F   UNL A   1      36.603  31.780  33.811  1.00  0.00    -0.206 F 
ATOM     78  C   UNL A   1      34.572  32.818  30.994  1.00  0.00     0.022 A 
BRANCH  75  79
ATOM     79  S   UNL A   1      34.789  32.664  28.242  1.00  0.00     0.124 S 
ATOM     80  O   UNL A   1      34.419  31.336  27.759  1.00  0.00    -0.237 OA
ATOM     81  O   UNL A   1      33.677  33.582  28.468  1.00  0.00    -0.237 OA
ATOM     82  O   UNL A   1      35.973  33.242  27.613  1.00  0.00    -0.744 OA
ENDBRANCH  75  79
ENDBRANCH  48  72
BRANCH  60  83
ATOM     83  C   UNL A   1      42.856  30.853  33.961  1.00  0.00     0.023 A 
ATOM     84  C   UNL A   1      42.513  29.501  33.784  1.00  0.00     0.031 A 
ATOM     85  C   UNL A   1      43.005  31.315  35.284  1.00  0.00     0.131 A 
ATOM     86  C   UNL A   1      42.280  28.677  34.894  1.00  0.00     0.055 A 
ATOM     87  C   UNL A   1      42.842  30.471  36.388  1.00  0.00     0.041 A 
ATOM     88  F   UNL A   1      43.215  32.608  35.553  1.00  0.00    -0.206 F 
ATOM     89  C   UNL A   1      42.459  29.149  36.196  1.00  0.00     0.022 A 
BRANCH  86  90
ATOM     90  S   UNL A   1      41.569  27.026  34.671  1.00  0.00     0.124 S 
ATOM     91  O   UNL A   1      41.132  26.693  36.028  1.00  0.00    -0.237 OA
ATOM     92  O   UNL A   1      40.486  27.282  33.717  1.00  0.00    -0.237 OA
ATOM     93  O   UNL A   1      42.668  26.230  34.156  1.00  0.00    -0.744 OA
ENDBRANCH  86  90
ENDBRANCH  60  83
ENDBRANCH  34  35
ENDBRANCH  26  29
ENDBRANCH  24  25
ENDBRANCH   1  24
TORSDOF 17
ENDMDL
