MODEL 1
REMARK VINA RESULT:     -13.8      0.000      0.000
REMARK SMILES Cc1cc(C(=O)NCCCNC(=O)c2ccc(-c3c4nc(c(-c5cc(S(=O)(=O)[O-])ccc5F)c5ccc([nH]5)c(-c5cc(S(=O)(=O)[O-])ccc5F)c5nc(c(-c6cc(S(=O)(=O)[O-])ccc6F)c6ccc3[nH]6)C=C5)C=C4)cc2)ccc1NC(=O)c1ccc(=O)n(CCOc2ccccc2)n1
REMARK SMILES IDX 5 1 6 2 7 3 4 5 1 6 2 7 3 8 79 9 78 10 77 11 80 12 81 13
REMARK SMILES IDX 82 15 83 16 84 17 98 18 85 19 88 20 86 21 87 22 89 23 90 24
REMARK SMILES IDX 91 25 92 26 93 27 97 28 94 29 96 30 95 31 8 32 9 33 10 34
REMARK SMILES IDX 11 35 12 36 13 38 14 39 15 40 76 41 16 42 75 43 17 44 18 45
REMARK SMILES IDX 19 46 69 47 20 48 74 49 68 50 70 51 21 52 73 53 67 54 66 55
REMARK SMILES IDX 22 57 54 58 34 59 53 60 35 61 38 62 52 63 71 64 36 65 37 66
REMARK SMILES IDX 51 68 72 69 39 70 23 71 24 72 32 73 25 74 31 75 33 76 30 77
REMARK SMILES IDX 26 78 27 79 28 80 29 81 55 82 56 83 64 84 57 85 63 86 65 87
REMARK SMILES IDX 62 88 58 89 59 90 60 91 61 92 40 93 41 94 49 95 42 96 48 97
REMARK SMILES IDX 50 98 47 99 43 100 44 101 45 102 46 103
REMARK H PARENT 7 4 80 14 11 37 70 56 38 67
REMARK Flexibility Score: inf
ROOT
ATOM      1  C   UNL A   1      31.536  28.338  26.984  1.00  0.00     0.251 C 
ATOM      2  O   UNL A   1      31.027  27.452  27.639  1.00  0.00    -0.269 OA
ATOM      3  N   UNL A   1      31.916  29.544  27.560  1.00  0.00    -0.352 N 
ATOM      4  H   UNL A   1      31.840  29.592  28.540  1.00  0.00     0.163 HD
ENDROOT
BRANCH   1   5
ATOM      5  C   UNL A   1      31.699  28.156  25.513  1.00  0.00     0.040 A 
ATOM      6  C   UNL A   1      34.237  28.947  22.807  1.00  0.00     0.046 C 
ATOM      7  C   UNL A   1      33.077  28.273  23.485  1.00  0.00    -0.027 A 
ATOM      8  C   UNL A   1      32.843  28.607  24.846  1.00  0.00     0.019 A 
ATOM      9  C   UNL A   1      32.170  27.414  22.830  1.00  0.00     0.044 A 
ATOM     10  C   UNL A   1      30.942  27.199  23.447  1.00  0.00     0.027 A 
ATOM     11  C   UNL A   1      30.694  27.576  24.760  1.00  0.00     0.016 A 
BRANCH   9  12
ATOM     12  N   UNL A   1      32.459  26.822  21.575  1.00  0.00    -0.320 N 
ATOM     13  C   UNL A   1      32.843  25.515  21.275  1.00  0.00     0.276 C 
ATOM     14  H   UNL A   1      32.375  27.422  20.798  1.00  0.00     0.170 HD
ATOM     15  O   UNL A   1      33.005  25.133  20.120  1.00  0.00    -0.267 OA
BRANCH  13  16
ATOM     16  C   UNL A   1      33.330  24.623  22.412  1.00  0.00     0.149 A 
ATOM     17  C   UNL A   1      34.392  25.230  23.234  1.00  0.00     0.042 A 
ATOM     18  N   UNL A   1      32.773  23.471  22.644  1.00  0.00    -0.164 NA
ATOM     19  C   UNL A   1      34.453  24.796  24.489  1.00  0.00     0.076 A 
ATOM     20  N   UNL A   1      32.936  22.976  23.948  1.00  0.00    -0.226 N 
ATOM     21  C   UNL A   1      33.510  23.758  24.951  1.00  0.00     0.266 A 
ATOM     22  O   UNL A   1      33.364  23.616  26.159  1.00  0.00    -0.268 OA
BRANCH  20  23
ATOM     23  C   UNL A   1      32.108  21.814  24.330  1.00  0.00     0.190 C 
BRANCH  23  24
ATOM     24  C   UNL A   1      32.901  20.527  24.623  1.00  0.00     0.253 C 
BRANCH  24  25
ATOM     25  O   UNL A   1      32.104  19.433  25.131  1.00  0.00    -0.492 OA
BRANCH  25  26
ATOM     26  C   UNL A   1      32.690  18.220  24.917  1.00  0.00     0.119 A 
ATOM     27  C   UNL A   1      32.511  17.173  25.809  1.00  0.00     0.046 A 
ATOM     28  C   UNL A   1      33.561  18.065  23.849  1.00  0.00     0.046 A 
ATOM     29  C   UNL A   1      33.103  15.932  25.542  1.00  0.00     0.004 A 
ATOM     30  C   UNL A   1      34.082  16.818  23.526  1.00  0.00     0.004 A 
ATOM     31  C   UNL A   1      33.845  15.742  24.373  1.00  0.00     0.000 A 
ENDBRANCH  25  26
ENDBRANCH  24  25
ENDBRANCH  23  24
ENDBRANCH  20  23
ENDBRANCH  13  16
ENDBRANCH   9  12
ENDBRANCH   1   5
BRANCH   3  32
ATOM     32  C   UNL A   1      32.415  30.754  26.901  1.00  0.00     0.118 C 
BRANCH  32  33
ATOM     33  C   UNL A   1      33.433  31.542  27.704  1.00  0.00     0.042 C 
BRANCH  33  34
ATOM     34  C   UNL A   1      34.822  30.921  27.723  1.00  0.00     0.118 C 
BRANCH  34  35
ATOM     35  N   UNL A   1      35.764  31.557  28.665  1.00  0.00    -0.352 N 
ATOM     36  C   UNL A   1      36.870  31.042  29.334  1.00  0.00     0.251 C 
ATOM     37  H   UNL A   1      35.578  32.505  28.852  1.00  0.00     0.163 HD
ATOM     38  O   UNL A   1      37.622  31.746  30.001  1.00  0.00    -0.269 OA
BRANCH  36  39
ATOM     39  C   UNL A   1      37.232  29.620  29.130  1.00  0.00     0.039 A 
ATOM     40  C   UNL A   1      37.508  28.887  30.291  1.00  0.00     0.014 A 
ATOM     41  C   UNL A   1      37.790  29.264  27.914  1.00  0.00     0.014 A 
ATOM     42  C   UNL A   1      38.660  28.115  30.325  1.00  0.00     0.010 A 
ATOM     43  C   UNL A   1      39.005  28.621  27.978  1.00  0.00     0.010 A 
ATOM     44  C   UNL A   1      39.482  28.143  29.206  1.00  0.00    -0.014 A 
BRANCH  44  45
ATOM     45  C   UNL A   1      40.861  27.692  29.207  1.00  0.00     0.031 A 
ATOM     46  C   UNL A   1      41.107  26.329  28.724  1.00  0.00     0.074 A 
ATOM     47  C   UNL A   1      41.875  28.498  29.592  1.00  0.00     0.049 A 
ATOM     48  N   UNL A   1      42.091  25.592  29.086  1.00  0.00    -0.248 NA
ATOM     49  C   UNL A   1      40.170  25.652  27.835  1.00  0.00     0.031 C 
ATOM     50  C   UNL A   1      43.309  28.255  29.456  1.00  0.00     0.029 A 
ATOM     51  N   UNL A   1      41.796  29.635  30.392  1.00  0.00    -0.354 N 
ATOM     52  C   UNL A   1      42.089  24.480  28.276  1.00  0.00     0.074 A 
ATOM     53  C   UNL A   1      40.818  24.512  27.600  1.00  0.00     0.031 C 
ATOM     54  C   UNL A   1      43.969  29.032  30.333  1.00  0.00     0.029 A 
ATOM     55  C   UNL A   1      42.980  29.697  31.160  1.00  0.00     0.049 A 
ATOM     56  H   UNL A   1      41.052  30.278  30.418  1.00  0.00     0.167 HD
ATOM     57  C   UNL A   1      43.233  23.751  28.167  1.00  0.00     0.034 A 
ATOM     58  C   UNL A   1      42.902  29.614  32.524  1.00  0.00     0.034 A 
ATOM     59  C   UNL A   1      44.258  24.264  29.087  1.00  0.00     0.049 A 
ATOM     60  C   UNL A   1      43.449  28.302  33.070  1.00  0.00     0.074 A 
ATOM     61  C   UNL A   1      45.353  25.099  28.938  1.00  0.00     0.029 A 
ATOM     62  N   UNL A   1      44.009  24.214  30.452  1.00  0.00    -0.354 N 
ATOM     63  N   UNL A   1      43.981  27.351  32.346  1.00  0.00    -0.248 NA
ATOM     64  C   UNL A   1      43.357  27.931  34.480  1.00  0.00     0.031 C 
ATOM     65  C   UNL A   1      45.723  25.584  30.232  1.00  0.00     0.029 A 
ATOM     66  C   UNL A   1      44.887  25.006  31.170  1.00  0.00     0.049 A 
ATOM     67  H   UNL A   1      43.293  23.677  30.860  1.00  0.00     0.167 HD
ATOM     68  C   UNL A   1      44.234  26.250  33.128  1.00  0.00     0.074 A 
ATOM     69  C   UNL A   1      43.810  26.666  34.458  1.00  0.00     0.031 C 
ATOM     70  C   UNL A   1      44.736  25.076  32.622  1.00  0.00     0.034 A 
BRANCH  57  71
ATOM     71  C   UNL A   1      43.514  22.786  27.033  1.00  0.00     0.023 A 
ATOM     72  C   UNL A   1      42.911  21.514  27.071  1.00  0.00     0.031 A 
ATOM     73  C   UNL A   1      44.384  22.998  25.942  1.00  0.00     0.131 A 
ATOM     74  C   UNL A   1      43.247  20.512  26.141  1.00  0.00     0.055 A 
ATOM     75  C   UNL A   1      44.766  21.986  25.051  1.00  0.00     0.041 A 
ATOM     76  F   UNL A   1      44.864  24.206  25.631  1.00  0.00    -0.206 F 
ATOM     77  C   UNL A   1      44.202  20.728  25.154  1.00  0.00     0.022 A 
BRANCH  74  78
ATOM     78  S   UNL A   1      42.406  18.912  26.238  1.00  0.00     0.124 S 
ATOM     79  O   UNL A   1      41.070  19.237  25.751  1.00  0.00    -0.237 OA
ATOM     80  O   UNL A   1      43.228  18.079  25.367  1.00  0.00    -0.237 OA
ATOM     81  O   UNL A   1      42.481  18.576  27.659  1.00  0.00    -0.744 OA
ENDBRANCH  74  78
ENDBRANCH  57  71
BRANCH  58  82
ATOM     82  C   UNL A   1      41.707  30.363  33.033  1.00  0.00     0.023 A 
ATOM     83  C   UNL A   1      41.735  31.771  32.880  1.00  0.00     0.031 A 
ATOM     84  C   UNL A   1      40.455  29.737  33.109  1.00  0.00     0.131 A 
ATOM     85  C   UNL A   1      40.559  32.462  32.543  1.00  0.00     0.055 A 
ATOM     86  C   UNL A   1      39.280  30.449  32.848  1.00  0.00     0.041 A 
ATOM     87  F   UNL A   1      40.360  28.409  33.263  1.00  0.00    -0.206 F 
ATOM     88  C   UNL A   1      39.336  31.797  32.486  1.00  0.00     0.022 A 
BRANCH  85  89
ATOM     89  S   UNL A   1      40.696  34.155  31.888  1.00  0.00     0.124 S 
ATOM     90  O   UNL A   1      39.299  34.544  31.735  1.00  0.00    -0.237 OA
ATOM     91  O   UNL A   1      41.442  34.848  32.934  1.00  0.00    -0.237 OA
ATOM     92  O   UNL A   1      41.442  33.992  30.641  1.00  0.00    -0.744 OA
ENDBRANCH  85  89
ENDBRANCH  58  82
BRANCH  70  93
ATOM     93  C   UNL A   1      45.079  23.855  33.462  1.00  0.00     0.023 A 
ATOM     94  C   UNL A   1      46.397  23.528  33.805  1.00  0.00     0.031 A 
ATOM     95  C   UNL A   1      44.099  22.932  33.908  1.00  0.00     0.131 A 
ATOM     96  C   UNL A   1      46.686  22.461  34.674  1.00  0.00     0.055 A 
ATOM     97  C   UNL A   1      44.394  21.823  34.707  1.00  0.00     0.041 A 
ATOM     98  F   UNL A   1      42.801  23.056  33.603  1.00  0.00    -0.206 F 
ATOM     99  C   UNL A   1      45.693  21.598  35.124  1.00  0.00     0.022 A 
BRANCH  96 100
ATOM    100  S   UNL A   1      48.388  22.273  35.257  1.00  0.00     0.124 S 
ATOM    101  O   UNL A   1      49.151  23.005  34.251  1.00  0.00    -0.237 OA
ATOM    102  O   UNL A   1      48.319  22.897  36.576  1.00  0.00    -0.237 OA
ATOM    103  O   UNL A   1      48.593  20.827  35.264  1.00  0.00    -0.744 OA
ENDBRANCH  96 100
ENDBRANCH  70  93
ENDBRANCH  44  45
ENDBRANCH  36  39
ENDBRANCH  34  35
ENDBRANCH  33  34
ENDBRANCH  32  33
ENDBRANCH   3  32
TORSDOF 19
ENDMDL
MODEL 2
REMARK VINA RESULT:     -13.8      1.298      2.100
REMARK SMILES Cc1cc(C(=O)NCCCNC(=O)c2ccc(-c3c4nc(c(-c5cc(S(=O)(=O)[O-])ccc5F)c5ccc([nH]5)c(-c5cc(S(=O)(=O)[O-])ccc5F)c5nc(c(-c6cc(S(=O)(=O)[O-])ccc6F)c6ccc3[nH]6)C=C5)C=C4)cc2)ccc1NC(=O)c1ccc(=O)n(CCOc2ccccc2)n1
REMARK SMILES IDX 5 1 6 2 7 3 4 5 1 6 2 7 3 8 79 9 78 10 77 11 80 12 81 13
REMARK SMILES IDX 82 15 83 16 84 17 98 18 85 19 88 20 86 21 87 22 89 23 90 24
REMARK SMILES IDX 91 25 92 26 93 27 97 28 94 29 96 30 95 31 8 32 9 33 10 34
REMARK SMILES IDX 11 35 12 36 13 38 14 39 15 40 76 41 16 42 75 43 17 44 18 45
REMARK SMILES IDX 19 46 69 47 20 48 74 49 68 50 70 51 21 52 73 53 67 54 66 55
REMARK SMILES IDX 22 57 54 58 34 59 53 60 35 61 38 62 52 63 71 64 36 65 37 66
REMARK SMILES IDX 51 68 72 69 39 70 23 71 24 72 32 73 25 74 31 75 33 76 30 77
REMARK SMILES IDX 26 78 27 79 28 80 29 81 55 82 56 83 64 84 57 85 63 86 65 87
REMARK SMILES IDX 62 88 58 89 59 90 60 91 61 92 40 93 41 94 49 95 42 96 48 97
REMARK SMILES IDX 50 98 47 99 43 100 44 101 45 102 46 103
REMARK H PARENT 7 4 80 14 11 37 70 56 38 67
REMARK Flexibility Score: inf
ROOT
ATOM      1  C   UNL A   1      33.010  28.747  24.114  1.00  0.00     0.251 C 
ATOM      2  O   UNL A   1      33.348  28.534  22.968  1.00  0.00    -0.269 OA
ATOM      3  N   UNL A   1      33.515  29.824  24.834  1.00  0.00    -0.352 N 
ATOM      4  H   UNL A   1      34.079  30.451  24.326  1.00  0.00     0.163 HD
ENDROOT
BRANCH   1   5
ATOM      5  C   UNL A   1      32.081  27.797  24.790  1.00  0.00     0.040 A 
ATOM      6  C   UNL A   1      28.634  26.310  24.247  1.00  0.00     0.046 C 
ATOM      7  C   UNL A   1      30.029  26.450  24.790  1.00  0.00    -0.027 A 
ATOM      8  C   UNL A   1      30.832  27.487  24.242  1.00  0.00     0.019 A 
ATOM      9  C   UNL A   1      30.542  25.684  25.856  1.00  0.00     0.044 A 
ATOM     10  C   UNL A   1      31.661  26.183  26.515  1.00  0.00     0.027 A 
ATOM     11  C   UNL A   1      32.414  27.234  26.009  1.00  0.00     0.016 A 
BRANCH   9  12
ATOM     12  N   UNL A   1      29.934  24.477  26.283  1.00  0.00    -0.320 N 
ATOM     13  C   UNL A   1      30.351  23.158  26.102  1.00  0.00     0.276 C 
ATOM     14  H   UNL A   1      29.092  24.586  26.784  1.00  0.00     0.170 HD
ATOM     15  O   UNL A   1      29.738  22.211  26.586  1.00  0.00    -0.267 OA
BRANCH  13  16
ATOM     16  C   UNL A   1      31.430  22.873  25.065  1.00  0.00     0.149 A 
ATOM     17  C   UNL A   1      31.046  23.236  23.688  1.00  0.00     0.042 A 
ATOM     18  N   UNL A   1      32.598  22.424  25.420  1.00  0.00    -0.164 NA
ATOM     19  C   UNL A   1      32.058  23.541  22.881  1.00  0.00     0.076 A 
ATOM     20  N   UNL A   1      33.638  22.663  24.506  1.00  0.00    -0.226 N 
ATOM     21  C   UNL A   1      33.443  23.473  23.387  1.00  0.00     0.266 A 
ATOM     22  O   UNL A   1      34.312  24.061  22.753  1.00  0.00    -0.268 OA
BRANCH  20  23
ATOM     23  C   UNL A   1      35.014  22.411  24.979  1.00  0.00     0.190 C 
BRANCH  23  24
ATOM     24  C   UNL A   1      35.501  20.961  24.798  1.00  0.00     0.253 C 
BRANCH  24  25
ATOM     25  O   UNL A   1      34.681  19.967  25.454  1.00  0.00    -0.492 OA
BRANCH  25  26
ATOM     26  C   UNL A   1      34.120  19.092  24.570  1.00  0.00     0.119 A 
ATOM     27  C   UNL A   1      32.893  19.361  23.980  1.00  0.00     0.046 A 
ATOM     28  C   UNL A   1      34.733  17.869  24.341  1.00  0.00     0.046 A 
ATOM     29  C   UNL A   1      32.361  18.455  23.056  1.00  0.00     0.004 A 
ATOM     30  C   UNL A   1      34.260  17.003  23.362  1.00  0.00     0.004 A 
ATOM     31  C   UNL A   1      33.071  17.302  22.709  1.00  0.00     0.000 A 
ENDBRANCH  25  26
ENDBRANCH  24  25
ENDBRANCH  23  24
ENDBRANCH  20  23
ENDBRANCH  13  16
ENDBRANCH   9  12
ENDBRANCH   1   5
BRANCH   3  32
ATOM     32  C   UNL A   1      33.320  30.148  26.249  1.00  0.00     0.118 C 
BRANCH  32  33
ATOM     33  C   UNL A   1      34.583  30.111  27.091  1.00  0.00     0.042 C 
BRANCH  33  34
ATOM     34  C   UNL A   1      34.404  30.653  28.501  1.00  0.00     0.118 C 
BRANCH  34  35
ATOM     35  N   UNL A   1      35.555  31.424  29.011  1.00  0.00    -0.352 N 
ATOM     36  C   UNL A   1      36.862  31.035  29.285  1.00  0.00     0.251 C 
ATOM     37  H   UNL A   1      35.365  32.374  29.186  1.00  0.00     0.163 HD
ATOM     38  O   UNL A   1      37.735  31.839  29.598  1.00  0.00    -0.269 OA
BRANCH  36  39
ATOM     39  C   UNL A   1      37.251  29.623  29.063  1.00  0.00     0.039 A 
ATOM     40  C   UNL A   1      37.519  28.875  30.217  1.00  0.00     0.014 A 
ATOM     41  C   UNL A   1      37.834  29.297  27.852  1.00  0.00     0.014 A 
ATOM     42  C   UNL A   1      38.682  28.121  30.257  1.00  0.00     0.010 A 
ATOM     43  C   UNL A   1      39.058  28.671  27.925  1.00  0.00     0.010 A 
ATOM     44  C   UNL A   1      39.522  28.181  29.153  1.00  0.00    -0.014 A 
BRANCH  44  45
ATOM     45  C   UNL A   1      40.908  27.752  29.170  1.00  0.00     0.031 A 
ATOM     46  C   UNL A   1      41.182  26.397  28.679  1.00  0.00     0.074 A 
ATOM     47  C   UNL A   1      41.904  28.571  29.576  1.00  0.00     0.049 A 
ATOM     48  N   UNL A   1      42.173  25.672  29.050  1.00  0.00    -0.248 NA
ATOM     49  C   UNL A   1      40.270  25.712  27.771  1.00  0.00     0.031 C 
ATOM     50  C   UNL A   1      43.343  28.352  29.459  1.00  0.00     0.029 A 
ATOM     51  N   UNL A   1      41.796  29.699  30.384  1.00  0.00    -0.354 N 
ATOM     52  C   UNL A   1      42.201  24.568  28.230  1.00  0.00     0.074 A 
ATOM     53  C   UNL A   1      40.939  24.585  27.537  1.00  0.00     0.031 C 
ATOM     54  C   UNL A   1      43.978  29.132  30.351  1.00  0.00     0.029 A 
ATOM     55  C   UNL A   1      42.967  29.773  31.170  1.00  0.00     0.049 A 
ATOM     56  H   UNL A   1      41.040  30.331  30.405  1.00  0.00     0.167 HD
ATOM     57  C   UNL A   1      43.358  23.858  28.132  1.00  0.00     0.034 A 
ATOM     58  C   UNL A   1      42.871  29.678  32.531  1.00  0.00     0.034 A 
ATOM     59  C   UNL A   1      44.361  24.380  29.071  1.00  0.00     0.049 A 
ATOM     60  C   UNL A   1      43.432  28.370  33.074  1.00  0.00     0.074 A 
ATOM     61  C   UNL A   1      45.445  25.233  28.944  1.00  0.00     0.029 A 
ATOM     62  N   UNL A   1      44.094  24.314  30.431  1.00  0.00    -0.354 N 
ATOM     63  N   UNL A   1      43.989  27.434  32.351  1.00  0.00    -0.248 NA
ATOM     64  C   UNL A   1      43.326  27.987  34.479  1.00  0.00     0.031 C 
ATOM     65  C   UNL A   1      45.789  25.712  30.247  1.00  0.00     0.029 A 
ATOM     66  C   UNL A   1      44.949  25.114  31.168  1.00  0.00     0.049 A 
ATOM     67  H   UNL A   1      43.380  23.762  30.825  1.00  0.00     0.167 HD
ATOM     68  C   UNL A   1      44.249  26.331  33.127  1.00  0.00     0.074 A 
ATOM     69  C   UNL A   1      43.799  26.729  34.454  1.00  0.00     0.031 C 
ATOM     70  C   UNL A   1      44.776  25.169  32.619  1.00  0.00     0.034 A 
BRANCH  57  71
ATOM     71  C   UNL A   1      43.670  22.908  26.994  1.00  0.00     0.023 A 
ATOM     72  C   UNL A   1      43.025  21.656  26.970  1.00  0.00     0.031 A 
ATOM     73  C   UNL A   1      44.606  23.112  25.957  1.00  0.00     0.131 A 
ATOM     74  C   UNL A   1      43.379  20.662  26.039  1.00  0.00     0.055 A 
ATOM     75  C   UNL A   1      45.004  22.106  25.067  1.00  0.00     0.041 A 
ATOM     76  F   UNL A   1      45.141  24.309  25.700  1.00  0.00    -0.206 F 
ATOM     77  C   UNL A   1      44.395  20.865  25.110  1.00  0.00     0.022 A 
BRANCH  74  78
ATOM     78  S   UNL A   1      42.483  19.089  26.054  1.00  0.00     0.124 S 
ATOM     79  O   UNL A   1      43.373  18.222  25.289  1.00  0.00    -0.237 OA
ATOM     80  O   UNL A   1      42.373  18.811  27.481  1.00  0.00    -0.237 OA
ATOM     81  O   UNL A   1      41.220  19.414  25.392  1.00  0.00    -0.744 OA
ENDBRANCH  74  78
ENDBRANCH  57  71
BRANCH  58  82
ATOM     82  C   UNL A   1      41.657  30.404  33.030  1.00  0.00     0.023 A 
ATOM     83  C   UNL A   1      41.644  31.808  32.844  1.00  0.00     0.031 A 
ATOM     84  C   UNL A   1      40.425  29.744  33.126  1.00  0.00     0.131 A 
ATOM     85  C   UNL A   1      40.447  32.457  32.498  1.00  0.00     0.055 A 
ATOM     86  C   UNL A   1      39.228  30.415  32.855  1.00  0.00     0.041 A 
ATOM     87  F   UNL A   1      40.369  28.417  33.310  1.00  0.00    -0.206 F 
ATOM     88  C   UNL A   1      39.243  31.756  32.463  1.00  0.00     0.022 A 
BRANCH  85  89
ATOM     89  S   UNL A   1      40.531  34.138  31.804  1.00  0.00     0.124 S 
ATOM     90  O   UNL A   1      40.456  33.888  30.369  1.00  0.00    -0.237 OA
ATOM     91  O   UNL A   1      39.371  34.794  32.401  1.00  0.00    -0.237 OA
ATOM     92  O   UNL A   1      41.812  34.655  32.285  1.00  0.00    -0.744 OA
ENDBRANCH  85  89
ENDBRANCH  58  82
BRANCH  70  93
ATOM     93  C   UNL A   1      45.127  23.947  33.453  1.00  0.00     0.023 A 
ATOM     94  C   UNL A   1      46.436  23.678  33.875  1.00  0.00     0.031 A 
ATOM     95  C   UNL A   1      44.169  22.965  33.815  1.00  0.00     0.131 A 
ATOM     96  C   UNL A   1      46.722  22.606  34.738  1.00  0.00     0.055 A 
ATOM     97  C   UNL A   1      44.469  21.853  34.607  1.00  0.00     0.041 A 
ATOM     98  F   UNL A   1      42.889  23.031  33.428  1.00  0.00    -0.206 F 
ATOM     99  C   UNL A   1      45.748  21.684  35.104  1.00  0.00     0.022 A 
BRANCH  96 100
ATOM    100  S   UNL A   1      48.391  22.489  35.427  1.00  0.00     0.124 S 
ATOM    101  O   UNL A   1      49.208  22.252  34.242  1.00  0.00    -0.237 OA
ATOM    102  O   UNL A   1      48.546  23.801  36.050  1.00  0.00    -0.237 OA
ATOM    103  O   UNL A   1      48.302  21.367  36.357  1.00  0.00    -0.744 OA
ENDBRANCH  96 100
ENDBRANCH  70  93
ENDBRANCH  44  45
ENDBRANCH  36  39
ENDBRANCH  34  35
ENDBRANCH  33  34
ENDBRANCH  32  33
ENDBRANCH   3  32
TORSDOF 19
ENDMDL
MODEL 3
REMARK VINA RESULT:     -13.7      1.655      2.032
REMARK SMILES Cc1cc(C(=O)NCCCNC(=O)c2ccc(-c3c4nc(c(-c5cc(S(=O)(=O)[O-])ccc5F)c5ccc([nH]5)c(-c5cc(S(=O)(=O)[O-])ccc5F)c5nc(c(-c6cc(S(=O)(=O)[O-])ccc6F)c6ccc3[nH]6)C=C5)C=C4)cc2)ccc1NC(=O)c1ccc(=O)n(CCOc2ccccc2)n1
REMARK SMILES IDX 5 1 6 2 7 3 4 5 1 6 2 7 3 8 79 9 78 10 77 11 80 12 81 13
REMARK SMILES IDX 82 15 83 16 84 17 98 18 85 19 88 20 86 21 87 22 89 23 90 24
REMARK SMILES IDX 91 25 92 26 93 27 97 28 94 29 96 30 95 31 8 32 9 33 10 34
REMARK SMILES IDX 11 35 12 36 13 38 14 39 15 40 76 41 16 42 75 43 17 44 18 45
REMARK SMILES IDX 19 46 69 47 20 48 74 49 68 50 70 51 21 52 73 53 67 54 66 55
REMARK SMILES IDX 22 57 54 58 34 59 53 60 35 61 38 62 52 63 71 64 36 65 37 66
REMARK SMILES IDX 51 68 72 69 39 70 23 71 24 72 32 73 25 74 31 75 33 76 30 77
REMARK SMILES IDX 26 78 27 79 28 80 29 81 55 82 56 83 64 84 57 85 63 86 65 87
REMARK SMILES IDX 62 88 58 89 59 90 60 91 61 92 40 93 41 94 49 95 42 96 48 97
REMARK SMILES IDX 50 98 47 99 43 100 44 101 45 102 46 103
REMARK H PARENT 7 4 80 14 11 37 70 56 38 67
REMARK Flexibility Score: inf
ROOT
ATOM      1  C   UNL A   1      31.875  28.615  27.061  1.00  0.00     0.251 C 
ATOM      2  O   UNL A   1      31.429  27.733  27.767  1.00  0.00    -0.269 OA
ATOM      3  N   UNL A   1      32.223  29.856  27.579  1.00  0.00    -0.352 N 
ATOM      4  H   UNL A   1      32.180  29.938  28.559  1.00  0.00     0.163 HD
ENDROOT
BRANCH   1   5
ATOM      5  C   UNL A   1      31.993  28.385  25.592  1.00  0.00     0.040 A 
ATOM      6  C   UNL A   1      34.508  28.956  22.811  1.00  0.00     0.046 C 
ATOM      7  C   UNL A   1      33.327  28.368  23.532  1.00  0.00    -0.027 A 
ATOM      8  C   UNL A   1      33.145  28.751  24.888  1.00  0.00     0.019 A 
ATOM      9  C   UNL A   1      32.357  27.547  22.921  1.00  0.00     0.044 A 
ATOM     10  C   UNL A   1      31.133  27.420  23.571  1.00  0.00     0.027 A 
ATOM     11  C   UNL A   1      30.938  27.845  24.878  1.00  0.00     0.016 A 
BRANCH   9  12
ATOM     12  N   UNL A   1      32.581  26.906  21.677  1.00  0.00    -0.320 N 
ATOM     13  C   UNL A   1      32.859  25.567  21.403  1.00  0.00     0.276 C 
ATOM     14  H   UNL A   1      32.534  27.494  20.888  1.00  0.00     0.170 HD
ATOM     15  O   UNL A   1      32.974  25.148  20.255  1.00  0.00    -0.267 OA
BRANCH  13  16
ATOM     16  C   UNL A   1      33.290  24.665  22.554  1.00  0.00     0.149 A 
ATOM     17  C   UNL A   1      34.432  25.188  23.327  1.00  0.00     0.042 A 
ATOM     18  N   UNL A   1      32.630  23.581  22.839  1.00  0.00    -0.164 NA
ATOM     19  C   UNL A   1      34.488  24.787  24.593  1.00  0.00     0.076 A 
ATOM     20  N   UNL A   1      32.783  23.111  24.153  1.00  0.00    -0.226 N 
ATOM     21  C   UNL A   1      33.462  23.862  25.114  1.00  0.00     0.266 A 
ATOM     22  O   UNL A   1      33.339  23.771  26.330  1.00  0.00    -0.268 OA
BRANCH  20  23
ATOM     23  C   UNL A   1      31.857  22.049  24.595  1.00  0.00     0.190 C 
BRANCH  23  24
ATOM     24  C   UNL A   1      32.272  20.623  24.188  1.00  0.00     0.253 C 
BRANCH  24  25
ATOM     25  O   UNL A   1      32.223  19.654  25.260  1.00  0.00    -0.492 OA
BRANCH  25  26
ATOM     26  C   UNL A   1      32.751  18.450  24.896  1.00  0.00     0.119 A 
ATOM     27  C   UNL A   1      33.328  18.271  23.647  1.00  0.00     0.046 A 
ATOM     28  C   UNL A   1      32.614  17.363  25.747  1.00  0.00     0.046 A 
ATOM     29  C   UNL A   1      33.886  17.030  23.319  1.00  0.00     0.004 A 
ATOM     30  C   UNL A   1      33.240  16.153  25.469  1.00  0.00     0.004 A 
ATOM     31  C   UNL A   1      33.888  15.989  24.251  1.00  0.00     0.000 A 
ENDBRANCH  25  26
ENDBRANCH  24  25
ENDBRANCH  23  24
ENDBRANCH  20  23
ENDBRANCH  13  16
ENDBRANCH   9  12
ENDBRANCH   1   5
BRANCH   3  32
ATOM     32  C   UNL A   1      32.644  31.060  26.860  1.00  0.00     0.118 C 
BRANCH  32  33
ATOM     33  C   UNL A   1      33.626  31.941  27.612  1.00  0.00     0.042 C 
BRANCH  33  34
ATOM     34  C   UNL A   1      34.475  31.193  28.629  1.00  0.00     0.118 C 
BRANCH  34  35
ATOM     35  N   UNL A   1      35.749  31.856  28.968  1.00  0.00    -0.352 N 
ATOM     36  C   UNL A   1      37.049  31.363  29.011  1.00  0.00     0.251 C 
ATOM     37  H   UNL A   1      35.664  32.808  29.203  1.00  0.00     0.163 HD
ATOM     38  O   UNL A   1      38.022  32.087  29.204  1.00  0.00    -0.269 OA
BRANCH  36  39
ATOM     39  C   UNL A   1      37.286  29.937  28.684  1.00  0.00     0.039 A 
ATOM     40  C   UNL A   1      37.453  29.079  29.777  1.00  0.00     0.014 A 
ATOM     41  C   UNL A   1      37.850  29.644  27.454  1.00  0.00     0.014 A 
ATOM     42  C   UNL A   1      38.527  28.202  29.767  1.00  0.00     0.010 A 
ATOM     43  C   UNL A   1      38.998  28.884  27.488  1.00  0.00     0.010 A 
ATOM     44  C   UNL A   1      39.386  28.253  28.677  1.00  0.00    -0.014 A 
BRANCH  44  45
ATOM     45  C   UNL A   1      40.717  27.675  28.672  1.00  0.00     0.031 A 
ATOM     46  C   UNL A   1      40.801  26.221  28.503  1.00  0.00     0.074 A 
ATOM     47  C   UNL A   1      41.828  28.440  28.773  1.00  0.00     0.049 A 
ATOM     48  N   UNL A   1      41.755  25.488  28.947  1.00  0.00    -0.248 NA
ATOM     49  C   UNL A   1      39.726  25.460  27.877  1.00  0.00     0.031 C 
ATOM     50  C   UNL A   1      43.215  28.027  28.581  1.00  0.00     0.029 A 
ATOM     51  N   UNL A   1      41.924  29.729  29.287  1.00  0.00    -0.354 N 
ATOM     52  C   UNL A   1      41.579  24.228  28.423  1.00  0.00     0.074 A 
ATOM     53  C   UNL A   1      40.252  24.237  27.865  1.00  0.00     0.031 C 
ATOM     54  C   UNL A   1      44.023  28.910  29.194  1.00  0.00     0.029 A 
ATOM     55  C   UNL A   1      43.182  29.842  29.920  1.00  0.00     0.049 A 
ATOM     56  H   UNL A   1      41.241  30.435  29.222  1.00  0.00     0.167 HD
ATOM     57  C   UNL A   1      42.644  23.380  28.394  1.00  0.00     0.034 A 
ATOM     58  C   UNL A   1      43.239  30.078  31.267  1.00  0.00     0.034 A 
ATOM     59  C   UNL A   1      43.796  23.980  29.082  1.00  0.00     0.049 A 
ATOM     60  C   UNL A   1      43.731  28.874  32.058  1.00  0.00     0.074 A 
ATOM     61  C   UNL A   1      44.934  24.643  28.652  1.00  0.00     0.029 A 
ATOM     62  N   UNL A   1      43.686  24.265  30.436  1.00  0.00    -0.354 N 
ATOM     63  N   UNL A   1      44.107  27.735  31.537  1.00  0.00    -0.248 NA
ATOM     64  C   UNL A   1      43.756  28.843  33.519  1.00  0.00     0.031 C 
ATOM     65  C   UNL A   1      45.473  25.367  29.761  1.00  0.00     0.029 A 
ATOM     66  C   UNL A   1      44.695  25.105  30.874  1.00  0.00     0.049 A 
ATOM     67  H   UNL A   1      42.975  23.911  31.016  1.00  0.00     0.167 HD
ATOM     68  C   UNL A   1      44.350  26.819  32.532  1.00  0.00     0.074 A 
ATOM     69  C   UNL A   1      44.101  27.567  33.757  1.00  0.00     0.031 C 
ATOM     70  C   UNL A   1      44.700  25.516  32.277  1.00  0.00     0.034 A 
BRANCH  57  71
ATOM     71  C   UNL A   1      42.727  22.160  27.500  1.00  0.00     0.023 A 
ATOM     72  C   UNL A   1      43.778  22.086  26.565  1.00  0.00     0.031 A 
ATOM     73  C   UNL A   1      41.813  21.086  27.451  1.00  0.00     0.131 A 
ATOM     74  C   UNL A   1      43.832  21.066  25.596  1.00  0.00     0.055 A 
ATOM     75  C   UNL A   1      41.830  20.103  26.452  1.00  0.00     0.041 A 
ATOM     76  F   UNL A   1      40.894  20.883  28.399  1.00  0.00    -0.206 F 
ATOM     77  C   UNL A   1      42.841  20.095  25.509  1.00  0.00     0.022 A 
BRANCH  74  78
ATOM     78  S   UNL A   1      45.230  21.022  24.448  1.00  0.00     0.124 S 
ATOM     79  O   UNL A   1      45.245  22.386  23.930  1.00  0.00    -0.237 OA
ATOM     80  O   UNL A   1      46.336  20.649  25.323  1.00  0.00    -0.237 OA
ATOM     81  O   UNL A   1      44.840  19.998  23.479  1.00  0.00    -0.744 OA
ENDBRANCH  74  78
ENDBRANCH  57  71
BRANCH  58  82
ATOM     82  C   UNL A   1      42.167  31.041  31.682  1.00  0.00     0.023 A 
ATOM     83  C   UNL A   1      40.909  30.479  32.012  1.00  0.00     0.031 A 
ATOM     84  C   UNL A   1      42.503  32.275  32.255  1.00  0.00     0.131 A 
ATOM     85  C   UNL A   1      40.164  31.007  33.079  1.00  0.00     0.055 A 
ATOM     86  C   UNL A   1      41.714  32.836  33.265  1.00  0.00     0.041 A 
ATOM     87  F   UNL A   1      43.675  32.864  31.978  1.00  0.00    -0.206 F 
ATOM     88  C   UNL A   1      40.584  32.163  33.735  1.00  0.00     0.022 A 
BRANCH  85  89
ATOM     89  S   UNL A   1      38.819  30.006  33.789  1.00  0.00     0.124 S 
ATOM     90  O   UNL A   1      39.087  28.685  33.234  1.00  0.00    -0.237 OA
ATOM     91  O   UNL A   1      39.031  30.152  35.226  1.00  0.00    -0.237 OA
ATOM     92  O   UNL A   1      37.602  30.656  33.305  1.00  0.00    -0.744 OA
ENDBRANCH  85  89
ENDBRANCH  58  82
BRANCH  70  93
ATOM     93  C   UNL A   1      45.029  24.488  33.348  1.00  0.00     0.023 A 
ATOM     94  C   UNL A   1      46.345  24.121  33.656  1.00  0.00     0.031 A 
ATOM     95  C   UNL A   1      44.029  23.788  34.070  1.00  0.00     0.131 A 
ATOM     96  C   UNL A   1      46.634  23.254  34.725  1.00  0.00     0.055 A 
ATOM     97  C   UNL A   1      44.314  22.864  35.080  1.00  0.00     0.041 A 
ATOM     98  F   UNL A   1      42.721  23.965  33.846  1.00  0.00    -0.206 F 
ATOM     99  C   UNL A   1      45.626  22.614  35.438  1.00  0.00     0.022 A 
BRANCH  96 100
ATOM    100  S   UNL A   1      48.365  23.038  35.203  1.00  0.00     0.124 S 
ATOM    101  O   UNL A   1      49.072  23.834  34.205  1.00  0.00    -0.237 OA
ATOM    102  O   UNL A   1      48.366  23.579  36.560  1.00  0.00    -0.237 OA
ATOM    103  O   UNL A   1      48.572  21.595  35.110  1.00  0.00    -0.744 OA
ENDBRANCH  96 100
ENDBRANCH  70  93
ENDBRANCH  44  45
ENDBRANCH  36  39
ENDBRANCH  34  35
ENDBRANCH  33  34
ENDBRANCH  32  33
ENDBRANCH   3  32
TORSDOF 19
ENDMDL
