MODEL 1
REMARK VINA RESULT:     -13.2      0.000      0.000
REMARK SMILES COc1ccc(/C=C2\SC(=S)N(c3cc(C(=O)NCCCNC(=O)c4ccc(-c5c6nc(c(-c7cc(S(=O)(=O)[O-])ccc7F)c7ccc([nH]7)c(-c7cc(S(=O)(=O)[O-])ccc7F)c7nc(c(-c8cc(S(=O)(=O)[O-])ccc8F)c8ccc5[nH]8)C=C7)C=C6)cc4)ccc3C)C2=O)cc1
REMARK SMILES IDX 20 1 19 2 18 3 16 4 17 5 15 7 13 8 14 9 90 10 89 11 91 12
REMARK SMILES IDX 88 13 12 14 7 15 8 16 9 17 92 18 10 19 93 20 11 21 6 22 3 23
REMARK SMILES IDX 4 24 95 25 5 26 94 27 2 28 1 29 21 30 22 31 23 32 24 34
REMARK SMILES IDX 25 35 26 36 87 37 27 38 86 39 28 40 29 41 30 42 80 43 31 44
REMARK SMILES IDX 85 45 79 46 81 47 32 48 84 49 78 50 77 51 33 53 65 54 45 55
REMARK SMILES IDX 64 56 46 57 49 58 63 59 82 60 47 61 48 62 62 64 83 65 50 66
REMARK SMILES IDX 34 67 35 68 43 69 36 70 42 71 44 72 41 73 37 74 38 75 39 76
REMARK SMILES IDX 40 77 66 78 67 79 75 80 68 81 74 82 76 83 73 84 69 85 70 86
REMARK SMILES IDX 71 87 72 88 51 89 52 90 60 91 53 92 59 93 61 94 58 95 54 96
REMARK SMILES IDX 55 97 56 98 57 99
REMARK H PARENT 18 6 22 33 81 52 49 63
REMARK Flexibility Score: inf
ROOT
ATOM      1  C   UNL A   1      31.437  32.167  26.705  1.00  0.00     0.042 C 
ENDROOT
BRANCH   1   2
ATOM      2  C   UNL A   1      31.538  30.744  26.189  1.00  0.00     0.118 C 
BRANCH   2   3
ATOM      3  N   UNL A   1      31.535  29.729  27.233  1.00  0.00    -0.352 N 
ATOM      4  C   UNL A   1      31.994  28.434  27.257  1.00  0.00     0.251 C 
ATOM      5  O   UNL A   1      31.841  27.771  28.282  1.00  0.00    -0.269 OA
ATOM      6  H   UNL A   1      31.129  30.027  28.080  1.00  0.00     0.163 HD
BRANCH   4   7
ATOM      7  C   UNL A   1      32.624  27.797  26.073  1.00  0.00     0.041 A 
ATOM      8  C   UNL A   1      32.890  25.802  24.699  1.00  0.00     0.054 A 
ATOM      9  C   UNL A   1      32.373  26.437  25.839  1.00  0.00     0.041 A 
ATOM     10  C   UNL A   1      33.521  26.585  23.711  1.00  0.00    -0.027 A 
ATOM     11  C   UNL A   1      33.864  27.909  24.008  1.00  0.00     0.006 A 
ATOM     12  C   UNL A   1      33.746  26.117  22.296  1.00  0.00     0.046 C 
ATOM     13  C   UNL A   1      33.487  28.480  25.219  1.00  0.00     0.014 A 
BRANCH   8  14
ATOM     14  N   UNL A   1      32.822  24.381  24.590  1.00  0.00    -0.261 N 
ATOM     15  C   UNL A   1      34.429  21.164  25.034  1.00  0.00     0.029 C 
ATOM     16  C   UNL A   1      33.560  22.147  24.763  1.00  0.00     0.081 C 
ATOM     17  S   UNL A   1      31.920  21.984  24.279  1.00  0.00    -0.054 SA
ATOM     18  C   UNL A   1      33.918  23.587  24.905  1.00  0.00     0.270 C 
ATOM     19  C   UNL A   1      31.711  23.716  24.082  1.00  0.00     0.152 C 
ATOM     20  O   UNL A   1      35.028  23.953  25.277  1.00  0.00    -0.268 OA
ATOM     21  S   UNL A   1      30.366  24.316  23.280  1.00  0.00    -0.051 S 
BRANCH  15  22
ATOM     22  C   UNL A   1      34.135  19.726  24.992  1.00  0.00    -0.024 A 
ATOM     23  C   UNL A   1      33.662  16.959  24.931  1.00  0.00     0.118 A 
ATOM     24  C   UNL A   1      34.864  17.478  24.450  1.00  0.00     0.047 A 
ATOM     25  C   UNL A   1      32.698  17.820  25.452  1.00  0.00     0.047 A 
ATOM     26  C   UNL A   1      35.096  18.855  24.467  1.00  0.00     0.012 A 
ATOM     27  C   UNL A   1      32.928  19.200  25.467  1.00  0.00     0.012 A 
BRANCH  23  28
ATOM     28  O   UNL A   1      33.544  15.597  24.896  1.00  0.00    -0.497 OA
ATOM     29  C   UNL A   1      32.408  15.089  25.589  1.00  0.00     0.278 C 
ENDBRANCH  23  28
ENDBRANCH  15  22
ENDBRANCH   8  14
ENDBRANCH   4   7
ENDBRANCH   2   3
ENDBRANCH   1   2
BRANCH   1  30
ATOM     30  C   UNL A   1      32.752  32.771  27.160  1.00  0.00     0.118 C 
BRANCH  30  31
ATOM     31  N   UNL A   1      32.610  34.138  27.644  1.00  0.00    -0.352 N 
ATOM     32  C   UNL A   1      33.199  34.790  28.700  1.00  0.00     0.251 C 
ATOM     33  H   UNL A   1      31.984  34.690  27.123  1.00  0.00     0.163 HD
ATOM     34  O   UNL A   1      32.755  35.886  29.038  1.00  0.00    -0.269 OA
BRANCH  32  35
ATOM     35  C   UNL A   1      34.331  34.188  29.442  1.00  0.00     0.039 A 
ATOM     36  C   UNL A   1      35.639  34.489  29.051  1.00  0.00     0.014 A 
ATOM     37  C   UNL A   1      34.120  33.292  30.492  1.00  0.00     0.014 A 
ATOM     38  C   UNL A   1      36.720  33.929  29.739  1.00  0.00     0.010 A 
ATOM     39  C   UNL A   1      35.190  32.844  31.258  1.00  0.00     0.010 A 
ATOM     40  C   UNL A   1      36.504  33.122  30.868  1.00  0.00    -0.014 A 
BRANCH  40  41
ATOM     41  C   UNL A   1      37.636  32.498  31.605  1.00  0.00     0.031 A 
ATOM     42  C   UNL A   1      38.397  31.354  30.979  1.00  0.00     0.074 A 
ATOM     43  C   UNL A   1      37.952  32.927  32.843  1.00  0.00     0.049 A 
ATOM     44  N   UNL A   1      39.381  30.644  31.470  1.00  0.00    -0.248 NA
ATOM     45  C   UNL A   1      37.964  30.925  29.641  1.00  0.00     0.031 C 
ATOM     46  C   UNL A   1      37.255  33.988  33.574  1.00  0.00     0.029 A 
ATOM     47  N   UNL A   1      38.940  32.525  33.705  1.00  0.00    -0.354 N 
ATOM     48  C   UNL A   1      39.665  29.677  30.510  1.00  0.00     0.074 A 
ATOM     49  C   UNL A   1      38.693  29.838  29.454  1.00  0.00     0.031 C 
ATOM     50  C   UNL A   1      37.864  34.180  34.755  1.00  0.00     0.029 A 
ATOM     51  C   UNL A   1      38.964  33.231  34.886  1.00  0.00     0.049 A 
ATOM     52  H   UNL A   1      39.574  31.801  33.498  1.00  0.00     0.167 HD
ATOM     53  C   UNL A   1      40.667  28.762  30.493  1.00  0.00     0.034 A 
ATOM     54  C   UNL A   1      39.780  33.122  35.953  1.00  0.00     0.034 A 
ATOM     55  C   UNL A   1      41.641  28.631  31.549  1.00  0.00     0.049 A 
ATOM     56  C   UNL A   1      40.891  32.103  35.912  1.00  0.00     0.074 A 
ATOM     57  C   UNL A   1      42.727  27.777  31.622  1.00  0.00     0.029 A 
ATOM     58  N   UNL A   1      41.644  29.376  32.723  1.00  0.00    -0.354 N 
ATOM     59  N   UNL A   1      41.182  31.231  34.974  1.00  0.00    -0.248 NA
ATOM     60  C   UNL A   1      41.796  32.073  37.066  1.00  0.00     0.031 C 
ATOM     61  C   UNL A   1      43.341  27.954  32.867  1.00  0.00     0.029 A 
ATOM     62  C   UNL A   1      42.697  28.983  33.536  1.00  0.00     0.049 A 
ATOM     63  H   UNL A   1      40.992  30.080  32.946  1.00  0.00     0.167 HD
ATOM     64  C   UNL A   1      42.331  30.575  35.409  1.00  0.00     0.074 A 
ATOM     65  C   UNL A   1      42.685  31.169  36.682  1.00  0.00     0.031 C 
ATOM     66  C   UNL A   1      43.033  29.578  34.810  1.00  0.00     0.034 A 
BRANCH  53  67
ATOM     67  C   UNL A   1      40.733  27.826  29.306  1.00  0.00     0.023 A 
ATOM     68  C   UNL A   1      41.658  28.016  28.261  1.00  0.00     0.031 A 
ATOM     69  C   UNL A   1      39.827  26.757  29.187  1.00  0.00     0.131 A 
ATOM     70  C   UNL A   1      41.591  27.218  27.108  1.00  0.00     0.055 A 
ATOM     71  C   UNL A   1      39.831  25.904  28.081  1.00  0.00     0.041 A 
ATOM     72  F   UNL A   1      38.905  26.534  30.136  1.00  0.00    -0.206 F 
ATOM     73  C   UNL A   1      40.704  26.144  27.023  1.00  0.00     0.022 A 
BRANCH  70  74
ATOM     74  S   UNL A   1      42.559  27.714  25.656  1.00  0.00     0.124 S 
ATOM     75  O   UNL A   1      43.880  27.930  26.243  1.00  0.00    -0.237 OA
ATOM     76  O   UNL A   1      42.430  26.556  24.779  1.00  0.00    -0.237 OA
ATOM     77  O   UNL A   1      41.887  28.927  25.193  1.00  0.00    -0.744 OA
ENDBRANCH  70  74
ENDBRANCH  53  67
BRANCH  54  78
ATOM     78  C   UNL A   1      39.592  34.006  37.141  1.00  0.00     0.023 A 
ATOM     79  C   UNL A   1      39.017  33.517  38.327  1.00  0.00     0.031 A 
ATOM     80  C   UNL A   1      39.954  35.363  37.097  1.00  0.00     0.131 A 
ATOM     81  C   UNL A   1      38.773  34.390  39.399  1.00  0.00     0.055 A 
ATOM     82  C   UNL A   1      39.762  36.215  38.187  1.00  0.00     0.041 A 
ATOM     83  F   UNL A   1      40.515  35.881  35.992  1.00  0.00    -0.206 F 
ATOM     84  C   UNL A   1      39.156  35.732  39.342  1.00  0.00     0.022 A 
BRANCH  81  85
ATOM     85  S   UNL A   1      37.870  33.764  40.841  1.00  0.00     0.124 S 
ATOM     86  O   UNL A   1      38.879  32.934  41.488  1.00  0.00    -0.237 OA
ATOM     87  O   UNL A   1      37.512  34.997  41.533  1.00  0.00    -0.237 OA
ATOM     88  O   UNL A   1      36.748  33.037  40.250  1.00  0.00    -0.744 OA
ENDBRANCH  81  85
ENDBRANCH  54  78
BRANCH  66  89
ATOM     89  C   UNL A   1      44.292  29.114  35.507  1.00  0.00     0.023 A 
ATOM     90  C   UNL A   1      44.260  28.181  36.559  1.00  0.00     0.031 A 
ATOM     91  C   UNL A   1      45.539  29.648  35.138  1.00  0.00     0.131 A 
ATOM     92  C   UNL A   1      45.437  27.880  37.261  1.00  0.00     0.055 A 
ATOM     93  C   UNL A   1      46.719  29.282  35.787  1.00  0.00     0.041 A 
ATOM     94  F   UNL A   1      45.633  30.545  34.141  1.00  0.00    -0.206 F 
ATOM     95  C   UNL A   1      46.669  28.410  36.869  1.00  0.00     0.022 A 
BRANCH  92  96
ATOM     96  S   UNL A   1      45.311  26.906  38.785  1.00  0.00     0.124 S 
ATOM     97  O   UNL A   1      43.913  26.486  38.762  1.00  0.00    -0.237 OA
ATOM     98  O   UNL A   1      46.296  25.852  38.562  1.00  0.00    -0.237 OA
ATOM     99  O   UNL A   1      45.653  27.864  39.834  1.00  0.00    -0.744 OA
ENDBRANCH  92  96
ENDBRANCH  66  89
ENDBRANCH  40  41
ENDBRANCH  32  35
ENDBRANCH  30  31
ENDBRANCH   1  30
TORSDOF 16
ENDMDL
MODEL 2
REMARK VINA RESULT:     -12.9      1.931      7.495
REMARK SMILES COc1ccc(/C=C2\SC(=S)N(c3cc(C(=O)NCCCNC(=O)c4ccc(-c5c6nc(c(-c7cc(S(=O)(=O)[O-])ccc7F)c7ccc([nH]7)c(-c7cc(S(=O)(=O)[O-])ccc7F)c7nc(c(-c8cc(S(=O)(=O)[O-])ccc8F)c8ccc5[nH]8)C=C7)C=C6)cc4)ccc3C)C2=O)cc1
REMARK SMILES IDX 20 1 19 2 18 3 16 4 17 5 15 7 13 8 14 9 90 10 89 11 91 12
REMARK SMILES IDX 88 13 12 14 7 15 8 16 9 17 92 18 10 19 93 20 11 21 6 22 3 23
REMARK SMILES IDX 4 24 95 25 5 26 94 27 2 28 1 29 21 30 22 31 23 32 24 34
REMARK SMILES IDX 25 35 26 36 87 37 27 38 86 39 28 40 29 41 30 42 80 43 31 44
REMARK SMILES IDX 85 45 79 46 81 47 32 48 84 49 78 50 77 51 33 53 65 54 45 55
REMARK SMILES IDX 64 56 46 57 49 58 63 59 82 60 47 61 48 62 62 64 83 65 50 66
REMARK SMILES IDX 34 67 35 68 43 69 36 70 42 71 44 72 41 73 37 74 38 75 39 76
REMARK SMILES IDX 40 77 66 78 67 79 75 80 68 81 74 82 76 83 73 84 69 85 70 86
REMARK SMILES IDX 71 87 72 88 51 89 52 90 60 91 53 92 59 93 61 94 58 95 54 96
REMARK SMILES IDX 55 97 56 98 57 99
REMARK H PARENT 18 6 22 33 81 52 49 63
REMARK Flexibility Score: inf
ROOT
ATOM      1  C   UNL A   1      31.624  32.419  26.875  1.00  0.00     0.042 C 
ENDROOT
BRANCH   1   2
ATOM      2  C   UNL A   1      31.779  30.940  26.571  1.00  0.00     0.118 C 
BRANCH   2   3
ATOM      3  N   UNL A   1      33.061  30.380  26.977  1.00  0.00    -0.352 N 
ATOM      4  C   UNL A   1      33.829  29.369  26.452  1.00  0.00     0.251 C 
ATOM      5  O   UNL A   1      34.881  29.071  27.016  1.00  0.00    -0.269 OA
ATOM      6  H   UNL A   1      33.448  30.805  27.777  1.00  0.00     0.163 HD
BRANCH   4   7
ATOM      7  C   UNL A   1      33.408  28.596  25.255  1.00  0.00     0.041 A 
ATOM      8  C   UNL A   1      32.500  26.524  24.352  1.00  0.00     0.054 A 
ATOM      9  C   UNL A   1      32.971  27.276  25.439  1.00  0.00     0.041 A 
ATOM     10  C   UNL A   1      32.315  27.164  23.109  1.00  0.00    -0.027 A 
ATOM     11  C   UNL A   1      32.859  28.438  22.913  1.00  0.00     0.006 A 
ATOM     12  C   UNL A   1      31.456  26.604  22.004  1.00  0.00     0.046 C 
ATOM     13  C   UNL A   1      33.475  29.112  23.963  1.00  0.00     0.014 A 
BRANCH   8  14
ATOM     14  N   UNL A   1      32.277  25.123  24.506  1.00  0.00    -0.261 N 
ATOM     15  C   UNL A   1      33.343  21.727  23.829  1.00  0.00     0.029 C 
ATOM     16  C   UNL A   1      32.690  22.813  24.264  1.00  0.00     0.081 C 
ATOM     17  S   UNL A   1      31.346  22.862  25.332  1.00  0.00    -0.054 SA
ATOM     18  C   UNL A   1      33.109  24.195  23.892  1.00  0.00     0.270 C 
ATOM     19  C   UNL A   1      31.181  24.605  25.189  1.00  0.00     0.152 C 
ATOM     20  O   UNL A   1      34.072  24.415  23.166  1.00  0.00    -0.268 OA
ATOM     21  S   UNL A   1      29.797  25.368  25.747  1.00  0.00    -0.051 S 
BRANCH  15  22
ATOM     22  C   UNL A   1      33.045  20.339  24.207  1.00  0.00    -0.024 A 
ATOM     23  C   UNL A   1      32.449  17.716  25.013  1.00  0.00     0.118 A 
ATOM     24  C   UNL A   1      32.971  18.632  25.927  1.00  0.00     0.047 A 
ATOM     25  C   UNL A   1      32.215  18.113  23.697  1.00  0.00     0.047 A 
ATOM     26  C   UNL A   1      33.281  19.933  25.525  1.00  0.00     0.012 A 
ATOM     27  C   UNL A   1      32.527  19.415  23.293  1.00  0.00     0.012 A 
BRANCH  23  28
ATOM     28  O   UNL A   1      32.153  16.478  25.512  1.00  0.00    -0.497 OA
ATOM     29  C   UNL A   1      33.181  15.510  25.324  1.00  0.00     0.278 C 
ENDBRANCH  23  28
ENDBRANCH  15  22
ENDBRANCH   8  14
ENDBRANCH   4   7
ENDBRANCH   2   3
ENDBRANCH   1   2
BRANCH   1  30
ATOM     30  C   UNL A   1      32.919  33.137  27.207  1.00  0.00     0.118 C 
BRANCH  30  31
ATOM     31  N   UNL A   1      32.711  34.339  28.003  1.00  0.00    -0.352 N 
ATOM     32  C   UNL A   1      33.293  34.760  29.175  1.00  0.00     0.251 C 
ATOM     33  H   UNL A   1      32.038  34.957  27.638  1.00  0.00     0.163 HD
ATOM     34  O   UNL A   1      32.795  35.715  29.769  1.00  0.00    -0.269 OA
BRANCH  32  35
ATOM     35  C   UNL A   1      34.480  34.074  29.735  1.00  0.00     0.039 A 
ATOM     36  C   UNL A   1      35.748  34.403  29.249  1.00  0.00     0.014 A 
ATOM     37  C   UNL A   1      34.355  33.076  30.702  1.00  0.00     0.014 A 
ATOM     38  C   UNL A   1      36.881  33.766  29.765  1.00  0.00     0.010 A 
ATOM     39  C   UNL A   1      35.487  32.541  31.308  1.00  0.00     0.010 A 
ATOM     40  C   UNL A   1      36.762  32.848  30.821  1.00  0.00    -0.014 A 
BRANCH  40  41
ATOM     41  C   UNL A   1      37.948  32.141  31.374  1.00  0.00     0.031 A 
ATOM     42  C   UNL A   1      38.553  32.599  32.679  1.00  0.00     0.074 A 
ATOM     43  C   UNL A   1      38.505  31.122  30.689  1.00  0.00     0.049 A 
ATOM     44  N   UNL A   1      39.609  32.151  33.307  1.00  0.00    -0.248 NA
ATOM     45  C   UNL A   1      37.905  33.740  33.343  1.00  0.00     0.031 C 
ATOM     46  C   UNL A   1      38.045  30.625  29.390  1.00  0.00     0.029 A 
ATOM     47  N   UNL A   1      39.577  30.321  30.988  1.00  0.00    -0.354 N 
ATOM     48  C   UNL A   1      39.761  32.969  34.424  1.00  0.00     0.074 A 
ATOM     49  C   UNL A   1      38.743  33.990  34.335  1.00  0.00     0.031 C 
ATOM     50  C   UNL A   1      38.803  29.578  29.027  1.00  0.00     0.029 A 
ATOM     51  C   UNL A   1      39.829  29.357  30.040  1.00  0.00     0.049 A 
ATOM     52  H   UNL A   1      40.116  30.426  31.805  1.00  0.00     0.167 HD
ATOM     53  C   UNL A   1      40.644  32.858  35.448  1.00  0.00     0.034 A 
ATOM     54  C   UNL A   1      40.780  28.404  29.993  1.00  0.00     0.034 A 
ATOM     55  C   UNL A   1      41.641  31.818  35.528  1.00  0.00     0.049 A 
ATOM     56  C   UNL A   1      41.749  28.293  31.144  1.00  0.00     0.074 A 
ATOM     57  C   UNL A   1      42.557  31.574  36.536  1.00  0.00     0.029 A 
ATOM     58  N   UNL A   1      41.855  30.847  34.556  1.00  0.00    -0.354 N 
ATOM     59  N   UNL A   1      41.847  29.041  32.220  1.00  0.00    -0.248 NA
ATOM     60  C   UNL A   1      42.719  27.195  31.082  1.00  0.00     0.031 C 
ATOM     61  C   UNL A   1      43.369  30.506  36.141  1.00  0.00     0.029 A 
ATOM     62  C   UNL A   1      42.903  30.020  34.929  1.00  0.00     0.049 A 
ATOM     63  H   UNL A   1      41.337  30.760  33.723  1.00  0.00     0.167 HD
ATOM     64  C   UNL A   1      42.866  28.475  32.983  1.00  0.00     0.074 A 
ATOM     65  C   UNL A   1      43.333  27.316  32.249  1.00  0.00     0.031 C 
ATOM     66  C   UNL A   1      43.366  28.873  34.182  1.00  0.00     0.034 A 
BRANCH  53  67
ATOM     67  C   UNL A   1      40.577  33.904  36.540  1.00  0.00     0.023 A 
ATOM     68  C   UNL A   1      41.515  34.950  36.624  1.00  0.00     0.031 A 
ATOM     69  C   UNL A   1      39.593  33.827  37.543  1.00  0.00     0.131 A 
ATOM     70  C   UNL A   1      41.510  35.812  37.732  1.00  0.00     0.055 A 
ATOM     71  C   UNL A   1      39.534  34.749  38.590  1.00  0.00     0.041 A 
ATOM     72  F   UNL A   1      38.684  32.841  37.534  1.00  0.00    -0.206 F 
ATOM     73  C   UNL A   1      40.508  35.738  38.701  1.00  0.00     0.022 A 
BRANCH  70  74
ATOM     74  S   UNL A   1      42.930  36.915  37.976  1.00  0.00     0.124 S 
ATOM     75  O   UNL A   1      43.907  36.007  38.574  1.00  0.00    -0.237 OA
ATOM     76  O   UNL A   1      43.219  37.363  36.619  1.00  0.00    -0.237 OA
ATOM     77  O   UNL A   1      42.414  37.944  38.878  1.00  0.00    -0.744 OA
ENDBRANCH  70  74
ENDBRANCH  53  67
BRANCH  54  78
ATOM     78  C   UNL A   1      40.859  27.470  28.832  1.00  0.00     0.023 A 
ATOM     79  C   UNL A   1      41.832  27.635  27.831  1.00  0.00     0.031 A 
ATOM     80  C   UNL A   1      39.939  26.417  28.687  1.00  0.00     0.131 A 
ATOM     81  C   UNL A   1      41.830  26.795  26.706  1.00  0.00     0.055 A 
ATOM     82  C   UNL A   1      39.976  25.548  27.594  1.00  0.00     0.041 A 
ATOM     83  F   UNL A   1      38.993  26.209  29.617  1.00  0.00    -0.206 F 
ATOM     84  C   UNL A   1      40.918  25.744  26.589  1.00  0.00     0.022 A 
BRANCH  81  85
ATOM     85  S   UNL A   1      42.985  27.149  25.354  1.00  0.00     0.124 S 
ATOM     86  O   UNL A   1      42.280  28.197  24.626  1.00  0.00    -0.237 OA
ATOM     87  O   UNL A   1      44.182  27.563  26.079  1.00  0.00    -0.237 OA
ATOM     88  O   UNL A   1      43.095  25.869  24.656  1.00  0.00    -0.744 OA
ENDBRANCH  81  85
ENDBRANCH  54  78
BRANCH  66  89
ATOM     89  C   UNL A   1      44.439  28.002  34.797  1.00  0.00     0.023 A 
ATOM     90  C   UNL A   1      44.144  26.756  35.377  1.00  0.00     0.031 A 
ATOM     91  C   UNL A   1      45.772  28.449  34.837  1.00  0.00     0.131 A 
ATOM     92  C   UNL A   1      45.148  26.044  36.050  1.00  0.00     0.055 A 
ATOM     93  C   UNL A   1      46.783  27.697  35.437  1.00  0.00     0.041 A 
ATOM     94  F   UNL A   1      46.115  29.632  34.301  1.00  0.00    -0.206 F 
ATOM     95  C   UNL A   1      46.470  26.497  36.067  1.00  0.00     0.022 A 
BRANCH  92  96
ATOM     96  S   UNL A   1      44.674  24.594  37.031  1.00  0.00     0.124 S 
ATOM     97  O   UNL A   1      44.390  25.189  38.334  1.00  0.00    -0.237 OA
ATOM     98  O   UNL A   1      43.519  24.087  36.298  1.00  0.00    -0.237 OA
ATOM     99  O   UNL A   1      45.863  23.744  36.984  1.00  0.00    -0.744 OA
ENDBRANCH  92  96
ENDBRANCH  66  89
ENDBRANCH  40  41
ENDBRANCH  32  35
ENDBRANCH  30  31
ENDBRANCH   1  30
TORSDOF 16
ENDMDL
MODEL 3
REMARK VINA RESULT:     -12.8      2.825      8.110
REMARK SMILES COc1ccc(/C=C2\SC(=S)N(c3cc(C(=O)NCCCNC(=O)c4ccc(-c5c6nc(c(-c7cc(S(=O)(=O)[O-])ccc7F)c7ccc([nH]7)c(-c7cc(S(=O)(=O)[O-])ccc7F)c7nc(c(-c8cc(S(=O)(=O)[O-])ccc8F)c8ccc5[nH]8)C=C7)C=C6)cc4)ccc3C)C2=O)cc1
REMARK SMILES IDX 20 1 19 2 18 3 16 4 17 5 15 7 13 8 14 9 90 10 89 11 91 12
REMARK SMILES IDX 88 13 12 14 7 15 8 16 9 17 92 18 10 19 93 20 11 21 6 22 3 23
REMARK SMILES IDX 4 24 95 25 5 26 94 27 2 28 1 29 21 30 22 31 23 32 24 34
REMARK SMILES IDX 25 35 26 36 87 37 27 38 86 39 28 40 29 41 30 42 80 43 31 44
REMARK SMILES IDX 85 45 79 46 81 47 32 48 84 49 78 50 77 51 33 53 65 54 45 55
REMARK SMILES IDX 64 56 46 57 49 58 63 59 82 60 47 61 48 62 62 64 83 65 50 66
REMARK SMILES IDX 34 67 35 68 43 69 36 70 42 71 44 72 41 73 37 74 38 75 39 76
REMARK SMILES IDX 40 77 66 78 67 79 75 80 68 81 74 82 76 83 73 84 69 85 70 86
REMARK SMILES IDX 71 87 72 88 51 89 52 90 60 91 53 92 59 93 61 94 58 95 54 96
REMARK SMILES IDX 55 97 56 98 57 99
REMARK H PARENT 18 6 22 33 81 52 49 63
REMARK Flexibility Score: inf
ROOT
ATOM      1  C   UNL A   1      33.363  28.819  24.077  1.00  0.00     0.042 C 
ENDROOT
BRANCH   1   2
ATOM      2  C   UNL A   1      31.909  28.924  23.656  1.00  0.00     0.118 C 
BRANCH   2   3
ATOM      3  N   UNL A   1      31.577  28.155  22.464  1.00  0.00    -0.352 N 
ATOM      4  C   UNL A   1      31.329  26.817  22.274  1.00  0.00     0.251 C 
ATOM      5  O   UNL A   1      31.093  26.415  21.135  1.00  0.00    -0.269 OA
ATOM      6  H   UNL A   1      31.520  28.695  21.643  1.00  0.00     0.163 HD
BRANCH   4   7
ATOM      7  C   UNL A   1      31.384  25.837  23.388  1.00  0.00     0.041 A 
ATOM      8  C   UNL A   1      32.708  24.248  24.676  1.00  0.00     0.054 A 
ATOM      9  C   UNL A   1      32.581  25.137  23.597  1.00  0.00     0.041 A 
ATOM     10  C   UNL A   1      31.679  24.194  25.639  1.00  0.00    -0.027 A 
ATOM     11  C   UNL A   1      30.452  24.805  25.358  1.00  0.00     0.006 A 
ATOM     12  C   UNL A   1      31.859  23.613  27.018  1.00  0.00     0.046 C 
ATOM     13  C   UNL A   1      30.285  25.552  24.197  1.00  0.00     0.014 A 
BRANCH   8  14
ATOM     14  N   UNL A   1      33.837  23.379  24.746  1.00  0.00    -0.261 N 
ATOM     15  C   UNL A   1      37.353  22.929  25.498  1.00  0.00     0.029 C 
ATOM     16  C   UNL A   1      36.072  22.742  25.154  1.00  0.00     0.081 C 
ATOM     17  S   UNL A   1      35.301  21.254  24.780  1.00  0.00    -0.054 SA
ATOM     18  C   UNL A   1      35.091  23.863  25.099  1.00  0.00     0.270 C 
ATOM     19  C   UNL A   1      33.780  22.038  24.382  1.00  0.00     0.152 C 
ATOM     20  O   UNL A   1      35.402  25.019  25.365  1.00  0.00    -0.268 OA
ATOM     21  S   UNL A   1      32.577  21.185  23.585  1.00  0.00    -0.051 S 
BRANCH  15  22
ATOM     22  C   UNL A   1      38.363  21.873  25.649  1.00  0.00    -0.024 A 
ATOM     23  C   UNL A   1      40.314  19.888  26.020  1.00  0.00     0.118 A 
ATOM     24  C   UNL A   1      40.520  21.178  26.509  1.00  0.00     0.047 A 
ATOM     25  C   UNL A   1      39.128  19.585  25.353  1.00  0.00     0.047 A 
ATOM     26  C   UNL A   1      39.557  22.170  26.314  1.00  0.00     0.012 A 
ATOM     27  C   UNL A   1      38.164  20.579  25.155  1.00  0.00     0.012 A 
BRANCH  23  28
ATOM     28  O   UNL A   1      41.304  18.983  26.287  1.00  0.00    -0.497 OA
ATOM     29  C   UNL A   1      42.010  19.230  27.500  1.00  0.00     0.278 C 
ENDBRANCH  23  28
ENDBRANCH  15  22
ENDBRANCH   8  14
ENDBRANCH   4   7
ENDBRANCH   2   3
ENDBRANCH   1   2
BRANCH   1  30
ATOM     30  C   UNL A   1      33.616  29.077  25.551  1.00  0.00     0.118 C 
BRANCH  30  31
ATOM     31  N   UNL A   1      33.182  30.402  25.975  1.00  0.00    -0.352 N 
ATOM     32  C   UNL A   1      33.588  31.195  27.021  1.00  0.00     0.251 C 
ATOM     33  H   UNL A   1      32.477  30.798  25.415  1.00  0.00     0.163 HD
ATOM     34  O   UNL A   1      32.919  32.187  27.302  1.00  0.00    -0.269 OA
BRANCH  32  35
ATOM     35  C   UNL A   1      34.790  30.860  27.820  1.00  0.00     0.039 A 
ATOM     36  C   UNL A   1      35.804  31.813  27.954  1.00  0.00     0.014 A 
ATOM     37  C   UNL A   1      34.952  29.601  28.401  1.00  0.00     0.014 A 
ATOM     38  C   UNL A   1      36.947  31.515  28.703  1.00  0.00     0.010 A 
ATOM     39  C   UNL A   1      36.021  29.355  29.254  1.00  0.00     0.010 A 
ATOM     40  C   UNL A   1      37.053  30.291  29.384  1.00  0.00    -0.014 A 
BRANCH  40  41
ATOM     41  C   UNL A   1      38.266  29.942  30.171  1.00  0.00     0.031 A 
ATOM     42  C   UNL A   1      38.461  30.529  31.548  1.00  0.00     0.074 A 
ATOM     43  C   UNL A   1      39.206  29.138  29.637  1.00  0.00     0.049 A 
ATOM     44  N   UNL A   1      39.465  30.389  32.376  1.00  0.00    -0.248 NA
ATOM     45  C   UNL A   1      37.404  31.425  32.040  1.00  0.00     0.031 C 
ATOM     46  C   UNL A   1      39.157  28.554  28.294  1.00  0.00     0.029 A 
ATOM     47  N   UNL A   1      40.386  28.671  30.157  1.00  0.00    -0.354 N 
ATOM     48  C   UNL A   1      39.167  31.195  33.471  1.00  0.00     0.074 A 
ATOM     49  C   UNL A   1      37.936  31.885  33.160  1.00  0.00     0.031 C 
ATOM     50  C   UNL A   1      40.235  27.774  28.114  1.00  0.00     0.029 A 
ATOM     51  C   UNL A   1      41.074  27.836  29.305  1.00  0.00     0.049 A 
ATOM     52  H   UNL A   1      40.711  28.910  31.055  1.00  0.00     0.167 HD
ATOM     53  C   UNL A   1      39.838  31.322  34.644  1.00  0.00     0.034 A 
ATOM     54  C   UNL A   1      42.248  27.195  29.469  1.00  0.00     0.034 A 
ATOM     55  C   UNL A   1      41.056  30.608  34.943  1.00  0.00     0.049 A 
ATOM     56  C   UNL A   1      42.976  27.344  30.781  1.00  0.00     0.074 A 
ATOM     57  C   UNL A   1      41.798  30.617  36.110  1.00  0.00     0.029 A 
ATOM     58  N   UNL A   1      41.714  29.757  34.062  1.00  0.00    -0.354 N 
ATOM     59  N   UNL A   1      42.655  28.068  31.830  1.00  0.00    -0.248 NA
ATOM     60  C   UNL A   1      44.212  26.570  30.938  1.00  0.00     0.031 C 
ATOM     61  C   UNL A   1      42.940  29.833  35.910  1.00  0.00     0.029 A 
ATOM     62  C   UNL A   1      42.865  29.257  34.651  1.00  0.00     0.049 A 
ATOM     63  H   UNL A   1      41.407  29.541  33.151  1.00  0.00     0.167 HD
ATOM     64  C   UNL A   1      43.632  27.802  32.787  1.00  0.00     0.074 A 
ATOM     65  C   UNL A   1      44.537  26.839  32.193  1.00  0.00     0.031 C 
ATOM     66  C   UNL A   1      43.766  28.304  34.043  1.00  0.00     0.034 A 
BRANCH  53  67
ATOM     67  C   UNL A   1      39.275  32.284  35.666  1.00  0.00     0.023 A 
ATOM     68  C   UNL A   1      39.692  33.627  35.731  1.00  0.00     0.031 A 
ATOM     69  C   UNL A   1      38.344  31.844  36.625  1.00  0.00     0.131 A 
ATOM     70  C   UNL A   1      39.260  34.449  36.784  1.00  0.00     0.055 A 
ATOM     71  C   UNL A   1      37.842  32.695  37.612  1.00  0.00     0.041 A 
ATOM     72  F   UNL A   1      37.923  30.570  36.634  1.00  0.00    -0.206 F 
ATOM     73  C   UNL A   1      38.314  34.001  37.708  1.00  0.00     0.022 A 
BRANCH  70  74
ATOM     74  S   UNL A   1      40.082  36.048  37.028  1.00  0.00     0.124 S 
ATOM     75  O   UNL A   1      41.464  35.634  37.261  1.00  0.00    -0.237 OA
ATOM     76  O   UNL A   1      39.823  36.732  35.766  1.00  0.00    -0.237 OA
ATOM     77  O   UNL A   1      39.403  36.608  38.195  1.00  0.00    -0.744 OA
ENDBRANCH  70  74
ENDBRANCH  53  67
BRANCH  54  78
ATOM     78  C   UNL A   1      42.804  26.345  28.376  1.00  0.00     0.023 A 
ATOM     79  C   UNL A   1      43.898  26.774  27.606  1.00  0.00     0.031 A 
ATOM     80  C   UNL A   1      42.225  25.103  28.061  1.00  0.00     0.131 A 
ATOM     81  C   UNL A   1      44.346  25.993  26.528  1.00  0.00     0.055 A 
ATOM     82  C   UNL A   1      42.711  24.303  27.024  1.00  0.00     0.041 A 
ATOM     83  F   UNL A   1      41.183  24.640  28.770  1.00  0.00    -0.206 F 
ATOM     84  C   UNL A   1      43.769  24.754  26.242  1.00  0.00     0.022 A 
BRANCH  81  85
ATOM     85  S   UNL A   1      45.642  26.662  25.450  1.00  0.00     0.124 S 
ATOM     86  O   UNL A   1      44.947  27.764  24.797  1.00  0.00    -0.237 OA
ATOM     87  O   UNL A   1      46.675  27.032  26.412  1.00  0.00    -0.237 OA
ATOM     88  O   UNL A   1      45.978  25.534  24.583  1.00  0.00    -0.744 OA
ENDBRANCH  81  85
ENDBRANCH  54  78
BRANCH  66  89
ATOM     89  C   UNL A   1      44.907  27.764  34.875  1.00  0.00     0.023 A 
ATOM     90  C   UNL A   1      44.759  26.632  35.696  1.00  0.00     0.031 A 
ATOM     91  C   UNL A   1      46.151  28.420  34.876  1.00  0.00     0.131 A 
ATOM     92  C   UNL A   1      45.805  26.246  36.548  1.00  0.00     0.055 A 
ATOM     93  C   UNL A   1      47.215  27.983  35.665  1.00  0.00     0.041 A 
ATOM     94  F   UNL A   1      46.352  29.508  34.113  1.00  0.00    -0.206 F 
ATOM     95  C   UNL A   1      47.038  26.903  36.524  1.00  0.00     0.022 A 
BRANCH  92  96
ATOM     96  S   UNL A   1      45.481  24.971  37.796  1.00  0.00     0.124 S 
ATOM     97  O   UNL A   1      45.141  23.817  36.968  1.00  0.00    -0.237 OA
ATOM     98  O   UNL A   1      46.756  24.895  38.502  1.00  0.00    -0.237 OA
ATOM     99  O   UNL A   1      44.373  25.524  38.572  1.00  0.00    -0.744 OA
ENDBRANCH  92  96
ENDBRANCH  66  89
ENDBRANCH  40  41
ENDBRANCH  32  35
ENDBRANCH  30  31
ENDBRANCH   1  30
TORSDOF 16
ENDMDL
