MODEL 1
REMARK VINA RESULT:     -12.7      0.000      0.000
REMARK SMILES COc1ccc(-c2nc3cc(N4C[C@@H](C(=O)NCCCNC(=O)c5ccc(-c6c7nc(c(-c8cc(S(=O)(=O)[O-])ccc8F)c8ccc([nH]8)c(-c8cc(S(=O)(=O)[O-])ccc8F)c8nc(c(-c9cc(S(=O)(=O)[O-])ccc9F)c9ccc6[nH]9)C=C8)C=C7)cc5)CC4=O)ccc3o2)cc1
REMARK SMILES IDX 19 1 18 2 17 3 15 4 16 5 14 7 12 8 13 9 88 10 87 11 89 12
REMARK SMILES IDX 11 13 7 14 8 15 93 16 9 17 92 18 10 19 91 20 90 21 6 22 3 23
REMARK SMILES IDX 4 24 95 25 5 26 94 27 2 28 1 29 20 30 21 31 22 32 23 34
REMARK SMILES IDX 24 35 25 36 86 37 26 38 85 39 27 40 28 41 29 42 79 43 30 44
REMARK SMILES IDX 84 45 78 46 80 47 31 48 83 49 77 50 76 51 32 53 64 54 44 55
REMARK SMILES IDX 63 56 45 57 48 58 62 59 81 60 46 61 47 62 61 64 82 65 49 66
REMARK SMILES IDX 33 67 34 68 42 69 35 70 41 71 43 72 40 73 36 74 37 75 38 76
REMARK SMILES IDX 39 77 65 78 66 79 74 80 67 81 73 82 75 83 72 84 68 85 69 86
REMARK SMILES IDX 70 87 71 88 50 89 51 90 59 91 52 92 58 93 60 94 57 95 53 96
REMARK SMILES IDX 54 97 55 98 56 99
REMARK H PARENT 17 6 21 33 80 52 48 63
REMARK Flexibility Score: inf
ROOT
ATOM      1  C   UNL A   1      31.460  32.332  26.708  1.00  0.00     0.042 C 
ENDROOT
BRANCH   1   2
ATOM      2  C   UNL A   1      31.469  30.808  26.684  1.00  0.00     0.117 C 
BRANCH   2   3
ATOM      3  N   UNL A   1      31.429  30.281  25.329  1.00  0.00    -0.356 N 
ATOM      4  C   UNL A   1      31.817  29.090  24.811  1.00  0.00     0.225 C 
ATOM      5  O   UNL A   1      31.649  28.913  23.602  1.00  0.00    -0.275 OA
ATOM      6  H   UNL A   1      31.050  30.903  24.667  1.00  0.00     0.163 HD
BRANCH   4   7
ATOM      7  C   UNL A   1      32.372  27.970  25.660  1.00  0.00     0.107 C 
ATOM      8  N   UNL A   1      32.835  25.681  25.319  1.00  0.00    -0.312 N 
ATOM      9  C   UNL A   1      33.179  26.995  24.831  1.00  0.00     0.139 C 
ATOM     10  C   UNL A   1      31.739  25.709  26.188  1.00  0.00     0.227 C 
ATOM     11  C   UNL A   1      31.365  27.149  26.442  1.00  0.00     0.116 C 
ATOM     12  O   UNL A   1      31.184  24.776  26.735  1.00  0.00    -0.274 OA
BRANCH   8  13
ATOM     13  C   UNL A   1      33.598  24.524  25.010  1.00  0.00     0.046 A 
ATOM     14  C   UNL A   1      37.273  22.036  25.107  1.00  0.00     0.227 A 
ATOM     15  N   UNL A   1      37.108  23.341  25.022  1.00  0.00    -0.209 NA
ATOM     16  O   UNL A   1      36.134  21.291  24.915  1.00  0.00    -0.436 OA
ATOM     17  C   UNL A   1      35.762  23.480  24.891  1.00  0.00     0.112 A 
ATOM     18  C   UNL A   1      35.151  22.242  24.823  1.00  0.00     0.155 A 
ATOM     19  C   UNL A   1      34.992  24.643  24.918  1.00  0.00     0.058 A 
ATOM     20  C   UNL A   1      33.776  22.069  24.757  1.00  0.00     0.051 A 
ATOM     21  C   UNL A   1      33.012  23.248  24.892  1.00  0.00     0.030 A 
BRANCH  14  22
ATOM     22  C   UNL A   1      38.450  21.365  25.626  1.00  0.00     0.037 A 
ATOM     23  C   UNL A   1      40.884  20.287  26.528  1.00  0.00     0.118 A 
ATOM     24  C   UNL A   1      39.988  19.511  25.782  1.00  0.00     0.047 A 
ATOM     25  C   UNL A   1      40.548  21.600  26.844  1.00  0.00     0.047 A 
ATOM     26  C   UNL A   1      38.767  20.038  25.340  1.00  0.00     0.017 A 
ATOM     27  C   UNL A   1      39.344  22.133  26.388  1.00  0.00     0.017 A 
BRANCH  23  28
ATOM     28  O   UNL A   1      42.055  19.666  26.868  1.00  0.00    -0.497 OA
ATOM     29  C   UNL A   1      42.767  19.034  25.809  1.00  0.00     0.278 C 
ENDBRANCH  23  28
ENDBRANCH  14  22
ENDBRANCH   8  13
ENDBRANCH   4   7
ENDBRANCH   2   3
ENDBRANCH   1   2
BRANCH   1  30
ATOM     30  C   UNL A   1      32.821  32.961  26.983  1.00  0.00     0.118 C 
BRANCH  30  31
ATOM     31  N   UNL A   1      32.718  34.240  27.667  1.00  0.00    -0.352 N 
ATOM     32  C   UNL A   1      33.342  34.698  28.801  1.00  0.00     0.251 C 
ATOM     33  H   UNL A   1      32.100  34.883  27.249  1.00  0.00     0.163 HD
ATOM     34  O   UNL A   1      32.944  35.741  29.313  1.00  0.00    -0.269 OA
BRANCH  32  35
ATOM     35  C   UNL A   1      34.458  33.944  29.417  1.00  0.00     0.039 A 
ATOM     36  C   UNL A   1      35.768  34.314  29.103  1.00  0.00     0.014 A 
ATOM     37  C   UNL A   1      34.231  32.862  30.273  1.00  0.00     0.014 A 
ATOM     38  C   UNL A   1      36.842  33.646  29.695  1.00  0.00     0.010 A 
ATOM     39  C   UNL A   1      35.300  32.252  30.928  1.00  0.00     0.010 A 
ATOM     40  C   UNL A   1      36.618  32.636  30.645  1.00  0.00    -0.014 A 
BRANCH  40  41
ATOM     41  C   UNL A   1      37.758  31.999  31.357  1.00  0.00     0.031 A 
ATOM     42  C   UNL A   1      38.541  30.886  30.716  1.00  0.00     0.074 A 
ATOM     43  C   UNL A   1      38.055  32.399  32.610  1.00  0.00     0.049 A 
ATOM     44  N   UNL A   1      39.562  30.214  31.188  1.00  0.00    -0.248 NA
ATOM     45  C   UNL A   1      38.101  30.448  29.384  1.00  0.00     0.031 C 
ATOM     46  C   UNL A   1      37.323  33.421  33.364  1.00  0.00     0.029 A 
ATOM     47  N   UNL A   1      39.046  32.000  33.471  1.00  0.00    -0.354 N 
ATOM     48  C   UNL A   1      39.879  29.269  30.217  1.00  0.00     0.074 A 
ATOM     49  C   UNL A   1      38.900  29.415  29.161  1.00  0.00     0.031 C 
ATOM     50  C   UNL A   1      37.910  33.591  34.559  1.00  0.00     0.029 A 
ATOM     51  C   UNL A   1      39.034  32.668  34.673  1.00  0.00     0.049 A 
ATOM     52  H   UNL A   1      39.702  31.302  33.249  1.00  0.00     0.167 HD
ATOM     53  C   UNL A   1      40.903  28.380  30.199  1.00  0.00     0.034 A 
ATOM     54  C   UNL A   1      39.837  32.552  35.749  1.00  0.00     0.034 A 
ATOM     55  C   UNL A   1      41.876  28.254  31.260  1.00  0.00     0.049 A 
ATOM     56  C   UNL A   1      40.978  31.572  35.698  1.00  0.00     0.074 A 
ATOM     57  C   UNL A   1      42.993  27.438  31.316  1.00  0.00     0.029 A 
ATOM     58  N   UNL A   1      41.844  28.957  32.459  1.00  0.00    -0.354 N 
ATOM     59  N   UNL A   1      41.311  30.738  34.740  1.00  0.00    -0.248 NA
ATOM     60  C   UNL A   1      41.864  31.533  36.868  1.00  0.00     0.031 C 
ATOM     61  C   UNL A   1      43.593  27.596  32.571  1.00  0.00     0.029 A 
ATOM     62  C   UNL A   1      42.899  28.568  33.273  1.00  0.00     0.049 A 
ATOM     63  H   UNL A   1      41.169  29.633  32.697  1.00  0.00     0.167 HD
ATOM     64  C   UNL A   1      42.459  30.089  35.185  1.00  0.00     0.074 A 
ATOM     65  C   UNL A   1      42.775  30.653  36.483  1.00  0.00     0.031 C 
ATOM     66  C   UNL A   1      43.186  29.114  34.579  1.00  0.00     0.034 A 
BRANCH  53  67
ATOM     67  C   UNL A   1      41.003  27.457  29.004  1.00  0.00     0.023 A 
ATOM     68  C   UNL A   1      41.993  27.624  28.019  1.00  0.00     0.031 A 
ATOM     69  C   UNL A   1      40.075  26.415  28.829  1.00  0.00     0.131 A 
ATOM     70  C   UNL A   1      41.985  26.819  26.870  1.00  0.00     0.055 A 
ATOM     71  C   UNL A   1      40.124  25.562  27.723  1.00  0.00     0.041 A 
ATOM     72  F   UNL A   1      39.093  26.215  29.721  1.00  0.00    -0.206 F 
ATOM     73  C   UNL A   1      41.072  25.772  26.726  1.00  0.00     0.022 A 
BRANCH  70  74
ATOM     74  S   UNL A   1      43.085  27.258  25.496  1.00  0.00     0.124 S 
ATOM     75  O   UNL A   1      42.240  28.161  24.718  1.00  0.00    -0.237 OA
ATOM     76  O   UNL A   1      44.216  27.872  26.181  1.00  0.00    -0.237 OA
ATOM     77  O   UNL A   1      43.364  25.974  24.856  1.00  0.00    -0.744 OA
ENDBRANCH  70  74
ENDBRANCH  53  67
BRANCH  54  78
ATOM     78  C   UNL A   1      39.594  33.384  36.962  1.00  0.00     0.023 A 
ATOM     79  C   UNL A   1      38.873  32.879  38.056  1.00  0.00     0.031 A 
ATOM     80  C   UNL A   1      40.060  34.707  37.033  1.00  0.00     0.131 A 
ATOM     81  C   UNL A   1      38.602  33.707  39.155  1.00  0.00     0.055 A 
ATOM     82  C   UNL A   1      39.831  35.512  38.150  1.00  0.00     0.041 A 
ATOM     83  F   UNL A   1      40.764  35.235  36.017  1.00  0.00    -0.206 F 
ATOM     84  C   UNL A   1      39.087  35.016  39.216  1.00  0.00     0.022 A 
BRANCH  81  85
ATOM     85  S   UNL A   1      37.541  33.070  40.483  1.00  0.00     0.124 S 
ATOM     86  O   UNL A   1      36.309  32.773  39.763  1.00  0.00    -0.237 OA
ATOM     87  O   UNL A   1      38.305  31.918  40.953  1.00  0.00    -0.237 OA
ATOM     88  O   UNL A   1      37.463  34.188  41.421  1.00  0.00    -0.744 OA
ENDBRANCH  81  85
ENDBRANCH  54  78
BRANCH  66  89
ATOM     89  C   UNL A   1      44.407  28.621  35.320  1.00  0.00     0.023 A 
ATOM     90  C   UNL A   1      44.323  27.588  36.272  1.00  0.00     0.031 A 
ATOM     91  C   UNL A   1      45.659  29.226  35.112  1.00  0.00     0.131 A 
ATOM     92  C   UNL A   1      45.449  27.247  37.037  1.00  0.00     0.055 A 
ATOM     93  C   UNL A   1      46.793  28.833  35.825  1.00  0.00     0.041 A 
ATOM     94  F   UNL A   1      45.799  30.218  34.220  1.00  0.00    -0.206 F 
ATOM     95  C   UNL A   1      46.687  27.852  36.808  1.00  0.00     0.022 A 
BRANCH  92  96
ATOM     96  S   UNL A   1      45.241  26.099  38.425  1.00  0.00     0.124 S 
ATOM     97  O   UNL A   1      44.763  26.985  39.483  1.00  0.00    -0.237 OA
ATOM     98  O   UNL A   1      44.265  25.149  37.899  1.00  0.00    -0.237 OA
ATOM     99  O   UNL A   1      46.584  25.560  38.628  1.00  0.00    -0.744 OA
ENDBRANCH  92  96
ENDBRANCH  66  89
ENDBRANCH  40  41
ENDBRANCH  32  35
ENDBRANCH  30  31
ENDBRANCH   1  30
TORSDOF 16
ENDMDL
MODEL 2
REMARK VINA RESULT:     -12.7      1.698      2.484
REMARK SMILES COc1ccc(-c2nc3cc(N4C[C@@H](C(=O)NCCCNC(=O)c5ccc(-c6c7nc(c(-c8cc(S(=O)(=O)[O-])ccc8F)c8ccc([nH]8)c(-c8cc(S(=O)(=O)[O-])ccc8F)c8nc(c(-c9cc(S(=O)(=O)[O-])ccc9F)c9ccc6[nH]9)C=C8)C=C7)cc5)CC4=O)ccc3o2)cc1
REMARK SMILES IDX 19 1 18 2 17 3 15 4 16 5 14 7 12 8 13 9 88 10 87 11 89 12
REMARK SMILES IDX 11 13 7 14 8 15 93 16 9 17 92 18 10 19 91 20 90 21 6 22 3 23
REMARK SMILES IDX 4 24 95 25 5 26 94 27 2 28 1 29 20 30 21 31 22 32 23 34
REMARK SMILES IDX 24 35 25 36 86 37 26 38 85 39 27 40 28 41 29 42 79 43 30 44
REMARK SMILES IDX 84 45 78 46 80 47 31 48 83 49 77 50 76 51 32 53 64 54 44 55
REMARK SMILES IDX 63 56 45 57 48 58 62 59 81 60 46 61 47 62 61 64 82 65 49 66
REMARK SMILES IDX 33 67 34 68 42 69 35 70 41 71 43 72 40 73 36 74 37 75 38 76
REMARK SMILES IDX 39 77 65 78 66 79 74 80 67 81 73 82 75 83 72 84 68 85 69 86
REMARK SMILES IDX 70 87 71 88 50 89 51 90 59 91 52 92 58 93 60 94 57 95 53 96
REMARK SMILES IDX 54 97 55 98 56 99
REMARK H PARENT 17 6 21 33 80 52 48 63
REMARK Flexibility Score: inf
ROOT
ATOM      1  C   UNL A   1      31.601  32.849  26.754  1.00  0.00     0.042 C 
ENDROOT
BRANCH   1   2
ATOM      2  C   UNL A   1      31.546  31.326  26.800  1.00  0.00     0.117 C 
BRANCH   2   3
ATOM      3  N   UNL A   1      31.384  30.744  25.478  1.00  0.00    -0.356 N 
ATOM      4  C   UNL A   1      31.684  29.515  24.989  1.00  0.00     0.225 C 
ATOM      5  O   UNL A   1      31.420  29.293  23.805  1.00  0.00    -0.275 OA
ATOM      6  H   UNL A   1      30.981  31.352  24.817  1.00  0.00     0.163 HD
BRANCH   4   7
ATOM      7  C   UNL A   1      32.257  28.411  25.847  1.00  0.00     0.107 C 
ATOM      8  N   UNL A   1      32.745  26.124  25.526  1.00  0.00    -0.312 N 
ATOM      9  C   UNL A   1      33.070  27.437  25.023  1.00  0.00     0.139 C 
ATOM     10  C   UNL A   1      31.653  26.147  26.401  1.00  0.00     0.227 C 
ATOM     11  C   UNL A   1      31.264  27.586  26.642  1.00  0.00     0.116 C 
ATOM     12  O   UNL A   1      31.112  25.214  26.961  1.00  0.00    -0.274 OA
BRANCH   8  13
ATOM     13  C   UNL A   1      33.519  24.972  25.224  1.00  0.00     0.046 A 
ATOM     14  C   UNL A   1      34.272  20.599  25.111  1.00  0.00     0.227 A 
ATOM     15  N   UNL A   1      33.664  21.354  26.005  1.00  0.00    -0.209 NA
ATOM     16  O   UNL A   1      34.987  21.284  24.158  1.00  0.00    -0.436 OA
ATOM     17  C   UNL A   1      33.883  22.617  25.550  1.00  0.00     0.112 A 
ATOM     18  C   UNL A   1      34.688  22.595  24.426  1.00  0.00     0.155 A 
ATOM     19  C   UNL A   1      33.340  23.819  26.002  1.00  0.00     0.058 A 
ATOM     20  C   UNL A   1      35.023  23.730  23.702  1.00  0.00     0.051 A 
ATOM     21  C   UNL A   1      34.382  24.919  24.112  1.00  0.00     0.030 A 
BRANCH  14  22
ATOM     22  C   UNL A   1      34.040  19.182  24.904  1.00  0.00     0.037 A 
ATOM     23  C   UNL A   1      33.465  16.434  24.764  1.00  0.00     0.118 A 
ATOM     24  C   UNL A   1      34.752  16.913  24.488  1.00  0.00     0.047 A 
ATOM     25  C   UNL A   1      32.456  17.337  25.086  1.00  0.00     0.047 A 
ATOM     26  C   UNL A   1      35.042  18.283  24.544  1.00  0.00     0.017 A 
ATOM     27  C   UNL A   1      32.747  18.698  25.162  1.00  0.00     0.017 A 
BRANCH  23  28
ATOM     28  O   UNL A   1      33.321  15.074  24.710  1.00  0.00    -0.497 OA
ATOM     29  C   UNL A   1      32.632  14.467  25.798  1.00  0.00     0.278 C 
ENDBRANCH  23  28
ENDBRANCH  14  22
ENDBRANCH   8  13
ENDBRANCH   4   7
ENDBRANCH   2   3
ENDBRANCH   1   2
BRANCH   1  30
ATOM     30  C   UNL A   1      32.944  33.439  27.172  1.00  0.00     0.118 C 
BRANCH  30  31
ATOM     31  N   UNL A   1      32.800  34.656  27.954  1.00  0.00    -0.352 N 
ATOM     32  C   UNL A   1      33.380  35.026  29.142  1.00  0.00     0.251 C 
ATOM     33  H   UNL A   1      32.187  35.324  27.570  1.00  0.00     0.163 HD
ATOM     34  O   UNL A   1      32.951  36.019  29.725  1.00  0.00    -0.269 OA
BRANCH  32  35
ATOM     35  C   UNL A   1      34.486  34.237  29.732  1.00  0.00     0.039 A 
ATOM     36  C   UNL A   1      35.793  34.501  29.313  1.00  0.00     0.014 A 
ATOM     37  C   UNL A   1      34.250  33.222  30.665  1.00  0.00     0.014 A 
ATOM     38  C   UNL A   1      36.860  33.798  29.876  1.00  0.00     0.010 A 
ATOM     39  C   UNL A   1      35.321  32.582  31.288  1.00  0.00     0.010 A 
ATOM     40  C   UNL A   1      36.638  32.862  30.898  1.00  0.00    -0.014 A 
BRANCH  40  41
ATOM     41  C   UNL A   1      37.781  32.192  31.575  1.00  0.00     0.031 A 
ATOM     42  C   UNL A   1      38.519  31.064  30.906  1.00  0.00     0.074 A 
ATOM     43  C   UNL A   1      38.123  32.577  32.821  1.00  0.00     0.049 A 
ATOM     44  N   UNL A   1      39.536  30.365  31.345  1.00  0.00    -0.248 NA
ATOM     45  C   UNL A   1      38.031  30.646  29.585  1.00  0.00     0.031 C 
ATOM     46  C   UNL A   1      37.437  33.611  33.602  1.00  0.00     0.029 A 
ATOM     47  N   UNL A   1      39.127  32.148  33.652  1.00  0.00    -0.354 N 
ATOM     48  C   UNL A   1      39.802  29.418  30.361  1.00  0.00     0.074 A 
ATOM     49  C   UNL A   1      38.798  29.595  29.333  1.00  0.00     0.031 C 
ATOM     50  C   UNL A   1      38.061  33.759  34.780  1.00  0.00     0.029 A 
ATOM     51  C   UNL A   1      39.165  32.808  34.858  1.00  0.00     0.049 A 
ATOM     52  H   UNL A   1      39.760  31.436  33.408  1.00  0.00     0.167 HD
ATOM     53  C   UNL A   1      40.804  28.505  30.309  1.00  0.00     0.034 A 
ATOM     54  C   UNL A   1      39.994  32.666  35.911  1.00  0.00     0.034 A 
ATOM     55  C   UNL A   1      41.802  28.349  31.342  1.00  0.00     0.049 A 
ATOM     56  C   UNL A   1      41.110  31.659  35.822  1.00  0.00     0.074 A 
ATOM     57  C   UNL A   1      42.900  27.505  31.361  1.00  0.00     0.029 A 
ATOM     58  N   UNL A   1      41.820  29.045  32.545  1.00  0.00    -0.354 N 
ATOM     59  N   UNL A   1      41.395  30.823  34.850  1.00  0.00    -0.248 NA
ATOM     60  C   UNL A   1      42.026  31.591  36.967  1.00  0.00     0.031 C 
ATOM     61  C   UNL A   1      43.538  27.640  32.601  1.00  0.00     0.029 A 
ATOM     62  C   UNL A   1      42.888  28.625  33.327  1.00  0.00     0.049 A 
ATOM     63  H   UNL A   1      41.169  29.735  32.806  1.00  0.00     0.167 HD
ATOM     64  C   UNL A   1      42.539  30.143  35.260  1.00  0.00     0.074 A 
ATOM     65  C   UNL A   1      42.904  30.691  36.551  1.00  0.00     0.031 C 
ATOM     66  C   UNL A   1      43.224  29.156  34.628  1.00  0.00     0.034 A 
BRANCH  53  67
ATOM     67  C   UNL A   1      40.848  27.588  29.106  1.00  0.00     0.023 A 
ATOM     68  C   UNL A   1      41.789  27.761  28.076  1.00  0.00     0.031 A 
ATOM     69  C   UNL A   1      39.915  26.544  28.971  1.00  0.00     0.131 A 
ATOM     70  C   UNL A   1      41.727  26.962  26.925  1.00  0.00     0.055 A 
ATOM     71  C   UNL A   1      39.912  25.696  27.861  1.00  0.00     0.041 A 
ATOM     72  F   UNL A   1      38.978  26.338  29.909  1.00  0.00    -0.206 F 
ATOM     73  C   UNL A   1      40.810  25.913  26.820  1.00  0.00     0.022 A 
BRANCH  70  74
ATOM     74  S   UNL A   1      42.759  27.409  25.501  1.00  0.00     0.124 S 
ATOM     75  O   UNL A   1      42.015  28.536  24.941  1.00  0.00    -0.237 OA
ATOM     76  O   UNL A   1      44.035  27.733  26.126  1.00  0.00    -0.237 OA
ATOM     77  O   UNL A   1      42.753  26.200  24.679  1.00  0.00    -0.744 OA
ENDBRANCH  70  74
ENDBRANCH  53  67
BRANCH  54  78
ATOM     78  C   UNL A   1      39.805  33.496  37.134  1.00  0.00     0.023 A 
ATOM     79  C   UNL A   1      39.037  33.032  38.214  1.00  0.00     0.031 A 
ATOM     80  C   UNL A   1      40.373  34.778  37.230  1.00  0.00     0.131 A 
ATOM     81  C   UNL A   1      38.821  33.862  39.325  1.00  0.00     0.055 A 
ATOM     82  C   UNL A   1      40.197  35.580  38.358  1.00  0.00     0.041 A 
ATOM     83  F   UNL A   1      41.125  35.264  36.228  1.00  0.00    -0.206 F 
ATOM     84  C   UNL A   1      39.407  35.128  39.410  1.00  0.00     0.022 A 
BRANCH  81  85
ATOM     85  S   UNL A   1      37.702  33.290  40.633  1.00  0.00     0.124 S 
ATOM     86  O   UNL A   1      36.563  32.805  39.861  1.00  0.00    -0.237 OA
ATOM     87  O   UNL A   1      38.509  32.270  41.296  1.00  0.00    -0.237 OA
ATOM     88  O   UNL A   1      37.455  34.495  41.421  1.00  0.00    -0.744 OA
ENDBRANCH  81  85
ENDBRANCH  54  78
BRANCH  66  89
ATOM     89  C   UNL A   1      44.453  28.628  35.331  1.00  0.00     0.023 A 
ATOM     90  C   UNL A   1      44.359  27.674  36.362  1.00  0.00     0.031 A 
ATOM     91  C   UNL A   1      45.728  29.123  35.006  1.00  0.00     0.131 A 
ATOM     92  C   UNL A   1      45.504  27.307  37.083  1.00  0.00     0.055 A 
ATOM     93  C   UNL A   1      46.875  28.700  35.680  1.00  0.00     0.041 A 
ATOM     94  F   UNL A   1      45.880  30.037  34.035  1.00  0.00    -0.206 F 
ATOM     95  C   UNL A   1      46.765  27.802  36.739  1.00  0.00     0.022 A 
BRANCH  92  96
ATOM     96  S   UNL A   1      45.306  26.278  38.564  1.00  0.00     0.124 S 
ATOM     97  O   UNL A   1      43.888  26.452  38.866  1.00  0.00    -0.237 OA
ATOM     98  O   UNL A   1      45.699  24.958  38.081  1.00  0.00    -0.237 OA
ATOM     99  O   UNL A   1      46.223  26.884  39.528  1.00  0.00    -0.744 OA
ENDBRANCH  92  96
ENDBRANCH  66  89
ENDBRANCH  40  41
ENDBRANCH  32  35
ENDBRANCH  30  31
ENDBRANCH   1  30
TORSDOF 16
ENDMDL
MODEL 3
REMARK VINA RESULT:     -12.5      3.583      8.299
REMARK SMILES COc1ccc(-c2nc3cc(N4C[C@@H](C(=O)NCCCNC(=O)c5ccc(-c6c7nc(c(-c8cc(S(=O)(=O)[O-])ccc8F)c8ccc([nH]8)c(-c8cc(S(=O)(=O)[O-])ccc8F)c8nc(c(-c9cc(S(=O)(=O)[O-])ccc9F)c9ccc6[nH]9)C=C8)C=C7)cc5)CC4=O)ccc3o2)cc1
REMARK SMILES IDX 19 1 18 2 17 3 15 4 16 5 14 7 12 8 13 9 88 10 87 11 89 12
REMARK SMILES IDX 11 13 7 14 8 15 93 16 9 17 92 18 10 19 91 20 90 21 6 22 3 23
REMARK SMILES IDX 4 24 95 25 5 26 94 27 2 28 1 29 20 30 21 31 22 32 23 34
REMARK SMILES IDX 24 35 25 36 86 37 26 38 85 39 27 40 28 41 29 42 79 43 30 44
REMARK SMILES IDX 84 45 78 46 80 47 31 48 83 49 77 50 76 51 32 53 64 54 44 55
REMARK SMILES IDX 63 56 45 57 48 58 62 59 81 60 46 61 47 62 61 64 82 65 49 66
REMARK SMILES IDX 33 67 34 68 42 69 35 70 41 71 43 72 40 73 36 74 37 75 38 76
REMARK SMILES IDX 39 77 65 78 66 79 74 80 67 81 73 82 75 83 72 84 68 85 69 86
REMARK SMILES IDX 70 87 71 88 50 89 51 90 59 91 52 92 58 93 60 94 57 95 53 96
REMARK SMILES IDX 54 97 55 98 56 99
REMARK H PARENT 17 6 21 33 80 52 48 63
REMARK Flexibility Score: inf
ROOT
ATOM      1  C   UNL A   1      33.237  30.060  25.949  1.00  0.00     0.042 C 
ENDROOT
BRANCH   1   2
ATOM      2  C   UNL A   1      31.737  30.319  25.868  1.00  0.00     0.117 C 
BRANCH   2   3
ATOM      3  N   UNL A   1      31.234  30.206  24.509  1.00  0.00    -0.356 N 
ATOM      4  C   UNL A   1      30.788  29.142  23.796  1.00  0.00     0.225 C 
ATOM      5  O   UNL A   1      30.404  29.350  22.642  1.00  0.00    -0.275 OA
ATOM      6  H   UNL A   1      31.213  31.057  24.015  1.00  0.00     0.163 HD
BRANCH   4   7
ATOM      7  C   UNL A   1      30.683  27.752  24.380  1.00  0.00     0.107 C 
ATOM      8  N   UNL A   1      31.745  25.683  23.977  1.00  0.00    -0.312 N 
ATOM      9  C   UNL A   1      32.021  27.045  24.367  1.00  0.00     0.139 C 
ATOM     10  C   UNL A   1      30.434  25.518  23.519  1.00  0.00     0.227 C 
ATOM     11  C   UNL A   1      29.688  26.814  23.723  1.00  0.00     0.116 C 
ATOM     12  O   UNL A   1      29.904  24.513  23.087  1.00  0.00    -0.274 OA
BRANCH   8  13
ATOM     13  C   UNL A   1      32.686  24.632  24.140  1.00  0.00     0.046 A 
ATOM     14  C   UNL A   1      33.862  20.437  24.987  1.00  0.00     0.227 A 
ATOM     15  N   UNL A   1      32.906  21.190  25.493  1.00  0.00    -0.209 NA
ATOM     16  O   UNL A   1      34.795  21.105  24.232  1.00  0.00    -0.436 OA
ATOM     17  C   UNL A   1      33.145  22.411  24.942  1.00  0.00     0.112 A 
ATOM     18  C   UNL A   1      34.292  22.380  24.171  1.00  0.00     0.155 A 
ATOM     19  C   UNL A   1      32.361  23.563  24.988  1.00  0.00     0.058 A 
ATOM     20  C   UNL A   1      34.746  23.460  23.429  1.00  0.00     0.051 A 
ATOM     21  C   UNL A   1      33.887  24.579  23.405  1.00  0.00     0.030 A 
BRANCH  14  22
ATOM     22  C   UNL A   1      33.860  18.986  24.944  1.00  0.00     0.037 A 
ATOM     23  C   UNL A   1      33.764  16.183  25.133  1.00  0.00     0.118 A 
ATOM     24  C   UNL A   1      34.907  16.831  24.650  1.00  0.00     0.047 A 
ATOM     25  C   UNL A   1      32.655  16.941  25.500  1.00  0.00     0.047 A 
ATOM     26  C   UNL A   1      34.957  18.227  24.541  1.00  0.00     0.017 A 
ATOM     27  C   UNL A   1      32.710  18.331  25.411  1.00  0.00     0.017 A 
BRANCH  23  28
ATOM     28  O   UNL A   1      33.855  14.821  25.225  1.00  0.00    -0.497 OA
ATOM     29  C   UNL A   1      32.697  14.139  25.694  1.00  0.00     0.278 C 
ENDBRANCH  23  28
ENDBRANCH  14  22
ENDBRANCH   8  13
ENDBRANCH   4   7
ENDBRANCH   2   3
ENDBRANCH   1   2
BRANCH   1  30
ATOM     30  C   UNL A   1      33.783  29.980  27.370  1.00  0.00     0.118 C 
BRANCH  30  31
ATOM     31  N   UNL A   1      33.832  31.278  28.024  1.00  0.00    -0.352 N 
ATOM     32  C   UNL A   1      34.719  31.779  28.944  1.00  0.00     0.251 C 
ATOM     33  H   UNL A   1      33.112  31.898  27.765  1.00  0.00     0.163 HD
ATOM     34  O   UNL A   1      34.445  32.831  29.516  1.00  0.00    -0.269 OA
BRANCH  32  35
ATOM     35  C   UNL A   1      35.974  31.062  29.267  1.00  0.00     0.039 A 
ATOM     36  C   UNL A   1      37.165  31.504  28.687  1.00  0.00     0.014 A 
ATOM     37  C   UNL A   1      35.987  29.943  30.105  1.00  0.00     0.014 A 
ATOM     38  C   UNL A   1      38.370  30.871  28.999  1.00  0.00     0.010 A 
ATOM     39  C   UNL A   1      37.199  29.365  30.483  1.00  0.00     0.010 A 
ATOM     40  C   UNL A   1      38.404  29.822  29.932  1.00  0.00    -0.014 A 
BRANCH  40  41
ATOM     41  C   UNL A   1      39.699  29.219  30.348  1.00  0.00     0.031 A 
ATOM     42  C   UNL A   1      40.453  29.755  31.534  1.00  0.00     0.074 A 
ATOM     43  C   UNL A   1      40.218  28.211  29.618  1.00  0.00     0.049 A 
ATOM     44  N   UNL A   1      41.593  29.356  32.039  1.00  0.00    -0.248 NA
ATOM     45  C   UNL A   1      39.865  30.911  32.225  1.00  0.00     0.031 C 
ATOM     46  C   UNL A   1      39.614  27.652  28.404  1.00  0.00     0.029 A 
ATOM     47  N   UNL A   1      41.365  27.477  29.785  1.00  0.00    -0.354 N 
ATOM     48  C   UNL A   1      41.865  30.217  33.098  1.00  0.00     0.074 A 
ATOM     49  C   UNL A   1      40.799  31.196  33.120  1.00  0.00     0.031 C 
ATOM     50  C   UNL A   1      40.378  26.643  27.958  1.00  0.00     0.029 A 
ATOM     51  C   UNL A   1      41.542  26.506  28.827  1.00  0.00     0.049 A 
ATOM     52  H   UNL A   1      41.999  27.631  30.519  1.00  0.00     0.167 HD
ATOM     53  C   UNL A   1      42.892  30.178  33.983  1.00  0.00     0.034 A 
ATOM     54  C   UNL A   1      42.530  25.605  28.663  1.00  0.00     0.034 A 
ATOM     55  C   UNL A   1      43.943  29.186  33.951  1.00  0.00     0.049 A 
ATOM     56  C   UNL A   1      43.650  25.569  29.668  1.00  0.00     0.074 A 
ATOM     57  C   UNL A   1      44.992  29.010  34.836  1.00  0.00     0.029 A 
ATOM     58  N   UNL A   1      44.085  28.206  32.975  1.00  0.00    -0.354 N 
ATOM     59  N   UNL A   1      43.852  26.341  30.711  1.00  0.00    -0.248 NA
ATOM     60  C   UNL A   1      44.666  24.524  29.484  1.00  0.00     0.031 C 
ATOM     61  C   UNL A   1      45.804  27.974  34.359  1.00  0.00     0.029 A 
ATOM     62  C   UNL A   1      45.221  27.447  33.217  1.00  0.00     0.049 A 
ATOM     63  H   UNL A   1      43.468  28.071  32.219  1.00  0.00     0.167 HD
ATOM     64  C   UNL A   1      45.009  25.862  31.319  1.00  0.00     0.074 A 
ATOM     65  C   UNL A   1      45.438  24.716  30.542  1.00  0.00     0.031 C 
ATOM     66  C   UNL A   1      45.658  26.326  32.417  1.00  0.00     0.034 A 
BRANCH  53  67
ATOM     67  C   UNL A   1      42.940  31.258  35.042  1.00  0.00     0.023 A 
ATOM     68  C   UNL A   1      43.631  32.466  34.839  1.00  0.00     0.031 A 
ATOM     69  C   UNL A   1      42.311  31.065  36.285  1.00  0.00     0.131 A 
ATOM     70  C   UNL A   1      43.747  33.394  35.884  1.00  0.00     0.055 A 
ATOM     71  C   UNL A   1      42.358  32.031  37.293  1.00  0.00     0.041 A 
ATOM     72  F   UNL A   1      41.652  29.926  36.550  1.00  0.00    -0.206 F 
ATOM     73  C   UNL A   1      43.093  33.197  37.103  1.00  0.00     0.022 A 
BRANCH  70  74
ATOM     74  S   UNL A   1      44.888  34.790  35.683  1.00  0.00     0.124 S 
ATOM     75  O   UNL A   1      45.598  34.777  36.960  1.00  0.00    -0.237 OA
ATOM     76  O   UNL A   1      45.666  34.395  34.515  1.00  0.00    -0.237 OA
ATOM     77  O   UNL A   1      44.000  35.934  35.485  1.00  0.00    -0.744 OA
ENDBRANCH  70  74
ENDBRANCH  53  67
BRANCH  54  78
ATOM     78  C   UNL A   1      42.507  24.664  27.507  1.00  0.00     0.023 A 
ATOM     79  C   UNL A   1      41.687  23.524  27.516  1.00  0.00     0.031 A 
ATOM     80  C   UNL A   1      43.324  24.880  26.385  1.00  0.00     0.131 A 
ATOM     81  C   UNL A   1      41.735  22.620  26.444  1.00  0.00     0.055 A 
ATOM     82  C   UNL A   1      43.332  24.005  25.298  1.00  0.00     0.041 A 
ATOM     83  F   UNL A   1      44.119  25.961  26.322  1.00  0.00    -0.206 F 
ATOM     84  C   UNL A   1      42.543  22.860  25.329  1.00  0.00     0.022 A 
BRANCH  81  85
ATOM     85  S   UNL A   1      40.776  21.084  26.558  1.00  0.00     0.124 S 
ATOM     86  O   UNL A   1      41.556  20.184  25.716  1.00  0.00    -0.237 OA
ATOM     87  O   UNL A   1      40.809  20.813  27.992  1.00  0.00    -0.237 OA
ATOM     88  O   UNL A   1      39.468  21.461  26.027  1.00  0.00    -0.744 OA
ENDBRANCH  81  85
ENDBRANCH  54  78
BRANCH  66  89
ATOM     89  C   UNL A   1      46.892  25.567  32.845  1.00  0.00     0.023 A 
ATOM     90  C   UNL A   1      46.835  24.562  33.829  1.00  0.00     0.031 A 
ATOM     91  C   UNL A   1      48.150  25.887  32.302  1.00  0.00     0.131 A 
ATOM     92  C   UNL A   1      48.018  23.973  34.298  1.00  0.00     0.055 A 
ATOM     93  C   UNL A   1      49.316  25.244  32.721  1.00  0.00     0.041 A 
ATOM     94  F   UNL A   1      48.267  26.838  31.363  1.00  0.00    -0.206 F 
ATOM     95  C   UNL A   1      49.257  24.296  33.739  1.00  0.00     0.022 A 
BRANCH  92  96
ATOM     96  S   UNL A   1      47.930  22.876  35.740  1.00  0.00     0.124 S 
ATOM     97  O   UNL A   1      46.509  22.923  36.070  1.00  0.00    -0.237 OA
ATOM     98  O   UNL A   1      48.418  21.611  35.199  1.00  0.00    -0.237 OA
ATOM     99  O   UNL A   1      48.813  23.517  36.712  1.00  0.00    -0.744 OA
ENDBRANCH  92  96
ENDBRANCH  66  89
ENDBRANCH  40  41
ENDBRANCH  32  35
ENDBRANCH  30  31
ENDBRANCH   1  30
TORSDOF 16
ENDMDL
