MODEL 1
REMARK VINA RESULT:     -12.1      0.000      0.000
REMARK SMILES O=C(NCCCNC(=O)[C@@H]1[C@H]2C=C[C@H]3C=C[C@@H]1[C@H]32)c1ccc(-c2c3nc(c(-c4cc(S(=O)(=O)[O-])ccc4F)c4ccc([nH]4)c(-c4cc(S(=O)(=O)[O-])ccc4F)c4nc(c(-c5cc(S(=O)(=O)[O-])ccc5F)c5ccc2[nH]5)C=C4)C=C3)cc1
REMARK SMILES IDX 1 1 2 2 3 3 19 5 20 6 81 7 21 8 80 9 22 10 23 11 24 12 74 13
REMARK SMILES IDX 25 14 79 15 73 16 75 17 26 18 78 19 72 20 71 21 27 23 59 24
REMARK SMILES IDX 39 25 58 26 40 27 43 28 57 29 76 30 41 31 42 32 56 34 77 35
REMARK SMILES IDX 44 36 28 37 29 38 37 39 30 40 36 41 38 42 35 43 31 44 32 45
REMARK SMILES IDX 33 46 34 47 60 48 61 49 69 50 62 51 68 52 70 53 67 54 63 55
REMARK SMILES IDX 64 56 65 57 66 58 45 59 46 60 54 61 47 62 53 63 55 64 52 65
REMARK SMILES IDX 48 66 49 67 50 68 51 69 4 70 5 71 6 72 7 73 8 74 9 76 10 77
REMARK SMILES IDX 17 78 11 79 16 80 18 81 12 82 15 83 14 84 13 85
REMARK H PARENT 3 4 75 22 43 33 7 75
REMARK Flexibility Score: inf
ROOT
ATOM      1  O   UNL A   1      32.832  35.486  28.837  1.00  0.00    -0.269 OA
ATOM      2  C   UNL A   1      33.288  34.375  28.585  1.00  0.00     0.251 C 
ATOM      3  N   UNL A   1      32.705  33.597  27.608  1.00  0.00    -0.352 N 
ATOM      4  H   UNL A   1      31.985  34.031  27.096  1.00  0.00     0.163 HD
ENDROOT
BRANCH   2   5
ATOM      5  C   UNL A   1      34.444  33.851  29.348  1.00  0.00     0.039 A 
ATOM      6  C   UNL A   1      35.746  34.243  29.030  1.00  0.00     0.014 A 
ATOM      7  C   UNL A   1      34.222  32.939  30.383  1.00  0.00     0.014 A 
ATOM      8  C   UNL A   1      36.826  33.600  29.622  1.00  0.00     0.010 A 
ATOM      9  C   UNL A   1      35.311  32.365  31.048  1.00  0.00     0.010 A 
ATOM     10  C   UNL A   1      36.623  32.664  30.648  1.00  0.00    -0.014 A 
BRANCH  10  11
ATOM     11  C   UNL A   1      37.797  32.056  31.328  1.00  0.00     0.031 A 
ATOM     12  C   UNL A   1      38.590  30.955  30.679  1.00  0.00     0.074 A 
ATOM     13  C   UNL A   1      38.145  32.511  32.548  1.00  0.00     0.049 A 
ATOM     14  N   UNL A   1      39.613  30.285  31.148  1.00  0.00    -0.248 NA
ATOM     15  C   UNL A   1      38.170  30.542  29.332  1.00  0.00     0.031 C 
ATOM     16  C   UNL A   1      37.441  33.568  33.280  1.00  0.00     0.029 A 
ATOM     17  N   UNL A   1      39.167  32.152  33.386  1.00  0.00    -0.354 N 
ATOM     18  C   UNL A   1      39.947  29.357  30.167  1.00  0.00     0.074 A 
ATOM     19  C   UNL A   1      38.993  29.532  29.091  1.00  0.00     0.031 C 
ATOM     20  C   UNL A   1      38.065  33.787  34.445  1.00  0.00     0.029 A 
ATOM     21  C   UNL A   1      39.165  32.839  34.576  1.00  0.00     0.049 A 
ATOM     22  H   UNL A   1      39.839  31.469  33.157  1.00  0.00     0.167 HD
ATOM     23  C   UNL A   1      40.958  28.451  30.166  1.00  0.00     0.034 A 
ATOM     24  C   UNL A   1      39.933  32.699  35.674  1.00  0.00     0.034 A 
ATOM     25  C   UNL A   1      41.899  28.299  31.253  1.00  0.00     0.049 A 
ATOM     26  C   UNL A   1      41.022  31.665  35.669  1.00  0.00     0.074 A 
ATOM     27  C   UNL A   1      42.992  27.453  31.337  1.00  0.00     0.029 A 
ATOM     28  N   UNL A   1      41.849  28.997  32.456  1.00  0.00    -0.354 N 
ATOM     29  N   UNL A   1      41.344  30.815  34.721  1.00  0.00    -0.248 NA
ATOM     30  C   UNL A   1      41.852  31.574  36.875  1.00  0.00     0.031 C 
ATOM     31  C   UNL A   1      43.557  27.586  32.612  1.00  0.00     0.029 A 
ATOM     32  C   UNL A   1      42.866  28.571  33.299  1.00  0.00     0.049 A 
ATOM     33  H   UNL A   1      41.189  29.692  32.676  1.00  0.00     0.167 HD
ATOM     34  C   UNL A   1      42.424  30.093  35.214  1.00  0.00     0.074 A 
ATOM     35  C   UNL A   1      42.709  30.622  36.534  1.00  0.00     0.031 C 
ATOM     36  C   UNL A   1      43.121  29.087  34.625  1.00  0.00     0.034 A 
BRANCH  23  37
ATOM     37  C   UNL A   1      41.061  27.524  28.976  1.00  0.00     0.023 A 
ATOM     38  C   UNL A   1      42.070  27.664  28.007  1.00  0.00     0.031 A 
ATOM     39  C   UNL A   1      40.111  26.503  28.789  1.00  0.00     0.131 A 
ATOM     40  C   UNL A   1      42.057  26.858  26.858  1.00  0.00     0.055 A 
ATOM     41  C   UNL A   1      40.153  25.650  27.683  1.00  0.00     0.041 A 
ATOM     42  F   UNL A   1      39.112  26.328  29.668  1.00  0.00    -0.206 F 
ATOM     43  C   UNL A   1      41.119  25.836  26.701  1.00  0.00     0.022 A 
BRANCH  40  44
ATOM     44  S   UNL A   1      43.183  27.274  25.496  1.00  0.00     0.124 S 
ATOM     45  O   UNL A   1      43.533  25.952  24.984  1.00  0.00    -0.237 OA
ATOM     46  O   UNL A   1      42.341  28.092  24.630  1.00  0.00    -0.237 OA
ATOM     47  O   UNL A   1      44.275  27.985  26.158  1.00  0.00    -0.744 OA
ENDBRANCH  40  44
ENDBRANCH  23  37
BRANCH  24  48
ATOM     48  C   UNL A   1      39.647  33.527  36.878  1.00  0.00     0.023 A 
ATOM     49  C   UNL A   1      38.897  33.024  37.949  1.00  0.00     0.031 A 
ATOM     50  C   UNL A   1      40.147  34.839  36.975  1.00  0.00     0.131 A 
ATOM     51  C   UNL A   1      38.650  33.838  39.068  1.00  0.00     0.055 A 
ATOM     52  C   UNL A   1      39.941  35.625  38.108  1.00  0.00     0.041 A 
ATOM     53  F   UNL A   1      40.881  35.361  35.979  1.00  0.00    -0.206 F 
ATOM     54  C   UNL A   1      39.180  35.127  39.160  1.00  0.00     0.022 A 
BRANCH  51  55
ATOM     55  S   UNL A   1      37.584  33.199  40.388  1.00  0.00     0.124 S 
ATOM     56  O   UNL A   1      38.421  32.152  40.965  1.00  0.00    -0.237 OA
ATOM     57  O   UNL A   1      37.380  34.384  41.214  1.00  0.00    -0.237 OA
ATOM     58  O   UNL A   1      36.401  32.729  39.671  1.00  0.00    -0.744 OA
ENDBRANCH  51  55
ENDBRANCH  24  48
BRANCH  36  59
ATOM     59  C   UNL A   1      44.278  28.517  35.406  1.00  0.00     0.023 A 
ATOM     60  C   UNL A   1      44.093  27.520  36.379  1.00  0.00     0.031 A 
ATOM     61  C   UNL A   1      45.583  28.990  35.180  1.00  0.00     0.131 A 
ATOM     62  C   UNL A   1      45.189  27.061  37.125  1.00  0.00     0.055 A 
ATOM     63  C   UNL A   1      46.677  28.491  35.886  1.00  0.00     0.041 A 
ATOM     64  F   UNL A   1      45.815  29.945  34.264  1.00  0.00    -0.206 F 
ATOM     65  C   UNL A   1      46.481  27.528  36.874  1.00  0.00     0.022 A 
BRANCH  62  66
ATOM     66  S   UNL A   1      44.894  25.898  38.485  1.00  0.00     0.124 S 
ATOM     67  O   UNL A   1      44.552  24.674  37.768  1.00  0.00    -0.237 OA
ATOM     68  O   UNL A   1      46.178  25.894  39.178  1.00  0.00    -0.237 OA
ATOM     69  O   UNL A   1      43.792  26.510  39.227  1.00  0.00    -0.744 OA
ENDBRANCH  62  66
ENDBRANCH  36  59
ENDBRANCH  10  11
ENDBRANCH   2   5
BRANCH   3  70
ATOM     70  C   UNL A   1      33.006  32.224  27.230  1.00  0.00     0.118 C 
BRANCH  70  71
ATOM     71  C   UNL A   1      31.802  31.449  26.712  1.00  0.00     0.042 C 
BRANCH  71  72
ATOM     72  C   UNL A   1      31.958  29.937  26.728  1.00  0.00     0.117 C 
BRANCH  72  73
ATOM     73  N   UNL A   1      32.433  29.396  25.473  1.00  0.00    -0.356 N 
ATOM     74  C   UNL A   1      31.791  29.223  24.276  1.00  0.00     0.224 C 
ATOM     75  H   UNL A   1      33.374  29.105  25.481  1.00  0.00     0.163 HD
ATOM     76  O   UNL A   1      32.499  28.767  23.364  1.00  0.00    -0.275 OA
BRANCH  74  77
ATOM     77  C   UNL A   1      30.304  29.551  24.042  1.00  0.00     0.093 C 
ATOM     78  C   UNL A   1      29.760  30.774  23.242  1.00  0.00     0.029 C 
ATOM     79  C   UNL A   1      29.631  28.602  22.991  1.00  0.00     0.029 C 
ATOM     80  C   UNL A   1      28.627  31.513  23.862  1.00  0.00    -0.026 C 
ATOM     81  C   UNL A   1      29.119  29.825  22.218  1.00  0.00     0.015 C 
ATOM     82  C   UNL A   1      28.417  27.863  23.418  1.00  0.00    -0.026 C 
ATOM     83  C   UNL A   1      27.456  31.029  23.424  1.00  0.00    -0.023 C 
ATOM     84  C   UNL A   1      27.601  29.883  22.463  1.00  0.00     0.038 C 
ATOM     85  C   UNL A   1      27.313  28.560  23.113  1.00  0.00    -0.023 C 
ENDBRANCH  74  77
ENDBRANCH  72  73
ENDBRANCH  71  72
ENDBRANCH  70  71
ENDBRANCH   3  70
TORSDOF 13
ENDMDL
MODEL 2
REMARK VINA RESULT:     -11.8      6.927     12.616
REMARK SMILES O=C(NCCCNC(=O)[C@@H]1[C@H]2C=C[C@H]3C=C[C@@H]1[C@H]32)c1ccc(-c2c3nc(c(-c4cc(S(=O)(=O)[O-])ccc4F)c4ccc([nH]4)c(-c4cc(S(=O)(=O)[O-])ccc4F)c4nc(c(-c5cc(S(=O)(=O)[O-])ccc5F)c5ccc2[nH]5)C=C4)C=C3)cc1
REMARK SMILES IDX 1 1 2 2 3 3 19 5 20 6 81 7 21 8 80 9 22 10 23 11 24 12 74 13
REMARK SMILES IDX 25 14 79 15 73 16 75 17 26 18 78 19 72 20 71 21 27 23 59 24
REMARK SMILES IDX 39 25 58 26 40 27 43 28 57 29 76 30 41 31 42 32 56 34 77 35
REMARK SMILES IDX 44 36 28 37 29 38 37 39 30 40 36 41 38 42 35 43 31 44 32 45
REMARK SMILES IDX 33 46 34 47 60 48 61 49 69 50 62 51 68 52 70 53 67 54 63 55
REMARK SMILES IDX 64 56 65 57 66 58 45 59 46 60 54 61 47 62 53 63 55 64 52 65
REMARK SMILES IDX 48 66 49 67 50 68 51 69 4 70 5 71 6 72 7 73 8 74 9 76 10 77
REMARK SMILES IDX 17 78 11 79 16 80 18 81 12 82 15 83 14 84 13 85
REMARK H PARENT 3 4 75 22 43 33 7 75
REMARK Flexibility Score: inf
ROOT
ATOM      1  O   UNL A   1      42.384  18.408  26.043  1.00  0.00    -0.269 OA
ATOM      2  C   UNL A   1      41.665  19.395  26.173  1.00  0.00     0.251 C 
ATOM      3  N   UNL A   1      40.299  19.275  26.035  1.00  0.00    -0.352 N 
ATOM      4  H   UNL A   1      39.965  18.355  25.922  1.00  0.00     0.163 HD
ENDROOT
BRANCH   2   5
ATOM      5  C   UNL A   1      42.262  20.722  26.444  1.00  0.00     0.039 A 
ATOM      6  C   UNL A   1      42.439  21.171  27.754  1.00  0.00     0.014 A 
ATOM      7  C   UNL A   1      42.630  21.538  25.370  1.00  0.00     0.014 A 
ATOM      8  C   UNL A   1      42.817  22.488  27.989  1.00  0.00     0.010 A 
ATOM      9  C   UNL A   1      43.106  22.831  25.612  1.00  0.00     0.010 A 
ATOM     10  C   UNL A   1      43.169  23.330  26.923  1.00  0.00    -0.014 A 
BRANCH  10  11
ATOM     11  C   UNL A   1      43.656  24.705  27.205  1.00  0.00     0.031 A 
ATOM     12  C   UNL A   1      42.732  25.765  27.738  1.00  0.00     0.074 A 
ATOM     13  C   UNL A   1      44.953  24.991  26.976  1.00  0.00     0.049 A 
ATOM     14  N   UNL A   1      42.981  27.024  27.998  1.00  0.00    -0.248 NA
ATOM     15  C   UNL A   1      41.343  25.363  27.998  1.00  0.00     0.031 C 
ATOM     16  C   UNL A   1      45.940  24.044  26.449  1.00  0.00     0.029 A 
ATOM     17  N   UNL A   1      45.666  26.147  27.153  1.00  0.00    -0.354 N 
ATOM     18  C   UNL A   1      41.778  27.572  28.432  1.00  0.00     0.074 A 
ATOM     19  C   UNL A   1      40.794  26.511  28.366  1.00  0.00     0.031 C 
ATOM     20  C   UNL A   1      47.132  24.650  26.367  1.00  0.00     0.029 A 
ATOM     21  C   UNL A   1      46.980  26.045  26.764  1.00  0.00     0.049 A 
ATOM     22  H   UNL A   1      45.275  26.972  27.524  1.00  0.00     0.167 HD
ATOM     23  C   UNL A   1      41.525  28.839  28.850  1.00  0.00     0.034 A 
ATOM     24  C   UNL A   1      47.952  26.975  26.691  1.00  0.00     0.034 A 
ATOM     25  C   UNL A   1      42.527  29.879  28.909  1.00  0.00     0.049 A 
ATOM     26  C   UNL A   1      47.642  28.379  27.121  1.00  0.00     0.074 A 
ATOM     27  C   UNL A   1      42.397  31.180  29.364  1.00  0.00     0.029 A 
ATOM     28  N   UNL A   1      43.844  29.744  28.481  1.00  0.00    -0.354 N 
ATOM     29  N   UNL A   1      46.507  28.875  27.557  1.00  0.00    -0.248 NA
ATOM     30  C   UNL A   1      48.741  29.348  27.055  1.00  0.00     0.031 C 
ATOM     31  C   UNL A   1      43.608  31.849  29.146  1.00  0.00     0.029 A 
ATOM     32  C   UNL A   1      44.521  30.946  28.626  1.00  0.00     0.049 A 
ATOM     33  H   UNL A   1      44.239  28.914  28.128  1.00  0.00     0.167 HD
ATOM     34  C   UNL A   1      46.759  30.215  27.828  1.00  0.00     0.074 A 
ATOM     35  C   UNL A   1      48.158  30.442  27.524  1.00  0.00     0.031 C 
ATOM     36  C   UNL A   1      45.910  31.167  28.292  1.00  0.00     0.034 A 
BRANCH  23  37
ATOM     37  C   UNL A   1      40.099  29.177  29.224  1.00  0.00     0.023 A 
ATOM     38  C   UNL A   1      39.678  29.256  30.563  1.00  0.00     0.031 A 
ATOM     39  C   UNL A   1      39.135  29.389  28.222  1.00  0.00     0.131 A 
ATOM     40  C   UNL A   1      38.322  29.454  30.863  1.00  0.00     0.055 A 
ATOM     41  C   UNL A   1      37.801  29.669  28.528  1.00  0.00     0.041 A 
ATOM     42  F   UNL A   1      39.469  29.310  26.923  1.00  0.00    -0.206 F 
ATOM     43  C   UNL A   1      37.383  29.684  29.854  1.00  0.00     0.022 A 
BRANCH  40  44
ATOM     44  S   UNL A   1      37.774  29.241  32.580  1.00  0.00     0.124 S 
ATOM     45  O   UNL A   1      36.458  29.873  32.554  1.00  0.00    -0.237 OA
ATOM     46  O   UNL A   1      37.784  27.791  32.737  1.00  0.00    -0.237 OA
ATOM     47  O   UNL A   1      38.784  29.960  33.354  1.00  0.00    -0.744 OA
ENDBRANCH  40  44
ENDBRANCH  23  37
BRANCH  24  48
ATOM     48  C   UNL A   1      49.281  26.603  26.135  1.00  0.00     0.023 A 
ATOM     49  C   UNL A   1      49.694  27.043  24.870  1.00  0.00     0.031 A 
ATOM     50  C   UNL A   1      50.171  25.810  26.885  1.00  0.00     0.131 A 
ATOM     51  C   UNL A   1      50.957  26.670  24.382  1.00  0.00     0.055 A 
ATOM     52  C   UNL A   1      51.443  25.483  26.416  1.00  0.00     0.041 A 
ATOM     53  F   UNL A   1      49.825  25.373  28.107  1.00  0.00    -0.206 F 
ATOM     54  C   UNL A   1      51.839  25.908  25.153  1.00  0.00     0.022 A 
BRANCH  51  55
ATOM     55  S   UNL A   1      51.418  27.162  22.699  1.00  0.00     0.124 S 
ATOM     56  O   UNL A   1      50.257  26.721  21.932  1.00  0.00    -0.237 OA
ATOM     57  O   UNL A   1      51.583  28.605  22.839  1.00  0.00    -0.237 OA
ATOM     58  O   UNL A   1      52.650  26.417  22.453  1.00  0.00    -0.744 OA
ENDBRANCH  51  55
ENDBRANCH  24  48
BRANCH  36  59
ATOM     59  C   UNL A   1      46.493  32.539  28.522  1.00  0.00     0.023 A 
ATOM     60  C   UNL A   1      46.646  33.462  27.472  1.00  0.00     0.031 A 
ATOM     61  C   UNL A   1      46.913  32.922  29.808  1.00  0.00     0.131 A 
ATOM     62  C   UNL A   1      47.249  34.705  27.718  1.00  0.00     0.055 A 
ATOM     63  C   UNL A   1      47.462  34.179  30.057  1.00  0.00     0.041 A 
ATOM     64  F   UNL A   1      46.793  32.076  30.845  1.00  0.00    -0.206 F 
ATOM     65  C   UNL A   1      47.642  35.076  29.006  1.00  0.00     0.022 A 
BRANCH  62  66
ATOM     66  S   UNL A   1      47.583  35.806  26.316  1.00  0.00     0.124 S 
ATOM     67  O   UNL A   1      46.400  36.659  26.312  1.00  0.00    -0.237 OA
ATOM     68  O   UNL A   1      48.831  36.449  26.714  1.00  0.00    -0.237 OA
ATOM     69  O   UNL A   1      47.692  34.892  25.180  1.00  0.00    -0.744 OA
ENDBRANCH  62  66
ENDBRANCH  36  59
ENDBRANCH  10  11
ENDBRANCH   2   5
BRANCH   3  70
ATOM     70  C   UNL A   1      39.283  20.317  26.034  1.00  0.00     0.118 C 
BRANCH  70  71
ATOM     71  C   UNL A   1      38.162  20.085  25.031  1.00  0.00     0.042 C 
BRANCH  71  72
ATOM     72  C   UNL A   1      37.348  21.320  24.682  1.00  0.00     0.117 C 
BRANCH  72  73
ATOM     73  N   UNL A   1      36.287  21.594  25.625  1.00  0.00    -0.356 N 
ATOM     74  C   UNL A   1      35.026  21.070  25.726  1.00  0.00     0.224 C 
ATOM     75  H   UNL A   1      36.508  22.268  26.308  1.00  0.00     0.163 HD
ATOM     76  O   UNL A   1      34.361  21.487  26.689  1.00  0.00    -0.275 OA
BRANCH  74  77
ATOM     77  C   UNL A   1      34.438  20.045  24.737  1.00  0.00     0.093 C 
ATOM     78  C   UNL A   1      34.155  18.544  25.048  1.00  0.00     0.029 C 
ATOM     79  C   UNL A   1      32.904  20.253  24.487  1.00  0.00     0.029 C 
ATOM     80  C   UNL A   1      34.577  17.567  24.008  1.00  0.00    -0.026 C 
ATOM     81  C   UNL A   1      32.654  18.773  24.810  1.00  0.00     0.015 C 
ATOM     82  C   UNL A   1      32.461  20.435  23.083  1.00  0.00    -0.026 C 
ATOM     83  C   UNL A   1      33.567  17.318  23.161  1.00  0.00    -0.023 C 
ATOM     84  C   UNL A   1      32.318  18.093  23.472  1.00  0.00     0.038 C 
ATOM     85  C   UNL A   1      32.127  19.255  22.541  1.00  0.00    -0.023 C 
ENDBRANCH  74  77
ENDBRANCH  72  73
ENDBRANCH  71  72
ENDBRANCH  70  71
ENDBRANCH   3  70
TORSDOF 13
ENDMDL
MODEL 3
REMARK VINA RESULT:     -11.8      3.610      9.708
REMARK SMILES O=C(NCCCNC(=O)[C@@H]1[C@H]2C=C[C@H]3C=C[C@@H]1[C@H]32)c1ccc(-c2c3nc(c(-c4cc(S(=O)(=O)[O-])ccc4F)c4ccc([nH]4)c(-c4cc(S(=O)(=O)[O-])ccc4F)c4nc(c(-c5cc(S(=O)(=O)[O-])ccc5F)c5ccc2[nH]5)C=C4)C=C3)cc1
REMARK SMILES IDX 1 1 2 2 3 3 19 5 20 6 81 7 21 8 80 9 22 10 23 11 24 12 74 13
REMARK SMILES IDX 25 14 79 15 73 16 75 17 26 18 78 19 72 20 71 21 27 23 59 24
REMARK SMILES IDX 39 25 58 26 40 27 43 28 57 29 76 30 41 31 42 32 56 34 77 35
REMARK SMILES IDX 44 36 28 37 29 38 37 39 30 40 36 41 38 42 35 43 31 44 32 45
REMARK SMILES IDX 33 46 34 47 60 48 61 49 69 50 62 51 68 52 70 53 67 54 63 55
REMARK SMILES IDX 64 56 65 57 66 58 45 59 46 60 54 61 47 62 53 63 55 64 52 65
REMARK SMILES IDX 48 66 49 67 50 68 51 69 4 70 5 71 6 72 7 73 8 74 9 76 10 77
REMARK SMILES IDX 17 78 11 79 16 80 18 81 12 82 15 83 14 84 13 85
REMARK H PARENT 3 4 75 22 43 33 7 75
REMARK Flexibility Score: inf
ROOT
ATOM      1  O   UNL A   1      33.291  31.037  27.290  1.00  0.00    -0.269 OA
ATOM      2  C   UNL A   1      34.177  31.782  27.700  1.00  0.00     0.251 C 
ATOM      3  N   UNL A   1      34.003  33.148  27.656  1.00  0.00    -0.352 N 
ATOM      4  H   UNL A   1      33.112  33.451  27.367  1.00  0.00     0.163 HD
ENDROOT
BRANCH   2   5
ATOM      5  C   UNL A   1      35.448  31.219  28.212  1.00  0.00     0.039 A 
ATOM      6  C   UNL A   1      35.490  29.936  28.760  1.00  0.00     0.014 A 
ATOM      7  C   UNL A   1      36.608  31.997  28.163  1.00  0.00     0.014 A 
ATOM      8  C   UNL A   1      36.639  29.498  29.409  1.00  0.00     0.010 A 
ATOM      9  C   UNL A   1      37.792  31.514  28.730  1.00  0.00     0.010 A 
ATOM     10  C   UNL A   1      37.808  30.275  29.390  1.00  0.00    -0.014 A 
BRANCH  10  11
ATOM     11  C   UNL A   1      39.049  29.747  30.014  1.00  0.00     0.031 A 
ATOM     12  C   UNL A   1      39.559  30.294  31.319  1.00  0.00     0.074 A 
ATOM     13  C   UNL A   1      39.717  28.758  29.387  1.00  0.00     0.049 A 
ATOM     14  N   UNL A   1      40.645  29.978  31.979  1.00  0.00    -0.248 NA
ATOM     15  C   UNL A   1      38.753  31.343  31.957  1.00  0.00     0.031 C 
ATOM     16  C   UNL A   1      39.321  28.157  28.111  1.00  0.00     0.029 A 
ATOM     17  N   UNL A   1      40.859  28.084  29.730  1.00  0.00    -0.354 N 
ATOM     18  C   UNL A   1      40.667  30.803  33.100  1.00  0.00     0.074 A 
ATOM     19  C   UNL A   1      39.498  31.655  33.007  1.00  0.00     0.031 C 
ATOM     20  C   UNL A   1      40.191  27.190  27.790  1.00  0.00     0.029 A 
ATOM     21  C   UNL A   1      41.245  27.152  28.797  1.00  0.00     0.049 A 
ATOM     22  H   UNL A   1      41.355  28.250  30.565  1.00  0.00     0.167 HD
ATOM     23  C   UNL A   1      41.573  30.837  34.110  1.00  0.00     0.034 A 
ATOM     24  C   UNL A   1      42.346  26.379  28.728  1.00  0.00     0.034 A 
ATOM     25  C   UNL A   1      42.730  29.973  34.179  1.00  0.00     0.049 A 
ATOM     26  C   UNL A   1      43.357  26.460  29.836  1.00  0.00     0.074 A 
ATOM     27  C   UNL A   1      43.684  29.884  35.179  1.00  0.00     0.029 A 
ATOM     28  N   UNL A   1      43.102  29.058  33.200  1.00  0.00    -0.354 N 
ATOM     29  N   UNL A   1      43.347  27.223  30.904  1.00  0.00    -0.248 NA
ATOM     30  C   UNL A   1      44.521  25.574  29.733  1.00  0.00     0.031 C 
ATOM     31  C   UNL A   1      44.666  28.973  34.773  1.00  0.00     0.029 A 
ATOM     32  C   UNL A   1      44.289  28.432  33.554  1.00  0.00     0.049 A 
ATOM     33  H   UNL A   1      42.596  28.879  32.375  1.00  0.00     0.167 HD
ATOM     34  C   UNL A   1      44.502  26.901  31.607  1.00  0.00     0.074 A 
ATOM     35  C   UNL A   1      45.172  25.862  30.851  1.00  0.00     0.031 C 
ATOM     36  C   UNL A   1      44.962  27.417  32.776  1.00  0.00     0.034 A 
BRANCH  23  37
ATOM     37  C   UNL A   1      41.374  31.878  35.188  1.00  0.00     0.023 A 
ATOM     38  C   UNL A   1      40.410  31.728  36.201  1.00  0.00     0.031 A 
ATOM     39  C   UNL A   1      42.138  33.060  35.183  1.00  0.00     0.131 A 
ATOM     40  C   UNL A   1      40.178  32.772  37.110  1.00  0.00     0.055 A 
ATOM     41  C   UNL A   1      41.958  34.060  36.141  1.00  0.00     0.041 A 
ATOM     42  F   UNL A   1      43.062  33.273  34.232  1.00  0.00    -0.206 F 
ATOM     43  C   UNL A   1      40.961  33.927  37.102  1.00  0.00     0.022 A 
BRANCH  40  44
ATOM     44  S   UNL A   1      38.728  32.666  38.196  1.00  0.00     0.124 S 
ATOM     45  O   UNL A   1      38.119  33.981  38.011  1.00  0.00    -0.237 OA
ATOM     46  O   UNL A   1      37.994  31.538  37.635  1.00  0.00    -0.237 OA
ATOM     47  O   UNL A   1      39.306  32.439  39.519  1.00  0.00    -0.744 OA
ENDBRANCH  40  44
ENDBRANCH  23  37
BRANCH  24  48
ATOM     48  C   UNL A   1      42.560  25.513  27.536  1.00  0.00     0.023 A 
ATOM     49  C   UNL A   1      42.135  24.178  27.517  1.00  0.00     0.031 A 
ATOM     50  C   UNL A   1      43.182  26.029  26.384  1.00  0.00     0.131 A 
ATOM     51  C   UNL A   1      42.355  23.395  26.372  1.00  0.00     0.055 A 
ATOM     52  C   UNL A   1      43.355  25.261  25.232  1.00  0.00     0.041 A 
ATOM     53  F   UNL A   1      43.597  27.305  26.350  1.00  0.00    -0.206 F 
ATOM     54  C   UNL A   1      42.947  23.932  25.226  1.00  0.00     0.022 A 
BRANCH  51  55
ATOM     55  S   UNL A   1      41.893  21.642  26.417  1.00  0.00     0.124 S 
ATOM     56  O   UNL A   1      42.748  21.083  25.375  1.00  0.00    -0.237 OA
ATOM     57  O   UNL A   1      42.230  21.275  27.788  1.00  0.00    -0.237 OA
ATOM     58  O   UNL A   1      40.464  21.659  26.111  1.00  0.00    -0.744 OA
ENDBRANCH  51  55
ENDBRANCH  24  48
BRANCH  36  59
ATOM     59  C   UNL A   1      46.244  26.833  33.316  1.00  0.00     0.023 A 
ATOM     60  C   UNL A   1      46.255  25.645  34.068  1.00  0.00     0.031 A 
ATOM     61  C   UNL A   1      47.468  27.483  33.084  1.00  0.00     0.131 A 
ATOM     62  C   UNL A   1      47.462  25.168  34.601  1.00  0.00     0.055 A 
ATOM     63  C   UNL A   1      48.673  26.976  33.571  1.00  0.00     0.041 A 
ATOM     64  F   UNL A   1      47.513  28.623  32.375  1.00  0.00    -0.206 F 
ATOM     65  C   UNL A   1      48.672  25.817  34.344  1.00  0.00     0.022 A 
BRANCH  62  66
ATOM     66  S   UNL A   1      47.421  23.729  35.704  1.00  0.00     0.124 S 
ATOM     67  O   UNL A   1      46.526  22.826  34.989  1.00  0.00    -0.237 OA
ATOM     68  O   UNL A   1      48.824  23.330  35.751  1.00  0.00    -0.237 OA
ATOM     69  O   UNL A   1      46.889  24.269  36.954  1.00  0.00    -0.744 OA
ENDBRANCH  62  66
ENDBRANCH  36  59
ENDBRANCH  10  11
ENDBRANCH   2   5
BRANCH   3  70
ATOM     70  C   UNL A   1      34.952  34.204  27.977  1.00  0.00     0.118 C 
BRANCH  70  71
ATOM     71  C   UNL A   1      34.302  35.546  28.282  1.00  0.00     0.042 C 
BRANCH  71  72
ATOM     72  C   UNL A   1      32.951  35.461  28.975  1.00  0.00     0.117 C 
BRANCH  72  73
ATOM     73  N   UNL A   1      32.791  36.428  30.038  1.00  0.00    -0.356 N 
ATOM     74  C   UNL A   1      33.175  36.382  31.352  1.00  0.00     0.224 C 
ATOM     75  H   UNL A   1      32.328  37.256  29.774  1.00  0.00     0.163 HD
ATOM     76  O   UNL A   1      32.926  37.408  32.006  1.00  0.00    -0.275 OA
BRANCH  74  77
ATOM     77  C   UNL A   1      33.861  35.167  32.005  1.00  0.00     0.093 C 
ATOM     78  C   UNL A   1      34.912  34.242  31.320  1.00  0.00     0.029 C 
ATOM     79  C   UNL A   1      34.951  35.577  33.055  1.00  0.00     0.029 C 
ATOM     80  C   UNL A   1      34.729  32.778  31.520  1.00  0.00    -0.026 C 
ATOM     81  C   UNL A   1      35.967  34.667  32.352  1.00  0.00     0.015 C 
ATOM     82  C   UNL A   1      34.813  35.035  34.429  1.00  0.00    -0.026 C 
ATOM     83  C   UNL A   1      35.430  32.359  32.583  1.00  0.00    -0.023 C 
ATOM     84  C   UNL A   1      36.177  33.459  33.281  1.00  0.00     0.038 C 
ATOM     85  C   UNL A   1      35.497  33.888  34.551  1.00  0.00    -0.023 C 
ENDBRANCH  74  77
ENDBRANCH  72  73
ENDBRANCH  71  72
ENDBRANCH  70  71
ENDBRANCH   3  70
TORSDOF 13
ENDMDL
