MODEL 1
REMARK VINA RESULT:     -13.9      0.000      0.000
REMARK SMILES O=C(CCN1C(=O)/C(=C/c2c3ccccc3cc3ccccc23)SC1=S)NCCCNC(=O)c1ccc(-c2c3nc(c(-c4cc(S(=O)(=O)[O-])ccc4F)c4ccc([nH]4)c(-c4cc(S(=O)(=O)[O-])ccc4F)c4nc(c(-c5cc(S(=O)(=O)[O-])ccc5F)c5ccc2[nH]5)C=C4)C=C3)cc1
REMARK SMILES IDX 29 1 28 2 27 3 1 4 2 5 3 7 4 8 5 9 6 10 25 11 7 12 8 13
REMARK SMILES IDX 24 14 26 15 9 16 10 17 11 18 23 19 12 20 16 21 18 22 22 23
REMARK SMILES IDX 13 24 15 25 17 26 19 27 21 28 14 29 20 30 30 31 31 32 32 33
REMARK SMILES IDX 33 35 34 36 35 37 96 38 36 39 95 40 37 41 38 42 39 43 89 44
REMARK SMILES IDX 40 45 94 46 88 47 90 48 41 49 93 50 87 51 86 52 42 54 74 55
REMARK SMILES IDX 54 56 73 57 55 58 58 59 72 60 91 61 56 62 57 63 71 65 92 66
REMARK SMILES IDX 59 67 43 68 44 69 52 70 45 71 51 72 53 73 50 74 46 75 47 76
REMARK SMILES IDX 48 77 49 78 75 79 76 80 84 81 77 82 83 83 85 84 82 85 78 86
REMARK SMILES IDX 79 87 80 88 81 89 60 90 61 91 69 92 62 93 68 94 70 95 67 96
REMARK SMILES IDX 63 97 64 98 65 99 66 100
REMARK H PARENT 27 6 31 34 90 53 58 64
REMARK Flexibility Score: inf
ROOT
ATOM      1  C   UNL A   1      31.407  30.641  25.431  1.00  0.00     0.042 C 
ENDROOT
BRANCH   1   2
ATOM      2  C   UNL A   1      32.022  29.357  24.884  1.00  0.00     0.117 C 
BRANCH   2   3
ATOM      3  N   UNL A   1      31.139  28.214  24.999  1.00  0.00    -0.356 N 
ATOM      4  O   UNL A   1      32.463  27.034  26.459  1.00  0.00    -0.275 OA
ATOM      5  C   UNL A   1      31.425  27.144  25.812  1.00  0.00     0.221 C 
ATOM      6  H   UNL A   1      30.305  28.203  24.477  1.00  0.00     0.163 HD
BRANCH   5   7
ATOM      7  C   UNL A   1      30.328  26.107  25.896  1.00  0.00     0.122 C 
BRANCH   7   8
ATOM      8  C   UNL A   1      30.155  25.370  24.565  1.00  0.00     0.137 C 
BRANCH   8   9
ATOM      9  N   UNL A   1      31.113  24.317  24.179  1.00  0.00    -0.292 N 
ATOM     10  C   UNL A   1      31.211  23.118  24.860  1.00  0.00     0.266 C 
ATOM     11  C   UNL A   1      31.918  24.420  23.052  1.00  0.00     0.148 C 
ATOM     12  O   UNL A   1      30.534  22.755  25.808  1.00  0.00    -0.268 OA
ATOM     13  C   UNL A   1      32.345  22.314  24.339  1.00  0.00     0.081 C 
ATOM     14  S   UNL A   1      32.898  22.966  22.862  1.00  0.00    -0.054 SA
ATOM     15  S   UNL A   1      32.012  25.686  21.966  1.00  0.00    -0.052 S 
ATOM     16  C   UNL A   1      32.840  21.320  25.088  1.00  0.00     0.030 C 
BRANCH  16  17
ATOM     17  C   UNL A   1      34.035  20.470  24.880  1.00  0.00    -0.009 A 
ATOM     18  C   UNL A   1      35.355  21.005  25.041  1.00  0.00    -0.010 A 
ATOM     19  C   UNL A   1      33.827  19.067  24.673  1.00  0.00    -0.010 A 
ATOM     20  C   UNL A   1      35.656  22.355  25.366  1.00  0.00     0.009 A 
ATOM     21  C   UNL A   1      36.455  20.126  24.928  1.00  0.00    -0.017 A 
ATOM     22  C   UNL A   1      34.954  18.225  24.573  1.00  0.00    -0.017 A 
ATOM     23  C   UNL A   1      32.551  18.447  24.588  1.00  0.00     0.009 A 
ATOM     24  C   UNL A   1      36.964  22.814  25.538  1.00  0.00     0.001 A 
ATOM     25  C   UNL A   1      37.768  20.597  25.103  1.00  0.00     0.009 A 
ATOM     26  C   UNL A   1      36.240  18.764  24.682  1.00  0.00     0.017 A 
ATOM     27  C   UNL A   1      34.795  16.840  24.390  1.00  0.00     0.009 A 
ATOM     28  C   UNL A   1      32.404  17.067  24.424  1.00  0.00     0.001 A 
ATOM     29  C   UNL A   1      38.023  21.931  25.405  1.00  0.00     0.001 A 
ATOM     30  C   UNL A   1      33.528  16.263  24.322  1.00  0.00     0.001 A 
ENDBRANCH  16  17
ENDBRANCH   8   9
ENDBRANCH   7   8
ENDBRANCH   5   7
ENDBRANCH   2   3
ENDBRANCH   1   2
BRANCH   1  31
ATOM     31  C   UNL A   1      31.805  30.985  26.866  1.00  0.00     0.118 C 
BRANCH  31  32
ATOM     32  N   UNL A   1      32.028  32.407  27.062  1.00  0.00    -0.352 N 
ATOM     33  C   UNL A   1      33.071  33.069  27.665  1.00  0.00     0.251 C 
ATOM     34  H   UNL A   1      31.319  32.990  26.707  1.00  0.00     0.163 HD
ATOM     35  O   UNL A   1      32.907  34.250  27.969  1.00  0.00    -0.269 OA
BRANCH  33  36
ATOM     36  C   UNL A   1      34.338  32.383  28.022  1.00  0.00     0.039 A 
ATOM     37  C   UNL A   1      35.495  33.167  28.098  1.00  0.00     0.014 A 
ATOM     38  C   UNL A   1      34.417  31.016  28.301  1.00  0.00     0.014 A 
ATOM     39  C   UNL A   1      36.685  32.616  28.571  1.00  0.00     0.010 A 
ATOM     40  C   UNL A   1      35.588  30.479  28.837  1.00  0.00     0.010 A 
ATOM     41  C   UNL A   1      36.720  31.287  29.015  1.00  0.00    -0.014 A 
BRANCH  41  42
ATOM     42  C   UNL A   1      37.897  30.785  29.770  1.00  0.00     0.031 A 
ATOM     43  C   UNL A   1      38.170  31.236  31.173  1.00  0.00     0.074 A 
ATOM     44  C   UNL A   1      38.746  29.942  29.146  1.00  0.00     0.049 A 
ATOM     45  N   UNL A   1      39.150  30.895  31.970  1.00  0.00    -0.248 NA
ATOM     46  C   UNL A   1      37.231  32.207  31.751  1.00  0.00     0.031 C 
ATOM     47  C   UNL A   1      38.601  29.473  27.764  1.00  0.00     0.029 A 
ATOM     48  N   UNL A   1      39.893  29.327  29.580  1.00  0.00    -0.354 N 
ATOM     49  C   UNL A   1      38.946  31.603  33.148  1.00  0.00     0.074 A 
ATOM     50  C   UNL A   1      37.780  32.437  32.935  1.00  0.00     0.031 C 
ATOM     51  C   UNL A   1      39.597  28.622  27.478  1.00  0.00     0.029 A 
ATOM     52  C   UNL A   1      40.482  28.521  28.631  1.00  0.00     0.049 A 
ATOM     53  H   UNL A   1      40.261  29.449  30.484  1.00  0.00     0.167 HD
ATOM     54  C   UNL A   1      39.658  31.546  34.302  1.00  0.00     0.034 A 
ATOM     55  C   UNL A   1      41.615  27.792  28.678  1.00  0.00     0.034 A 
ATOM     56  C   UNL A   1      40.831  30.720  34.481  1.00  0.00     0.049 A 
ATOM     57  C   UNL A   1      42.415  27.787  29.955  1.00  0.00     0.074 A 
ATOM     58  C   UNL A   1      41.600  30.552  35.620  1.00  0.00     0.029 A 
ATOM     59  N   UNL A   1      41.417  29.938  33.492  1.00  0.00    -0.354 N 
ATOM     60  N   UNL A   1      42.170  28.412  31.084  1.00  0.00    -0.248 NA
ATOM     61  C   UNL A   1      43.636  26.974  29.968  1.00  0.00     0.031 C 
ATOM     62  C   UNL A   1      42.691  29.738  35.298  1.00  0.00     0.029 A 
ATOM     63  C   UNL A   1      42.560  29.323  33.982  1.00  0.00     0.049 A 
ATOM     64  H   UNL A   1      41.070  29.835  32.576  1.00  0.00     0.167 HD
ATOM     65  C   UNL A   1      43.195  28.043  31.950  1.00  0.00     0.074 A 
ATOM     66  C   UNL A   1      44.046  27.127  31.218  1.00  0.00     0.031 C 
ATOM     67  C   UNL A   1      43.411  28.426  33.235  1.00  0.00     0.034 A 
BRANCH  54  68
ATOM     68  C   UNL A   1      39.204  32.425  35.443  1.00  0.00     0.023 A 
ATOM     69  C   UNL A   1      39.643  33.754  35.570  1.00  0.00     0.031 A 
ATOM     70  C   UNL A   1      38.338  31.925  36.432  1.00  0.00     0.131 A 
ATOM     71  C   UNL A   1      39.282  34.509  36.696  1.00  0.00     0.055 A 
ATOM     72  C   UNL A   1      37.911  32.710  37.505  1.00  0.00     0.041 A 
ATOM     73  F   UNL A   1      37.901  30.656  36.380  1.00  0.00    -0.206 F 
ATOM     74  C   UNL A   1      38.396  34.006  37.651  1.00  0.00     0.022 A 
BRANCH  71  75
ATOM     75  S   UNL A   1      40.112  36.097  36.975  1.00  0.00     0.124 S 
ATOM     76  O   UNL A   1      39.893  36.772  35.698  1.00  0.00    -0.237 OA
ATOM     77  O   UNL A   1      39.384  36.638  38.117  1.00  0.00    -0.237 OA
ATOM     78  O   UNL A   1      41.498  35.718  37.240  1.00  0.00    -0.744 OA
ENDBRANCH  71  75
ENDBRANCH  54  68
BRANCH  55  79
ATOM     79  C   UNL A   1      42.072  27.023  27.483  1.00  0.00     0.023 A 
ATOM     80  C   UNL A   1      41.923  25.630  27.416  1.00  0.00     0.031 A 
ATOM     81  C   UNL A   1      42.706  27.669  26.406  1.00  0.00     0.131 A 
ATOM     82  C   UNL A   1      42.443  24.921  26.320  1.00  0.00     0.055 A 
ATOM     83  C   UNL A   1      43.168  26.968  25.292  1.00  0.00     0.041 A 
ATOM     84  F   UNL A   1      42.875  29.001  26.416  1.00  0.00    -0.206 F 
ATOM     85  C   UNL A   1      43.051  25.582  25.252  1.00  0.00     0.022 A 
BRANCH  82  86
ATOM     86  S   UNL A   1      42.399  23.108  26.359  1.00  0.00     0.124 S 
ATOM     87  O   UNL A   1      41.023  22.853  26.769  1.00  0.00    -0.237 OA
ATOM     88  O   UNL A   1      42.731  22.768  24.980  1.00  0.00    -0.237 OA
ATOM     89  O   UNL A   1      43.419  22.765  27.347  1.00  0.00    -0.744 OA
ENDBRANCH  82  86
ENDBRANCH  55  79
BRANCH  67  90
ATOM     90  C   UNL A   1      44.605  27.820  33.935  1.00  0.00     0.023 A 
ATOM     91  C   UNL A   1      44.531  26.572  34.578  1.00  0.00     0.031 A 
ATOM     92  C   UNL A   1      45.830  28.509  33.971  1.00  0.00     0.131 A 
ATOM     93  C   UNL A   1      45.643  26.078  35.276  1.00  0.00     0.055 A 
ATOM     94  C   UNL A   1      46.952  27.982  34.609  1.00  0.00     0.041 A 
ATOM     95  F   UNL A   1      45.957  29.708  33.378  1.00  0.00    -0.206 F 
ATOM     96  C   UNL A   1      46.859  26.766  35.280  1.00  0.00     0.022 A 
BRANCH  93  97
ATOM     97  S   UNL A   1      45.452  24.568  36.263  1.00  0.00     0.124 S 
ATOM     98  O   UNL A   1      46.296  23.624  35.539  1.00  0.00    -0.237 OA
ATOM     99  O   UNL A   1      45.941  24.986  37.573  1.00  0.00    -0.237 OA
ATOM    100  O   UNL A   1      44.017  24.294  36.197  1.00  0.00    -0.744 OA
ENDBRANCH  93  97
ENDBRANCH  67  90
ENDBRANCH  41  42
ENDBRANCH  33  36
ENDBRANCH  31  32
ENDBRANCH   1  31
TORSDOF 16
ENDMDL
MODEL 2
REMARK VINA RESULT:     -13.8      2.098      7.458
REMARK SMILES O=C(CCN1C(=O)/C(=C/c2c3ccccc3cc3ccccc23)SC1=S)NCCCNC(=O)c1ccc(-c2c3nc(c(-c4cc(S(=O)(=O)[O-])ccc4F)c4ccc([nH]4)c(-c4cc(S(=O)(=O)[O-])ccc4F)c4nc(c(-c5cc(S(=O)(=O)[O-])ccc5F)c5ccc2[nH]5)C=C4)C=C3)cc1
REMARK SMILES IDX 29 1 28 2 27 3 1 4 2 5 3 7 4 8 5 9 6 10 25 11 7 12 8 13
REMARK SMILES IDX 24 14 26 15 9 16 10 17 11 18 23 19 12 20 16 21 18 22 22 23
REMARK SMILES IDX 13 24 15 25 17 26 19 27 21 28 14 29 20 30 30 31 31 32 32 33
REMARK SMILES IDX 33 35 34 36 35 37 96 38 36 39 95 40 37 41 38 42 39 43 89 44
REMARK SMILES IDX 40 45 94 46 88 47 90 48 41 49 93 50 87 51 86 52 42 54 74 55
REMARK SMILES IDX 54 56 73 57 55 58 58 59 72 60 91 61 56 62 57 63 71 65 92 66
REMARK SMILES IDX 59 67 43 68 44 69 52 70 45 71 51 72 53 73 50 74 46 75 47 76
REMARK SMILES IDX 48 77 49 78 75 79 76 80 84 81 77 82 83 83 85 84 82 85 78 86
REMARK SMILES IDX 79 87 80 88 81 89 60 90 61 91 69 92 62 93 68 94 70 95 67 96
REMARK SMILES IDX 63 97 64 98 65 99 66 100
REMARK H PARENT 27 6 31 34 90 53 58 64
REMARK Flexibility Score: inf
ROOT
ATOM      1  C   UNL A   1      32.074  31.172  26.524  1.00  0.00     0.042 C 
ENDROOT
BRANCH   1   2
ATOM      2  C   UNL A   1      32.609  29.971  25.751  1.00  0.00     0.117 C 
BRANCH   2   3
ATOM      3  N   UNL A   1      31.885  28.748  26.035  1.00  0.00    -0.356 N 
ATOM      4  O   UNL A   1      31.052  28.464  23.914  1.00  0.00    -0.275 OA
ATOM      5  C   UNL A   1      31.180  28.072  25.070  1.00  0.00     0.221 C 
ATOM      6  H   UNL A   1      31.900  28.389  26.951  1.00  0.00     0.163 HD
BRANCH   5   7
ATOM      7  C   UNL A   1      30.596  26.753  25.527  1.00  0.00     0.122 C 
BRANCH   7   8
ATOM      8  C   UNL A   1      30.293  25.837  24.338  1.00  0.00     0.137 C 
BRANCH   8   9
ATOM      9  N   UNL A   1      31.222  24.741  24.003  1.00  0.00    -0.292 N 
ATOM     10  C   UNL A   1      31.331  23.599  24.774  1.00  0.00     0.266 C 
ATOM     11  C   UNL A   1      31.981  24.738  22.840  1.00  0.00     0.148 C 
ATOM     12  O   UNL A   1      30.688  23.325  25.774  1.00  0.00    -0.268 OA
ATOM     13  C   UNL A   1      32.433  22.737  24.278  1.00  0.00     0.081 C 
ATOM     14  S   UNL A   1      32.933  23.258  22.731  1.00  0.00    -0.054 SA
ATOM     15  S   UNL A   1      32.048  25.911  21.652  1.00  0.00    -0.052 S 
ATOM     16  C   UNL A   1      32.944  21.799  25.085  1.00  0.00     0.030 C 
BRANCH  16  17
ATOM     17  C   UNL A   1      34.119  20.916  24.900  1.00  0.00    -0.009 A 
ATOM     18  C   UNL A   1      35.449  21.408  25.105  1.00  0.00    -0.010 A 
ATOM     19  C   UNL A   1      33.874  19.522  24.670  1.00  0.00    -0.010 A 
ATOM     20  C   UNL A   1      35.781  22.745  25.455  1.00  0.00     0.009 A 
ATOM     21  C   UNL A   1      36.525  20.497  25.012  1.00  0.00    -0.017 A 
ATOM     22  C   UNL A   1      34.978  18.647  24.591  1.00  0.00    -0.017 A 
ATOM     23  C   UNL A   1      32.583  18.942  24.542  1.00  0.00     0.009 A 
ATOM     24  C   UNL A   1      37.097  23.162  25.670  1.00  0.00     0.001 A 
ATOM     25  C   UNL A   1      37.846  20.926  25.230  1.00  0.00     0.009 A 
ATOM     26  C   UNL A   1      36.276  19.146  24.743  1.00  0.00     0.017 A 
ATOM     27  C   UNL A   1      34.783  17.269  24.387  1.00  0.00     0.009 A 
ATOM     28  C   UNL A   1      32.400  17.569  24.357  1.00  0.00     0.001 A 
ATOM     29  C   UNL A   1      38.132  22.249  25.556  1.00  0.00     0.001 A 
ATOM     30  C   UNL A   1      33.502  16.733  24.276  1.00  0.00     0.001 A 
ENDBRANCH  16  17
ENDBRANCH   8   9
ENDBRANCH   7   8
ENDBRANCH   5   7
ENDBRANCH   2   3
ENDBRANCH   1   2
BRANCH   1  31
ATOM     31  C   UNL A   1      33.120  31.926  27.344  1.00  0.00     0.118 C 
BRANCH  31  32
ATOM     32  N   UNL A   1      32.784  33.328  27.531  1.00  0.00    -0.352 N 
ATOM     33  C   UNL A   1      33.244  34.237  28.453  1.00  0.00     0.251 C 
ATOM     34  H   UNL A   1      32.122  33.683  26.895  1.00  0.00     0.163 HD
ATOM     35  O   UNL A   1      32.608  35.280  28.602  1.00  0.00    -0.269 OA
BRANCH  33  36
ATOM     36  C   UNL A   1      34.422  33.960  29.312  1.00  0.00     0.039 A 
ATOM     37  C   UNL A   1      34.200  33.265  30.506  1.00  0.00     0.014 A 
ATOM     38  C   UNL A   1      35.724  34.339  28.973  1.00  0.00     0.014 A 
ATOM     39  C   UNL A   1      35.277  32.843  31.284  1.00  0.00     0.010 A 
ATOM     40  C   UNL A   1      36.806  33.861  29.713  1.00  0.00     0.010 A 
ATOM     41  C   UNL A   1      36.591  33.073  30.853  1.00  0.00    -0.014 A 
BRANCH  41  42
ATOM     42  C   UNL A   1      37.726  32.391  31.526  1.00  0.00     0.031 A 
ATOM     43  C   UNL A   1      38.435  31.240  30.878  1.00  0.00     0.074 A 
ATOM     44  C   UNL A   1      38.080  32.803  32.761  1.00  0.00     0.049 A 
ATOM     45  N   UNL A   1      39.441  30.535  31.329  1.00  0.00    -0.248 NA
ATOM     46  C   UNL A   1      37.939  30.813  29.562  1.00  0.00     0.031 C 
ATOM     47  C   UNL A   1      37.427  33.886  33.504  1.00  0.00     0.029 A 
ATOM     48  N   UNL A   1      39.067  32.373  33.611  1.00  0.00    -0.354 N 
ATOM     49  C   UNL A   1      39.708  29.585  30.352  1.00  0.00     0.074 A 
ATOM     50  C   UNL A   1      38.716  29.768  29.311  1.00  0.00     0.031 C 
ATOM     51  C   UNL A   1      38.051  34.056  34.679  1.00  0.00     0.029 A 
ATOM     52  C   UNL A   1      39.114  33.065  34.801  1.00  0.00     0.049 A 
ATOM     53  H   UNL A   1      39.685  31.640  33.391  1.00  0.00     0.167 HD
ATOM     54  C   UNL A   1      40.701  28.659  30.322  1.00  0.00     0.034 A 
ATOM     55  C   UNL A   1      39.912  32.911  35.876  1.00  0.00     0.034 A 
ATOM     56  C   UNL A   1      41.666  28.484  31.383  1.00  0.00     0.049 A 
ATOM     57  C   UNL A   1      40.972  31.842  35.838  1.00  0.00     0.074 A 
ATOM     58  C   UNL A   1      42.737  27.608  31.437  1.00  0.00     0.029 A 
ATOM     59  N   UNL A   1      41.667  29.181  32.587  1.00  0.00    -0.354 N 
ATOM     60  N   UNL A   1      41.254  30.993  34.876  1.00  0.00    -0.248 NA
ATOM     61  C   UNL A   1      41.826  31.714  37.024  1.00  0.00     0.031 C 
ATOM     62  C   UNL A   1      43.333  27.719  32.698  1.00  0.00     0.029 A 
ATOM     63  C   UNL A   1      42.691  28.725  33.403  1.00  0.00     0.049 A 
ATOM     64  H   UNL A   1      41.033  29.896  32.823  1.00  0.00     0.167 HD
ATOM     65  C   UNL A   1      42.337  30.249  35.333  1.00  0.00     0.074 A 
ATOM     66  C   UNL A   1      42.669  30.764  36.646  1.00  0.00     0.031 C 
ATOM     67  C   UNL A   1      43.000  29.234  34.720  1.00  0.00     0.034 A 
BRANCH  54  68
ATOM     68  C   UNL A   1      40.766  27.749  29.118  1.00  0.00     0.023 A 
ATOM     69  C   UNL A   1      41.701  27.954  28.089  1.00  0.00     0.031 A 
ATOM     70  C   UNL A   1      39.868  26.675  28.983  1.00  0.00     0.131 A 
ATOM     71  C   UNL A   1      41.666  27.152  26.939  1.00  0.00     0.055 A 
ATOM     72  C   UNL A   1      39.895  25.825  27.875  1.00  0.00     0.041 A 
ATOM     73  F   UNL A   1      38.935  26.440  29.921  1.00  0.00    -0.206 F 
ATOM     74  C   UNL A   1      40.788  26.070  26.837  1.00  0.00     0.022 A 
BRANCH  71  75
ATOM     75  S   UNL A   1      42.676  27.640  25.513  1.00  0.00     0.124 S 
ATOM     76  O   UNL A   1      42.604  26.442  24.679  1.00  0.00    -0.237 OA
ATOM     77  O   UNL A   1      41.968  28.812  25.012  1.00  0.00    -0.237 OA
ATOM     78  O   UNL A   1      43.988  27.904  26.097  1.00  0.00    -0.744 OA
ENDBRANCH  71  75
ENDBRANCH  54  68
BRANCH  55  79
ATOM     79  C   UNL A   1      39.734  33.773  37.082  1.00  0.00     0.023 A 
ATOM     80  C   UNL A   1      39.118  33.280  38.242  1.00  0.00     0.031 A 
ATOM     81  C   UNL A   1      40.141  35.120  37.074  1.00  0.00     0.131 A 
ATOM     82  C   UNL A   1      38.882  34.139  39.328  1.00  0.00     0.055 A 
ATOM     83  C   UNL A   1      39.958  35.954  38.179  1.00  0.00     0.041 A 
ATOM     84  F   UNL A   1      40.738  35.645  35.992  1.00  0.00    -0.206 F 
ATOM     85  C   UNL A   1      39.311  35.467  39.310  1.00  0.00     0.022 A 
BRANCH  82  86
ATOM     86  S   UNL A   1      37.916  33.517  40.732  1.00  0.00     0.124 S 
ATOM     87  O   UNL A   1      37.954  34.654  41.645  1.00  0.00    -0.237 OA
ATOM     88  O   UNL A   1      36.626  33.236  40.112  1.00  0.00    -0.237 OA
ATOM     89  O   UNL A   1      38.666  32.341  41.166  1.00  0.00    -0.744 OA
ENDBRANCH  82  86
ENDBRANCH  55  79
BRANCH  67  90
ATOM     90  C   UNL A   1      44.173  28.639  35.463  1.00  0.00     0.023 A 
ATOM     91  C   UNL A   1      44.010  27.594  36.389  1.00  0.00     0.031 A 
ATOM     92  C   UNL A   1      45.471  29.136  35.250  1.00  0.00     0.131 A 
ATOM     93  C   UNL A   1      45.116  27.118  37.108  1.00  0.00     0.055 A 
ATOM     94  C   UNL A   1      46.577  28.613  35.919  1.00  0.00     0.041 A 
ATOM     95  F   UNL A   1      45.686  30.137  34.381  1.00  0.00    -0.206 F 
ATOM     96  C   UNL A   1      46.402  27.608  36.865  1.00  0.00     0.022 A 
BRANCH  93  97
ATOM     97  S   UNL A   1      44.839  25.916  38.438  1.00  0.00     0.124 S 
ATOM     98  O   UNL A   1      44.356  24.754  37.700  1.00  0.00    -0.237 OA
ATOM     99  O   UNL A   1      46.168  25.789  39.028  1.00  0.00    -0.237 OA
ATOM    100  O   UNL A   1      43.844  26.568  39.289  1.00  0.00    -0.744 OA
ENDBRANCH  93  97
ENDBRANCH  67  90
ENDBRANCH  41  42
ENDBRANCH  33  36
ENDBRANCH  31  32
ENDBRANCH   1  31
TORSDOF 16
ENDMDL
MODEL 3
REMARK VINA RESULT:     -13.7      4.841      8.741
REMARK SMILES O=C(CCN1C(=O)/C(=C/c2c3ccccc3cc3ccccc23)SC1=S)NCCCNC(=O)c1ccc(-c2c3nc(c(-c4cc(S(=O)(=O)[O-])ccc4F)c4ccc([nH]4)c(-c4cc(S(=O)(=O)[O-])ccc4F)c4nc(c(-c5cc(S(=O)(=O)[O-])ccc5F)c5ccc2[nH]5)C=C4)C=C3)cc1
REMARK SMILES IDX 29 1 28 2 27 3 1 4 2 5 3 7 4 8 5 9 6 10 25 11 7 12 8 13
REMARK SMILES IDX 24 14 26 15 9 16 10 17 11 18 23 19 12 20 16 21 18 22 22 23
REMARK SMILES IDX 13 24 15 25 17 26 19 27 21 28 14 29 20 30 30 31 31 32 32 33
REMARK SMILES IDX 33 35 34 36 35 37 96 38 36 39 95 40 37 41 38 42 39 43 89 44
REMARK SMILES IDX 40 45 94 46 88 47 90 48 41 49 93 50 87 51 86 52 42 54 74 55
REMARK SMILES IDX 54 56 73 57 55 58 58 59 72 60 91 61 56 62 57 63 71 65 92 66
REMARK SMILES IDX 59 67 43 68 44 69 52 70 45 71 51 72 53 73 50 74 46 75 47 76
REMARK SMILES IDX 48 77 49 78 75 79 76 80 84 81 77 82 83 83 85 84 82 85 78 86
REMARK SMILES IDX 79 87 80 88 81 89 60 90 61 91 69 92 62 93 68 94 70 95 67 96
REMARK SMILES IDX 63 97 64 98 65 99 66 100
REMARK H PARENT 27 6 31 34 90 53 58 64
REMARK Flexibility Score: inf
ROOT
ATOM      1  C   UNL A   1      36.242  21.111  25.741  1.00  0.00     0.042 C 
ENDROOT
BRANCH   1   2
ATOM      2  C   UNL A   1      35.417  22.388  25.619  1.00  0.00     0.117 C 
BRANCH   2   3
ATOM      3  N   UNL A   1      34.362  22.287  24.631  1.00  0.00    -0.356 N 
ATOM      4  O   UNL A   1      35.330  23.703  23.103  1.00  0.00    -0.275 OA
ATOM      5  C   UNL A   1      34.422  22.942  23.425  1.00  0.00     0.221 C 
ATOM      6  H   UNL A   1      33.575  21.731  24.830  1.00  0.00     0.163 HD
BRANCH   5   7
ATOM      7  C   UNL A   1      33.289  22.617  22.476  1.00  0.00     0.122 C 
BRANCH   7   8
ATOM      8  C   UNL A   1      31.934  22.679  23.185  1.00  0.00     0.137 C 
BRANCH   8   9
ATOM      9  N   UNL A   1      31.419  23.974  23.670  1.00  0.00    -0.292 N 
ATOM     10  C   UNL A   1      31.393  25.106  22.877  1.00  0.00     0.266 C 
ATOM     11  C   UNL A   1      30.839  24.122  24.923  1.00  0.00     0.148 C 
ATOM     12  O   UNL A   1      31.741  25.193  21.711  1.00  0.00    -0.268 OA
ATOM     13  C   UNL A   1      30.954  26.285  23.665  1.00  0.00     0.081 C 
ATOM     14  S   UNL A   1      30.287  25.780  25.153  1.00  0.00    -0.054 SA
ATOM     15  S   UNL A   1      30.639  22.961  26.108  1.00  0.00    -0.052 S 
ATOM     16  C   UNL A   1      31.219  27.514  23.206  1.00  0.00     0.030 C 
BRANCH  16  17
ATOM     17  C   UNL A   1      31.027  28.836  23.845  1.00  0.00    -0.009 A 
ATOM     18  C   UNL A   1      29.934  29.684  23.468  1.00  0.00    -0.010 A 
ATOM     19  C   UNL A   1      31.867  29.166  24.959  1.00  0.00    -0.010 A 
ATOM     20  C   UNL A   1      28.979  29.386  22.459  1.00  0.00     0.009 A 
ATOM     21  C   UNL A   1      29.742  30.889  24.180  1.00  0.00    -0.017 A 
ATOM     22  C   UNL A   1      31.633  30.376  25.646  1.00  0.00    -0.017 A 
ATOM     23  C   UNL A   1      32.914  28.339  25.449  1.00  0.00     0.009 A 
ATOM     24  C   UNL A   1      27.917  30.240  22.152  1.00  0.00     0.001 A 
ATOM     25  C   UNL A   1      28.669  31.742  23.865  1.00  0.00     0.009 A 
ATOM     26  C   UNL A   1      30.596  31.220  25.239  1.00  0.00     0.017 A 
ATOM     27  C   UNL A   1      32.421  30.728  26.757  1.00  0.00     0.009 A 
ATOM     28  C   UNL A   1      33.679  28.691  26.565  1.00  0.00     0.001 A 
ATOM     29  C   UNL A   1      27.763  31.422  22.858  1.00  0.00     0.001 A 
ATOM     30  C   UNL A   1      33.433  29.889  27.217  1.00  0.00     0.001 A 
ENDBRANCH  16  17
ENDBRANCH   8   9
ENDBRANCH   7   8
ENDBRANCH   5   7
ENDBRANCH   2   3
ENDBRANCH   1   2
BRANCH   1  31
ATOM     31  C   UNL A   1      37.490  21.065  24.861  1.00  0.00     0.118 C 
BRANCH  31  32
ATOM     32  N   UNL A   1      38.517  20.182  25.387  1.00  0.00    -0.352 N 
ATOM     33  C   UNL A   1      39.680  20.473  26.060  1.00  0.00     0.251 C 
ATOM     34  H   UNL A   1      38.355  19.223  25.238  1.00  0.00     0.163 HD
ATOM     35  O   UNL A   1      40.530  19.589  26.153  1.00  0.00    -0.269 OA
BRANCH  33  36
ATOM     36  C   UNL A   1      39.960  21.827  26.600  1.00  0.00     0.039 A 
ATOM     37  C   UNL A   1      40.929  21.933  27.604  1.00  0.00     0.014 A 
ATOM     38  C   UNL A   1      39.323  22.983  26.138  1.00  0.00     0.014 A 
ATOM     39  C   UNL A   1      41.346  23.187  28.048  1.00  0.00     0.010 A 
ATOM     40  C   UNL A   1      39.785  24.240  26.532  1.00  0.00     0.010 A 
ATOM     41  C   UNL A   1      40.830  24.351  27.460  1.00  0.00    -0.014 A 
BRANCH  41  42
ATOM     42  C   UNL A   1      41.466  25.666  27.730  1.00  0.00     0.031 A 
ATOM     43  C   UNL A   1      40.747  26.731  28.502  1.00  0.00     0.074 A 
ATOM     44  C   UNL A   1      42.695  25.899  27.226  1.00  0.00     0.049 A 
ATOM     45  N   UNL A   1      41.158  27.931  28.824  1.00  0.00    -0.248 NA
ATOM     46  C   UNL A   1      39.385  26.416  28.955  1.00  0.00     0.031 C 
ATOM     47  C   UNL A   1      43.468  24.947  26.421  1.00  0.00     0.029 A 
ATOM     48  N   UNL A   1      43.515  26.996  27.310  1.00  0.00    -0.354 N 
ATOM     49  C   UNL A   1      40.110  28.516  29.525  1.00  0.00     0.074 A 
ATOM     50  C   UNL A   1      39.024  27.556  29.527  1.00  0.00     0.031 C 
ATOM     51  C   UNL A   1      44.656  25.488  26.116  1.00  0.00     0.029 A 
ATOM     52  C   UNL A   1      44.716  26.841  26.655  1.00  0.00     0.049 A 
ATOM     53  H   UNL A   1      43.268  27.817  27.793  1.00  0.00     0.167 HD
ATOM     54  C   UNL A   1      40.070  29.733  30.125  1.00  0.00     0.034 A 
ATOM     55  C   UNL A   1      45.746  27.696  26.493  1.00  0.00     0.034 A 
ATOM     56  C   UNL A   1      41.161  30.680  30.090  1.00  0.00     0.049 A 
ATOM     57  C   UNL A   1      45.654  29.060  27.125  1.00  0.00     0.074 A 
ATOM     58  C   UNL A   1      41.245  31.921  30.699  1.00  0.00     0.029 A 
ATOM     59  N   UNL A   1      42.352  30.504  29.394  1.00  0.00    -0.354 N 
ATOM     60  N   UNL A   1      44.681  29.573  27.843  1.00  0.00    -0.248 NA
ATOM     61  C   UNL A   1      46.800  29.957  26.933  1.00  0.00     0.031 C 
ATOM     62  C   UNL A   1      42.443  32.525  30.307  1.00  0.00     0.029 A 
ATOM     63  C   UNL A   1      43.154  31.628  29.524  1.00  0.00     0.049 A 
ATOM     64  H   UNL A   1      42.592  29.696  28.885  1.00  0.00     0.167 HD
ATOM     65  C   UNL A   1      45.112  30.844  28.211  1.00  0.00     0.074 A 
ATOM     66  C   UNL A   1      46.439  31.009  27.653  1.00  0.00     0.031 C 
ATOM     67  C   UNL A   1      44.469  31.788  28.946  1.00  0.00     0.034 A 
BRANCH  54  68
ATOM     68  C   UNL A   1      38.794  30.116  30.837  1.00  0.00     0.023 A 
ATOM     69  C   UNL A   1      37.819  30.919  30.221  1.00  0.00     0.031 A 
ATOM     70  C   UNL A   1      38.556  29.692  32.156  1.00  0.00     0.131 A 
ATOM     71  C   UNL A   1      36.694  31.339  30.947  1.00  0.00     0.055 A 
ATOM     72  C   UNL A   1      37.392  30.041  32.844  1.00  0.00     0.041 A 
ATOM     73  F   UNL A   1      39.459  28.942  32.808  1.00  0.00    -0.206 F 
ATOM     74  C   UNL A   1      36.459  30.882  32.245  1.00  0.00     0.022 A 
BRANCH  71  75
ATOM     75  S   UNL A   1      35.625  32.614  30.225  1.00  0.00     0.124 S 
ATOM     76  O   UNL A   1      34.428  32.499  31.055  1.00  0.00    -0.237 OA
ATOM     77  O   UNL A   1      36.415  33.827  30.406  1.00  0.00    -0.237 OA
ATOM     78  O   UNL A   1      35.458  32.178  28.841  1.00  0.00    -0.744 OA
ENDBRANCH  71  75
ENDBRANCH  54  68
BRANCH  55  79
ATOM     79  C   UNL A   1      46.941  27.301  25.690  1.00  0.00     0.023 A 
ATOM     80  C   UNL A   1      47.113  27.755  24.374  1.00  0.00     0.031 A 
ATOM     81  C   UNL A   1      47.908  26.425  26.217  1.00  0.00     0.131 A 
ATOM     82  C   UNL A   1      48.199  27.295  23.611  1.00  0.00     0.055 A 
ATOM     83  C   UNL A   1      49.018  26.018  25.475  1.00  0.00     0.041 A 
ATOM     84  F   UNL A   1      47.795  25.960  27.471  1.00  0.00    -0.206 F 
ATOM     85  C   UNL A   1      49.160  26.442  24.158  1.00  0.00     0.022 A 
BRANCH  82  86
ATOM     86  S   UNL A   1      48.285  27.753  21.858  1.00  0.00     0.124 S 
ATOM     87  O   UNL A   1      47.038  28.490  21.683  1.00  0.00    -0.237 OA
ATOM     88  O   UNL A   1      49.510  28.544  21.811  1.00  0.00    -0.237 OA
ATOM     89  O   UNL A   1      48.350  26.464  21.173  1.00  0.00    -0.744 OA
ENDBRANCH  82  86
ENDBRANCH  55  79
BRANCH  67  90
ATOM     90  C   UNL A   1      45.218  33.073  29.211  1.00  0.00     0.023 A 
ATOM     91  C   UNL A   1      45.112  34.182  28.354  1.00  0.00     0.031 A 
ATOM     92  C   UNL A   1      46.061  33.182  30.332  1.00  0.00     0.131 A 
ATOM     93  C   UNL A   1      45.878  35.331  28.599  1.00  0.00     0.055 A 
ATOM     94  C   UNL A   1      46.769  34.352  30.607  1.00  0.00     0.041 A 
ATOM     95  F   UNL A   1      46.205  32.153  31.182  1.00  0.00    -0.206 F 
ATOM     96  C   UNL A   1      46.692  35.430  29.731  1.00  0.00     0.022 A 
BRANCH  93  97
ATOM     97  S   UNL A   1      45.874  36.661  27.365  1.00  0.00     0.124 S 
ATOM     98  O   UNL A   1      44.704  37.437  27.761  1.00  0.00    -0.237 OA
ATOM     99  O   UNL A   1      47.167  37.299  27.589  1.00  0.00    -0.237 OA
ATOM    100  O   UNL A   1      45.747  35.949  26.094  1.00  0.00    -0.744 OA
ENDBRANCH  93  97
ENDBRANCH  67  90
ENDBRANCH  41  42
ENDBRANCH  33  36
ENDBRANCH  31  32
ENDBRANCH   1  31
TORSDOF 16
ENDMDL
