MODEL 1
REMARK VINA RESULT:     -13.7      0.000      0.000
REMARK SMILES O=C(NCCCNC(=O)C1(n2ccnc2)CCN(C(=O)[C@@H]2CC(=O)N(C3CC3)C2)CC1)c1ccc(-c2c3nc(c(-c4cc(S(=O)(=O)[O-])ccc4F)c4ccc([nH]4)c(-c4cc(S(=O)(=O)[O-])ccc4F)c4nc(c(-c5cc(S(=O)(=O)[O-])ccc5F)c5ccc2[nH]5)C=C4)C=C3)cc1
REMARK SMILES IDX 4 1 3 2 1 3 2 4 32 6 33 7 94 8 34 9 93 10 35 11 36 12 37 13
REMARK SMILES IDX 87 14 38 15 92 16 86 17 88 18 39 19 91 20 85 21 84 22 40 24
REMARK SMILES IDX 72 25 52 26 71 27 53 28 56 29 70 30 89 31 54 32 55 33 69 35
REMARK SMILES IDX 90 36 57 37 41 38 42 39 50 40 43 41 49 42 51 43 48 44 44 45
REMARK SMILES IDX 45 46 46 47 47 48 73 49 74 50 82 51 75 52 81 53 83 54 80 55
REMARK SMILES IDX 76 56 77 57 78 58 79 59 58 60 59 61 67 62 60 63 66 64 68 65
REMARK SMILES IDX 65 66 61 67 62 68 63 69 64 70 5 71 6 72 7 73 8 74 9 76 10 77
REMARK SMILES IDX 16 78 31 79 17 80 30 81 18 82 19 83 20 84 11 85 12 86 15 87
REMARK SMILES IDX 13 88 14 89 21 90 22 91 29 92 23 93 25 94 24 95 26 96 27 97
REMARK SMILES IDX 28 98
REMARK H PARENT 3 5 88 23 56 34 7 75
REMARK Flexibility Score: inf
ROOT
ATOM      1  C   UNL A   1      34.307  31.380  27.488  1.00  0.00     0.118 C 
ENDROOT
BRANCH   1   2
ATOM      2  N   UNL A   1      34.332  31.886  28.843  1.00  0.00    -0.352 N 
ATOM      3  O   UNL A   1      34.918  32.515  30.867  1.00  0.00    -0.269 OA
ATOM      4  C   UNL A   1      35.260  31.910  29.847  1.00  0.00     0.251 C 
ATOM      5  H   UNL A   1      33.484  32.315  29.102  1.00  0.00     0.163 HD
BRANCH   4   6
ATOM      6  C   UNL A   1      36.581  31.219  29.829  1.00  0.00     0.039 A 
ATOM      7  C   UNL A   1      37.838  31.823  29.888  1.00  0.00     0.014 A 
ATOM      8  C   UNL A   1      36.518  29.813  29.772  1.00  0.00     0.014 A 
ATOM      9  C   UNL A   1      39.000  31.041  29.821  1.00  0.00     0.010 A 
ATOM     10  C   UNL A   1      37.667  29.033  29.708  1.00  0.00     0.010 A 
ATOM     11  C   UNL A   1      38.917  29.645  29.708  1.00  0.00    -0.014 A 
BRANCH  11  12
ATOM     12  C   UNL A   1      40.125  28.822  29.858  1.00  0.00     0.031 A 
ATOM     13  C   UNL A   1      40.505  28.596  31.285  1.00  0.00     0.074 A 
ATOM     14  C   UNL A   1      40.744  28.150  28.859  1.00  0.00     0.049 A 
ATOM     15  N   UNL A   1      41.550  29.036  31.904  1.00  0.00    -0.248 NA
ATOM     16  C   UNL A   1      39.530  27.940  32.174  1.00  0.00     0.031 C 
ATOM     17  C   UNL A   1      40.334  28.046  27.458  1.00  0.00     0.029 A 
ATOM     18  N   UNL A   1      41.839  27.326  28.905  1.00  0.00    -0.354 N 
ATOM     19  C   UNL A   1      41.487  28.509  33.192  1.00  0.00     0.074 A 
ATOM     20  C   UNL A   1      40.144  28.025  33.355  1.00  0.00     0.031 C 
ATOM     21  C   UNL A   1      41.026  27.051  26.852  1.00  0.00     0.029 A 
ATOM     22  C   UNL A   1      42.019  26.519  27.776  1.00  0.00     0.049 A 
ATOM     23  H   UNL A   1      42.453  27.305  29.675  1.00  0.00     0.167 HD
ATOM     24  C   UNL A   1      42.616  28.303  33.929  1.00  0.00     0.034 A 
ATOM     25  C   UNL A   1      42.888  25.475  27.615  1.00  0.00     0.034 A 
ATOM     26  C   UNL A   1      43.736  29.017  33.363  1.00  0.00     0.049 A 
ATOM     27  C   UNL A   1      43.964  25.657  28.619  1.00  0.00     0.074 A 
ATOM     28  C   UNL A   1      44.010  30.344  33.095  1.00  0.00     0.029 A 
ATOM     29  N   UNL A   1      44.648  28.296  32.625  1.00  0.00    -0.354 N 
ATOM     30  N   UNL A   1      44.812  26.647  28.582  1.00  0.00    -0.248 NA
ATOM     31  C   UNL A   1      43.785  25.041  29.925  1.00  0.00     0.031 C 
ATOM     32  C   UNL A   1      44.690  30.328  31.842  1.00  0.00     0.029 A 
ATOM     33  C   UNL A   1      44.881  28.996  31.467  1.00  0.00     0.049 A 
ATOM     34  H   UNL A   1      45.057  27.438  32.880  1.00  0.00     0.167 HD
ATOM     35  C   UNL A   1      44.914  27.073  29.895  1.00  0.00     0.074 A 
ATOM     36  C   UNL A   1      44.327  25.993  30.690  1.00  0.00     0.031 C 
ATOM     37  C   UNL A   1      45.197  28.375  30.197  1.00  0.00     0.034 A 
BRANCH  24  38
ATOM     38  C   UNL A   1      42.823  27.177  34.921  1.00  0.00     0.023 A 
ATOM     39  C   UNL A   1      43.594  26.078  34.492  1.00  0.00     0.031 A 
ATOM     40  C   UNL A   1      42.078  26.977  36.104  1.00  0.00     0.131 A 
ATOM     41  C   UNL A   1      43.509  24.834  35.141  1.00  0.00     0.055 A 
ATOM     42  C   UNL A   1      42.052  25.758  36.788  1.00  0.00     0.041 A 
ATOM     43  F   UNL A   1      41.259  27.905  36.611  1.00  0.00    -0.206 F 
ATOM     44  C   UNL A   1      42.741  24.666  36.289  1.00  0.00     0.022 A 
BRANCH  41  45
ATOM     45  S   UNL A   1      44.271  23.395  34.346  1.00  0.00     0.124 S 
ATOM     46  O   UNL A   1      44.686  22.610  35.503  1.00  0.00    -0.237 OA
ATOM     47  O   UNL A   1      43.160  22.859  33.567  1.00  0.00    -0.237 OA
ATOM     48  O   UNL A   1      45.357  23.978  33.563  1.00  0.00    -0.744 OA
ENDBRANCH  41  45
ENDBRANCH  24  38
BRANCH  25  49
ATOM     49  C   UNL A   1      42.672  24.177  26.892  1.00  0.00     0.023 A 
ATOM     50  C   UNL A   1      43.646  23.555  26.066  1.00  0.00     0.031 A 
ATOM     51  C   UNL A   1      41.556  23.384  27.237  1.00  0.00     0.131 A 
ATOM     52  C   UNL A   1      43.472  22.213  25.630  1.00  0.00     0.055 A 
ATOM     53  C   UNL A   1      41.393  22.062  26.811  1.00  0.00     0.041 A 
ATOM     54  F   UNL A   1      40.618  23.840  28.082  1.00  0.00    -0.206 F 
ATOM     55  C   UNL A   1      42.356  21.467  26.013  1.00  0.00     0.022 A 
BRANCH  52  56
ATOM     56  S   UNL A   1      44.737  21.364  24.614  1.00  0.00     0.124 S 
ATOM     57  O   UNL A   1      44.647  22.074  23.344  1.00  0.00    -0.237 OA
ATOM     58  O   UNL A   1      45.955  21.568  25.388  1.00  0.00    -0.237 OA
ATOM     59  O   UNL A   1      44.269  19.977  24.572  1.00  0.00    -0.744 OA
ENDBRANCH  52  56
ENDBRANCH  25  49
BRANCH  37  60
ATOM     60  C   UNL A   1      45.697  29.286  29.094  1.00  0.00     0.023 A 
ATOM     61  C   UNL A   1      44.898  30.180  28.343  1.00  0.00     0.031 A 
ATOM     62  C   UNL A   1      47.087  29.323  28.885  1.00  0.00     0.131 A 
ATOM     63  C   UNL A   1      45.501  31.057  27.418  1.00  0.00     0.055 A 
ATOM     64  C   UNL A   1      47.683  30.210  27.991  1.00  0.00     0.041 A 
ATOM     65  F   UNL A   1      47.902  28.513  29.581  1.00  0.00    -0.206 F 
ATOM     66  C   UNL A   1      46.890  31.077  27.250  1.00  0.00     0.022 A 
BRANCH  63  67
ATOM     67  S   UNL A   1      44.491  32.175  26.392  1.00  0.00     0.124 S 
ATOM     68  O   UNL A   1      45.430  32.661  25.389  1.00  0.00    -0.237 OA
ATOM     69  O   UNL A   1      43.434  31.293  25.903  1.00  0.00    -0.237 OA
ATOM     70  O   UNL A   1      44.037  33.193  27.343  1.00  0.00    -0.744 OA
ENDBRANCH  63  67
ENDBRANCH  37  60
ENDBRANCH  11  12
ENDBRANCH   4   6
ENDBRANCH   1   2
BRANCH   1  71
ATOM     71  C   UNL A   1      33.475  30.116  27.301  1.00  0.00     0.042 C 
BRANCH  71  72
ATOM     72  C   UNL A   1      32.481  30.163  26.138  1.00  0.00     0.117 C 
BRANCH  72  73
ATOM     73  N   UNL A   1      33.096  29.857  24.858  1.00  0.00    -0.354 N 
ATOM     74  C   UNL A   1      32.856  28.999  23.843  1.00  0.00     0.246 C 
ATOM     75  H   UNL A   1      33.890  30.414  24.689  1.00  0.00     0.163 HD
ATOM     76  O   UNL A   1      33.655  29.128  22.899  1.00  0.00    -0.272 OA
BRANCH  74  77
ATOM     77  C   UNL A   1      31.775  27.870  23.761  1.00  0.00     0.127 C 
ATOM     78  C   UNL A   1      31.229  27.164  25.022  1.00  0.00     0.061 C 
ATOM     79  C   UNL A   1      32.431  26.780  22.868  1.00  0.00     0.061 C 
ATOM     80  C   UNL A   1      32.134  26.116  25.682  1.00  0.00     0.122 C 
ATOM     81  C   UNL A   1      33.508  26.062  23.657  1.00  0.00     0.122 C 
ATOM     82  N   UNL A   1      32.892  25.307  24.730  1.00  0.00    -0.342 N 
ATOM     83  C   UNL A   1      33.154  23.991  25.079  1.00  0.00     0.227 C 
ATOM     84  O   UNL A   1      32.944  23.606  26.233  1.00  0.00    -0.274 OA
BRANCH  77  85
ATOM     85  N   UNL A   1      30.601  28.485  23.077  1.00  0.00    -0.322 N 
ATOM     86  C   UNL A   1      29.286  28.155  23.313  1.00  0.00     0.108 A 
ATOM     87  C   UNL A   1      30.591  29.445  22.099  1.00  0.00     0.200 A 
ATOM     88  C   UNL A   1      28.552  28.937  22.454  1.00  0.00     0.130 A 
ATOM     89  N   UNL A   1      29.372  29.731  21.701  1.00  0.00    -0.245 NA
ENDBRANCH  77  85
BRANCH  83  90
ATOM     90  C   UNL A   1      33.647  22.946  24.077  1.00  0.00     0.107 C 
ATOM     91  C   UNL A   1      32.986  21.581  24.145  1.00  0.00     0.115 C 
ATOM     92  C   UNL A   1      35.136  22.694  24.116  1.00  0.00     0.133 C 
ATOM     93  C   UNL A   1      34.072  20.658  24.652  1.00  0.00     0.223 C 
ATOM     94  N   UNL A   1      35.274  21.377  24.690  1.00  0.00    -0.339 N 
ATOM     95  O   UNL A   1      33.874  19.517  25.020  1.00  0.00    -0.275 OA
BRANCH  94  96
ATOM     96  C   UNL A   1      36.474  21.011  25.385  1.00  0.00     0.085 C 
ATOM     97  C   UNL A   1      37.562  20.199  24.727  1.00  0.00     0.027 C 
ATOM     98  C   UNL A   1      37.812  21.628  25.110  1.00  0.00     0.027 C 
ENDBRANCH  94  96
ENDBRANCH  83  90
ENDBRANCH  74  77
ENDBRANCH  72  73
ENDBRANCH  71  72
ENDBRANCH   1  71
TORSDOF 16
ENDMDL
MODEL 2
REMARK VINA RESULT:     -13.5      2.375      6.804
REMARK SMILES O=C(NCCCNC(=O)C1(n2ccnc2)CCN(C(=O)[C@@H]2CC(=O)N(C3CC3)C2)CC1)c1ccc(-c2c3nc(c(-c4cc(S(=O)(=O)[O-])ccc4F)c4ccc([nH]4)c(-c4cc(S(=O)(=O)[O-])ccc4F)c4nc(c(-c5cc(S(=O)(=O)[O-])ccc5F)c5ccc2[nH]5)C=C4)C=C3)cc1
REMARK SMILES IDX 4 1 3 2 1 3 2 4 32 6 33 7 94 8 34 9 93 10 35 11 36 12 37 13
REMARK SMILES IDX 87 14 38 15 92 16 86 17 88 18 39 19 91 20 85 21 84 22 40 24
REMARK SMILES IDX 72 25 52 26 71 27 53 28 56 29 70 30 89 31 54 32 55 33 69 35
REMARK SMILES IDX 90 36 57 37 41 38 42 39 50 40 43 41 49 42 51 43 48 44 44 45
REMARK SMILES IDX 45 46 46 47 47 48 73 49 74 50 82 51 75 52 81 53 83 54 80 55
REMARK SMILES IDX 76 56 77 57 78 58 79 59 58 60 59 61 67 62 60 63 66 64 68 65
REMARK SMILES IDX 65 66 61 67 62 68 63 69 64 70 5 71 6 72 7 73 8 74 9 76 10 77
REMARK SMILES IDX 16 78 31 79 17 80 30 81 18 82 19 83 20 84 11 85 12 86 15 87
REMARK SMILES IDX 13 88 14 89 21 90 22 91 29 92 23 93 25 94 24 95 26 96 27 97
REMARK SMILES IDX 28 98
REMARK H PARENT 3 5 88 23 56 34 7 75
REMARK Flexibility Score: inf
ROOT
ATOM      1  C   UNL A   1      34.938  29.580  27.543  1.00  0.00     0.118 C 
ENDROOT
BRANCH   1   2
ATOM      2  N   UNL A   1      35.179  29.670  28.967  1.00  0.00    -0.352 N 
ATOM      3  O   UNL A   1      36.086  29.790  30.967  1.00  0.00    -0.269 OA
ATOM      4  C   UNL A   1      36.284  29.582  29.767  1.00  0.00     0.251 C 
ATOM      5  H   UNL A   1      34.354  29.835  29.480  1.00  0.00     0.163 HD
BRANCH   4   6
ATOM      6  C   UNL A   1      37.653  29.192  29.321  1.00  0.00     0.039 A 
ATOM      7  C   UNL A   1      38.335  29.680  28.204  1.00  0.00     0.014 A 
ATOM      8  C   UNL A   1      38.305  28.256  30.146  1.00  0.00     0.014 A 
ATOM      9  C   UNL A   1      39.610  29.187  27.887  1.00  0.00     0.010 A 
ATOM     10  C   UNL A   1      39.569  27.767  29.837  1.00  0.00     0.010 A 
ATOM     11  C   UNL A   1      40.220  28.213  28.692  1.00  0.00    -0.014 A 
BRANCH  11  12
ATOM     12  C   UNL A   1      41.632  27.865  28.479  1.00  0.00     0.031 A 
ATOM     13  C   UNL A   1      41.811  26.566  27.762  1.00  0.00     0.074 A 
ATOM     14  C   UNL A   1      42.684  28.687  28.702  1.00  0.00     0.049 A 
ATOM     15  N   UNL A   1      42.315  25.470  28.226  1.00  0.00    -0.248 NA
ATOM     16  C   UNL A   1      41.215  26.416  26.423  1.00  0.00     0.031 C 
ATOM     17  C   UNL A   1      42.655  30.083  29.139  1.00  0.00     0.029 A 
ATOM     18  N   UNL A   1      44.022  28.473  28.492  1.00  0.00    -0.354 N 
ATOM     19  C   UNL A   1      42.322  24.568  27.164  1.00  0.00     0.074 A 
ATOM     20  C   UNL A   1      41.460  25.131  26.162  1.00  0.00     0.031 C 
ATOM     21  C   UNL A   1      43.874  30.646  28.951  1.00  0.00     0.029 A 
ATOM     22  C   UNL A   1      44.811  29.628  28.495  1.00  0.00     0.049 A 
ATOM     23  H   UNL A   1      44.398  27.574  28.350  1.00  0.00     0.167 HD
ATOM     24  C   UNL A   1      43.227  23.549  27.107  1.00  0.00     0.034 A 
ATOM     25  C   UNL A   1      46.122  29.756  28.124  1.00  0.00     0.034 A 
ATOM     26  C   UNL A   1      43.854  23.346  28.392  1.00  0.00     0.049 A 
ATOM     27  C   UNL A   1      46.724  28.404  28.214  1.00  0.00     0.074 A 
ATOM     28  C   UNL A   1      43.399  23.031  29.658  1.00  0.00     0.029 A 
ATOM     29  N   UNL A   1      45.126  23.843  28.570  1.00  0.00    -0.354 N 
ATOM     30  N   UNL A   1      46.882  27.768  29.342  1.00  0.00    -0.248 NA
ATOM     31  C   UNL A   1      46.682  27.562  27.028  1.00  0.00     0.031 C 
ATOM     32  C   UNL A   1      44.188  23.830  30.535  1.00  0.00     0.029 A 
ATOM     33  C   UNL A   1      45.140  24.508  29.770  1.00  0.00     0.049 A 
ATOM     34  H   UNL A   1      45.884  23.740  27.951  1.00  0.00     0.167 HD
ATOM     35  C   UNL A   1      46.499  26.466  29.070  1.00  0.00     0.074 A 
ATOM     36  C   UNL A   1      46.468  26.378  27.609  1.00  0.00     0.031 C 
ATOM     37  C   UNL A   1      45.965  25.668  30.041  1.00  0.00     0.034 A 
BRANCH  24  38
ATOM     38  C   UNL A   1      43.835  22.986  25.839  1.00  0.00     0.023 A 
ATOM     39  C   UNL A   1      43.858  21.583  25.706  1.00  0.00     0.031 A 
ATOM     40  C   UNL A   1      44.648  23.701  24.931  1.00  0.00     0.131 A 
ATOM     41  C   UNL A   1      44.739  20.955  24.809  1.00  0.00     0.055 A 
ATOM     42  C   UNL A   1      45.470  23.072  23.990  1.00  0.00     0.041 A 
ATOM     43  F   UNL A   1      44.774  25.032  24.963  1.00  0.00    -0.206 F 
ATOM     44  C   UNL A   1      45.547  21.691  23.948  1.00  0.00     0.022 A 
BRANCH  41  45
ATOM     45  S   UNL A   1      44.945  19.158  24.923  1.00  0.00     0.124 S 
ATOM     46  O   UNL A   1      44.960  18.777  23.515  1.00  0.00    -0.237 OA
ATOM     47  O   UNL A   1      46.212  19.044  25.637  1.00  0.00    -0.237 OA
ATOM     48  O   UNL A   1      43.767  18.731  25.674  1.00  0.00    -0.744 OA
ENDBRANCH  41  45
ENDBRANCH  24  38
BRANCH  25  49
ATOM     49  C   UNL A   1      46.785  30.884  27.389  1.00  0.00     0.023 A 
ATOM     50  C   UNL A   1      46.093  32.011  26.870  1.00  0.00     0.031 A 
ATOM     51  C   UNL A   1      48.193  30.986  27.427  1.00  0.00     0.131 A 
ATOM     52  C   UNL A   1      46.809  33.155  26.422  1.00  0.00     0.055 A 
ATOM     53  C   UNL A   1      48.891  32.117  26.992  1.00  0.00     0.041 A 
ATOM     54  F   UNL A   1      48.943  30.018  27.976  1.00  0.00    -0.206 F 
ATOM     55  C   UNL A   1      48.202  33.210  26.496  1.00  0.00     0.022 A 
BRANCH  52  56
ATOM     56  S   UNL A   1      45.943  34.645  25.803  1.00  0.00     0.124 S 
ATOM     57  O   UNL A   1      44.923  34.861  26.823  1.00  0.00    -0.237 OA
ATOM     58  O   UNL A   1      47.016  35.631  25.736  1.00  0.00    -0.237 OA
ATOM     59  O   UNL A   1      45.423  34.224  24.501  1.00  0.00    -0.744 OA
ENDBRANCH  52  56
ENDBRANCH  25  49
BRANCH  37  60
ATOM     60  C   UNL A   1      46.072  26.110  31.487  1.00  0.00     0.023 A 
ATOM     61  C   UNL A   1      45.020  26.660  32.258  1.00  0.00     0.031 A 
ATOM     62  C   UNL A   1      47.287  25.842  32.143  1.00  0.00     0.131 A 
ATOM     63  C   UNL A   1      45.217  26.929  33.628  1.00  0.00     0.055 A 
ATOM     64  C   UNL A   1      47.469  26.082  33.503  1.00  0.00     0.041 A 
ATOM     65  F   UNL A   1      48.317  25.302  31.471  1.00  0.00    -0.206 F 
ATOM     66  C   UNL A   1      46.435  26.632  34.249  1.00  0.00     0.022 A 
BRANCH  63  67
ATOM     67  S   UNL A   1      43.900  27.694  34.629  1.00  0.00     0.124 S 
ATOM     68  O   UNL A   1      42.682  27.070  34.128  1.00  0.00    -0.237 OA
ATOM     69  O   UNL A   1      44.287  27.337  35.992  1.00  0.00    -0.237 OA
ATOM     70  O   UNL A   1      44.022  29.121  34.320  1.00  0.00    -0.744 OA
ENDBRANCH  63  67
ENDBRANCH  37  60
ENDBRANCH  11  12
ENDBRANCH   4   6
ENDBRANCH   1   2
BRANCH   1  71
ATOM     71  C   UNL A   1      33.868  30.532  27.021  1.00  0.00     0.042 C 
BRANCH  71  72
ATOM     72  C   UNL A   1      32.791  29.877  26.151  1.00  0.00     0.117 C 
BRANCH  72  73
ATOM     73  N   UNL A   1      33.216  29.690  24.774  1.00  0.00    -0.354 N 
ATOM     74  C   UNL A   1      32.825  28.931  23.729  1.00  0.00     0.246 C 
ATOM     75  H   UNL A   1      33.986  30.260  24.547  1.00  0.00     0.163 HD
ATOM     76  O   UNL A   1      33.486  29.146  22.697  1.00  0.00    -0.272 OA
BRANCH  74  77
ATOM     77  C   UNL A   1      31.728  27.815  23.697  1.00  0.00     0.127 C 
ATOM     78  C   UNL A   1      31.206  27.141  24.985  1.00  0.00     0.061 C 
ATOM     79  C   UNL A   1      32.347  26.699  22.809  1.00  0.00     0.061 C 
ATOM     80  C   UNL A   1      32.114  26.093  25.642  1.00  0.00     0.122 C 
ATOM     81  C   UNL A   1      33.435  25.982  23.584  1.00  0.00     0.122 C 
ATOM     82  N   UNL A   1      32.837  25.256  24.687  1.00  0.00    -0.342 N 
ATOM     83  C   UNL A   1      33.091  23.944  25.056  1.00  0.00     0.227 C 
ATOM     84  O   UNL A   1      32.906  23.584  26.222  1.00  0.00    -0.274 OA
BRANCH  77  85
ATOM     85  N   UNL A   1      30.545  28.432  23.031  1.00  0.00    -0.322 N 
ATOM     86  C   UNL A   1      29.232  28.145  23.327  1.00  0.00     0.108 A 
ATOM     87  C   UNL A   1      30.522  29.352  22.016  1.00  0.00     0.200 A 
ATOM     88  C   UNL A   1      28.485  28.910  22.465  1.00  0.00     0.130 A 
ATOM     89  N   UNL A   1      29.296  29.653  21.651  1.00  0.00    -0.245 NA
ENDBRANCH  77  85
BRANCH  83  90
ATOM     90  C   UNL A   1      33.545  22.873  24.062  1.00  0.00     0.107 C 
ATOM     91  C   UNL A   1      32.857  21.523  24.164  1.00  0.00     0.115 C 
ATOM     92  C   UNL A   1      35.029  22.591  24.078  1.00  0.00     0.133 C 
ATOM     93  C   UNL A   1      33.933  20.586  24.666  1.00  0.00     0.223 C 
ATOM     94  N   UNL A   1      35.150  21.280  24.671  1.00  0.00    -0.339 N 
ATOM     95  O   UNL A   1      33.719  19.455  25.056  1.00  0.00    -0.275 OA
BRANCH  94  96
ATOM     96  C   UNL A   1      36.355  20.901  25.351  1.00  0.00     0.085 C 
ATOM     97  C   UNL A   1      37.406  20.043  24.693  1.00  0.00     0.027 C 
ATOM     98  C   UNL A   1      37.703  21.475  25.032  1.00  0.00     0.027 C 
ENDBRANCH  94  96
ENDBRANCH  83  90
ENDBRANCH  74  77
ENDBRANCH  72  73
ENDBRANCH  71  72
ENDBRANCH   1  71
TORSDOF 16
ENDMDL
MODEL 3
REMARK VINA RESULT:     -13.5      3.733      9.933
REMARK SMILES O=C(NCCCNC(=O)C1(n2ccnc2)CCN(C(=O)[C@@H]2CC(=O)N(C3CC3)C2)CC1)c1ccc(-c2c3nc(c(-c4cc(S(=O)(=O)[O-])ccc4F)c4ccc([nH]4)c(-c4cc(S(=O)(=O)[O-])ccc4F)c4nc(c(-c5cc(S(=O)(=O)[O-])ccc5F)c5ccc2[nH]5)C=C4)C=C3)cc1
REMARK SMILES IDX 4 1 3 2 1 3 2 4 32 6 33 7 94 8 34 9 93 10 35 11 36 12 37 13
REMARK SMILES IDX 87 14 38 15 92 16 86 17 88 18 39 19 91 20 85 21 84 22 40 24
REMARK SMILES IDX 72 25 52 26 71 27 53 28 56 29 70 30 89 31 54 32 55 33 69 35
REMARK SMILES IDX 90 36 57 37 41 38 42 39 50 40 43 41 49 42 51 43 48 44 44 45
REMARK SMILES IDX 45 46 46 47 47 48 73 49 74 50 82 51 75 52 81 53 83 54 80 55
REMARK SMILES IDX 76 56 77 57 78 58 79 59 58 60 59 61 67 62 60 63 66 64 68 65
REMARK SMILES IDX 65 66 61 67 62 68 63 69 64 70 5 71 6 72 7 73 8 74 9 76 10 77
REMARK SMILES IDX 16 78 31 79 17 80 30 81 18 82 19 83 20 84 11 85 12 86 15 87
REMARK SMILES IDX 13 88 14 89 21 90 22 91 29 92 23 93 25 94 24 95 26 96 27 97
REMARK SMILES IDX 28 98
REMARK H PARENT 3 5 88 23 56 34 7 75
REMARK Flexibility Score: inf
ROOT
ATOM      1  C   UNL A   1      38.069  23.169  25.831  1.00  0.00     0.118 C 
ENDROOT
BRANCH   1   2
ATOM      2  N   UNL A   1      39.373  22.670  26.208  1.00  0.00    -0.352 N 
ATOM      3  O   UNL A   1      41.347  22.360  27.126  1.00  0.00    -0.269 OA
ATOM      4  C   UNL A   1      40.395  23.132  26.991  1.00  0.00     0.251 C 
ATOM      5  H   UNL A   1      39.571  21.791  25.809  1.00  0.00     0.163 HD
BRANCH   4   6
ATOM      6  C   UNL A   1      40.472  24.485  27.612  1.00  0.00     0.039 A 
ATOM      7  C   UNL A   1      41.527  24.994  28.372  1.00  0.00     0.014 A 
ATOM      8  C   UNL A   1      39.364  25.319  27.366  1.00  0.00     0.014 A 
ATOM      9  C   UNL A   1      41.439  26.279  28.928  1.00  0.00     0.010 A 
ATOM     10  C   UNL A   1      39.274  26.594  27.913  1.00  0.00     0.010 A 
ATOM     11  C   UNL A   1      40.302  27.073  28.718  1.00  0.00    -0.014 A 
BRANCH  11  12
ATOM     12  C   UNL A   1      40.311  28.487  29.116  1.00  0.00     0.031 A 
ATOM     13  C   UNL A   1      41.452  29.252  28.530  1.00  0.00     0.074 A 
ATOM     14  C   UNL A   1      39.310  29.124  29.769  1.00  0.00     0.049 A 
ATOM     15  N   UNL A   1      42.457  29.774  29.153  1.00  0.00    -0.248 NA
ATOM     16  C   UNL A   1      41.579  29.308  27.063  1.00  0.00     0.031 C 
ATOM     17  C   UNL A   1      38.010  28.581  30.167  1.00  0.00     0.029 A 
ATOM     18  N   UNL A   1      39.205  30.439  30.141  1.00  0.00    -0.354 N 
ATOM     19  C   UNL A   1      43.214  30.431  28.184  1.00  0.00     0.074 A 
ATOM     20  C   UNL A   1      42.744  29.942  26.917  1.00  0.00     0.031 C 
ATOM     21  C   UNL A   1      37.180  29.594  30.514  1.00  0.00     0.029 A 
ATOM     22  C   UNL A   1      37.913  30.852  30.487  1.00  0.00     0.049 A 
ATOM     23  H   UNL A   1      39.979  31.046  30.162  1.00  0.00     0.167 HD
ATOM     24  C   UNL A   1      44.000  31.498  28.504  1.00  0.00     0.034 A 
ATOM     25  C   UNL A   1      37.465  32.127  30.704  1.00  0.00     0.034 A 
ATOM     26  C   UNL A   1      44.204  31.577  29.932  1.00  0.00     0.049 A 
ATOM     27  C   UNL A   1      38.656  32.949  31.026  1.00  0.00     0.074 A 
ATOM     28  C   UNL A   1      44.748  30.739  30.885  1.00  0.00     0.029 A 
ATOM     29  N   UNL A   1      43.466  32.504  30.634  1.00  0.00    -0.354 N 
ATOM     30  N   UNL A   1      39.363  32.784  32.110  1.00  0.00    -0.248 NA
ATOM     31  C   UNL A   1      39.351  33.598  29.925  1.00  0.00     0.031 C 
ATOM     32  C   UNL A   1      43.898  30.882  32.021  1.00  0.00     0.029 A 
ATOM     33  C   UNL A   1      42.950  31.867  31.734  1.00  0.00     0.049 A 
ATOM     34  H   UNL A   1      43.333  33.448  30.391  1.00  0.00     0.167 HD
ATOM     35  C   UNL A   1      40.679  32.873  31.690  1.00  0.00     0.074 A 
ATOM     36  C   UNL A   1      40.610  33.462  30.351  1.00  0.00     0.031 C 
ATOM     37  C   UNL A   1      41.676  32.201  32.339  1.00  0.00     0.034 A 
BRANCH  24  38
ATOM     38  C   UNL A   1      44.274  32.686  27.606  1.00  0.00     0.023 A 
ATOM     39  C   UNL A   1      43.716  33.923  27.989  1.00  0.00     0.031 A 
ATOM     40  C   UNL A   1      44.763  32.620  26.282  1.00  0.00     0.131 A 
ATOM     41  C   UNL A   1      43.550  34.963  27.058  1.00  0.00     0.055 A 
ATOM     42  C   UNL A   1      44.660  33.683  25.380  1.00  0.00     0.041 A 
ATOM     43  F   UNL A   1      45.274  31.502  25.753  1.00  0.00    -0.206 F 
ATOM     44  C   UNL A   1      44.019  34.852  25.753  1.00  0.00     0.022 A 
BRANCH  41  45
ATOM     45  S   UNL A   1      42.540  36.390  27.536  1.00  0.00     0.124 S 
ATOM     46  O   UNL A   1      42.635  37.225  26.343  1.00  0.00    -0.237 OA
ATOM     47  O   UNL A   1      41.244  35.771  27.788  1.00  0.00    -0.237 OA
ATOM     48  O   UNL A   1      43.224  36.908  28.717  1.00  0.00    -0.744 OA
ENDBRANCH  41  45
ENDBRANCH  24  38
BRANCH  25  49
ATOM     49  C   UNL A   1      36.146  32.735  30.327  1.00  0.00     0.023 A 
ATOM     50  C   UNL A   1      35.458  33.696  31.116  1.00  0.00     0.031 A 
ATOM     51  C   UNL A   1      35.667  32.558  29.010  1.00  0.00     0.131 A 
ATOM     52  C   UNL A   1      34.356  34.416  30.578  1.00  0.00     0.055 A 
ATOM     53  C   UNL A   1      34.588  33.275  28.485  1.00  0.00     0.041 A 
ATOM     54  F   UNL A   1      36.294  31.740  28.150  1.00  0.00    -0.206 F 
ATOM     55  C   UNL A   1      33.933  34.214  29.263  1.00  0.00     0.022 A 
BRANCH  52  56
ATOM     56  S   UNL A   1      33.487  35.703  31.548  1.00  0.00     0.124 S 
ATOM     57  O   UNL A   1      33.104  36.665  30.522  1.00  0.00    -0.237 OA
ATOM     58  O   UNL A   1      32.405  34.953  32.174  1.00  0.00    -0.237 OA
ATOM     59  O   UNL A   1      34.511  36.181  32.480  1.00  0.00    -0.744 OA
ENDBRANCH  52  56
ENDBRANCH  25  49
BRANCH  37  60
ATOM     60  C   UNL A   1      41.384  31.600  33.699  1.00  0.00     0.023 A 
ATOM     61  C   UNL A   1      41.479  32.282  34.935  1.00  0.00     0.031 A 
ATOM     62  C   UNL A   1      40.867  30.293  33.715  1.00  0.00     0.131 A 
ATOM     63  C   UNL A   1      41.072  31.643  36.124  1.00  0.00     0.055 A 
ATOM     64  C   UNL A   1      40.439  29.675  34.888  1.00  0.00     0.041 A 
ATOM     65  F   UNL A   1      40.733  29.600  32.571  1.00  0.00    -0.206 F 
ATOM     66  C   UNL A   1      40.546  30.346  36.098  1.00  0.00     0.022 A 
BRANCH  63  67
ATOM     67  S   UNL A   1      41.241  32.474  37.738  1.00  0.00     0.124 S 
ATOM     68  O   UNL A   1      42.124  31.588  38.488  1.00  0.00    -0.237 OA
ATOM     69  O   UNL A   1      41.801  33.773  37.372  1.00  0.00    -0.237 OA
ATOM     70  O   UNL A   1      39.866  32.527  38.240  1.00  0.00    -0.744 OA
ENDBRANCH  63  67
ENDBRANCH  37  60
ENDBRANCH  11  12
ENDBRANCH   4   6
ENDBRANCH   1   2
BRANCH   1  71
ATOM     71  C   UNL A   1      37.370  22.356  24.746  1.00  0.00     0.042 C 
BRANCH  71  72
ATOM     72  C   UNL A   1      36.764  21.032  25.222  1.00  0.00     0.117 C 
BRANCH  72  73
ATOM     73  N   UNL A   1      35.787  21.209  26.282  1.00  0.00    -0.354 N 
ATOM     74  C   UNL A   1      34.456  21.421  26.354  1.00  0.00     0.246 C 
ATOM     75  H   UNL A   1      36.202  21.164  27.175  1.00  0.00     0.163 HD
ATOM     76  O   UNL A   1      34.033  21.468  27.523  1.00  0.00    -0.272 OA
BRANCH  74  77
ATOM     77  C   UNL A   1      33.448  21.671  25.183  1.00  0.00     0.127 C 
ATOM     78  C   UNL A   1      33.875  22.357  23.866  1.00  0.00     0.061 C 
ATOM     79  C   UNL A   1      32.334  22.547  25.821  1.00  0.00     0.061 C 
ATOM     80  C   UNL A   1      34.062  23.879  23.901  1.00  0.00     0.122 C 
ATOM     81  C   UNL A   1      32.856  23.955  26.029  1.00  0.00     0.122 C 
ATOM     82  N   UNL A   1      33.089  24.574  24.739  1.00  0.00    -0.342 N 
ATOM     83  C   UNL A   1      32.699  25.845  24.343  1.00  0.00     0.227 C 
ATOM     84  O   UNL A   1      33.320  26.430  23.450  1.00  0.00    -0.274 OA
BRANCH  77  85
ATOM     85  N   UNL A   1      32.922  20.326  24.811  1.00  0.00    -0.322 N 
ATOM     86  C   UNL A   1      32.539  19.950  23.544  1.00  0.00     0.108 A 
ATOM     87  C   UNL A   1      32.698  19.244  25.622  1.00  0.00     0.200 A 
ATOM     88  C   UNL A   1      32.098  18.654  23.663  1.00  0.00     0.130 A 
ATOM     89  N   UNL A   1      32.196  18.227  24.958  1.00  0.00    -0.245 NA
ENDBRANCH  77  85
BRANCH  83  90
ATOM     90  C   UNL A   1      31.479  26.560  24.924  1.00  0.00     0.107 C 
ATOM     91  C   UNL A   1      30.530  27.196  23.924  1.00  0.00     0.115 C 
ATOM     92  C   UNL A   1      31.803  27.635  25.935  1.00  0.00     0.133 C 
ATOM     93  C   UNL A   1      30.691  28.685  24.140  1.00  0.00     0.223 C 
ATOM     94  N   UNL A   1      31.501  28.877  25.266  1.00  0.00    -0.339 N 
ATOM     95  O   UNL A   1      30.239  29.531  23.394  1.00  0.00    -0.275 OA
BRANCH  94  96
ATOM     96  C   UNL A   1      32.167  30.088  25.651  1.00  0.00     0.085 C 
ATOM     97  C   UNL A   1      31.755  30.872  26.873  1.00  0.00     0.027 C 
ATOM     98  C   UNL A   1      33.091  30.188  26.828  1.00  0.00     0.027 C 
ENDBRANCH  94  96
ENDBRANCH  83  90
ENDBRANCH  74  77
ENDBRANCH  72  73
ENDBRANCH  71  72
ENDBRANCH   1  71
TORSDOF 16
ENDMDL
