MODEL 1
REMARK VINA RESULT:     -11.7      0.000      0.000
REMARK SMILES CN(C)Nc1ncnc(Nc2ccc(C(=O)NCCCNC(=O)c3ccc(-c4c5nc(c(-c6cc(S(=O)(=O)[O-])ccc6F)c6ccc([nH]6)c(-c6cc(S(=O)(=O)[O-])ccc6F)c6nc(c(-c7cc(S(=O)(=O)[O-])ccc7F)c7ccc4[nH]7)C=C6)C=C5)cc3)cc2)c1[N+](=O)[O-]
REMARK SMILES IDX 18 1 17 2 15 3 16 4 14 6 11 7 12 8 88 9 13 10 87 11 10 12
REMARK SMILES IDX 9 14 5 15 6 16 89 17 7 18 8 19 4 20 2 22 1 23 3 24 90 25
REMARK SMILES IDX 91 26 92 27 19 28 20 29 21 30 22 31 23 33 24 34 25 35 86 36
REMARK SMILES IDX 26 37 85 38 27 39 28 40 29 41 79 42 30 43 84 44 78 45 80 46
REMARK SMILES IDX 31 47 83 48 77 49 76 50 32 52 64 53 44 54 63 55 45 56 48 57
REMARK SMILES IDX 62 58 81 59 46 60 47 61 61 63 82 64 49 65 33 66 34 67 42 68
REMARK SMILES IDX 35 69 41 70 43 71 40 72 36 73 37 74 38 75 39 76 65 77 66 78
REMARK SMILES IDX 74 79 67 80 73 81 75 82 72 83 68 84 69 85 70 86 71 87 50 88
REMARK SMILES IDX 51 89 59 90 52 91 58 92 60 93 57 94 53 95 54 96 55 97 56 98
REMARK H PARENT 17 5 10 13 4 21 21 32 80 51 48 62
REMARK Flexibility Score: inf
ROOT
ATOM      1  C   UNL A   1      32.333  29.247  24.513  1.00  0.00     0.118 C 
ENDROOT
BRANCH   1   2
ATOM      2  N   UNL A   1      31.228  29.368  23.579  1.00  0.00    -0.352 N 
ATOM      3  C   UNL A   1      30.597  28.457  22.770  1.00  0.00     0.251 C 
ATOM      4  O   UNL A   1      29.619  28.839  22.128  1.00  0.00    -0.269 OA
ATOM      5  H   UNL A   1      30.860  30.278  23.512  1.00  0.00     0.163 HD
BRANCH   3   6
ATOM      6  C   UNL A   1      30.999  27.027  22.683  1.00  0.00     0.039 A 
ATOM      7  C   UNL A   1      31.752  24.306  22.744  1.00  0.00     0.040 A 
ATOM      8  C   UNL A   1      30.822  24.798  23.658  1.00  0.00     0.027 A 
ATOM      9  C   UNL A   1      32.213  25.159  21.733  1.00  0.00     0.027 A 
ATOM     10  C   UNL A   1      30.465  26.151  23.642  1.00  0.00     0.016 A 
ATOM     11  C   UNL A   1      31.827  26.503  21.691  1.00  0.00     0.016 A 
BRANCH   7  12
ATOM     12  N   UNL A   1      32.124  22.947  22.780  1.00  0.00    -0.334 N 
ATOM     13  H   UNL A   1      31.919  22.397  21.991  1.00  0.00     0.168 HD
BRANCH  12  14
ATOM     14  C   UNL A   1      32.770  22.317  23.865  1.00  0.00     0.215 A 
ATOM     15  C   UNL A   1      34.508  22.086  25.470  1.00  0.00     0.225 A 
ATOM     16  N   UNL A   1      33.884  21.016  26.008  1.00  0.00    -0.212 NA
ATOM     17  C   UNL A   1      34.018  22.696  24.332  1.00  0.00     0.354 A 
ATOM     18  C   UNL A   1      32.730  20.646  25.451  1.00  0.00     0.227 A 
ATOM     19  N   UNL A   1      32.133  21.266  24.431  1.00  0.00    -0.212 NA
BRANCH  15  20
ATOM     20  N   UNL A   1      35.569  22.533  26.262  1.00  0.00    -0.298 N 
ATOM     21  H   UNL A   1      35.357  23.121  27.023  1.00  0.00     0.184 HD
BRANCH  20  22
ATOM     22  N   UNL A   1      36.928  22.198  26.046  1.00  0.00    -0.228 NA
ATOM     23  C   UNL A   1      37.085  21.379  24.830  1.00  0.00     0.130 C 
ATOM     24  C   UNL A   1      37.661  23.461  25.846  1.00  0.00     0.130 C 
ENDBRANCH  20  22
ENDBRANCH  15  20
BRANCH  17  25
ATOM     25  N   UNL A   1      34.785  23.677  23.627  1.00  0.00     0.070 N 
ATOM     26  O   UNL A   1      34.864  24.806  24.139  1.00  0.00    -0.258 OA
ATOM     27  O   UNL A   1      35.213  23.375  22.504  1.00  0.00    -0.258 OA
ENDBRANCH  17  25
ENDBRANCH  12  14
ENDBRANCH   7  12
ENDBRANCH   3   6
ENDBRANCH   1   2
BRANCH   1  28
ATOM     28  C   UNL A   1      31.837  28.900  25.918  1.00  0.00     0.042 C 
BRANCH  28  29
ATOM     29  C   UNL A   1      32.727  29.442  27.035  1.00  0.00     0.118 C 
BRANCH  29  30
ATOM     30  N   UNL A   1      32.800  30.894  27.011  1.00  0.00    -0.352 N 
ATOM     31  C   UNL A   1      33.721  31.748  27.562  1.00  0.00     0.251 C 
ATOM     32  H   UNL A   1      32.071  31.335  26.518  1.00  0.00     0.163 HD
ATOM     33  O   UNL A   1      33.446  32.944  27.619  1.00  0.00    -0.269 OA
BRANCH  31  34
ATOM     34  C   UNL A   1      35.018  31.259  28.089  1.00  0.00     0.039 A 
ATOM     35  C   UNL A   1      35.059  29.984  28.664  1.00  0.00     0.014 A 
ATOM     36  C   UNL A   1      36.163  32.062  28.107  1.00  0.00     0.014 A 
ATOM     37  C   UNL A   1      36.243  29.509  29.234  1.00  0.00     0.010 A 
ATOM     38  C   UNL A   1      37.363  31.561  28.618  1.00  0.00     0.010 A 
ATOM     39  C   UNL A   1      37.410  30.289  29.206  1.00  0.00    -0.014 A 
BRANCH  39  40
ATOM     40  C   UNL A   1      38.666  29.791  29.828  1.00  0.00     0.031 A 
ATOM     41  C   UNL A   1      39.087  30.285  31.188  1.00  0.00     0.074 A 
ATOM     42  C   UNL A   1      39.436  28.912  29.160  1.00  0.00     0.049 A 
ATOM     43  N   UNL A   1      40.146  29.974  31.892  1.00  0.00    -0.248 NA
ATOM     44  C   UNL A   1      38.215  31.282  31.825  1.00  0.00     0.031 C 
ATOM     45  C   UNL A   1      39.156  28.396  27.817  1.00  0.00     0.029 A 
ATOM     46  N   UNL A   1      40.609  28.295  29.514  1.00  0.00    -0.354 N 
ATOM     47  C   UNL A   1      40.075  30.745  33.048  1.00  0.00     0.074 A 
ATOM     48  C   UNL A   1      38.900  31.582  32.919  1.00  0.00     0.031 C 
ATOM     49  C   UNL A   1      40.117  27.522  27.474  1.00  0.00     0.029 A 
ATOM     50  C   UNL A   1      41.095  27.438  28.555  1.00  0.00     0.049 A 
ATOM     51  H   UNL A   1      41.060  28.450  30.376  1.00  0.00     0.167 HD
ATOM     52  C   UNL A   1      40.898  30.740  34.128  1.00  0.00     0.034 A 
ATOM     53  C   UNL A   1      42.201  26.669  28.547  1.00  0.00     0.034 A 
ATOM     54  C   UNL A   1      42.060  29.890  34.245  1.00  0.00     0.049 A 
ATOM     55  C   UNL A   1      43.093  26.665  29.762  1.00  0.00     0.074 A 
ATOM     56  C   UNL A   1      42.937  29.766  35.310  1.00  0.00     0.029 A 
ATOM     57  N   UNL A   1      42.510  29.020  33.260  1.00  0.00    -0.354 N 
ATOM     58  N   UNL A   1      42.981  27.360  30.871  1.00  0.00    -0.248 NA
ATOM     59  C   UNL A   1      44.243  25.756  29.731  1.00  0.00     0.031 C 
ATOM     60  C   UNL A   1      43.947  28.867  34.946  1.00  0.00     0.029 A 
ATOM     61  C   UNL A   1      43.663  28.374  33.682  1.00  0.00     0.049 A 
ATOM     62  H   UNL A   1      42.074  28.881  32.389  1.00  0.00     0.167 HD
ATOM     63  C   UNL A   1      44.036  26.949  31.682  1.00  0.00     0.074 A 
ATOM     64  C   UNL A   1      44.753  25.932  30.940  1.00  0.00     0.031 C 
ATOM     65  C   UNL A   1      44.381  27.374  32.925  1.00  0.00     0.034 A 
BRANCH  52  66
ATOM     66  C   UNL A   1      40.579  31.706  35.247  1.00  0.00     0.023 A 
ATOM     67  C   UNL A   1      39.583  31.430  36.202  1.00  0.00     0.031 A 
ATOM     68  C   UNL A   1      41.250  32.939  35.339  1.00  0.00     0.131 A 
ATOM     69  C   UNL A   1      39.229  32.403  37.149  1.00  0.00     0.055 A 
ATOM     70  C   UNL A   1      40.951  33.868  36.338  1.00  0.00     0.041 A 
ATOM     71  F   UNL A   1      42.199  33.270  34.448  1.00  0.00    -0.206 F 
ATOM     72  C   UNL A   1      39.923  33.611  37.240  1.00  0.00     0.022 A 
BRANCH  69  73
ATOM     73  S   UNL A   1      37.745  32.130  38.157  1.00  0.00     0.124 S 
ATOM     74  O   UNL A   1      38.259  32.356  39.505  1.00  0.00    -0.237 OA
ATOM     75  O   UNL A   1      36.826  33.139  37.645  1.00  0.00    -0.237 OA
ATOM     76  O   UNL A   1      37.380  30.746  37.862  1.00  0.00    -0.744 OA
ENDBRANCH  69  73
ENDBRANCH  52  66
BRANCH  53  77
ATOM     77  C   UNL A   1      42.529  25.836  27.357  1.00  0.00     0.023 A 
ATOM     78  C   UNL A   1      42.152  24.485  27.290  1.00  0.00     0.031 A 
ATOM     79  C   UNL A   1      43.255  26.372  26.278  1.00  0.00     0.131 A 
ATOM     80  C   UNL A   1      42.539  23.703  26.191  1.00  0.00     0.055 A 
ATOM     81  C   UNL A   1      43.596  25.603  25.163  1.00  0.00     0.041 A 
ATOM     82  F   UNL A   1      43.630  27.661  26.286  1.00  0.00    -0.206 F 
ATOM     83  C   UNL A   1      43.249  24.257  25.122  1.00  0.00     0.022 A 
BRANCH  80  84
ATOM     84  S   UNL A   1      42.161  21.929  26.209  1.00  0.00     0.124 S 
ATOM     85  O   UNL A   1      43.022  21.429  25.144  1.00  0.00    -0.237 OA
ATOM     86  O   UNL A   1      42.537  21.555  27.569  1.00  0.00    -0.237 OA
ATOM     87  O   UNL A   1      40.727  21.886  25.928  1.00  0.00    -0.744 OA
ENDBRANCH  80  84
ENDBRANCH  53  77
BRANCH  65  88
ATOM     88  C   UNL A   1      45.572  26.700  33.564  1.00  0.00     0.023 A 
ATOM     89  C   UNL A   1      45.437  25.510  34.301  1.00  0.00     0.031 A 
ATOM     90  C   UNL A   1      46.849  27.279  33.471  1.00  0.00     0.131 A 
ATOM     91  C   UNL A   1      46.545  24.979  34.980  1.00  0.00     0.055 A 
ATOM     92  C   UNL A   1      47.961  26.709  34.093  1.00  0.00     0.041 A 
ATOM     93  F   UNL A   1      47.036  28.416  32.782  1.00  0.00    -0.206 F 
ATOM     94  C   UNL A   1      47.809  25.563  34.867  1.00  0.00     0.022 A 
BRANCH  91  95
ATOM     95  S   UNL A   1      46.286  23.585  36.111  1.00  0.00     0.124 S 
ATOM     96  O   UNL A   1      46.956  22.494  35.408  1.00  0.00    -0.237 OA
ATOM     97  O   UNL A   1      46.936  24.049  37.332  1.00  0.00    -0.237 OA
ATOM     98  O   UNL A   1      44.831  23.471  36.188  1.00  0.00    -0.744 OA
ENDBRANCH  91  95
ENDBRANCH  65  88
ENDBRANCH  39  40
ENDBRANCH  31  34
ENDBRANCH  29  30
ENDBRANCH  28  29
ENDBRANCH   1  28
TORSDOF 18
ENDMDL
MODEL 2
REMARK VINA RESULT:     -11.6      4.716     10.105
REMARK SMILES CN(C)Nc1ncnc(Nc2ccc(C(=O)NCCCNC(=O)c3ccc(-c4c5nc(c(-c6cc(S(=O)(=O)[O-])ccc6F)c6ccc([nH]6)c(-c6cc(S(=O)(=O)[O-])ccc6F)c6nc(c(-c7cc(S(=O)(=O)[O-])ccc7F)c7ccc4[nH]7)C=C6)C=C5)cc3)cc2)c1[N+](=O)[O-]
REMARK SMILES IDX 18 1 17 2 15 3 16 4 14 6 11 7 12 8 88 9 13 10 87 11 10 12
REMARK SMILES IDX 9 14 5 15 6 16 89 17 7 18 8 19 4 20 2 22 1 23 3 24 90 25
REMARK SMILES IDX 91 26 92 27 19 28 20 29 21 30 22 31 23 33 24 34 25 35 86 36
REMARK SMILES IDX 26 37 85 38 27 39 28 40 29 41 79 42 30 43 84 44 78 45 80 46
REMARK SMILES IDX 31 47 83 48 77 49 76 50 32 52 64 53 44 54 63 55 45 56 48 57
REMARK SMILES IDX 62 58 81 59 46 60 47 61 61 63 82 64 49 65 33 66 34 67 42 68
REMARK SMILES IDX 35 69 41 70 43 71 40 72 36 73 37 74 38 75 39 76 65 77 66 78
REMARK SMILES IDX 74 79 67 80 73 81 75 82 72 83 68 84 69 85 70 86 71 87 50 88
REMARK SMILES IDX 51 89 59 90 52 91 58 92 60 93 57 94 53 95 54 96 55 97 56 98
REMARK H PARENT 17 5 10 13 4 21 21 32 80 51 48 62
REMARK Flexibility Score: inf
ROOT
ATOM      1  C   UNL A   1      35.603  20.249  24.918  1.00  0.00     0.118 C 
ENDROOT
BRANCH   1   2
ATOM      2  N   UNL A   1      34.458  19.435  25.287  1.00  0.00    -0.352 N 
ATOM      3  C   UNL A   1      33.108  19.605  25.114  1.00  0.00     0.251 C 
ATOM      4  O   UNL A   1      32.363  18.693  25.470  1.00  0.00    -0.269 OA
ATOM      5  H   UNL A   1      34.696  18.600  25.750  1.00  0.00     0.163 HD
BRANCH   3   6
ATOM      6  C   UNL A   1      32.513  20.805  24.465  1.00  0.00     0.039 A 
ATOM      7  C   UNL A   1      31.243  23.094  23.408  1.00  0.00     0.040 A 
ATOM      8  C   UNL A   1      31.437  22.970  24.782  1.00  0.00     0.027 A 
ATOM      9  C   UNL A   1      31.790  22.120  22.564  1.00  0.00     0.027 A 
ATOM     10  C   UNL A   1      32.048  21.826  25.308  1.00  0.00     0.016 A 
ATOM     11  C   UNL A   1      32.435  20.993  23.085  1.00  0.00     0.016 A 
BRANCH   7  12
ATOM     12  N   UNL A   1      30.607  24.240  22.887  1.00  0.00    -0.334 N 
ATOM     13  H   UNL A   1      29.742  24.116  22.436  1.00  0.00     0.168 HD
BRANCH  12  14
ATOM     14  C   UNL A   1      31.122  25.551  22.965  1.00  0.00     0.215 A 
ATOM     15  C   UNL A   1      31.299  27.719  23.923  1.00  0.00     0.225 A 
ATOM     16  N   UNL A   1      32.247  28.053  23.021  1.00  0.00    -0.212 NA
ATOM     17  C   UNL A   1      30.649  26.503  23.854  1.00  0.00     0.354 A 
ATOM     18  C   UNL A   1      32.590  27.120  22.133  1.00  0.00     0.227 A 
ATOM     19  N   UNL A   1      32.097  25.881  22.087  1.00  0.00    -0.212 NA
BRANCH  15  20
ATOM     20  N   UNL A   1      31.183  28.667  24.944  1.00  0.00    -0.298 N 
ATOM     21  H   UNL A   1      30.285  29.017  25.145  1.00  0.00     0.184 HD
BRANCH  20  22
ATOM     22  N   UNL A   1      32.269  29.159  25.708  1.00  0.00    -0.228 NA
ATOM     23  C   UNL A   1      31.898  30.396  26.421  1.00  0.00     0.130 C 
ATOM     24  C   UNL A   1      32.593  28.131  26.714  1.00  0.00     0.130 C 
ENDBRANCH  20  22
ENDBRANCH  15  20
BRANCH  17  25
ATOM     25  N   UNL A   1      29.495  26.231  24.656  1.00  0.00     0.070 N 
ATOM     26  O   UNL A   1      28.386  26.451  24.141  1.00  0.00    -0.258 OA
ATOM     27  O   UNL A   1      29.678  25.914  25.840  1.00  0.00    -0.258 OA
ENDBRANCH  17  25
ENDBRANCH  12  14
ENDBRANCH   7  12
ENDBRANCH   3   6
ENDBRANCH   1   2
BRANCH   1  28
ATOM     28  C   UNL A   1      35.694  21.505  25.786  1.00  0.00     0.042 C 
BRANCH  28  29
ATOM     29  C   UNL A   1      37.083  22.142  25.800  1.00  0.00     0.118 C 
BRANCH  29  30
ATOM     30  N   UNL A   1      38.116  21.178  26.141  1.00  0.00    -0.352 N 
ATOM     31  C   UNL A   1      39.439  21.363  26.452  1.00  0.00     0.251 C 
ATOM     32  H   UNL A   1      37.817  20.240  26.150  1.00  0.00     0.163 HD
ATOM     33  O   UNL A   1      40.178  20.382  26.467  1.00  0.00    -0.269 OA
BRANCH  31  34
ATOM     34  C   UNL A   1      39.985  22.707  26.758  1.00  0.00     0.039 A 
ATOM     35  C   UNL A   1      40.920  22.820  27.793  1.00  0.00     0.014 A 
ATOM     36  C   UNL A   1      39.532  23.860  26.109  1.00  0.00     0.014 A 
ATOM     37  C   UNL A   1      41.411  24.076  28.161  1.00  0.00     0.010 A 
ATOM     38  C   UNL A   1      40.072  25.107  26.434  1.00  0.00     0.010 A 
ATOM     39  C   UNL A   1      41.000  25.230  27.477  1.00  0.00    -0.014 A 
BRANCH  39  40
ATOM     40  C   UNL A   1      41.509  26.568  27.880  1.00  0.00     0.031 A 
ATOM     41  C   UNL A   1      42.920  26.976  27.543  1.00  0.00     0.074 A 
ATOM     42  C   UNL A   1      40.708  27.406  28.565  1.00  0.00     0.049 A 
ATOM     43  N   UNL A   1      43.546  28.094  27.811  1.00  0.00    -0.248 NA
ATOM     44  C   UNL A   1      43.742  25.983  26.838  1.00  0.00     0.031 C 
ATOM     45  C   UNL A   1      39.338  27.105  28.989  1.00  0.00     0.029 A 
ATOM     46  N   UNL A   1      40.925  28.679  29.027  1.00  0.00    -0.354 N 
ATOM     47  C   UNL A   1      44.838  27.935  27.319  1.00  0.00     0.074 A 
ATOM     48  C   UNL A   1      44.919  26.589  26.793  1.00  0.00     0.031 C 
ATOM     49  C   UNL A   1      38.831  28.173  29.625  1.00  0.00     0.029 A 
ATOM     50  C   UNL A   1      39.844  29.222  29.681  1.00  0.00     0.049 A 
ATOM     51  H   UNL A   1      41.775  29.160  28.900  1.00  0.00     0.167 HD
ATOM     52  C   UNL A   1      45.854  28.834  27.287  1.00  0.00     0.034 A 
ATOM     53  C   UNL A   1      39.687  30.428  30.261  1.00  0.00     0.034 A 
ATOM     54  C   UNL A   1      45.752  30.178  27.806  1.00  0.00     0.049 A 
ATOM     55  C   UNL A   1      40.822  31.418  30.199  1.00  0.00     0.074 A 
ATOM     56  C   UNL A   1      46.699  31.188  27.785  1.00  0.00     0.029 A 
ATOM     57  N   UNL A   1      44.634  30.700  28.446  1.00  0.00    -0.354 N 
ATOM     58  N   UNL A   1      42.020  31.271  29.680  1.00  0.00    -0.248 NA
ATOM     59  C   UNL A   1      40.573  32.742  30.779  1.00  0.00     0.031 C 
ATOM     60  C   UNL A   1      46.176  32.297  28.462  1.00  0.00     0.029 A 
ATOM     61  C   UNL A   1      44.875  32.007  28.843  1.00  0.00     0.049 A 
ATOM     62  H   UNL A   1      43.792  30.213  28.595  1.00  0.00     0.167 HD
ATOM     63  C   UNL A   1      42.658  32.496  29.850  1.00  0.00     0.074 A 
ATOM     64  C   UNL A   1      41.702  33.373  30.496  1.00  0.00     0.031 C 
ATOM     65  C   UNL A   1      43.919  32.865  29.504  1.00  0.00     0.034 A 
BRANCH  52  66
ATOM     66  C   UNL A   1      47.168  28.374  26.696  1.00  0.00     0.023 A 
ATOM     67  C   UNL A   1      47.346  28.234  25.307  1.00  0.00     0.031 A 
ATOM     68  C   UNL A   1      48.246  28.032  27.531  1.00  0.00     0.131 A 
ATOM     69  C   UNL A   1      48.535  27.685  24.803  1.00  0.00     0.055 A 
ATOM     70  C   UNL A   1      49.459  27.567  27.017  1.00  0.00     0.041 A 
ATOM     71  F   UNL A   1      48.135  28.127  28.866  1.00  0.00    -0.206 F 
ATOM     72  C   UNL A   1      49.604  27.373  25.647  1.00  0.00     0.022 A 
BRANCH  69  73
ATOM     73  S   UNL A   1      48.607  27.239  23.046  1.00  0.00     0.124 S 
ATOM     74  O   UNL A   1      47.570  28.099  22.480  1.00  0.00    -0.237 OA
ATOM     75  O   UNL A   1      49.980  27.575  22.690  1.00  0.00    -0.237 OA
ATOM     76  O   UNL A   1      48.292  25.812  23.042  1.00  0.00    -0.744 OA
ENDBRANCH  69  73
ENDBRANCH  52  66
BRANCH  53  77
ATOM     77  C   UNL A   1      38.409  30.774  30.942  1.00  0.00     0.023 A 
ATOM     78  C   UNL A   1      37.386  31.457  30.265  1.00  0.00     0.031 A 
ATOM     79  C   UNL A   1      38.203  30.452  32.296  1.00  0.00     0.131 A 
ATOM     80  C   UNL A   1      36.223  31.837  30.953  1.00  0.00     0.055 A 
ATOM     81  C   UNL A   1      37.023  30.789  32.963  1.00  0.00     0.041 A 
ATOM     82  F   UNL A   1      39.144  29.789  32.987  1.00  0.00    -0.206 F 
ATOM     83  C   UNL A   1      36.031  31.497  32.294  1.00  0.00     0.022 A 
BRANCH  80  84
ATOM     84  S   UNL A   1      34.990  32.845  30.085  1.00  0.00     0.124 S 
ATOM     85  O   UNL A   1      34.565  31.945  29.019  1.00  0.00    -0.237 OA
ATOM     86  O   UNL A   1      34.013  33.099  31.139  1.00  0.00    -0.237 OA
ATOM     87  O   UNL A   1      35.752  34.014  29.650  1.00  0.00    -0.744 OA
ENDBRANCH  80  84
ENDBRANCH  53  77
BRANCH  65  88
ATOM     88  C   UNL A   1      44.310  34.295  29.792  1.00  0.00     0.023 A 
ATOM     89  C   UNL A   1      44.121  35.316  28.843  1.00  0.00     0.031 A 
ATOM     90  C   UNL A   1      44.917  34.632  31.013  1.00  0.00     0.131 A 
ATOM     91  C   UNL A   1      44.605  36.608  29.101  1.00  0.00     0.055 A 
ATOM     92  C   UNL A   1      45.336  35.934  31.291  1.00  0.00     0.041 A 
ATOM     93  F   UNL A   1      45.124  33.698  31.955  1.00  0.00    -0.206 F 
ATOM     94  C   UNL A   1      45.197  36.926  30.325  1.00  0.00     0.022 A 
BRANCH  91  95
ATOM     95  S   UNL A   1      44.560  37.835  27.766  1.00  0.00     0.124 S 
ATOM     96  O   UNL A   1      45.898  37.710  27.194  1.00  0.00    -0.237 OA
ATOM     97  O   UNL A   1      43.464  37.351  26.934  1.00  0.00    -0.237 OA
ATOM     98  O   UNL A   1      44.300  39.092  28.464  1.00  0.00    -0.744 OA
ENDBRANCH  91  95
ENDBRANCH  65  88
ENDBRANCH  39  40
ENDBRANCH  31  34
ENDBRANCH  29  30
ENDBRANCH  28  29
ENDBRANCH   1  28
TORSDOF 18
ENDMDL
MODEL 3
REMARK VINA RESULT:     -11.3      4.704      9.842
REMARK SMILES CN(C)Nc1ncnc(Nc2ccc(C(=O)NCCCNC(=O)c3ccc(-c4c5nc(c(-c6cc(S(=O)(=O)[O-])ccc6F)c6ccc([nH]6)c(-c6cc(S(=O)(=O)[O-])ccc6F)c6nc(c(-c7cc(S(=O)(=O)[O-])ccc7F)c7ccc4[nH]7)C=C6)C=C5)cc3)cc2)c1[N+](=O)[O-]
REMARK SMILES IDX 18 1 17 2 15 3 16 4 14 6 11 7 12 8 88 9 13 10 87 11 10 12
REMARK SMILES IDX 9 14 5 15 6 16 89 17 7 18 8 19 4 20 2 22 1 23 3 24 90 25
REMARK SMILES IDX 91 26 92 27 19 28 20 29 21 30 22 31 23 33 24 34 25 35 86 36
REMARK SMILES IDX 26 37 85 38 27 39 28 40 29 41 79 42 30 43 84 44 78 45 80 46
REMARK SMILES IDX 31 47 83 48 77 49 76 50 32 52 64 53 44 54 63 55 45 56 48 57
REMARK SMILES IDX 62 58 81 59 46 60 47 61 61 63 82 64 49 65 33 66 34 67 42 68
REMARK SMILES IDX 35 69 41 70 43 71 40 72 36 73 37 74 38 75 39 76 65 77 66 78
REMARK SMILES IDX 74 79 67 80 73 81 75 82 72 83 68 84 69 85 70 86 71 87 50 88
REMARK SMILES IDX 51 89 59 90 52 91 58 92 60 93 57 94 53 95 54 96 55 97 56 98
REMARK H PARENT 17 5 10 13 4 21 21 32 80 51 48 62
REMARK Flexibility Score: inf
ROOT
ATOM      1  C   UNL A   1      35.567  21.792  24.432  1.00  0.00     0.118 C 
ENDROOT
BRANCH   1   2
ATOM      2  N   UNL A   1      34.746  20.670  24.851  1.00  0.00    -0.352 N 
ATOM      3  C   UNL A   1      33.466  20.591  25.338  1.00  0.00     0.251 C 
ATOM      4  O   UNL A   1      32.995  19.472  25.540  1.00  0.00    -0.269 OA
ATOM      5  H   UNL A   1      35.193  19.797  24.769  1.00  0.00     0.163 HD
BRANCH   3   6
ATOM      6  C   UNL A   1      32.607  21.784  25.572  1.00  0.00     0.039 A 
ATOM      7  C   UNL A   1      31.030  24.114  25.808  1.00  0.00     0.040 A 
ATOM      8  C   UNL A   1      31.099  23.432  24.594  1.00  0.00     0.027 A 
ATOM      9  C   UNL A   1      31.663  23.557  26.926  1.00  0.00     0.027 A 
ATOM     10  C   UNL A   1      31.898  22.290  24.472  1.00  0.00     0.016 A 
ATOM     11  C   UNL A   1      32.431  22.392  26.815  1.00  0.00     0.016 A 
BRANCH   7  12
ATOM     12  N   UNL A   1      30.241  25.277  25.918  1.00  0.00    -0.334 N 
ATOM     13  H   UNL A   1      29.274  25.160  26.057  1.00  0.00     0.168 HD
BRANCH  12  14
ATOM     14  C   UNL A   1      30.736  26.596  25.846  1.00  0.00     0.215 A 
ATOM     15  C   UNL A   1      31.081  28.689  24.774  1.00  0.00     0.225 A 
ATOM     16  N   UNL A   1      31.717  29.158  25.868  1.00  0.00    -0.212 NA
ATOM     17  C   UNL A   1      30.666  27.374  24.702  1.00  0.00     0.354 A 
ATOM     18  C   UNL A   1      31.833  28.325  26.903  1.00  0.00     0.227 A 
ATOM     19  N   UNL A   1      31.344  27.084  26.952  1.00  0.00    -0.212 NA
BRANCH  15  20
ATOM     20  N   UNL A   1      30.804  29.701  23.849  1.00  0.00    -0.298 N 
ATOM     21  H   UNL A   1      31.566  30.198  23.472  1.00  0.00     0.184 HD
BRANCH  20  22
ATOM     22  N   UNL A   1      29.504  30.059  23.417  1.00  0.00    -0.228 NA
ATOM     23  C   UNL A   1      29.149  31.415  23.875  1.00  0.00     0.130 C 
ATOM     24  C   UNL A   1      29.521  30.063  21.943  1.00  0.00     0.130 C 
ENDBRANCH  20  22
ENDBRANCH  15  20
BRANCH  17  25
ATOM     25  N   UNL A   1      30.200  26.809  23.472  1.00  0.00     0.070 N 
ATOM     26  O   UNL A   1      29.105  26.224  23.500  1.00  0.00    -0.258 OA
ATOM     27  O   UNL A   1      30.968  26.834  22.499  1.00  0.00    -0.258 OA
ENDBRANCH  17  25
ENDBRANCH  12  14
ENDBRANCH   7  12
ENDBRANCH   3   6
ENDBRANCH   1   2
BRANCH   1  28
ATOM     28  C   UNL A   1      35.255  23.045  25.252  1.00  0.00     0.042 C 
BRANCH  28  29
ATOM     29  C   UNL A   1      36.475  23.638  25.955  1.00  0.00     0.118 C 
BRANCH  29  30
ATOM     30  N   UNL A   1      37.533  22.655  26.124  1.00  0.00    -0.352 N 
ATOM     31  C   UNL A   1      38.865  22.819  26.405  1.00  0.00     0.251 C 
ATOM     32  H   UNL A   1      37.245  21.719  26.019  1.00  0.00     0.163 HD
ATOM     33  O   UNL A   1      39.615  21.858  26.261  1.00  0.00    -0.269 OA
BRANCH  31  34
ATOM     34  C   UNL A   1      39.407  24.120  26.868  1.00  0.00     0.039 A 
ATOM     35  C   UNL A   1      39.280  24.444  28.223  1.00  0.00     0.014 A 
ATOM     36  C   UNL A   1      39.955  25.054  25.982  1.00  0.00     0.014 A 
ATOM     37  C   UNL A   1      39.715  25.687  28.691  1.00  0.00     0.010 A 
ATOM     38  C   UNL A   1      40.449  26.269  26.462  1.00  0.00     0.010 A 
ATOM     39  C   UNL A   1      40.315  26.607  27.817  1.00  0.00    -0.014 A 
BRANCH  39  40
ATOM     40  C   UNL A   1      40.762  27.937  28.310  1.00  0.00     0.031 A 
ATOM     41  C   UNL A   1      42.226  28.297  28.299  1.00  0.00     0.074 A 
ATOM     42  C   UNL A   1      39.855  28.810  28.787  1.00  0.00     0.049 A 
ATOM     43  N   UNL A   1      42.811  29.400  28.690  1.00  0.00    -0.248 NA
ATOM     44  C   UNL A   1      43.153  27.267  27.810  1.00  0.00     0.031 C 
ATOM     45  C   UNL A   1      38.416  28.557  28.891  1.00  0.00     0.029 A 
ATOM     46  N   UNL A   1      40.004  30.084  29.272  1.00  0.00    -0.354 N 
ATOM     47  C   UNL A   1      44.175  29.194  28.507  1.00  0.00     0.074 A 
ATOM     48  C   UNL A   1      44.329  27.837  28.027  1.00  0.00     0.031 C 
ATOM     49  C   UNL A   1      37.813  29.651  29.384  1.00  0.00     0.029 A 
ATOM     50  C   UNL A   1      38.821  30.670  29.658  1.00  0.00     0.049 A 
ATOM     51  H   UNL A   1      40.876  30.537  29.337  1.00  0.00     0.167 HD
ATOM     52  C   UNL A   1      45.201  30.062  28.697  1.00  0.00     0.034 A 
ATOM     53  C   UNL A   1      38.576  31.891  30.174  1.00  0.00     0.034 A 
ATOM     54  C   UNL A   1      45.028  31.417  29.165  1.00  0.00     0.049 A 
ATOM     55  C   UNL A   1      39.727  32.845  30.361  1.00  0.00     0.074 A 
ATOM     56  C   UNL A   1      45.988  32.399  29.349  1.00  0.00     0.029 A 
ATOM     57  N   UNL A   1      43.812  31.983  29.528  1.00  0.00    -0.354 N 
ATOM     58  N   UNL A   1      41.006  32.653  30.130  1.00  0.00    -0.248 NA
ATOM     59  C   UNL A   1      39.397  34.186  30.855  1.00  0.00     0.031 C 
ATOM     60  C   UNL A   1      45.361  33.534  29.878  1.00  0.00     0.029 A 
ATOM     61  C   UNL A   1      43.999  33.289  29.957  1.00  0.00     0.049 A 
ATOM     62  H   UNL A   1      42.942  31.524  29.487  1.00  0.00     0.167 HD
ATOM     63  C   UNL A   1      41.629  33.862  30.428  1.00  0.00     0.074 A 
ATOM     64  C   UNL A   1      40.581  34.778  30.830  1.00  0.00     0.031 C 
ATOM     65  C   UNL A   1      42.947  34.187  30.374  1.00  0.00     0.034 A 
BRANCH  52  66
ATOM     66  C   UNL A   1      46.599  29.553  28.425  1.00  0.00     0.023 A 
ATOM     67  C   UNL A   1      47.385  28.970  29.436  1.00  0.00     0.031 A 
ATOM     68  C   UNL A   1      47.172  29.688  27.147  1.00  0.00     0.131 A 
ATOM     69  C   UNL A   1      48.720  28.624  29.177  1.00  0.00     0.055 A 
ATOM     70  C   UNL A   1      48.475  29.263  26.875  1.00  0.00     0.041 A 
ATOM     71  F   UNL A   1      46.481  30.252  26.144  1.00  0.00    -0.206 F 
ATOM     72  C   UNL A   1      49.264  28.744  27.897  1.00  0.00     0.022 A 
BRANCH  69  73
ATOM     73  S   UNL A   1      49.782  28.164  30.575  1.00  0.00     0.124 S 
ATOM     74  O   UNL A   1      48.870  27.363  31.387  1.00  0.00    -0.237 OA
ATOM     75  O   UNL A   1      50.864  27.437  29.923  1.00  0.00    -0.237 OA
ATOM     76  O   UNL A   1      50.157  29.450  31.158  1.00  0.00    -0.744 OA
ENDBRANCH  69  73
ENDBRANCH  52  66
BRANCH  53  77
ATOM     77  C   UNL A   1      37.188  32.286  30.544  1.00  0.00     0.023 A 
ATOM     78  C   UNL A   1      36.299  32.796  29.584  1.00  0.00     0.031 A 
ATOM     79  C   UNL A   1      36.740  32.188  31.873  1.00  0.00     0.131 A 
ATOM     80  C   UNL A   1      35.023  33.232  29.975  1.00  0.00     0.055 A 
ATOM     81  C   UNL A   1      35.453  32.577  32.248  1.00  0.00     0.041 A 
ATOM     82  F   UNL A   1      37.547  31.697  32.827  1.00  0.00    -0.206 F 
ATOM     83  C   UNL A   1      34.591  33.114  31.298  1.00  0.00     0.022 A 
BRANCH  80  84
ATOM     84  S   UNL A   1      33.957  34.020  28.737  1.00  0.00     0.124 S 
ATOM     85  O   UNL A   1      34.880  34.949  28.096  1.00  0.00    -0.237 OA
ATOM     86  O   UNL A   1      33.534  32.878  27.932  1.00  0.00    -0.237 OA
ATOM     87  O   UNL A   1      32.904  34.637  29.539  1.00  0.00    -0.744 OA
ENDBRANCH  80  84
ENDBRANCH  53  77
BRANCH  65  88
ATOM     88  C   UNL A   1      43.309  35.610  30.728  1.00  0.00     0.023 A 
ATOM     89  C   UNL A   1      43.394  36.615  29.747  1.00  0.00     0.031 A 
ATOM     90  C   UNL A   1      43.614  35.955  32.055  1.00  0.00     0.131 A 
ATOM     91  C   UNL A   1      43.849  37.895  30.097  1.00  0.00     0.055 A 
ATOM     92  C   UNL A   1      44.001  37.248  32.408  1.00  0.00     0.041 A 
ATOM     93  F   UNL A   1      43.551  35.036  33.033  1.00  0.00    -0.206 F 
ATOM     94  C   UNL A   1      44.138  38.222  31.424  1.00  0.00     0.022 A 
BRANCH  91  95
ATOM     95  S   UNL A   1      44.175  39.093  28.774  1.00  0.00     0.124 S 
ATOM     96  O   UNL A   1      44.139  40.361  29.497  1.00  0.00    -0.237 OA
ATOM     97  O   UNL A   1      45.487  38.673  28.290  1.00  0.00    -0.237 OA
ATOM     98  O   UNL A   1      43.073  38.881  27.839  1.00  0.00    -0.744 OA
ENDBRANCH  91  95
ENDBRANCH  65  88
ENDBRANCH  39  40
ENDBRANCH  31  34
ENDBRANCH  29  30
ENDBRANCH  28  29
ENDBRANCH   1  28
TORSDOF 18
ENDMDL
