MODEL 1
REMARK VINA RESULT:     -11.7      0.000      0.000
REMARK SMILES COc1cc([N+](=O)[O-])cc2c1=N[C@H](C(=O)NCCCNC(=O)c1ccc(-c3c4nc(c(-c5cc(S(=O)(=O)[O-])ccc5F)c5ccc([nH]5)c(-c5cc(S(=O)(=O)[O-])ccc5F)c5nc(c(-c6cc(S(=O)(=O)[O-])ccc6F)c6ccc3[nH]6)C=C5)C=C4)cc1)C=2CC[NH3+]
REMARK SMILES IDX 18 1 17 2 16 3 14 4 15 5 13 7 3 8 4 9 11 10 5 11 10 12 12 13
REMARK SMILES IDX 9 14 86 15 2 16 1 17 6 18 7 19 8 20 87 21 88 22 89 23 19 27
REMARK SMILES IDX 20 28 21 29 22 31 23 32 24 33 85 34 25 35 84 36 26 37 27 38
REMARK SMILES IDX 28 39 78 40 29 41 83 42 77 43 79 44 30 45 82 46 76 47 75 48
REMARK SMILES IDX 31 50 63 51 43 52 62 53 44 54 47 55 61 56 80 57 45 58 46 59
REMARK SMILES IDX 60 61 81 62 48 63 32 64 33 65 41 66 34 67 40 68 42 69 39 70
REMARK SMILES IDX 35 71 36 72 37 73 38 74 64 75 65 76 73 77 66 78 72 79 74 80
REMARK SMILES IDX 71 81 67 82 68 83 69 84 70 85 49 86 50 87 58 88 51 89 57 90
REMARK SMILES IDX 59 91 56 92 52 93 53 94 54 95 55 96
REMARK H PARENT 16 6 89 24 89 25 89 26 20 30 79 49 47 60
REMARK Flexibility Score: inf
ROOT
ATOM      1  C   UNL A   1      35.286  21.953  25.956  1.00  0.00     0.042 C 
ENDROOT
BRANCH   1   2
ATOM      2  C   UNL A   1      34.920  23.362  26.416  1.00  0.00     0.117 C 
BRANCH   2   3
ATOM      3  N   UNL A   1      33.526  23.498  26.805  1.00  0.00    -0.354 N 
ATOM      4  C   UNL A   1      32.587  24.448  26.489  1.00  0.00     0.249 C 
ATOM      5  O   UNL A   1      31.438  24.249  26.894  1.00  0.00    -0.272 OA
ATOM      6  H   UNL A   1      33.197  22.785  27.399  1.00  0.00     0.163 HD
BRANCH   4   7
ATOM      7  C   UNL A   1      32.992  25.705  25.683  1.00  0.00     0.222 C 
ATOM      8  C   UNL A   1      31.422  26.360  22.414  1.00  0.00     0.151 A 
ATOM      9  C   UNL A   1      30.652  27.432  22.123  1.00  0.00     0.134 A 
ATOM     10  C   UNL A   1      31.961  26.247  23.810  1.00  0.00     0.109 A 
ATOM     11  C   UNL A   1      30.317  28.462  23.102  1.00  0.00     0.273 A 
ATOM     12  C   UNL A   1      31.499  27.258  24.779  1.00  0.00     0.012 A 
ATOM     13  N   UNL A   1      32.838  25.384  24.227  1.00  0.00    -0.263 NA
ATOM     14  C   UNL A   1      30.694  28.375  24.391  1.00  0.00     0.096 A 
ATOM     15  C   UNL A   1      32.111  26.909  25.912  1.00  0.00    -0.021 C 
BRANCH   8  16
ATOM     16  O   UNL A   1      31.765  25.341  21.555  1.00  0.00    -0.494 OA
ATOM     17  C   UNL A   1      32.629  25.650  20.471  1.00  0.00     0.278 C 
ENDBRANCH   8  16
BRANCH  11  18
ATOM     18  N   UNL A   1      29.566  29.658  22.694  1.00  0.00     0.062 N 
ATOM     19  O   UNL A   1      29.610  30.661  23.419  1.00  0.00    -0.258 OA
ATOM     20  O   UNL A   1      28.944  29.596  21.623  1.00  0.00    -0.258 OA
ENDBRANCH  11  18
BRANCH  15  21
ATOM     21  C   UNL A   1      32.150  27.684  27.194  1.00  0.00     0.096 C 
BRANCH  21  22
ATOM     22  C   UNL A   1      33.274  28.725  27.349  1.00  0.00     0.263 C 
BRANCH  22  23
ATOM     23  N   UNL A   1      32.826  30.078  27.629  1.00  0.00    -0.357 N 
ATOM     24  H   UNL A   1      33.623  30.647  27.916  1.00  0.00     0.344 HD
ATOM     25  H   UNL A   1      32.134  30.059  28.378  1.00  0.00     0.344 HD
ATOM     26  H   UNL A   1      32.408  30.479  26.790  1.00  0.00     0.344 HD
ENDBRANCH  22  23
ENDBRANCH  21  22
ENDBRANCH  15  21
ENDBRANCH   4   7
ENDBRANCH   2   3
ENDBRANCH   1   2
BRANCH   1  27
ATOM     27  C   UNL A   1      36.449  21.876  24.974  1.00  0.00     0.118 C 
BRANCH  27  28
ATOM     28  N   UNL A   1      37.359  20.778  25.254  1.00  0.00    -0.352 N 
ATOM     29  C   UNL A   1      38.642  20.788  25.747  1.00  0.00     0.251 C 
ATOM     30  H   UNL A   1      36.997  19.883  25.059  1.00  0.00     0.163 HD
ATOM     31  O   UNL A   1      39.284  19.737  25.743  1.00  0.00    -0.269 OA
BRANCH  29  32
ATOM     32  C   UNL A   1      39.271  22.038  26.240  1.00  0.00     0.039 A 
ATOM     33  C   UNL A   1      38.748  23.295  25.930  1.00  0.00     0.014 A 
ATOM     34  C   UNL A   1      40.398  21.952  27.065  1.00  0.00     0.014 A 
ATOM     35  C   UNL A   1      39.444  24.447  26.288  1.00  0.00     0.010 A 
ATOM     36  C   UNL A   1      41.038  23.115  27.514  1.00  0.00     0.010 A 
ATOM     37  C   UNL A   1      40.597  24.378  27.091  1.00  0.00    -0.014 A 
BRANCH  37  38
ATOM     38  C   UNL A   1      41.279  25.639  27.499  1.00  0.00     0.031 A 
ATOM     39  C   UNL A   1      42.651  25.996  26.990  1.00  0.00     0.074 A 
ATOM     40  C   UNL A   1      40.627  26.503  28.303  1.00  0.00     0.049 A 
ATOM     41  N   UNL A   1      43.328  27.105  27.159  1.00  0.00    -0.248 NA
ATOM     42  C   UNL A   1      43.363  24.982  26.196  1.00  0.00     0.031 C 
ATOM     43  C   UNL A   1      39.311  26.257  28.895  1.00  0.00     0.029 A 
ATOM     44  N   UNL A   1      40.955  27.764  28.739  1.00  0.00    -0.354 N 
ATOM     45  C   UNL A   1      44.541  26.924  26.501  1.00  0.00     0.074 A 
ATOM     46  C   UNL A   1      44.528  25.577  25.974  1.00  0.00     0.031 C 
ATOM     47  C   UNL A   1      38.914  27.353  29.554  1.00  0.00     0.029 A 
ATOM     48  C   UNL A   1      39.970  28.360  29.495  1.00  0.00     0.049 A 
ATOM     49  H   UNL A   1      41.812  28.201  28.531  1.00  0.00     0.167 HD
ATOM     50  C   UNL A   1      45.557  27.804  26.335  1.00  0.00     0.034 A 
ATOM     51  C   UNL A   1      39.913  29.575  30.078  1.00  0.00     0.034 A 
ATOM     52  C   UNL A   1      45.555  29.149  26.861  1.00  0.00     0.049 A 
ATOM     53  C   UNL A   1      41.061  30.532  29.884  1.00  0.00     0.074 A 
ATOM     54  C   UNL A   1      46.521  30.128  26.700  1.00  0.00     0.029 A 
ATOM     55  N   UNL A   1      44.556  29.706  27.646  1.00  0.00    -0.354 N 
ATOM     56  N   UNL A   1      42.156  30.375  29.179  1.00  0.00    -0.248 NA
ATOM     57  C   UNL A   1      40.961  31.836  30.552  1.00  0.00     0.031 C 
ATOM     58  C   UNL A   1      46.145  31.244  27.449  1.00  0.00     0.029 A 
ATOM     59  C   UNL A   1      44.900  31.001  28.006  1.00  0.00     0.049 A 
ATOM     60  H   UNL A   1      43.724  29.249  27.909  1.00  0.00     0.167 HD
ATOM     61  C   UNL A   1      42.871  31.562  29.311  1.00  0.00     0.074 A 
ATOM     62  C   UNL A   1      42.058  32.446  30.120  1.00  0.00     0.031 C 
ATOM     63  C   UNL A   1      44.095  31.885  28.818  1.00  0.00     0.034 A 
BRANCH  50  64
ATOM     64  C   UNL A   1      46.766  27.377  25.533  1.00  0.00     0.023 A 
ATOM     65  C   UNL A   1      46.946  27.855  24.220  1.00  0.00     0.031 A 
ATOM     66  C   UNL A   1      47.649  26.388  26.003  1.00  0.00     0.131 A 
ATOM     67  C   UNL A   1      47.952  27.310  23.410  1.00  0.00     0.055 A 
ATOM     68  C   UNL A   1      48.682  25.885  25.209  1.00  0.00     0.041 A 
ATOM     69  F   UNL A   1      47.520  25.894  27.246  1.00  0.00    -0.206 F 
ATOM     70  C   UNL A   1      48.826  26.335  23.901  1.00  0.00     0.022 A 
BRANCH  67  71
ATOM     71  S   UNL A   1      48.112  27.780  21.666  1.00  0.00     0.124 S 
ATOM     72  O   UNL A   1      46.840  28.458  21.420  1.00  0.00    -0.237 OA
ATOM     73  O   UNL A   1      49.286  28.647  21.690  1.00  0.00    -0.237 OA
ATOM     74  O   UNL A   1      48.280  26.507  20.973  1.00  0.00    -0.744 OA
ENDBRANCH  67  71
ENDBRANCH  50  64
BRANCH  51  75
ATOM     75  C   UNL A   1      38.692  29.954  30.849  1.00  0.00     0.023 A 
ATOM     76  C   UNL A   1      37.645  30.666  30.235  1.00  0.00     0.031 A 
ATOM     77  C   UNL A   1      38.604  29.715  32.231  1.00  0.00     0.131 A 
ATOM     78  C   UNL A   1      36.603  31.185  31.013  1.00  0.00     0.055 A 
ATOM     79  C   UNL A   1      37.519  30.160  32.989  1.00  0.00     0.041 A 
ATOM     80  F   UNL A   1      39.583  29.054  32.868  1.00  0.00    -0.206 F 
ATOM     81  C   UNL A   1      36.521  30.919  32.384  1.00  0.00     0.022 A 
BRANCH  78  82
ATOM     82  S   UNL A   1      35.410  32.354  30.304  1.00  0.00     0.124 S 
ATOM     83  O   UNL A   1      35.033  31.687  29.062  1.00  0.00    -0.237 OA
ATOM     84  O   UNL A   1      34.381  32.392  31.340  1.00  0.00    -0.237 OA
ATOM     85  O   UNL A   1      36.182  33.583  30.151  1.00  0.00    -0.744 OA
ENDBRANCH  78  82
ENDBRANCH  51  75
BRANCH  63  86
ATOM     86  C   UNL A   1      44.666  33.248  29.143  1.00  0.00     0.023 A 
ATOM     87  C   UNL A   1      44.531  34.313  28.232  1.00  0.00     0.031 A 
ATOM     88  C   UNL A   1      45.445  33.462  30.296  1.00  0.00     0.131 A 
ATOM     89  C   UNL A   1      45.187  35.527  28.470  1.00  0.00     0.055 A 
ATOM     90  C   UNL A   1      46.047  34.694  30.559  1.00  0.00     0.041 A 
ATOM     91  F   UNL A   1      45.623  32.478  31.191  1.00  0.00    -0.206 F 
ATOM     92  C   UNL A   1      45.931  35.729  29.637  1.00  0.00     0.022 A 
BRANCH  89  93
ATOM     93  S   UNL A   1      45.179  36.859  27.236  1.00  0.00     0.124 S 
ATOM     94  O   UNL A   1      45.766  37.967  27.985  1.00  0.00    -0.237 OA
ATOM     95  O   UNL A   1      46.022  36.304  26.180  1.00  0.00    -0.237 OA
ATOM     96  O   UNL A   1      43.769  37.013  26.895  1.00  0.00    -0.744 OA
ENDBRANCH  89  93
ENDBRANCH  63  86
ENDBRANCH  37  38
ENDBRANCH  29  32
ENDBRANCH  27  28
ENDBRANCH   1  27
TORSDOF 18
ENDMDL
MODEL 2
REMARK VINA RESULT:     -11.5      5.005     10.303
REMARK SMILES COc1cc([N+](=O)[O-])cc2c1=N[C@H](C(=O)NCCCNC(=O)c1ccc(-c3c4nc(c(-c5cc(S(=O)(=O)[O-])ccc5F)c5ccc([nH]5)c(-c5cc(S(=O)(=O)[O-])ccc5F)c5nc(c(-c6cc(S(=O)(=O)[O-])ccc6F)c6ccc3[nH]6)C=C5)C=C4)cc1)C=2CC[NH3+]
REMARK SMILES IDX 18 1 17 2 16 3 14 4 15 5 13 7 3 8 4 9 11 10 5 11 10 12 12 13
REMARK SMILES IDX 9 14 86 15 2 16 1 17 6 18 7 19 8 20 87 21 88 22 89 23 19 27
REMARK SMILES IDX 20 28 21 29 22 31 23 32 24 33 85 34 25 35 84 36 26 37 27 38
REMARK SMILES IDX 28 39 78 40 29 41 83 42 77 43 79 44 30 45 82 46 76 47 75 48
REMARK SMILES IDX 31 50 63 51 43 52 62 53 44 54 47 55 61 56 80 57 45 58 46 59
REMARK SMILES IDX 60 61 81 62 48 63 32 64 33 65 41 66 34 67 40 68 42 69 39 70
REMARK SMILES IDX 35 71 36 72 37 73 38 74 64 75 65 76 73 77 66 78 72 79 74 80
REMARK SMILES IDX 71 81 67 82 68 83 69 84 70 85 49 86 50 87 58 88 51 89 57 90
REMARK SMILES IDX 59 91 56 92 52 93 53 94 54 95 55 96
REMARK H PARENT 16 6 89 24 89 25 89 26 20 30 79 49 47 60
REMARK Flexibility Score: inf
ROOT
ATOM      1  C   UNL A   1      32.889  29.324  25.068  1.00  0.00     0.042 C 
ENDROOT
BRANCH   1   2
ATOM      2  C   UNL A   1      33.709  28.041  25.163  1.00  0.00     0.117 C 
BRANCH   2   3
ATOM      3  N   UNL A   1      33.814  27.327  23.900  1.00  0.00    -0.354 N 
ATOM      4  C   UNL A   1      33.944  25.990  23.626  1.00  0.00     0.249 C 
ATOM      5  O   UNL A   1      33.910  25.661  22.436  1.00  0.00    -0.272 OA
ATOM      6  H   UNL A   1      33.787  27.904  23.103  1.00  0.00     0.163 HD
BRANCH   4   7
ATOM      7  C   UNL A   1      34.143  24.973  24.775  1.00  0.00     0.222 C 
ATOM      8  C   UNL A   1      31.517  22.489  25.491  1.00  0.00     0.151 A 
ATOM      9  C   UNL A   1      31.666  21.150  25.388  1.00  0.00     0.134 A 
ATOM     10  C   UNL A   1      32.693  23.351  25.137  1.00  0.00     0.109 A 
ATOM     11  C   UNL A   1      32.903  20.518  24.937  1.00  0.00     0.273 A 
ATOM     12  C   UNL A   1      33.874  22.661  24.586  1.00  0.00     0.012 A 
ATOM     13  N   UNL A   1      32.791  24.633  25.325  1.00  0.00    -0.263 NA
ATOM     14  C   UNL A   1      33.963  21.235  24.520  1.00  0.00     0.096 A 
ATOM     15  C   UNL A   1      34.735  23.652  24.351  1.00  0.00    -0.021 C 
BRANCH   8  16
ATOM     16  O   UNL A   1      30.382  23.158  25.888  1.00  0.00    -0.494 OA
ATOM     17  C   UNL A   1      29.710  22.693  27.049  1.00  0.00     0.278 C 
ENDBRANCH   8  16
BRANCH  11  18
ATOM     18  N   UNL A   1      33.036  19.054  24.950  1.00  0.00     0.062 N 
ATOM     19  O   UNL A   1      33.708  18.513  24.061  1.00  0.00    -0.258 OA
ATOM     20  O   UNL A   1      32.478  18.444  25.874  1.00  0.00    -0.258 OA
ENDBRANCH  11  18
BRANCH  15  21
ATOM     21  C   UNL A   1      36.175  23.524  23.952  1.00  0.00     0.096 C 
BRANCH  21  22
ATOM     22  C   UNL A   1      37.216  23.485  25.085  1.00  0.00     0.263 C 
BRANCH  22  23
ATOM     23  N   UNL A   1      38.100  22.333  25.070  1.00  0.00    -0.357 N 
ATOM     24  H   UNL A   1      38.967  22.563  25.556  1.00  0.00     0.344 HD
ATOM     25  H   UNL A   1      38.310  22.078  24.104  1.00  0.00     0.344 HD
ATOM     26  H   UNL A   1      37.647  21.549  25.537  1.00  0.00     0.344 HD
ENDBRANCH  22  23
ENDBRANCH  21  22
ENDBRANCH  15  21
ENDBRANCH   4   7
ENDBRANCH   2   3
ENDBRANCH   1   2
BRANCH   1  27
ATOM     27  C   UNL A   1      32.107  29.687  26.325  1.00  0.00     0.118 C 
BRANCH  27  28
ATOM     28  N   UNL A   1      31.917  31.118  26.485  1.00  0.00    -0.352 N 
ATOM     29  C   UNL A   1      32.668  32.045  27.169  1.00  0.00     0.251 C 
ATOM     30  H   UNL A   1      31.124  31.483  26.031  1.00  0.00     0.163 HD
ATOM     31  O   UNL A   1      32.218  33.183  27.307  1.00  0.00    -0.269 OA
BRANCH  29  32
ATOM     32  C   UNL A   1      33.977  31.689  27.770  1.00  0.00     0.039 A 
ATOM     33  C   UNL A   1      34.286  30.376  28.130  1.00  0.00     0.014 A 
ATOM     34  C   UNL A   1      34.938  32.691  27.948  1.00  0.00     0.014 A 
ATOM     35  C   UNL A   1      35.464  30.102  28.822  1.00  0.00     0.010 A 
ATOM     36  C   UNL A   1      36.168  32.393  28.550  1.00  0.00     0.010 A 
ATOM     37  C   UNL A   1      36.427  31.104  29.038  1.00  0.00    -0.014 A 
BRANCH  37  38
ATOM     38  C   UNL A   1      37.700  30.755  29.733  1.00  0.00     0.031 A 
ATOM     39  C   UNL A   1      37.993  31.232  31.132  1.00  0.00     0.074 A 
ATOM     40  C   UNL A   1      38.584  29.949  29.110  1.00  0.00     0.049 A 
ATOM     41  N   UNL A   1      38.998  30.920  31.912  1.00  0.00    -0.248 NA
ATOM     42  C   UNL A   1      37.048  32.185  31.734  1.00  0.00     0.031 C 
ATOM     43  C   UNL A   1      38.436  29.453  27.741  1.00  0.00     0.029 A 
ATOM     44  N   UNL A   1      39.759  29.382  29.542  1.00  0.00    -0.354 N 
ATOM     45  C   UNL A   1      38.811  31.637  33.090  1.00  0.00     0.074 A 
ATOM     46  C   UNL A   1      37.624  32.441  32.901  1.00  0.00     0.031 C 
ATOM     47  C   UNL A   1      39.435  28.604  27.471  1.00  0.00     0.029 A 
ATOM     48  C   UNL A   1      40.339  28.543  28.617  1.00  0.00     0.049 A 
ATOM     49  H   UNL A   1      40.149  29.559  30.428  1.00  0.00     0.167 HD
ATOM     50  C   UNL A   1      39.548  31.611  34.227  1.00  0.00     0.034 A 
ATOM     51  C   UNL A   1      41.466  27.805  28.674  1.00  0.00     0.034 A 
ATOM     52  C   UNL A   1      40.727  30.798  34.406  1.00  0.00     0.049 A 
ATOM     53  C   UNL A   1      42.270  27.799  29.948  1.00  0.00     0.074 A 
ATOM     54  C   UNL A   1      41.509  30.670  35.542  1.00  0.00     0.029 A 
ATOM     55  N   UNL A   1      41.301  29.985  33.439  1.00  0.00    -0.354 N 
ATOM     56  N   UNL A   1      42.024  28.411  31.083  1.00  0.00    -0.248 NA
ATOM     57  C   UNL A   1      43.498  26.993  29.957  1.00  0.00     0.031 C 
ATOM     58  C   UNL A   1      42.593  29.846  35.238  1.00  0.00     0.029 A 
ATOM     59  C   UNL A   1      42.445  29.383  33.942  1.00  0.00     0.049 A 
ATOM     60  H   UNL A   1      40.947  29.855  32.529  1.00  0.00     0.167 HD
ATOM     61  C   UNL A   1      43.060  28.057  31.943  1.00  0.00     0.074 A 
ATOM     62  C   UNL A   1      43.907  27.136  31.212  1.00  0.00     0.031 C 
ATOM     63  C   UNL A   1      43.296  28.468  33.215  1.00  0.00     0.034 A 
BRANCH  50  64
ATOM     64  C   UNL A   1      39.108  32.460  35.399  1.00  0.00     0.023 A 
ATOM     65  C   UNL A   1      39.606  33.770  35.547  1.00  0.00     0.031 A 
ATOM     66  C   UNL A   1      38.325  31.929  36.439  1.00  0.00     0.131 A 
ATOM     67  C   UNL A   1      39.356  34.482  36.728  1.00  0.00     0.055 A 
ATOM     68  C   UNL A   1      38.037  32.662  37.593  1.00  0.00     0.041 A 
ATOM     69  F   UNL A   1      37.829  30.683  36.352  1.00  0.00    -0.206 F 
ATOM     70  C   UNL A   1      38.567  33.938  37.747  1.00  0.00     0.022 A 
BRANCH  67  71
ATOM     71  S   UNL A   1      40.114  36.103  37.027  1.00  0.00     0.124 S 
ATOM     72  O   UNL A   1      39.870  36.785  35.757  1.00  0.00    -0.237 OA
ATOM     73  O   UNL A   1      39.337  36.598  38.160  1.00  0.00    -0.237 OA
ATOM     74  O   UNL A   1      41.511  35.791  37.305  1.00  0.00    -0.744 OA
ENDBRANCH  67  71
ENDBRANCH  50  64
BRANCH  51  75
ATOM     75  C   UNL A   1      41.850  26.973  27.495  1.00  0.00     0.023 A 
ATOM     76  C   UNL A   1      41.639  25.581  27.496  1.00  0.00     0.031 A 
ATOM     77  C   UNL A   1      42.535  27.535  26.405  1.00  0.00     0.131 A 
ATOM     78  C   UNL A   1      42.182  24.792  26.475  1.00  0.00     0.055 A 
ATOM     79  C   UNL A   1      42.999  26.753  25.344  1.00  0.00     0.041 A 
ATOM     80  F   UNL A   1      42.775  28.854  26.362  1.00  0.00    -0.206 F 
ATOM     81  C   UNL A   1      42.842  25.371  25.386  1.00  0.00     0.022 A 
BRANCH  78  82
ATOM     82  S   UNL A   1      42.188  22.983  26.606  1.00  0.00     0.124 S 
ATOM     83  O   UNL A   1      42.386  22.782  28.038  1.00  0.00    -0.237 OA
ATOM     84  O   UNL A   1      40.862  22.644  26.096  1.00  0.00    -0.237 OA
ATOM     85  O   UNL A   1      43.301  22.580  25.753  1.00  0.00    -0.744 OA
ENDBRANCH  78  82
ENDBRANCH  51  75
BRANCH  63  86
ATOM     86  C   UNL A   1      44.531  27.952  33.922  1.00  0.00     0.023 A 
ATOM     87  C   UNL A   1      44.459  26.804  34.735  1.00  0.00     0.031 A 
ATOM     88  C   UNL A   1      45.746  28.660  33.890  1.00  0.00     0.131 A 
ATOM     89  C   UNL A   1      45.565  26.417  35.501  1.00  0.00     0.055 A 
ATOM     90  C   UNL A   1      46.865  28.236  34.609  1.00  0.00     0.041 A 
ATOM     91  F   UNL A   1      45.868  29.772  33.146  1.00  0.00    -0.206 F 
ATOM     92  C   UNL A   1      46.773  27.118  35.430  1.00  0.00     0.022 A 
BRANCH  89  93
ATOM     93  S   UNL A   1      45.454  25.049  36.689  1.00  0.00     0.124 S 
ATOM     94  O   UNL A   1      44.243  25.392  37.431  1.00  0.00    -0.237 OA
ATOM     95  O   UNL A   1      45.339  23.887  35.810  1.00  0.00    -0.237 OA
ATOM     96  O   UNL A   1      46.697  25.140  37.447  1.00  0.00    -0.744 OA
ENDBRANCH  89  93
ENDBRANCH  63  86
ENDBRANCH  37  38
ENDBRANCH  29  32
ENDBRANCH  27  28
ENDBRANCH   1  27
TORSDOF 18
ENDMDL
MODEL 3
REMARK VINA RESULT:     -11.4      0.555      7.499
REMARK SMILES COc1cc([N+](=O)[O-])cc2c1=N[C@H](C(=O)NCCCNC(=O)c1ccc(-c3c4nc(c(-c5cc(S(=O)(=O)[O-])ccc5F)c5ccc([nH]5)c(-c5cc(S(=O)(=O)[O-])ccc5F)c5nc(c(-c6cc(S(=O)(=O)[O-])ccc6F)c6ccc3[nH]6)C=C5)C=C4)cc1)C=2CC[NH3+]
REMARK SMILES IDX 18 1 17 2 16 3 14 4 15 5 13 7 3 8 4 9 11 10 5 11 10 12 12 13
REMARK SMILES IDX 9 14 86 15 2 16 1 17 6 18 7 19 8 20 87 21 88 22 89 23 19 27
REMARK SMILES IDX 20 28 21 29 22 31 23 32 24 33 85 34 25 35 84 36 26 37 27 38
REMARK SMILES IDX 28 39 78 40 29 41 83 42 77 43 79 44 30 45 82 46 76 47 75 48
REMARK SMILES IDX 31 50 63 51 43 52 62 53 44 54 47 55 61 56 80 57 45 58 46 59
REMARK SMILES IDX 60 61 81 62 48 63 32 64 33 65 41 66 34 67 40 68 42 69 39 70
REMARK SMILES IDX 35 71 36 72 37 73 38 74 64 75 65 76 73 77 66 78 72 79 74 80
REMARK SMILES IDX 71 81 67 82 68 83 69 84 70 85 49 86 50 87 58 88 51 89 57 90
REMARK SMILES IDX 59 91 56 92 52 93 53 94 54 95 55 96
REMARK H PARENT 16 6 89 24 89 25 89 26 20 30 79 49 47 60
REMARK Flexibility Score: inf
ROOT
ATOM      1  C   UNL A   1      35.539  21.922  26.067  1.00  0.00     0.042 C 
ENDROOT
BRANCH   1   2
ATOM      2  C   UNL A   1      35.031  23.356  26.182  1.00  0.00     0.117 C 
BRANCH   2   3
ATOM      3  N   UNL A   1      33.701  23.455  26.760  1.00  0.00    -0.354 N 
ATOM      4  C   UNL A   1      32.729  24.414  26.635  1.00  0.00     0.249 C 
ATOM      5  O   UNL A   1      31.643  24.179  27.174  1.00  0.00    -0.272 OA
ATOM      6  H   UNL A   1      33.454  22.701  27.343  1.00  0.00     0.163 HD
BRANCH   4   7
ATOM      7  C   UNL A   1      33.023  25.726  25.869  1.00  0.00     0.222 C 
ATOM      8  C   UNL A   1      31.853  26.112  22.395  1.00  0.00     0.151 A 
ATOM      9  C   UNL A   1      30.960  27.036  21.975  1.00  0.00     0.134 A 
ATOM     10  C   UNL A   1      32.196  26.088  23.856  1.00  0.00     0.109 A 
ATOM     11  C   UNL A   1      30.315  27.988  22.874  1.00  0.00     0.273 A 
ATOM     12  C   UNL A   1      31.432  27.000  24.728  1.00  0.00     0.012 A 
ATOM     13  N   UNL A   1      33.139  25.389  24.413  1.00  0.00    -0.263 NA
ATOM     14  C   UNL A   1      30.511  27.962  24.205  1.00  0.00     0.096 A 
ATOM     15  C   UNL A   1      31.924  26.758  25.944  1.00  0.00    -0.021 C 
BRANCH   8  16
ATOM     16  O   UNL A   1      32.487  25.172  21.616  1.00  0.00    -0.494 OA
ATOM     17  C   UNL A   1      32.610  25.436  20.227  1.00  0.00     0.278 C 
ENDBRANCH   8  16
BRANCH  11  18
ATOM     18  N   UNL A   1      29.436  29.036  22.337  1.00  0.00     0.062 N 
ATOM     19  O   UNL A   1      29.904  29.839  21.517  1.00  0.00    -0.258 OA
ATOM     20  O   UNL A   1      28.259  29.041  22.726  1.00  0.00    -0.258 OA
ENDBRANCH  11  18
BRANCH  15  21
ATOM     21  C   UNL A   1      31.644  27.523  27.202  1.00  0.00     0.096 C 
BRANCH  21  22
ATOM     22  C   UNL A   1      32.213  28.950  27.295  1.00  0.00     0.263 C 
BRANCH  22  23
ATOM     23  N   UNL A   1      33.573  29.040  27.799  1.00  0.00    -0.357 N 
ATOM     24  H   UNL A   1      34.114  29.670  27.205  1.00  0.00     0.344 HD
ATOM     25  H   UNL A   1      34.000  28.114  27.790  1.00  0.00     0.344 HD
ATOM     26  H   UNL A   1      33.560  29.400  28.752  1.00  0.00     0.344 HD
ENDBRANCH  22  23
ENDBRANCH  21  22
ENDBRANCH  15  21
ENDBRANCH   4   7
ENDBRANCH   2   3
ENDBRANCH   1   2
BRANCH   1  27
ATOM     27  C   UNL A   1      36.607  21.697  25.004  1.00  0.00     0.118 C 
BRANCH  27  28
ATOM     28  N   UNL A   1      37.576  20.680  25.376  1.00  0.00    -0.352 N 
ATOM     29  C   UNL A   1      38.855  20.806  25.866  1.00  0.00     0.251 C 
ATOM     30  H   UNL A   1      37.267  19.753  25.259  1.00  0.00     0.163 HD
ATOM     31  O   UNL A   1      39.556  19.796  25.951  1.00  0.00    -0.269 OA
BRANCH  29  32
ATOM     32  C   UNL A   1      39.410  22.127  26.251  1.00  0.00     0.039 A 
ATOM     33  C   UNL A   1      38.803  23.320  25.857  1.00  0.00     0.014 A 
ATOM     34  C   UNL A   1      40.552  22.174  27.059  1.00  0.00     0.014 A 
ATOM     35  C   UNL A   1      39.430  24.538  26.113  1.00  0.00     0.010 A 
ATOM     36  C   UNL A   1      41.122  23.407  27.406  1.00  0.00     0.010 A 
ATOM     37  C   UNL A   1      40.595  24.603  26.896  1.00  0.00    -0.014 A 
BRANCH  37  38
ATOM     38  C   UNL A   1      41.201  25.932  27.195  1.00  0.00     0.031 A 
ATOM     39  C   UNL A   1      40.495  26.948  28.055  1.00  0.00     0.074 A 
ATOM     40  C   UNL A   1      42.435  26.207  26.725  1.00  0.00     0.049 A 
ATOM     41  N   UNL A   1      40.937  28.097  28.500  1.00  0.00    -0.248 NA
ATOM     42  C   UNL A   1      39.114  26.645  28.464  1.00  0.00     0.031 C 
ATOM     43  C   UNL A   1      43.208  25.325  25.849  1.00  0.00     0.029 A 
ATOM     44  N   UNL A   1      43.269  27.280  26.933  1.00  0.00    -0.354 N 
ATOM     45  C   UNL A   1      39.895  28.656  29.234  1.00  0.00     0.074 A 
ATOM     46  C   UNL A   1      38.779  27.742  29.131  1.00  0.00     0.031 C 
ATOM     47  C   UNL A   1      44.422  25.854  25.654  1.00  0.00     0.029 A 
ATOM     48  C   UNL A   1      44.500  27.147  26.330  1.00  0.00     0.049 A 
ATOM     49  H   UNL A   1      43.011  28.068  27.463  1.00  0.00     0.167 HD
ATOM     50  C   UNL A   1      39.879  29.810  29.944  1.00  0.00     0.034 A 
ATOM     51  C   UNL A   1      45.573  27.963  26.316  1.00  0.00     0.034 A 
ATOM     52  C   UNL A   1      41.003  30.711  30.046  1.00  0.00     0.049 A 
ATOM     53  C   UNL A   1      45.525  29.244  27.108  1.00  0.00     0.074 A 
ATOM     54  C   UNL A   1      41.093  31.880  30.784  1.00  0.00     0.029 A 
ATOM     55  N   UNL A   1      42.220  30.559  29.398  1.00  0.00    -0.354 N 
ATOM     56  N   UNL A   1      44.565  29.707  27.871  1.00  0.00    -0.248 NA
ATOM     57  C   UNL A   1      46.712  30.108  27.048  1.00  0.00     0.031 C 
ATOM     58  C   UNL A   1      42.329  32.471  30.520  1.00  0.00     0.029 A 
ATOM     59  C   UNL A   1      43.052  31.630  29.691  1.00  0.00     0.049 A 
ATOM     60  H   UNL A   1      42.458  29.801  28.816  1.00  0.00     0.167 HD
ATOM     61  C   UNL A   1      45.033  30.911  28.391  1.00  0.00     0.074 A 
ATOM     62  C   UNL A   1      46.384  31.077  27.894  1.00  0.00     0.031 C 
ATOM     63  C   UNL A   1      44.398  31.803  29.193  1.00  0.00     0.034 A 
BRANCH  50  64
ATOM     64  C   UNL A   1      38.623  30.181  30.702  1.00  0.00     0.023 A 
ATOM     65  C   UNL A   1      37.604  30.915  30.063  1.00  0.00     0.031 A 
ATOM     66  C   UNL A   1      38.501  29.945  32.083  1.00  0.00     0.131 A 
ATOM     67  C   UNL A   1      36.537  31.425  30.813  1.00  0.00     0.055 A 
ATOM     68  C   UNL A   1      37.409  30.413  32.816  1.00  0.00     0.041 A 
ATOM     69  F   UNL A   1      39.446  29.255  32.743  1.00  0.00    -0.206 F 
ATOM     70  C   UNL A   1      36.429  31.171  32.184  1.00  0.00     0.022 A 
BRANCH  67  71
ATOM     71  S   UNL A   1      35.293  32.511  30.060  1.00  0.00     0.124 S 
ATOM     72  O   UNL A   1      34.850  31.711  28.919  1.00  0.00    -0.237 OA
ATOM     73  O   UNL A   1      34.319  32.651  31.138  1.00  0.00    -0.237 OA
ATOM     74  O   UNL A   1      36.039  33.716  29.720  1.00  0.00    -0.744 OA
ENDBRANCH  67  71
ENDBRANCH  50  64
BRANCH  51  75
ATOM     75  C   UNL A   1      46.793  27.545  25.563  1.00  0.00     0.023 A 
ATOM     76  C   UNL A   1      47.022  28.001  24.252  1.00  0.00     0.031 A 
ATOM     77  C   UNL A   1      47.684  26.598  26.097  1.00  0.00     0.131 A 
ATOM     78  C   UNL A   1      48.060  27.448  23.492  1.00  0.00     0.055 A 
ATOM     79  C   UNL A   1      48.770  26.113  25.364  1.00  0.00     0.041 A 
ATOM     80  F   UNL A   1      47.502  26.120  27.337  1.00  0.00    -0.206 F 
ATOM     81  C   UNL A   1      48.949  26.522  24.046  1.00  0.00     0.022 A 
BRANCH  78  82
ATOM     82  S   UNL A   1      48.191  27.791  21.715  1.00  0.00     0.124 S 
ATOM     83  O   UNL A   1      49.336  28.694  21.662  1.00  0.00    -0.237 OA
ATOM     84  O   UNL A   1      48.413  26.454  21.170  1.00  0.00    -0.237 OA
ATOM     85  O   UNL A   1      46.901  28.387  21.384  1.00  0.00    -0.744 OA
ENDBRANCH  78  82
ENDBRANCH  51  75
BRANCH  63  86
ATOM     86  C   UNL A   1      45.131  33.067  29.588  1.00  0.00     0.023 A 
ATOM     87  C   UNL A   1      45.075  34.210  28.767  1.00  0.00     0.031 A 
ATOM     88  C   UNL A   1      45.978  33.103  30.711  1.00  0.00     0.131 A 
ATOM     89  C   UNL A   1      45.871  35.324  29.061  1.00  0.00     0.055 A 
ATOM     90  C   UNL A   1      46.724  34.239  31.033  1.00  0.00     0.041 A 
ATOM     91  F   UNL A   1      46.085  32.038  31.520  1.00  0.00    -0.206 F 
ATOM     92  C   UNL A   1      46.683  35.350  30.199  1.00  0.00     0.022 A 
BRANCH  89  93
ATOM     93  S   UNL A   1      45.957  36.742  27.932  1.00  0.00     0.124 S 
ATOM     94  O   UNL A   1      44.608  37.292  28.036  1.00  0.00    -0.237 OA
ATOM     95  O   UNL A   1      47.010  37.555  28.539  1.00  0.00    -0.237 OA
ATOM     96  O   UNL A   1      46.291  36.147  26.643  1.00  0.00    -0.744 OA
ENDBRANCH  89  93
ENDBRANCH  63  86
ENDBRANCH  37  38
ENDBRANCH  29  32
ENDBRANCH  27  28
ENDBRANCH   1  27
TORSDOF 18
ENDMDL
