MODEL 1
REMARK VINA RESULT:     -11.6      0.000      0.000
REMARK SMILES CCC(=O)Nc1ccc(NC(=O)[C@@H]2CC=CC[C@@H]2C(=O)NCCCNC(=O)c2ccc(-c3c4nc(c(-c5cc(S(=O)(=O)[O-])ccc5F)c5ccc([nH]5)c(-c5cc(S(=O)(=O)[O-])ccc5F)c5nc(c(-c6cc(S(=O)(=O)[O-])ccc6F)c6ccc3[nH]6)C=C5)C=C4)cc2)cc1
REMARK SMILES IDX 22 1 21 2 19 3 20 4 18 6 13 7 14 8 15 9 17 10 16 11 11 12
REMARK SMILES IDX 10 13 12 15 9 16 6 17 7 18 92 19 8 20 91 21 5 22 3 23 4 24
REMARK SMILES IDX 2 26 1 27 23 28 24 29 25 30 26 31 27 33 28 34 29 35 90 36
REMARK SMILES IDX 30 37 89 38 31 39 32 40 33 41 83 42 34 43 88 44 82 45 84 46
REMARK SMILES IDX 35 47 87 48 81 49 80 50 36 52 68 53 48 54 67 55 49 56 52 57
REMARK SMILES IDX 66 58 85 59 50 60 51 61 65 63 86 64 53 65 37 66 38 67 46 68
REMARK SMILES IDX 39 69 45 70 47 71 44 72 40 73 41 74 42 75 43 76 69 77 70 78
REMARK SMILES IDX 78 79 71 80 77 81 79 82 76 83 72 84 73 85 74 86 75 87 54 88
REMARK SMILES IDX 55 89 63 90 56 91 62 92 64 93 61 94 57 95 58 96 59 97 60 98
REMARK H PARENT 21 5 10 14 5 25 25 32 84 51 52 62
REMARK Flexibility Score: inf
ROOT
ATOM      1  C   UNL A   1      46.570  21.799  37.950  1.00  0.00     0.117 C 
ENDROOT
BRANCH   1   2
ATOM      2  N   UNL A   1      45.863  21.421  39.143  1.00  0.00    -0.356 N 
ATOM      3  C   UNL A   1      46.186  20.480  40.067  1.00  0.00     0.224 C 
ATOM      4  O   UNL A   1      45.542  20.509  41.123  1.00  0.00    -0.275 OA
ATOM      5  H   UNL A   1      45.028  21.913  39.314  1.00  0.00     0.163 HD
BRANCH   3   6
ATOM      6  C   UNL A   1      47.192  19.350  39.817  1.00  0.00     0.095 C 
ATOM      7  C   UNL A   1      46.716  17.885  39.605  1.00  0.00     0.095 C 
ATOM      8  C   UNL A   1      46.852  16.943  40.801  1.00  0.00     0.041 C 
ATOM      9  C   UNL A   1      47.953  17.285  41.761  1.00  0.00    -0.030 C 
ATOM     10  C   UNL A   1      48.422  19.515  40.727  1.00  0.00     0.041 C 
ATOM     11  C   UNL A   1      48.639  18.433  41.734  1.00  0.00    -0.030 C 
BRANCH   7  12
ATOM     12  C   UNL A   1      45.484  17.835  38.689  1.00  0.00     0.228 C 
ATOM     13  N   UNL A   1      44.215  17.490  39.013  1.00  0.00    -0.326 N 
ATOM     14  H   UNL A   1      43.563  17.941  38.429  1.00  0.00     0.169 HD
ATOM     15  O   UNL A   1      45.600  18.346  37.562  1.00  0.00    -0.274 OA
BRANCH  13  16
ATOM     16  C   UNL A   1      43.574  16.670  39.947  1.00  0.00     0.041 A 
ATOM     17  C   UNL A   1      42.101  14.979  41.632  1.00  0.00     0.041 A 
ATOM     18  C   UNL A   1      42.928  15.961  42.177  1.00  0.00     0.028 A 
ATOM     19  C   UNL A   1      42.062  14.794  40.255  1.00  0.00     0.028 A 
ATOM     20  C   UNL A   1      43.667  16.804  41.330  1.00  0.00     0.028 A 
ATOM     21  C   UNL A   1      42.840  15.596  39.422  1.00  0.00     0.028 A 
BRANCH  17  22
ATOM     22  N   UNL A   1      41.235  14.214  42.419  1.00  0.00    -0.326 N 
ATOM     23  C   UNL A   1      41.498  13.034  43.058  1.00  0.00     0.224 C 
ATOM     24  O   UNL A   1      40.677  12.551  43.837  1.00  0.00    -0.275 OA
ATOM     25  H   UNL A   1      40.323  14.570  42.526  1.00  0.00     0.169 HD
BRANCH  23  26
ATOM     26  C   UNL A   1      42.746  12.264  42.674  1.00  0.00     0.097 C 
ATOM     27  C   UNL A   1      42.881  11.003  43.520  1.00  0.00     0.014 C 
ENDBRANCH  23  26
ENDBRANCH  17  22
ENDBRANCH  13  16
ENDBRANCH   7  12
ENDBRANCH   3   6
ENDBRANCH   1   2
BRANCH   1  28
ATOM     28  C   UNL A   1      45.976  22.942  37.164  1.00  0.00     0.042 C 
BRANCH  28  29
ATOM     29  C   UNL A   1      47.017  23.807  36.472  1.00  0.00     0.118 C 
BRANCH  29  30
ATOM     30  N   UNL A   1      47.397  24.985  37.252  1.00  0.00    -0.352 N 
ATOM     31  C   UNL A   1      47.079  26.314  37.092  1.00  0.00     0.251 C 
ATOM     32  H   UNL A   1      47.980  24.794  38.023  1.00  0.00     0.163 HD
ATOM     33  O   UNL A   1      47.688  27.164  37.742  1.00  0.00    -0.269 OA
BRANCH  31  34
ATOM     34  C   UNL A   1      46.050  26.724  36.117  1.00  0.00     0.039 A 
ATOM     35  C   UNL A   1      44.751  26.217  36.229  1.00  0.00     0.014 A 
ATOM     36  C   UNL A   1      46.363  27.621  35.098  1.00  0.00     0.014 A 
ATOM     37  C   UNL A   1      43.748  26.695  35.381  1.00  0.00     0.010 A 
ATOM     38  C   UNL A   1      45.347  28.182  34.342  1.00  0.00     0.010 A 
ATOM     39  C   UNL A   1      44.028  27.721  34.468  1.00  0.00    -0.014 A 
BRANCH  39  40
ATOM     40  C   UNL A   1      42.995  28.315  33.581  1.00  0.00     0.031 A 
ATOM     41  C   UNL A   1      41.993  29.269  34.174  1.00  0.00     0.074 A 
ATOM     42  C   UNL A   1      42.880  27.908  32.303  1.00  0.00     0.049 A 
ATOM     43  N   UNL A   1      40.867  29.707  33.679  1.00  0.00    -0.248 NA
ATOM     44  C   UNL A   1      42.278  29.741  35.539  1.00  0.00     0.031 C 
ATOM     45  C   UNL A   1      43.775  26.968  31.624  1.00  0.00     0.029 A 
ATOM     46  N   UNL A   1      41.942  28.216  31.350  1.00  0.00    -0.354 N 
ATOM     47  C   UNL A   1      40.285  30.468  34.689  1.00  0.00     0.074 A 
ATOM     48  C   UNL A   1      41.153  30.370  35.842  1.00  0.00     0.031 C 
ATOM     49  C   UNL A   1      43.354  26.793  30.360  1.00  0.00     0.029 A 
ATOM     50  C   UNL A   1      42.129  27.558  30.157  1.00  0.00     0.049 A 
ATOM     51  H   UNL A   1      41.205  28.848  31.506  1.00  0.00     0.167 HD
ATOM     52  C   UNL A   1      39.145  31.201  34.648  1.00  0.00     0.034 A 
ATOM     53  C   UNL A   1      41.381  27.556  29.035  1.00  0.00     0.034 A 
ATOM     54  C   UNL A   1      38.321  31.316  33.471  1.00  0.00     0.049 A 
ATOM     55  C   UNL A   1      40.117  28.377  29.007  1.00  0.00     0.074 A 
ATOM     56  C   UNL A   1      37.174  32.065  33.287  1.00  0.00     0.029 A 
ATOM     57  N   UNL A   1      38.567  30.666  32.267  1.00  0.00    -0.354 N 
ATOM     58  N   UNL A   1      39.580  29.101  29.963  1.00  0.00    -0.248 NA
ATOM     59  C   UNL A   1      39.360  28.388  27.749  1.00  0.00     0.031 C 
ATOM     60  C   UNL A   1      36.699  31.831  31.993  1.00  0.00     0.029 A 
ATOM     61  C   UNL A   1      37.586  30.987  31.343  1.00  0.00     0.049 A 
ATOM     62  H   UNL A   1      39.328  30.064  32.095  1.00  0.00     0.167 HD
ATOM     63  C   UNL A   1      38.445  29.682  29.408  1.00  0.00     0.074 A 
ATOM     64  C   UNL A   1      38.374  29.226  28.035  1.00  0.00     0.031 C 
ATOM     65  C   UNL A   1      37.545  30.524  29.976  1.00  0.00     0.034 A 
BRANCH  52  66
ATOM     66  C   UNL A   1      38.729  31.904  35.918  1.00  0.00     0.023 A 
ATOM     67  C   UNL A   1      38.137  31.207  36.987  1.00  0.00     0.031 A 
ATOM     68  C   UNL A   1      38.866  33.298  36.041  1.00  0.00     0.131 A 
ATOM     69  C   UNL A   1      37.610  31.913  38.078  1.00  0.00     0.055 A 
ATOM     70  C   UNL A   1      38.426  33.984  37.177  1.00  0.00     0.041 A 
ATOM     71  F   UNL A   1      39.403  34.024  35.048  1.00  0.00    -0.206 F 
ATOM     72  C   UNL A   1      37.774  33.294  38.195  1.00  0.00     0.022 A 
BRANCH  69  73
ATOM     73  S   UNL A   1      36.551  31.020  39.250  1.00  0.00     0.124 S 
ATOM     74  O   UNL A   1      35.478  31.988  39.471  1.00  0.00    -0.237 OA
ATOM     75  O   UNL A   1      36.188  29.824  38.499  1.00  0.00    -0.237 OA
ATOM     76  O   UNL A   1      37.425  30.796  40.399  1.00  0.00    -0.744 OA
ENDBRANCH  69  73
ENDBRANCH  52  66
BRANCH  53  77
ATOM     77  C   UNL A   1      41.797  26.754  27.849  1.00  0.00     0.023 A 
ATOM     78  C   UNL A   1      41.660  25.357  27.847  1.00  0.00     0.031 A 
ATOM     79  C   UNL A   1      42.364  27.364  26.717  1.00  0.00     0.131 A 
ATOM     80  C   UNL A   1      42.126  24.610  26.753  1.00  0.00     0.055 A 
ATOM     81  C   UNL A   1      42.781  26.620  25.610  1.00  0.00     0.041 A 
ATOM     82  F   UNL A   1      42.510  28.697  26.664  1.00  0.00    -0.206 F 
ATOM     83  C   UNL A   1      42.673  25.233  25.631  1.00  0.00     0.022 A 
BRANCH  80  84
ATOM     84  S   UNL A   1      42.072  22.800  26.855  1.00  0.00     0.124 S 
ATOM     85  O   UNL A   1      43.405  22.438  26.386  1.00  0.00    -0.237 OA
ATOM     86  O   UNL A   1      41.809  22.584  28.273  1.00  0.00    -0.237 OA
ATOM     87  O   UNL A   1      40.976  22.442  25.958  1.00  0.00    -0.744 OA
ENDBRANCH  80  84
ENDBRANCH  53  77
BRANCH  65  88
ATOM     88  C   UNL A   1      36.449  31.058  29.090  1.00  0.00     0.023 A 
ATOM     89  C   UNL A   1      35.421  30.235  28.601  1.00  0.00     0.031 A 
ATOM     90  C   UNL A   1      36.435  32.421  28.741  1.00  0.00     0.131 A 
ATOM     91  C   UNL A   1      34.440  30.776  27.756  1.00  0.00     0.055 A 
ATOM     92  C   UNL A   1      35.428  32.963  27.944  1.00  0.00     0.041 A 
ATOM     93  F   UNL A   1      37.395  33.248  29.183  1.00  0.00    -0.206 F 
ATOM     94  C   UNL A   1      34.428  32.137  27.438  1.00  0.00     0.022 A 
BRANCH  91  95
ATOM     95  S   UNL A   1      33.211  29.662  27.023  1.00  0.00     0.124 S 
ATOM     96  O   UNL A   1      32.025  30.510  26.971  1.00  0.00    -0.237 OA
ATOM     97  O   UNL A   1      33.815  29.334  25.736  1.00  0.00    -0.237 OA
ATOM     98  O   UNL A   1      33.141  28.554  27.974  1.00  0.00    -0.744 OA
ENDBRANCH  91  95
ENDBRANCH  65  88
ENDBRANCH  39  40
ENDBRANCH  31  34
ENDBRANCH  29  30
ENDBRANCH  28  29
ENDBRANCH   1  28
TORSDOF 17
ENDMDL
MODEL 2
REMARK VINA RESULT:     -11.3      8.943     12.324
REMARK SMILES CCC(=O)Nc1ccc(NC(=O)[C@@H]2CC=CC[C@@H]2C(=O)NCCCNC(=O)c2ccc(-c3c4nc(c(-c5cc(S(=O)(=O)[O-])ccc5F)c5ccc([nH]5)c(-c5cc(S(=O)(=O)[O-])ccc5F)c5nc(c(-c6cc(S(=O)(=O)[O-])ccc6F)c6ccc3[nH]6)C=C5)C=C4)cc2)cc1
REMARK SMILES IDX 22 1 21 2 19 3 20 4 18 6 13 7 14 8 15 9 17 10 16 11 11 12
REMARK SMILES IDX 10 13 12 15 9 16 6 17 7 18 92 19 8 20 91 21 5 22 3 23 4 24
REMARK SMILES IDX 2 26 1 27 23 28 24 29 25 30 26 31 27 33 28 34 29 35 90 36
REMARK SMILES IDX 30 37 89 38 31 39 32 40 33 41 83 42 34 43 88 44 82 45 84 46
REMARK SMILES IDX 35 47 87 48 81 49 80 50 36 52 68 53 48 54 67 55 49 56 52 57
REMARK SMILES IDX 66 58 85 59 50 60 51 61 65 63 86 64 53 65 37 66 38 67 46 68
REMARK SMILES IDX 39 69 45 70 47 71 44 72 40 73 41 74 42 75 43 76 69 77 70 78
REMARK SMILES IDX 78 79 71 80 77 81 79 82 76 83 72 84 73 85 74 86 75 87 54 88
REMARK SMILES IDX 55 89 63 90 56 91 62 92 64 93 61 94 57 95 58 96 59 97 60 98
REMARK H PARENT 21 5 10 14 5 25 25 32 84 51 52 62
REMARK Flexibility Score: inf
ROOT
ATOM      1  C   UNL A   1      42.502  22.439  26.203  1.00  0.00     0.117 C 
ENDROOT
BRANCH   1   2
ATOM      2  N   UNL A   1      43.400  22.678  27.299  1.00  0.00    -0.356 N 
ATOM      3  C   UNL A   1      44.722  22.984  27.270  1.00  0.00     0.224 C 
ATOM      4  O   UNL A   1      45.215  23.374  28.334  1.00  0.00    -0.275 OA
ATOM      5  H   UNL A   1      43.001  22.610  28.196  1.00  0.00     0.163 HD
BRANCH   3   6
ATOM      6  C   UNL A   1      45.623  22.756  26.049  1.00  0.00     0.095 C 
ATOM      7  C   UNL A   1      45.418  23.568  24.738  1.00  0.00     0.095 C 
ATOM      8  C   UNL A   1      44.694  22.853  23.599  1.00  0.00     0.041 C 
ATOM      9  C   UNL A   1      44.836  21.359  23.589  1.00  0.00    -0.030 C 
ATOM     10  C   UNL A   1      45.893  21.254  25.855  1.00  0.00     0.041 C 
ATOM     11  C   UNL A   1      45.357  20.650  24.597  1.00  0.00    -0.030 C 
BRANCH   7  12
ATOM     12  C   UNL A   1      45.151  25.049  25.046  1.00  0.00     0.228 C 
ATOM     13  N   UNL A   1      46.032  26.077  25.035  1.00  0.00    -0.326 N 
ATOM     14  H   UNL A   1      45.584  26.928  24.825  1.00  0.00     0.169 HD
ATOM     15  O   UNL A   1      43.961  25.400  25.133  1.00  0.00    -0.274 OA
BRANCH  13  16
ATOM     16  C   UNL A   1      47.402  26.265  25.240  1.00  0.00     0.041 A 
ATOM     17  C   UNL A   1      50.097  26.660  25.916  1.00  0.00     0.041 A 
ATOM     18  C   UNL A   1      49.637  27.004  24.645  1.00  0.00     0.028 A 
ATOM     19  C   UNL A   1      49.234  26.056  26.823  1.00  0.00     0.028 A 
ATOM     20  C   UNL A   1      48.288  26.802  24.309  1.00  0.00     0.028 A 
ATOM     21  C   UNL A   1      47.910  25.806  26.465  1.00  0.00     0.028 A 
BRANCH  17  22
ATOM     22  N   UNL A   1      51.387  26.974  26.351  1.00  0.00    -0.326 N 
ATOM     23  C   UNL A   1      52.521  26.218  26.240  1.00  0.00     0.224 C 
ATOM     24  O   UNL A   1      53.617  26.691  26.539  1.00  0.00    -0.275 OA
ATOM     25  H   UNL A   1      51.492  27.848  26.792  1.00  0.00     0.169 HD
BRANCH  23  26
ATOM     26  C   UNL A   1      52.382  24.750  25.886  1.00  0.00     0.097 C 
ATOM     27  C   UNL A   1      53.591  24.274  25.087  1.00  0.00     0.014 C 
ENDBRANCH  23  26
ENDBRANCH  17  22
ENDBRANCH  13  16
ENDBRANCH   7  12
ENDBRANCH   3   6
ENDBRANCH   1   2
BRANCH   1  28
ATOM     28  C   UNL A   1      41.629  21.213  26.319  1.00  0.00     0.042 C 
BRANCH  28  29
ATOM     29  C   UNL A   1      40.396  21.427  27.182  1.00  0.00     0.118 C 
BRANCH  29  30
ATOM     30  N   UNL A   1      39.238  21.903  26.423  1.00  0.00    -0.352 N 
ATOM     31  C   UNL A   1      38.677  23.155  26.327  1.00  0.00     0.251 C 
ATOM     32  H   UNL A   1      38.785  21.209  25.892  1.00  0.00     0.163 HD
ATOM     33  O   UNL A   1      37.572  23.283  25.798  1.00  0.00    -0.269 OA
BRANCH  31  34
ATOM     34  C   UNL A   1      39.368  24.330  26.891  1.00  0.00     0.039 A 
ATOM     35  C   UNL A   1      40.073  25.190  26.042  1.00  0.00     0.014 A 
ATOM     36  C   UNL A   1      39.310  24.592  28.258  1.00  0.00     0.014 A 
ATOM     37  C   UNL A   1      40.627  26.366  26.556  1.00  0.00     0.010 A 
ATOM     38  C   UNL A   1      39.751  25.812  28.742  1.00  0.00     0.010 A 
ATOM     39  C   UNL A   1      40.423  26.711  27.900  1.00  0.00    -0.014 A 
BRANCH  39  40
ATOM     40  C   UNL A   1      40.931  27.974  28.494  1.00  0.00     0.031 A 
ATOM     41  C   UNL A   1      39.941  28.990  28.996  1.00  0.00     0.074 A 
ATOM     42  C   UNL A   1      42.248  28.258  28.464  1.00  0.00     0.049 A 
ATOM     43  N   UNL A   1      40.122  30.245  29.309  1.00  0.00    -0.248 NA
ATOM     44  C   UNL A   1      38.544  28.536  29.097  1.00  0.00     0.031 C 
ATOM     45  C   UNL A   1      43.301  27.365  27.976  1.00  0.00     0.029 A 
ATOM     46  N   UNL A   1      42.923  29.395  28.831  1.00  0.00    -0.354 N 
ATOM     47  C   UNL A   1      38.855  30.743  29.600  1.00  0.00     0.074 A 
ATOM     48  C   UNL A   1      37.915  29.672  29.355  1.00  0.00     0.031 C 
ATOM     49  C   UNL A   1      44.490  27.980  28.094  1.00  0.00     0.029 A 
ATOM     50  C   UNL A   1      44.279  29.330  28.606  1.00  0.00     0.049 A 
ATOM     51  H   UNL A   1      42.479  30.183  29.217  1.00  0.00     0.167 HD
ATOM     52  C   UNL A   1      38.512  31.975  30.052  1.00  0.00     0.034 A 
ATOM     53  C   UNL A   1      45.236  30.263  28.773  1.00  0.00     0.034 A 
ATOM     54  C   UNL A   1      39.475  33.011  30.329  1.00  0.00     0.049 A 
ATOM     55  C   UNL A   1      44.838  31.626  29.278  1.00  0.00     0.074 A 
ATOM     56  C   UNL A   1      39.260  34.279  30.837  1.00  0.00     0.029 A 
ATOM     57  N   UNL A   1      40.845  32.892  30.128  1.00  0.00    -0.354 N 
ATOM     58  N   UNL A   1      43.639  32.086  29.559  1.00  0.00    -0.248 NA
ATOM     59  C   UNL A   1      45.919  32.597  29.495  1.00  0.00     0.031 C 
ATOM     60  C   UNL A   1      40.490  34.943  30.896  1.00  0.00     0.029 A 
ATOM     61  C   UNL A   1      41.484  34.067  30.489  1.00  0.00     0.049 A 
ATOM     62  H   UNL A   1      41.297  32.089  29.779  1.00  0.00     0.167 HD
ATOM     63  C   UNL A   1      43.829  33.384  30.022  1.00  0.00     0.074 A 
ATOM     64  C   UNL A   1      45.255  33.634  29.983  1.00  0.00     0.031 C 
ATOM     65  C   UNL A   1      42.910  34.287  30.448  1.00  0.00     0.034 A 
BRANCH  52  66
ATOM     66  C   UNL A   1      37.040  32.256  30.248  1.00  0.00     0.023 A 
ATOM     67  C   UNL A   1      36.268  32.868  29.245  1.00  0.00     0.031 A 
ATOM     68  C   UNL A   1      36.414  31.967  31.472  1.00  0.00     0.131 A 
ATOM     69  C   UNL A   1      34.952  33.268  29.520  1.00  0.00     0.055 A 
ATOM     70  C   UNL A   1      35.072  32.279  31.705  1.00  0.00     0.041 A 
ATOM     71  F   UNL A   1      37.102  31.401  32.478  1.00  0.00    -0.206 F 
ATOM     72  C   UNL A   1      34.338  32.953  30.733  1.00  0.00     0.022 A 
BRANCH  69  73
ATOM     73  S   UNL A   1      34.119  34.360  28.335  1.00  0.00     0.124 S 
ATOM     74  O   UNL A   1      32.913  33.594  28.028  1.00  0.00    -0.237 OA
ATOM     75  O   UNL A   1      33.922  35.578  29.113  1.00  0.00    -0.237 OA
ATOM     76  O   UNL A   1      35.076  34.467  27.237  1.00  0.00    -0.744 OA
ENDBRANCH  69  73
ENDBRANCH  52  66
BRANCH  53  77
ATOM     77  C   UNL A   1      46.660  29.951  28.462  1.00  0.00     0.023 A 
ATOM     78  C   UNL A   1      47.484  29.337  29.418  1.00  0.00     0.031 A 
ATOM     79  C   UNL A   1      47.227  30.287  27.220  1.00  0.00     0.131 A 
ATOM     80  C   UNL A   1      48.842  29.118  29.137  1.00  0.00     0.055 A 
ATOM     81  C   UNL A   1      48.568  30.022  26.926  1.00  0.00     0.041 A 
ATOM     82  F   UNL A   1      46.482  30.867  26.267  1.00  0.00    -0.206 F 
ATOM     83  C   UNL A   1      49.385  29.445  27.893  1.00  0.00     0.022 A 
BRANCH  80  84
ATOM     84  S   UNL A   1      49.906  28.467  30.453  1.00  0.00     0.124 S 
ATOM     85  O   UNL A   1      49.760  29.488  31.484  1.00  0.00    -0.237 OA
ATOM     86  O   UNL A   1      49.285  27.177  30.734  1.00  0.00    -0.237 OA
ATOM     87  O   UNL A   1      51.223  28.399  29.822  1.00  0.00    -0.744 OA
ENDBRANCH  80  84
ENDBRANCH  53  77
BRANCH  65  88
ATOM     88  C   UNL A   1      43.431  35.600  30.972  1.00  0.00     0.023 A 
ATOM     89  C   UNL A   1      43.722  35.795  32.333  1.00  0.00     0.031 A 
ATOM     90  C   UNL A   1      43.649  36.670  30.084  1.00  0.00     0.131 A 
ATOM     91  C   UNL A   1      44.179  37.046  32.773  1.00  0.00     0.055 A 
ATOM     92  C   UNL A   1      44.153  37.894  30.520  1.00  0.00     0.041 A 
ATOM     93  F   UNL A   1      43.387  36.533  28.775  1.00  0.00    -0.206 F 
ATOM     94  C   UNL A   1      44.412  38.091  31.874  1.00  0.00     0.022 A 
BRANCH  91  95
ATOM     95  S   UNL A   1      44.406  37.313  34.552  1.00  0.00     0.124 S 
ATOM     96  O   UNL A   1      43.991  36.030  35.108  1.00  0.00    -0.237 OA
ATOM     97  O   UNL A   1      45.831  37.615  34.644  1.00  0.00    -0.237 OA
ATOM     98  O   UNL A   1      43.516  38.434  34.848  1.00  0.00    -0.744 OA
ENDBRANCH  91  95
ENDBRANCH  65  88
ENDBRANCH  39  40
ENDBRANCH  31  34
ENDBRANCH  29  30
ENDBRANCH  28  29
ENDBRANCH   1  28
TORSDOF 17
ENDMDL
MODEL 3
REMARK VINA RESULT:     -11.2      6.579     12.407
REMARK SMILES CCC(=O)Nc1ccc(NC(=O)[C@@H]2CC=CC[C@@H]2C(=O)NCCCNC(=O)c2ccc(-c3c4nc(c(-c5cc(S(=O)(=O)[O-])ccc5F)c5ccc([nH]5)c(-c5cc(S(=O)(=O)[O-])ccc5F)c5nc(c(-c6cc(S(=O)(=O)[O-])ccc6F)c6ccc3[nH]6)C=C5)C=C4)cc2)cc1
REMARK SMILES IDX 22 1 21 2 19 3 20 4 18 6 13 7 14 8 15 9 17 10 16 11 11 12
REMARK SMILES IDX 10 13 12 15 9 16 6 17 7 18 92 19 8 20 91 21 5 22 3 23 4 24
REMARK SMILES IDX 2 26 1 27 23 28 24 29 25 30 26 31 27 33 28 34 29 35 90 36
REMARK SMILES IDX 30 37 89 38 31 39 32 40 33 41 83 42 34 43 88 44 82 45 84 46
REMARK SMILES IDX 35 47 87 48 81 49 80 50 36 52 68 53 48 54 67 55 49 56 52 57
REMARK SMILES IDX 66 58 85 59 50 60 51 61 65 63 86 64 53 65 37 66 38 67 46 68
REMARK SMILES IDX 39 69 45 70 47 71 44 72 40 73 41 74 42 75 43 76 69 77 70 78
REMARK SMILES IDX 78 79 71 80 77 81 79 82 76 83 72 84 73 85 74 86 75 87 54 88
REMARK SMILES IDX 55 89 63 90 56 91 62 92 64 93 61 94 57 95 58 96 59 97 60 98
REMARK H PARENT 21 5 10 14 5 25 25 32 84 51 52 62
REMARK Flexibility Score: inf
ROOT
ATOM      1  C   UNL A   1      43.291  23.462  25.379  1.00  0.00     0.117 C 
ENDROOT
BRANCH   1   2
ATOM      2  N   UNL A   1      42.270  22.453  25.309  1.00  0.00    -0.356 N 
ATOM      3  C   UNL A   1      41.274  22.181  26.190  1.00  0.00     0.224 C 
ATOM      4  O   UNL A   1      40.384  21.421  25.790  1.00  0.00    -0.275 OA
ATOM      5  H   UNL A   1      42.297  21.878  24.510  1.00  0.00     0.163 HD
BRANCH   3   6
ATOM      6  C   UNL A   1      41.272  22.659  27.647  1.00  0.00     0.095 C 
ATOM      7  C   UNL A   1      41.217  24.174  27.994  1.00  0.00     0.095 C 
ATOM      8  C   UNL A   1      42.536  24.830  28.399  1.00  0.00     0.041 C 
ATOM      9  C   UNL A   1      43.539  23.911  29.033  1.00  0.00    -0.030 C 
ATOM     10  C   UNL A   1      42.261  21.830  28.486  1.00  0.00     0.041 C 
ATOM     11  C   UNL A   1      43.421  22.579  29.058  1.00  0.00    -0.030 C 
BRANCH   7  12
ATOM     12  C   UNL A   1      40.206  24.906  27.098  1.00  0.00     0.228 C 
ATOM     13  N   UNL A   1      39.897  26.225  27.091  1.00  0.00    -0.326 N 
ATOM     14  H   UNL A   1      39.596  26.515  26.200  1.00  0.00     0.169 HD
ATOM     15  O   UNL A   1      39.747  24.271  26.133  1.00  0.00    -0.274 OA
BRANCH  13  16
ATOM     16  C   UNL A   1      39.886  27.287  28.000  1.00  0.00     0.041 A 
ATOM     17  C   UNL A   1      40.024  29.551  29.651  1.00  0.00     0.041 A 
ATOM     18  C   UNL A   1      39.752  28.299  30.203  1.00  0.00     0.028 A 
ATOM     19  C   UNL A   1      40.157  29.686  28.274  1.00  0.00     0.028 A 
ATOM     20  C   UNL A   1      39.680  27.168  29.372  1.00  0.00     0.028 A 
ATOM     21  C   UNL A   1      40.028  28.570  27.449  1.00  0.00     0.028 A 
BRANCH  17  22
ATOM     22  N   UNL A   1      40.251  30.679  30.444  1.00  0.00    -0.326 N 
ATOM     23  C   UNL A   1      39.360  31.655  30.796  1.00  0.00     0.224 C 
ATOM     24  O   UNL A   1      39.670  32.512  31.623  1.00  0.00    -0.275 OA
ATOM     25  H   UNL A   1      41.166  30.785  30.790  1.00  0.00     0.169 HD
BRANCH  23  26
ATOM     26  C   UNL A   1      38.048  31.746  30.042  1.00  0.00     0.097 C 
ATOM     27  C   UNL A   1      36.889  31.292  30.924  1.00  0.00     0.014 C 
ENDBRANCH  23  26
ENDBRANCH  17  22
ENDBRANCH  13  16
ENDBRANCH   7  12
ENDBRANCH   3   6
ENDBRANCH   1   2
BRANCH   1  28
ATOM     28  C   UNL A   1      44.708  22.960  25.510  1.00  0.00     0.042 C 
BRANCH  28  29
ATOM     29  C   UNL A   1      45.648  23.961  26.161  1.00  0.00     0.118 C 
BRANCH  29  30
ATOM     30  N   UNL A   1      46.349  24.806  25.193  1.00  0.00    -0.352 N 
ATOM     31  C   UNL A   1      46.335  26.169  25.009  1.00  0.00     0.251 C 
ATOM     32  H   UNL A   1      46.930  24.314  24.568  1.00  0.00     0.163 HD
ATOM     33  O   UNL A   1      46.837  26.647  23.992  1.00  0.00    -0.269 OA
BRANCH  31  34
ATOM     34  C   UNL A   1      45.685  27.050  25.998  1.00  0.00     0.039 A 
ATOM     35  C   UNL A   1      44.295  27.200  25.982  1.00  0.00     0.014 A 
ATOM     36  C   UNL A   1      46.448  27.719  26.954  1.00  0.00     0.014 A 
ATOM     37  C   UNL A   1      43.668  27.938  26.990  1.00  0.00     0.010 A 
ATOM     38  C   UNL A   1      45.820  28.346  28.017  1.00  0.00     0.010 A 
ATOM     39  C   UNL A   1      44.422  28.470  28.045  1.00  0.00    -0.014 A 
BRANCH  39  40
ATOM     40  C   UNL A   1      43.813  29.212  29.179  1.00  0.00     0.031 A 
ATOM     41  C   UNL A   1      43.603  30.696  29.045  1.00  0.00     0.074 A 
ATOM     42  C   UNL A   1      43.574  28.589  30.349  1.00  0.00     0.049 A 
ATOM     43  N   UNL A   1      43.337  31.585  29.964  1.00  0.00    -0.248 NA
ATOM     44  C   UNL A   1      43.779  31.256  27.695  1.00  0.00     0.031 C 
ATOM     45  C   UNL A   1      43.763  27.160  30.607  1.00  0.00     0.029 A 
ATOM     46  N   UNL A   1      43.141  29.087  31.552  1.00  0.00    -0.354 N 
ATOM     47  C   UNL A   1      43.361  32.814  29.312  1.00  0.00     0.074 A 
ATOM     48  C   UNL A   1      43.736  32.556  27.939  1.00  0.00     0.031 C 
ATOM     49  C   UNL A   1      43.429  26.894  31.881  1.00  0.00     0.029 A 
ATOM     50  C   UNL A   1      43.062  28.139  32.546  1.00  0.00     0.049 A 
ATOM     51  H   UNL A   1      42.911  30.033  31.691  1.00  0.00     0.167 HD
ATOM     52  C   UNL A   1      43.073  34.043  29.809  1.00  0.00     0.034 A 
ATOM     53  C   UNL A   1      42.749  28.269  33.851  1.00  0.00     0.034 A 
ATOM     54  C   UNL A   1      42.659  34.267  31.171  1.00  0.00     0.049 A 
ATOM     55  C   UNL A   1      42.430  29.642  34.386  1.00  0.00     0.074 A 
ATOM     56  C   UNL A   1      42.291  35.453  31.780  1.00  0.00     0.029 A 
ATOM     57  N   UNL A   1      42.549  33.275  32.138  1.00  0.00    -0.354 N 
ATOM     58  N   UNL A   1      42.446  30.797  33.760  1.00  0.00    -0.248 NA
ATOM     59  C   UNL A   1      42.045  29.730  35.800  1.00  0.00     0.031 C 
ATOM     60  C   UNL A   1      42.008  35.187  33.124  1.00  0.00     0.029 A 
ATOM     61  C   UNL A   1      42.133  33.823  33.340  1.00  0.00     0.049 A 
ATOM     62  H   UNL A   1      42.740  32.319  31.991  1.00  0.00     0.167 HD
ATOM     63  C   UNL A   1      42.036  31.741  34.696  1.00  0.00     0.074 A 
ATOM     64  C   UNL A   1      41.779  31.022  35.927  1.00  0.00     0.031 C 
ATOM     65  C   UNL A   1      41.877  33.081  34.551  1.00  0.00     0.034 A 
BRANCH  52  66
ATOM     66  C   UNL A   1      43.219  35.220  28.873  1.00  0.00     0.023 A 
ATOM     67  C   UNL A   1      44.470  35.813  28.626  1.00  0.00     0.031 A 
ATOM     68  C   UNL A   1      42.090  35.798  28.269  1.00  0.00     0.131 A 
ATOM     69  C   UNL A   1      44.549  37.004  27.889  1.00  0.00     0.055 A 
ATOM     70  C   UNL A   1      42.188  36.929  27.454  1.00  0.00     0.041 A 
ATOM     71  F   UNL A   1      40.864  35.292  28.481  1.00  0.00    -0.206 F 
ATOM     72  C   UNL A   1      43.420  37.552  27.278  1.00  0.00     0.022 A 
BRANCH  69  73
ATOM     73  S   UNL A   1      46.116  37.918  27.896  1.00  0.00     0.124 S 
ATOM     74  O   UNL A   1      46.212  38.343  26.500  1.00  0.00    -0.237 OA
ATOM     75  O   UNL A   1      45.862  38.974  28.869  1.00  0.00    -0.237 OA
ATOM     76  O   UNL A   1      47.095  36.915  28.303  1.00  0.00    -0.744 OA
ENDBRANCH  69  73
ENDBRANCH  52  66
BRANCH  53  77
ATOM     77  C   UNL A   1      42.724  27.076  34.745  1.00  0.00     0.023 A 
ATOM     78  C   UNL A   1      43.890  26.647  35.398  1.00  0.00     0.031 A 
ATOM     79  C   UNL A   1      41.547  26.331  34.936  1.00  0.00     0.131 A 
ATOM     80  C   UNL A   1      43.867  25.479  36.177  1.00  0.00     0.055 A 
ATOM     81  C   UNL A   1      41.518  25.196  35.752  1.00  0.00     0.041 A 
ATOM     82  F   UNL A   1      40.403  26.702  34.342  1.00  0.00    -0.206 F 
ATOM     83  C   UNL A   1      42.686  24.759  36.367  1.00  0.00     0.022 A 
BRANCH  80  84
ATOM     84  S   UNL A   1      45.426  24.873  36.876  1.00  0.00     0.124 S 
ATOM     85  O   UNL A   1      45.369  25.405  38.233  1.00  0.00    -0.237 OA
ATOM     86  O   UNL A   1      45.276  23.428  36.746  1.00  0.00    -0.237 OA
ATOM     87  O   UNL A   1      46.441  25.473  36.012  1.00  0.00    -0.744 OA
ENDBRANCH  80  84
ENDBRANCH  53  77
BRANCH  65  88
ATOM     88  C   UNL A   1      41.336  33.839  35.736  1.00  0.00     0.023 A 
ATOM     89  C   UNL A   1      42.181  34.470  36.664  1.00  0.00     0.031 A 
ATOM     90  C   UNL A   1      39.945  33.939  35.925  1.00  0.00     0.131 A 
ATOM     91  C   UNL A   1      41.627  35.141  37.764  1.00  0.00     0.055 A 
ATOM     92  C   UNL A   1      39.400  34.650  36.993  1.00  0.00     0.041 A 
ATOM     93  F   UNL A   1      39.096  33.354  35.066  1.00  0.00    -0.206 F 
ATOM     94  C   UNL A   1      40.242  35.249  37.926  1.00  0.00     0.022 A 
BRANCH  91  95
ATOM     95  S   UNL A   1      42.742  35.819  39.023  1.00  0.00     0.124 S 
ATOM     96  O   UNL A   1      44.009  35.182  38.681  1.00  0.00    -0.237 OA
ATOM     97  O   UNL A   1      42.662  37.254  38.771  1.00  0.00    -0.237 OA
ATOM     98  O   UNL A   1      42.146  35.378  40.283  1.00  0.00    -0.744 OA
ENDBRANCH  91  95
ENDBRANCH  65  88
ENDBRANCH  39  40
ENDBRANCH  31  34
ENDBRANCH  29  30
ENDBRANCH  28  29
ENDBRANCH   1  28
TORSDOF 17
ENDMDL
