MODEL 1
REMARK VINA RESULT:     -13.4      0.000      0.000
REMARK SMILES O=C(NCCCNC(=O)[C@H]1[C@H]2CC[C@H](C2)[C@@H]1C(=O)Nc1sc2c(c1C(=O)NC1CCCCC1)CCCC2)c1ccc(-c2c3nc(c(-c4cc(S(=O)(=O)[O-])ccc4F)c4ccc([nH]4)c(-c4cc(S(=O)(=O)[O-])ccc4F)c4nc(c(-c5cc(S(=O)(=O)[O-])ccc5F)c5ccc2[nH]5)C=C4)C=C3)cc1
REMARK SMILES IDX 5 1 4 2 3 3 1 4 2 5 38 7 39 8 100 9 40 10 99 11 41 12 42 13
REMARK SMILES IDX 43 14 93 15 44 16 98 17 92 18 94 19 45 20 97 21 91 22 90 23
REMARK SMILES IDX 46 25 78 26 58 27 77 28 59 29 62 30 76 31 95 32 60 33 61 34
REMARK SMILES IDX 75 36 96 37 63 38 47 39 48 40 56 41 49 42 55 43 57 44 54 45
REMARK SMILES IDX 50 46 51 47 52 48 53 49 79 50 80 51 88 52 81 53 87 54 89 55
REMARK SMILES IDX 86 56 82 57 83 58 84 59 85 60 64 61 65 62 73 63 66 64 72 65
REMARK SMILES IDX 74 66 71 67 67 68 68 69 69 70 70 71 6 72 7 73 8 74 9 76
REMARK SMILES IDX 10 77 11 78 16 79 12 80 15 81 14 82 13 83 17 84 18 85 19 86
REMARK SMILES IDX 20 88 21 89 24 90 22 91 23 92 37 93 34 94 36 95 35 96 25 97
REMARK SMILES IDX 26 98 27 99 28 101 29 102 33 103 30 104 32 105 31 106
REMARK H PARENT 3 6 94 24 62 35 7 75 19 87 27 100
REMARK Flexibility Score: inf
ROOT
ATOM      1  C   UNL A   1      37.061  21.311  24.334  1.00  0.00     0.042 C 
ENDROOT
BRANCH   1   2
ATOM      2  C   UNL A   1      37.643  21.590  25.703  1.00  0.00     0.118 C 
BRANCH   2   3
ATOM      3  N   UNL A   1      38.647  20.613  26.109  1.00  0.00    -0.352 N 
ATOM      4  O   UNL A   1      40.674  19.832  26.708  1.00  0.00    -0.269 OA
ATOM      5  C   UNL A   1      39.926  20.798  26.586  1.00  0.00     0.251 C 
ATOM      6  H   UNL A   1      38.366  19.673  26.029  1.00  0.00     0.163 HD
BRANCH   5   7
ATOM      7  C   UNL A   1      40.403  22.158  26.923  1.00  0.00     0.039 A 
ATOM      8  C   UNL A   1      40.011  23.249  26.152  1.00  0.00     0.014 A 
ATOM      9  C   UNL A   1      41.251  22.353  28.018  1.00  0.00     0.014 A 
ATOM     10  C   UNL A   1      40.634  24.475  26.322  1.00  0.00     0.010 A 
ATOM     11  C   UNL A   1      41.757  23.631  28.288  1.00  0.00     0.010 A 
ATOM     12  C   UNL A   1      41.478  24.697  27.420  1.00  0.00    -0.014 A 
BRANCH  12  13
ATOM     13  C   UNL A   1      41.958  26.082  27.663  1.00  0.00     0.031 A 
ATOM     14  C   UNL A   1      41.165  27.060  28.484  1.00  0.00     0.074 A 
ATOM     15  C   UNL A   1      43.173  26.419  27.180  1.00  0.00     0.049 A 
ATOM     16  N   UNL A   1      41.468  28.288  28.816  1.00  0.00    -0.248 NA
ATOM     17  C   UNL A   1      39.861  26.608  28.991  1.00  0.00     0.031 C 
ATOM     18  C   UNL A   1      44.025  25.543  26.367  1.00  0.00     0.029 A 
ATOM     19  N   UNL A   1      43.924  27.555  27.329  1.00  0.00    -0.354 N 
ATOM     20  C   UNL A   1      40.391  28.765  29.553  1.00  0.00     0.074 A 
ATOM     21  C   UNL A   1      39.411  27.700  29.596  1.00  0.00     0.031 C 
ATOM     22  C   UNL A   1      45.205  26.140  26.159  1.00  0.00     0.029 A 
ATOM     23  C   UNL A   1      45.160  27.477  26.729  1.00  0.00     0.049 A 
ATOM     24  H   UNL A   1      43.609  28.351  27.816  1.00  0.00     0.167 HD
ATOM     25  C   UNL A   1      40.241  29.980  30.142  1.00  0.00     0.034 A 
ATOM     26  C   UNL A   1      46.143  28.391  26.622  1.00  0.00     0.034 A 
ATOM     27  C   UNL A   1      41.237  31.026  30.086  1.00  0.00     0.049 A 
ATOM     28  C   UNL A   1      45.930  29.738  27.253  1.00  0.00     0.074 A 
ATOM     29  C   UNL A   1      41.195  32.288  30.653  1.00  0.00     0.029 A 
ATOM     30  N   UNL A   1      42.454  30.935  29.420  1.00  0.00    -0.354 N 
ATOM     31  N   UNL A   1      44.901  30.171  27.943  1.00  0.00    -0.248 NA
ATOM     32  C   UNL A   1      47.007  30.719  27.087  1.00  0.00     0.031 C 
ATOM     33  C   UNL A   1      42.353  32.980  30.277  1.00  0.00     0.029 A 
ATOM     34  C   UNL A   1      43.156  32.127  29.539  1.00  0.00     0.049 A 
ATOM     35  H   UNL A   1      42.773  30.139  28.935  1.00  0.00     0.167 HD
ATOM     36  C   UNL A   1      45.213  31.477  28.303  1.00  0.00     0.074 A 
ATOM     37  C   UNL A   1      46.541  31.742  27.786  1.00  0.00     0.031 C 
ATOM     38  C   UNL A   1      44.469  32.379  28.992  1.00  0.00     0.034 A 
BRANCH  25  39
ATOM     39  C   UNL A   1      38.938  30.258  30.853  1.00  0.00     0.023 A 
ATOM     40  C   UNL A   1      37.904  30.998  30.252  1.00  0.00     0.031 A 
ATOM     41  C   UNL A   1      38.726  29.770  32.156  1.00  0.00     0.131 A 
ATOM     42  C   UNL A   1      36.731  31.275  30.972  1.00  0.00     0.055 A 
ATOM     43  C   UNL A   1      37.529  29.989  32.840  1.00  0.00     0.041 A 
ATOM     44  F   UNL A   1      39.684  29.076  32.790  1.00  0.00    -0.206 F 
ATOM     45  C   UNL A   1      36.525  30.755  32.253  1.00  0.00     0.022 A 
BRANCH  42  46
ATOM     46  S   UNL A   1      35.520  32.421  30.255  1.00  0.00     0.124 S 
ATOM     47  O   UNL A   1      34.449  32.384  31.249  1.00  0.00    -0.237 OA
ATOM     48  O   UNL A   1      36.271  33.668  30.175  1.00  0.00    -0.237 OA
ATOM     49  O   UNL A   1      35.187  31.811  28.970  1.00  0.00    -0.744 OA
ENDBRANCH  42  46
ENDBRANCH  25  39
BRANCH  26  50
ATOM     50  C   UNL A   1      47.379  28.082  25.849  1.00  0.00     0.023 A 
ATOM     51  C   UNL A   1      47.402  28.169  24.450  1.00  0.00     0.031 A 
ATOM     52  C   UNL A   1      48.552  27.657  26.503  1.00  0.00     0.131 A 
ATOM     53  C   UNL A   1      48.556  27.791  23.746  1.00  0.00     0.055 A 
ATOM     54  C   UNL A   1      49.717  27.345  25.803  1.00  0.00     0.041 A 
ATOM     55  F   UNL A   1      48.586  27.558  27.841  1.00  0.00    -0.206 F 
ATOM     56  C   UNL A   1      49.719  27.397  24.413  1.00  0.00     0.022 A 
BRANCH  53  57
ATOM     57  S   UNL A   1      48.484  27.722  21.935  1.00  0.00     0.124 S 
ATOM     58  O   UNL A   1      48.752  26.311  21.680  1.00  0.00    -0.237 OA
ATOM     59  O   UNL A   1      47.122  28.175  21.672  1.00  0.00    -0.237 OA
ATOM     60  O   UNL A   1      49.538  28.645  21.518  1.00  0.00    -0.744 OA
ENDBRANCH  53  57
ENDBRANCH  26  50
BRANCH  38  61
ATOM     61  C   UNL A   1      45.106  33.724  29.234  1.00  0.00     0.023 A 
ATOM     62  C   UNL A   1      44.903  34.800  28.352  1.00  0.00     0.031 A 
ATOM     63  C   UNL A   1      45.966  33.916  30.329  1.00  0.00     0.131 A 
ATOM     64  C   UNL A   1      45.608  35.998  28.538  1.00  0.00     0.055 A 
ATOM     65  C   UNL A   1      46.614  35.132  30.546  1.00  0.00     0.041 A 
ATOM     66  F   UNL A   1      46.196  32.921  31.200  1.00  0.00    -0.206 F 
ATOM     67  C   UNL A   1      46.451  36.176  29.638  1.00  0.00     0.022 A 
BRANCH  64  68
ATOM     68  S   UNL A   1      45.497  37.278  27.258  1.00  0.00     0.124 S 
ATOM     69  O   UNL A   1      44.089  37.208  26.881  1.00  0.00    -0.237 OA
ATOM     70  O   UNL A   1      45.906  38.477  27.982  1.00  0.00    -0.237 OA
ATOM     71  O   UNL A   1      46.437  36.821  26.236  1.00  0.00    -0.744 OA
ENDBRANCH  64  68
ENDBRANCH  38  61
ENDBRANCH  12  13
ENDBRANCH   5   7
ENDBRANCH   2   3
ENDBRANCH   1   2
BRANCH   1  72
ATOM     72  C   UNL A   1      36.854  22.545  23.486  1.00  0.00     0.117 C 
BRANCH  72  73
ATOM     73  N   UNL A   1      36.213  23.640  24.186  1.00  0.00    -0.356 N 
ATOM     74  C   UNL A   1      34.936  24.103  24.112  1.00  0.00     0.224 C 
ATOM     75  H   UNL A   1      36.794  24.125  24.815  1.00  0.00     0.163 HD
ATOM     76  O   UNL A   1      34.641  25.029  24.869  1.00  0.00    -0.275 OA
BRANCH  74  77
ATOM     77  C   UNL A   1      33.950  23.554  23.081  1.00  0.00     0.094 C 
ATOM     78  C   UNL A   1      33.268  22.205  23.463  1.00  0.00     0.002 C 
ATOM     79  C   UNL A   1      32.712  24.492  22.914  1.00  0.00     0.094 C 
ATOM     80  C   UNL A   1      32.548  22.272  24.811  1.00  0.00     0.005 C 
ATOM     81  C   UNL A   1      32.100  22.189  22.508  1.00  0.00     0.009 C 
ATOM     82  C   UNL A   1      31.526  23.511  23.007  1.00  0.00     0.002 C 
ATOM     83  C   UNL A   1      31.325  23.148  24.498  1.00  0.00     0.005 C 
BRANCH  79  84
ATOM     84  C   UNL A   1      32.746  25.552  21.790  1.00  0.00     0.229 C 
ATOM     85  O   UNL A   1      32.975  25.157  20.635  1.00  0.00    -0.274 OA
ATOM     86  N   UNL A   1      32.444  26.872  21.907  1.00  0.00    -0.317 N 
ATOM     87  H   UNL A   1      32.170  27.299  21.063  1.00  0.00     0.170 HD
BRANCH  86  88
ATOM     88  C   UNL A   1      32.453  27.717  22.988  1.00  0.00     0.108 A 
ATOM     89  S   UNL A   1      33.829  28.694  23.200  1.00  0.00    -0.122 S 
ATOM     90  C   UNL A   1      31.371  28.172  23.761  1.00  0.00     0.078 A 
ATOM     91  C   UNL A   1      33.337  28.997  24.792  1.00  0.00     0.011 A 
ATOM     92  C   UNL A   1      31.964  28.830  24.946  1.00  0.00    -0.019 A 
ATOM     93  C   UNL A   1      34.321  29.395  25.852  1.00  0.00     0.047 C 
ATOM     94  C   UNL A   1      31.364  29.243  26.265  1.00  0.00     0.037 C 
ATOM     95  C   UNL A   1      33.688  29.218  27.235  1.00  0.00     0.006 C 
ATOM     96  C   UNL A   1      32.330  29.911  27.252  1.00  0.00     0.005 C 
BRANCH  90  97
ATOM     97  C   UNL A   1      30.008  27.805  23.270  1.00  0.00     0.254 C 
ATOM     98  O   UNL A   1      29.649  26.619  23.309  1.00  0.00    -0.269 OA
ATOM     99  N   UNL A   1      29.047  28.634  22.752  1.00  0.00    -0.349 N 
ATOM    100  H   UNL A   1      28.199  28.177  22.550  1.00  0.00     0.164 HD
BRANCH  99 101
ATOM    101  C   UNL A   1      29.030  30.036  22.448  1.00  0.00     0.082 C 
ATOM    102  C   UNL A   1      28.092  30.360  21.286  1.00  0.00     0.025 C 
ATOM    103  C   UNL A   1      28.749  30.946  23.637  1.00  0.00     0.025 C 
ATOM    104  C   UNL A   1      28.279  31.807  20.834  1.00  0.00     0.002 C 
ATOM    105  C   UNL A   1      29.042  32.389  23.211  1.00  0.00     0.002 C 
ATOM    106  C   UNL A   1      28.218  32.807  21.992  1.00  0.00     0.000 C 
ENDBRANCH  99 101
ENDBRANCH  90  97
ENDBRANCH  86  88
ENDBRANCH  79  84
ENDBRANCH  74  77
ENDBRANCH  72  73
ENDBRANCH   1  72
TORSDOF 17
ENDMDL
MODEL 2
REMARK VINA RESULT:     -12.9      2.912      7.450
REMARK SMILES O=C(NCCCNC(=O)[C@H]1[C@H]2CC[C@H](C2)[C@@H]1C(=O)Nc1sc2c(c1C(=O)NC1CCCCC1)CCCC2)c1ccc(-c2c3nc(c(-c4cc(S(=O)(=O)[O-])ccc4F)c4ccc([nH]4)c(-c4cc(S(=O)(=O)[O-])ccc4F)c4nc(c(-c5cc(S(=O)(=O)[O-])ccc5F)c5ccc2[nH]5)C=C4)C=C3)cc1
REMARK SMILES IDX 5 1 4 2 3 3 1 4 2 5 38 7 39 8 100 9 40 10 99 11 41 12 42 13
REMARK SMILES IDX 43 14 93 15 44 16 98 17 92 18 94 19 45 20 97 21 91 22 90 23
REMARK SMILES IDX 46 25 78 26 58 27 77 28 59 29 62 30 76 31 95 32 60 33 61 34
REMARK SMILES IDX 75 36 96 37 63 38 47 39 48 40 56 41 49 42 55 43 57 44 54 45
REMARK SMILES IDX 50 46 51 47 52 48 53 49 79 50 80 51 88 52 81 53 87 54 89 55
REMARK SMILES IDX 86 56 82 57 83 58 84 59 85 60 64 61 65 62 73 63 66 64 72 65
REMARK SMILES IDX 74 66 71 67 67 68 68 69 69 70 70 71 6 72 7 73 8 74 9 76
REMARK SMILES IDX 10 77 11 78 16 79 12 80 15 81 14 82 13 83 17 84 18 85 19 86
REMARK SMILES IDX 20 88 21 89 24 90 22 91 23 92 37 93 34 94 36 95 35 96 25 97
REMARK SMILES IDX 26 98 27 99 28 101 29 102 33 103 30 104 32 105 31 106
REMARK H PARENT 3 6 94 24 62 35 7 75 19 87 27 100
REMARK Flexibility Score: inf
ROOT
ATOM      1  C   UNL A   1      37.431  21.951  25.497  1.00  0.00     0.042 C 
ENDROOT
BRANCH   1   2
ATOM      2  C   UNL A   1      38.597  22.589  26.222  1.00  0.00     0.118 C 
BRANCH   2   3
ATOM      3  N   UNL A   1      39.869  21.929  25.955  1.00  0.00    -0.352 N 
ATOM      4  O   UNL A   1      42.091  21.736  25.625  1.00  0.00    -0.269 OA
ATOM      5  C   UNL A   1      41.158  22.403  26.067  1.00  0.00     0.251 C 
ATOM      6  H   UNL A   1      39.796  20.998  25.644  1.00  0.00     0.163 HD
BRANCH   5   7
ATOM      7  C   UNL A   1      41.413  23.720  26.693  1.00  0.00     0.039 A 
ATOM      8  C   UNL A   1      41.355  24.882  25.928  1.00  0.00     0.014 A 
ATOM      9  C   UNL A   1      41.714  23.802  28.057  1.00  0.00     0.014 A 
ATOM     10  C   UNL A   1      41.816  26.078  26.453  1.00  0.00     0.010 A 
ATOM     11  C   UNL A   1      42.025  25.043  28.627  1.00  0.00     0.010 A 
ATOM     12  C   UNL A   1      42.112  26.187  27.820  1.00  0.00    -0.014 A 
BRANCH  12  13
ATOM     13  C   UNL A   1      42.408  27.538  28.365  1.00  0.00     0.031 A 
ATOM     14  C   UNL A   1      43.804  28.094  28.377  1.00  0.00     0.074 A 
ATOM     15  C   UNL A   1      41.368  28.287  28.788  1.00  0.00     0.049 A 
ATOM     16  N   UNL A   1      44.216  29.268  28.782  1.00  0.00    -0.248 NA
ATOM     17  C   UNL A   1      44.879  27.223  27.880  1.00  0.00     0.031 C 
ATOM     18  C   UNL A   1      39.970  27.838  28.820  1.00  0.00     0.029 A 
ATOM     19  N   UNL A   1      41.304  29.582  29.228  1.00  0.00    -0.354 N 
ATOM     20  C   UNL A   1      45.594  29.274  28.609  1.00  0.00     0.074 A 
ATOM     21  C   UNL A   1      45.954  27.972  28.087  1.00  0.00     0.031 C 
ATOM     22  C   UNL A   1      39.184  28.862  29.177  1.00  0.00     0.029 A 
ATOM     23  C   UNL A   1      40.023  30.006  29.500  1.00  0.00     0.049 A 
ATOM     24  H   UNL A   1      42.097  30.155  29.339  1.00  0.00     0.167 HD
ATOM     25  C   UNL A   1      46.474  30.278  28.861  1.00  0.00     0.034 A 
ATOM     26  C   UNL A   1      39.570  31.177  29.986  1.00  0.00     0.034 A 
ATOM     27  C   UNL A   1      46.088  31.570  29.381  1.00  0.00     0.049 A 
ATOM     28  C   UNL A   1      40.572  32.254  30.289  1.00  0.00     0.074 A 
ATOM     29  C   UNL A   1      46.892  32.662  29.663  1.00  0.00     0.029 A 
ATOM     30  N   UNL A   1      44.789  31.946  29.702  1.00  0.00    -0.354 N 
ATOM     31  N   UNL A   1      41.875  32.237  30.121  1.00  0.00    -0.248 NA
ATOM     32  C   UNL A   1      40.048  33.502  30.849  1.00  0.00     0.031 C 
ATOM     33  C   UNL A   1      46.090  33.670  30.212  1.00  0.00     0.029 A 
ATOM     34  C   UNL A   1      44.774  33.239  30.204  1.00  0.00     0.049 A 
ATOM     35  H   UNL A   1      43.993  31.376  29.588  1.00  0.00     0.167 HD
ATOM     36  C   UNL A   1      42.323  33.482  30.548  1.00  0.00     0.074 A 
ATOM     37  C   UNL A   1      41.148  34.233  30.942  1.00  0.00     0.031 C 
ATOM     38  C   UNL A   1      43.592  33.960  30.616  1.00  0.00     0.034 A 
BRANCH  25  39
ATOM     39  C   UNL A   1      47.940  30.001  28.623  1.00  0.00     0.023 A 
ATOM     40  C   UNL A   1      48.727  29.300  29.554  1.00  0.00     0.031 A 
ATOM     41  C   UNL A   1      48.561  30.445  27.440  1.00  0.00     0.131 A 
ATOM     42  C   UNL A   1      50.097  29.112  29.313  1.00  0.00     0.055 A 
ATOM     43  C   UNL A   1      49.908  30.193  27.175  1.00  0.00     0.041 A 
ATOM     44  F   UNL A   1      47.867  31.139  26.524  1.00  0.00    -0.206 F 
ATOM     45  C   UNL A   1      50.688  29.532  28.119  1.00  0.00     0.022 A 
BRANCH  42  46
ATOM     46  S   UNL A   1      51.124  28.410  30.634  1.00  0.00     0.124 S 
ATOM     47  O   UNL A   1      50.956  29.396  31.699  1.00  0.00    -0.237 OA
ATOM     48  O   UNL A   1      50.504  27.111  30.864  1.00  0.00    -0.237 OA
ATOM     49  O   UNL A   1      52.462  28.366  30.044  1.00  0.00    -0.744 OA
ENDBRANCH  42  46
ENDBRANCH  25  39
BRANCH  26  50
ATOM     50  C   UNL A   1      38.118  31.367  30.265  1.00  0.00     0.023 A 
ATOM     51  C   UNL A   1      37.291  32.058  29.368  1.00  0.00     0.031 A 
ATOM     52  C   UNL A   1      37.543  30.888  31.458  1.00  0.00     0.131 A 
ATOM     53  C   UNL A   1      35.947  32.293  29.698  1.00  0.00     0.055 A 
ATOM     54  C   UNL A   1      36.191  31.068  31.751  1.00  0.00     0.041 A 
ATOM     55  F   UNL A   1      38.288  30.219  32.351  1.00  0.00    -0.206 F 
ATOM     56  C   UNL A   1      35.387  31.788  30.875  1.00  0.00     0.022 A 
BRANCH  53  57
ATOM     57  S   UNL A   1      34.962  33.361  28.613  1.00  0.00     0.124 S 
ATOM     58  O   UNL A   1      34.792  34.550  29.440  1.00  0.00    -0.237 OA
ATOM     59  O   UNL A   1      35.839  33.505  27.455  1.00  0.00    -0.237 OA
ATOM     60  O   UNL A   1      33.748  32.582  28.380  1.00  0.00    -0.744 OA
ENDBRANCH  53  57
ENDBRANCH  26  50
BRANCH  38  61
ATOM     61  C   UNL A   1      43.745  35.374  31.118  1.00  0.00     0.023 A 
ATOM     62  C   UNL A   1      43.750  35.667  32.493  1.00  0.00     0.031 A 
ATOM     63  C   UNL A   1      43.837  36.443  30.211  1.00  0.00     0.131 A 
ATOM     64  C   UNL A   1      43.770  37.002  32.922  1.00  0.00     0.055 A 
ATOM     65  C   UNL A   1      43.923  37.766  30.645  1.00  0.00     0.041 A 
ATOM     66  F   UNL A   1      43.835  36.219  28.887  1.00  0.00    -0.206 F 
ATOM     67  C   UNL A   1      43.872  38.053  32.007  1.00  0.00     0.022 A 
BRANCH  64  68
ATOM     68  S   UNL A   1      43.544  37.350  34.687  1.00  0.00     0.124 S 
ATOM     69  O   UNL A   1      44.373  38.536  34.871  1.00  0.00    -0.237 OA
ATOM     70  O   UNL A   1      42.103  37.557  34.782  1.00  0.00    -0.237 OA
ATOM     71  O   UNL A   1      44.040  36.139  35.340  1.00  0.00    -0.744 OA
ENDBRANCH  64  68
ENDBRANCH  38  61
ENDBRANCH  12  13
ENDBRANCH   5   7
ENDBRANCH   2   3
ENDBRANCH   1   2
BRANCH   1  72
ATOM     72  C   UNL A   1      36.865  22.791  24.375  1.00  0.00     0.117 C 
BRANCH  72  73
ATOM     73  N   UNL A   1      36.085  23.926  24.825  1.00  0.00    -0.356 N 
ATOM     74  C   UNL A   1      34.851  24.352  24.443  1.00  0.00     0.224 C 
ATOM     75  H   UNL A   1      36.517  24.475  25.518  1.00  0.00     0.163 HD
ATOM     76  O   UNL A   1      34.398  25.332  25.036  1.00  0.00    -0.275 OA
BRANCH  74  77
ATOM     77  C   UNL A   1      34.109  23.696  23.278  1.00  0.00     0.094 C 
ATOM     78  C   UNL A   1      33.540  22.274  23.568  1.00  0.00     0.002 C 
ATOM     79  C   UNL A   1      32.810  24.482  22.910  1.00  0.00     0.094 C 
ATOM     80  C   UNL A   1      32.616  22.247  24.787  1.00  0.00     0.005 C 
ATOM     81  C   UNL A   1      32.545  22.125  22.443  1.00  0.00     0.009 C 
ATOM     82  C   UNL A   1      31.748  23.366  22.830  1.00  0.00     0.002 C 
ATOM     83  C   UNL A   1      31.362  22.973  24.277  1.00  0.00     0.005 C 
BRANCH  79  84
ATOM     84  C   UNL A   1      32.893  25.544  21.791  1.00  0.00     0.229 C 
ATOM     85  O   UNL A   1      33.165  25.152  20.645  1.00  0.00    -0.274 OA
ATOM     86  N   UNL A   1      32.592  26.865  21.900  1.00  0.00    -0.317 N 
ATOM     87  H   UNL A   1      32.353  27.296  21.047  1.00  0.00     0.170 HD
BRANCH  86  88
ATOM     88  C   UNL A   1      32.561  27.708  22.983  1.00  0.00     0.108 A 
ATOM     89  S   UNL A   1      33.918  28.704  23.232  1.00  0.00    -0.122 S 
ATOM     90  C   UNL A   1      31.454  28.144  23.730  1.00  0.00     0.078 A 
ATOM     91  C   UNL A   1      33.382  28.995  24.811  1.00  0.00     0.011 A 
ATOM     92  C   UNL A   1      32.008  28.808  24.931  1.00  0.00    -0.019 A 
ATOM     93  C   UNL A   1      34.332  29.404  25.897  1.00  0.00     0.047 C 
ATOM     94  C   UNL A   1      31.369  29.208  26.236  1.00  0.00     0.037 C 
ATOM     95  C   UNL A   1      33.668  29.214  27.263  1.00  0.00     0.006 C 
ATOM     96  C   UNL A   1      32.301  29.887  27.248  1.00  0.00     0.005 C 
BRANCH  90  97
ATOM     97  C   UNL A   1      30.109  27.760  23.203  1.00  0.00     0.254 C 
ATOM     98  O   UNL A   1      29.777  26.565  23.208  1.00  0.00    -0.269 OA
ATOM     99  N   UNL A   1      29.139  28.579  22.687  1.00  0.00    -0.349 N 
ATOM    100  H   UNL A   1      28.306  28.108  22.458  1.00  0.00     0.164 HD
BRANCH  99 101
ATOM    101  C   UNL A   1      29.097  29.987  22.415  1.00  0.00     0.082 C 
ATOM    102  C   UNL A   1      28.105  30.327  21.304  1.00  0.00     0.025 C 
ATOM    103  C   UNL A   1      28.861  30.868  23.636  1.00  0.00     0.025 C 
ATOM    104  C   UNL A   1      28.259  31.786  20.876  1.00  0.00     0.002 C 
ATOM    105  C   UNL A   1      29.122  32.322  23.230  1.00  0.00     0.002 C 
ATOM    106  C   UNL A   1      28.241  32.759  22.058  1.00  0.00     0.000 C 
ENDBRANCH  99 101
ENDBRANCH  90  97
ENDBRANCH  86  88
ENDBRANCH  79  84
ENDBRANCH  74  77
ENDBRANCH  72  73
ENDBRANCH   1  72
TORSDOF 17
ENDMDL
MODEL 3
REMARK VINA RESULT:     -12.5      2.554      3.050
REMARK SMILES O=C(NCCCNC(=O)[C@H]1[C@H]2CC[C@H](C2)[C@@H]1C(=O)Nc1sc2c(c1C(=O)NC1CCCCC1)CCCC2)c1ccc(-c2c3nc(c(-c4cc(S(=O)(=O)[O-])ccc4F)c4ccc([nH]4)c(-c4cc(S(=O)(=O)[O-])ccc4F)c4nc(c(-c5cc(S(=O)(=O)[O-])ccc5F)c5ccc2[nH]5)C=C4)C=C3)cc1
REMARK SMILES IDX 5 1 4 2 3 3 1 4 2 5 38 7 39 8 100 9 40 10 99 11 41 12 42 13
REMARK SMILES IDX 43 14 93 15 44 16 98 17 92 18 94 19 45 20 97 21 91 22 90 23
REMARK SMILES IDX 46 25 78 26 58 27 77 28 59 29 62 30 76 31 95 32 60 33 61 34
REMARK SMILES IDX 75 36 96 37 63 38 47 39 48 40 56 41 49 42 55 43 57 44 54 45
REMARK SMILES IDX 50 46 51 47 52 48 53 49 79 50 80 51 88 52 81 53 87 54 89 55
REMARK SMILES IDX 86 56 82 57 83 58 84 59 85 60 64 61 65 62 73 63 66 64 72 65
REMARK SMILES IDX 74 66 71 67 67 68 68 69 69 70 70 71 6 72 7 73 8 74 9 76
REMARK SMILES IDX 10 77 11 78 16 79 12 80 15 81 14 82 13 83 17 84 18 85 19 86
REMARK SMILES IDX 20 88 21 89 24 90 22 91 23 92 37 93 34 94 36 95 35 96 25 97
REMARK SMILES IDX 26 98 27 99 28 101 29 102 33 103 30 104 32 105 31 106
REMARK H PARENT 3 6 94 24 62 35 7 75 19 87 27 100
REMARK Flexibility Score: inf
ROOT
ATOM      1  C   UNL A   1      37.646  21.966  25.592  1.00  0.00     0.042 C 
ENDROOT
BRANCH   1   2
ATOM      2  C   UNL A   1      38.782  22.748  26.215  1.00  0.00     0.118 C 
BRANCH   2   3
ATOM      3  N   UNL A   1      40.087  22.132  26.003  1.00  0.00    -0.352 N 
ATOM      4  O   UNL A   1      42.321  22.022  25.724  1.00  0.00    -0.269 OA
ATOM      5  C   UNL A   1      41.351  22.666  26.117  1.00  0.00     0.251 C 
ATOM      6  H   UNL A   1      40.059  21.186  25.734  1.00  0.00     0.163 HD
BRANCH   5   7
ATOM      7  C   UNL A   1      41.537  24.020  26.686  1.00  0.00     0.039 A 
ATOM      8  C   UNL A   1      41.498  25.139  25.859  1.00  0.00     0.014 A 
ATOM      9  C   UNL A   1      41.754  24.180  28.059  1.00  0.00     0.014 A 
ATOM     10  C   UNL A   1      41.898  26.372  26.346  1.00  0.00     0.010 A 
ATOM     11  C   UNL A   1      42.001  25.457  28.580  1.00  0.00     0.010 A 
ATOM     12  C   UNL A   1      42.109  26.560  27.720  1.00  0.00    -0.014 A 
BRANCH  12  13
ATOM     13  C   UNL A   1      42.340  27.945  28.209  1.00  0.00     0.031 A 
ATOM     14  C   UNL A   1      41.218  28.793  28.737  1.00  0.00     0.074 A 
ATOM     15  C   UNL A   1      43.611  28.398  28.230  1.00  0.00     0.049 A 
ATOM     16  N   UNL A   1      41.268  30.002  29.233  1.00  0.00    -0.248 NA
ATOM     17  C   UNL A   1      39.866  28.218  28.697  1.00  0.00     0.031 C 
ATOM     18  C   UNL A   1      44.776  27.653  27.737  1.00  0.00     0.029 A 
ATOM     19  N   UNL A   1      44.151  29.560  28.716  1.00  0.00    -0.354 N 
ATOM     20  C   UNL A   1      39.958  30.343  29.548  1.00  0.00     0.074 A 
ATOM     21  C   UNL A   1      39.130  29.220  29.159  1.00  0.00     0.031 C 
ATOM     22  C   UNL A   1      45.892  28.338  28.018  1.00  0.00     0.029 A 
ATOM     23  C   UNL A   1      45.522  29.612  28.613  1.00  0.00     0.049 A 
ATOM     24  H   UNL A   1      43.610  30.287  29.101  1.00  0.00     0.167 HD
ATOM     25  C   UNL A   1      39.495  31.488  30.113  1.00  0.00     0.034 A 
ATOM     26  C   UNL A   1      46.389  30.591  28.933  1.00  0.00     0.034 A 
ATOM     27  C   UNL A   1      40.344  32.594  30.494  1.00  0.00     0.049 A 
ATOM     28  C   UNL A   1      45.842  31.859  29.522  1.00  0.00     0.074 A 
ATOM     29  C   UNL A   1      39.985  33.795  31.083  1.00  0.00     0.029 A 
ATOM     30  N   UNL A   1      41.722  32.639  30.322  1.00  0.00    -0.354 N 
ATOM     31  N   UNL A   1      44.597  32.164  29.809  1.00  0.00    -0.248 NA
ATOM     32  C   UNL A   1      46.811  32.915  29.827  1.00  0.00     0.031 C 
ATOM     33  C   UNL A   1      41.132  34.588  31.205  1.00  0.00     0.029 A 
ATOM     34  C   UNL A   1      42.222  33.855  30.765  1.00  0.00     0.049 A 
ATOM     35  H   UNL A   1      42.266  31.912  29.940  1.00  0.00     0.167 HD
ATOM     36  C   UNL A   1      44.638  33.448  30.339  1.00  0.00     0.074 A 
ATOM     37  C   UNL A   1      46.033  33.840  30.367  1.00  0.00     0.031 C 
ATOM     38  C   UNL A   1      43.615  34.236  30.759  1.00  0.00     0.034 A 
BRANCH  25  39
ATOM     39  C   UNL A   1      38.003  31.620  30.308  1.00  0.00     0.023 A 
ATOM     40  C   UNL A   1      37.194  32.342  29.412  1.00  0.00     0.031 A 
ATOM     41  C   UNL A   1      37.377  31.009  31.411  1.00  0.00     0.131 A 
ATOM     42  C   UNL A   1      35.820  32.481  29.663  1.00  0.00     0.055 A 
ATOM     43  C   UNL A   1      35.999  31.091  31.616  1.00  0.00     0.041 A 
ATOM     44  F   UNL A   1      38.098  30.324  32.312  1.00  0.00    -0.206 F 
ATOM     45  C   UNL A   1      35.212  31.839  30.745  1.00  0.00     0.022 A 
BRANCH  42  46
ATOM     46  S   UNL A   1      34.854  33.605  28.617  1.00  0.00     0.124 S 
ATOM     47  O   UNL A   1      35.589  33.546  27.356  1.00  0.00    -0.237 OA
ATOM     48  O   UNL A   1      33.535  32.985  28.616  1.00  0.00    -0.237 OA
ATOM     49  O   UNL A   1      34.940  34.886  29.318  1.00  0.00    -0.744 OA
ENDBRANCH  42  46
ENDBRANCH  25  39
BRANCH  26  50
ATOM     50  C   UNL A   1      47.845  30.430  28.654  1.00  0.00     0.023 A 
ATOM     51  C   UNL A   1      48.694  29.787  29.567  1.00  0.00     0.031 A 
ATOM     52  C   UNL A   1      48.417  30.953  27.479  1.00  0.00     0.131 A 
ATOM     53  C   UNL A   1      50.073  29.725  29.315  1.00  0.00     0.055 A 
ATOM     54  C   UNL A   1      49.778  30.831  27.201  1.00  0.00     0.041 A 
ATOM     55  F   UNL A   1      47.651  31.576  26.569  1.00  0.00    -0.206 F 
ATOM     56  C   UNL A   1      50.619  30.227  28.130  1.00  0.00     0.022 A 
BRANCH  53  57
ATOM     57  S   UNL A   1      51.162  29.070  30.607  1.00  0.00     0.124 S 
ATOM     58  O   UNL A   1      51.666  27.852  29.982  1.00  0.00    -0.237 OA
ATOM     59  O   UNL A   1      52.125  30.154  30.767  1.00  0.00    -0.237 OA
ATOM     60  O   UNL A   1      50.262  28.865  31.739  1.00  0.00    -0.744 OA
ENDBRANCH  53  57
ENDBRANCH  26  50
BRANCH  38  61
ATOM     61  C   UNL A   1      43.997  35.591  31.301  1.00  0.00     0.023 A 
ATOM     62  C   UNL A   1      43.995  36.735  30.484  1.00  0.00     0.031 A 
ATOM     63  C   UNL A   1      44.416  35.728  32.636  1.00  0.00     0.131 A 
ATOM     64  C   UNL A   1      44.473  37.953  30.987  1.00  0.00     0.055 A 
ATOM     65  C   UNL A   1      44.828  36.958  33.150  1.00  0.00     0.041 A 
ATOM     66  F   UNL A   1      44.439  34.667  33.458  1.00  0.00    -0.206 F 
ATOM     67  C   UNL A   1      44.876  38.075  32.320  1.00  0.00     0.022 A 
BRANCH  64  68
ATOM     68  S   UNL A   1      44.670  39.347  29.845  1.00  0.00     0.124 S 
ATOM     69  O   UNL A   1      44.319  38.741  28.564  1.00  0.00    -0.237 OA
ATOM     70  O   UNL A   1      43.720  40.319  30.373  1.00  0.00    -0.237 OA
ATOM     71  O   UNL A   1      46.078  39.713  29.992  1.00  0.00    -0.744 OA
ENDBRANCH  64  68
ENDBRANCH  38  61
ENDBRANCH  12  13
ENDBRANCH   5   7
ENDBRANCH   2   3
ENDBRANCH   1   2
BRANCH   1  72
ATOM     72  C   UNL A   1      36.929  22.695  24.478  1.00  0.00     0.117 C 
BRANCH  72  73
ATOM     73  N   UNL A   1      36.175  23.850  24.921  1.00  0.00    -0.356 N 
ATOM     74  C   UNL A   1      34.938  24.285  24.560  1.00  0.00     0.224 C 
ATOM     75  H   UNL A   1      36.631  24.410  25.590  1.00  0.00     0.163 HD
ATOM     76  O   UNL A   1      34.512  25.284  25.140  1.00  0.00    -0.275 OA
BRANCH  74  77
ATOM     77  C   UNL A   1      34.159  23.611  23.429  1.00  0.00     0.094 C 
ATOM     78  C   UNL A   1      33.566  22.211  23.771  1.00  0.00     0.002 C 
ATOM     79  C   UNL A   1      32.870  24.414  23.063  1.00  0.00     0.094 C 
ATOM     80  C   UNL A   1      32.666  22.240  25.008  1.00  0.00     0.005 C 
ATOM     81  C   UNL A   1      32.545  22.052  22.671  1.00  0.00     0.009 C 
ATOM     82  C   UNL A   1      31.783  23.321  23.036  1.00  0.00     0.002 C 
ATOM     83  C   UNL A   1      31.418  22.978  24.502  1.00  0.00     0.005 C 
BRANCH  79  84
ATOM     84  C   UNL A   1      32.953  25.442  21.912  1.00  0.00     0.229 C 
ATOM     85  O   UNL A   1      33.229  25.015  20.779  1.00  0.00    -0.274 OA
ATOM     86  N   UNL A   1      32.649  26.765  21.979  1.00  0.00    -0.317 N 
ATOM     87  H   UNL A   1      32.412  27.168  21.113  1.00  0.00     0.170 HD
BRANCH  86  88
ATOM     88  C   UNL A   1      32.614  27.640  23.035  1.00  0.00     0.108 A 
ATOM     89  S   UNL A   1      33.982  28.622  23.277  1.00  0.00    -0.122 S 
ATOM     90  C   UNL A   1      31.502  28.117  23.750  1.00  0.00     0.078 A 
ATOM     91  C   UNL A   1      33.424  28.970  24.838  1.00  0.00     0.011 A 
ATOM     92  C   UNL A   1      32.046  28.808  24.940  1.00  0.00    -0.019 A 
ATOM     93  C   UNL A   1      34.363  29.397  25.927  1.00  0.00     0.047 C 
ATOM     94  C   UNL A   1      31.391  29.258  26.220  1.00  0.00     0.037 C 
ATOM     95  C   UNL A   1      33.673  29.259  27.287  1.00  0.00     0.006 C 
ATOM     96  C   UNL A   1      32.317  29.953  27.227  1.00  0.00     0.005 C 
BRANCH  90  97
ATOM     97  C   UNL A   1      30.160  27.737  23.212  1.00  0.00     0.254 C 
ATOM     98  O   UNL A   1      29.829  26.542  23.198  1.00  0.00    -0.269 OA
ATOM     99  N   UNL A   1      29.191  28.562  22.703  1.00  0.00    -0.349 N 
ATOM    100  H   UNL A   1      28.359  28.093  22.463  1.00  0.00     0.164 HD
BRANCH  99 101
ATOM    101  C   UNL A   1      29.147  29.973  22.450  1.00  0.00     0.082 C 
ATOM    102  C   UNL A   1      28.138  30.330  21.359  1.00  0.00     0.025 C 
ATOM    103  C   UNL A   1      28.932  30.839  23.686  1.00  0.00     0.025 C 
ATOM    104  C   UNL A   1      28.289  31.795  20.949  1.00  0.00     0.002 C 
ATOM    105  C   UNL A   1      29.190  32.298  23.295  1.00  0.00     0.002 C 
ATOM    106  C   UNL A   1      28.291  32.752  22.143  1.00  0.00     0.000 C 
ENDBRANCH  99 101
ENDBRANCH  90  97
ENDBRANCH  86  88
ENDBRANCH  79  84
ENDBRANCH  74  77
ENDBRANCH  72  73
ENDBRANCH   1  72
TORSDOF 17
ENDMDL
