MODEL 1
REMARK VINA RESULT:     -11.9      0.000      0.000
REMARK SMILES Cc1n[nH]c(CCC(=O)NCCCNC(=O)c2ccc(-c3c4nc(c(-c5cc(S(=O)(=O)[O-])ccc5F)c5ccc([nH]5)c(-c5cc(S(=O)(=O)[O-])ccc5F)c5nc(c(-c6cc(S(=O)(=O)[O-])ccc6F)c6ccc3[nH]6)C=C5)C=C4)cc2)c1C
REMARK SMILES IDX 12 1 11 2 10 3 8 4 9 5 7 7 6 8 5 9 1 10 2 11 3 12 80 13 4 14
REMARK SMILES IDX 81 15 13 17 14 18 15 19 16 21 17 22 18 23 79 24 19 25 78 26
REMARK SMILES IDX 20 27 21 28 22 29 72 30 23 31 77 32 71 33 73 34 24 35 76 36
REMARK SMILES IDX 70 37 69 38 25 40 57 41 37 42 56 43 38 44 41 45 55 46 74 47
REMARK SMILES IDX 39 48 40 49 54 51 75 52 42 53 26 54 27 55 35 56 28 57 34 58
REMARK SMILES IDX 36 59 33 60 29 61 30 62 31 63 32 64 58 65 59 66 67 67 60 68
REMARK SMILES IDX 66 69 68 70 65 71 61 72 62 73 63 74 64 75 43 76 44 77 52 78
REMARK SMILES IDX 45 79 51 80 53 81 50 82 46 83 47 84 48 85 49 86
REMARK H PARENT 10 6 4 16 14 20 73 39 41 50
REMARK Flexibility Score: inf
ROOT
ATOM      1  C   UNL A   1      34.409  35.561  28.464  1.00  0.00     0.042 C 
ENDROOT
BRANCH   1   2
ATOM      2  C   UNL A   1      33.175  35.760  29.342  1.00  0.00     0.117 C 
BRANCH   2   3
ATOM      3  N   UNL A   1      33.189  36.999  30.096  1.00  0.00    -0.356 N 
ATOM      4  C   UNL A   1      33.133  37.170  31.449  1.00  0.00     0.220 C 
ATOM      5  O   UNL A   1      33.241  38.306  31.912  1.00  0.00    -0.275 OA
ATOM      6  H   UNL A   1      33.247  37.825  29.562  1.00  0.00     0.163 HD
BRANCH   4   7
ATOM      7  C   UNL A   1      32.930  35.983  32.371  1.00  0.00     0.106 C 
BRANCH   7   8
ATOM      8  C   UNL A   1      34.226  35.602  33.094  1.00  0.00     0.066 C 
BRANCH   8   9
ATOM      9  C   UNL A   1      34.758  34.298  32.603  1.00  0.00     0.039 A 
ATOM     10  C   UNL A   1      36.646  31.165  32.445  1.00  0.00     0.069 C 
ATOM     11  C   UNL A   1      35.756  32.347  32.316  1.00  0.00     0.062 A 
ATOM     12  N   UNL A   1      34.520  32.189  31.824  1.00  0.00    -0.181 NA
ATOM     13  C   UNL A   1      35.994  33.689  32.730  1.00  0.00    -0.007 A 
ATOM     14  N   UNL A   1      33.966  33.400  31.945  1.00  0.00    -0.282 N 
ATOM     15  C   UNL A   1      37.250  34.260  33.280  1.00  0.00     0.048 C 
ATOM     16  H   UNL A   1      33.075  33.623  31.593  1.00  0.00     0.190 HD
ENDBRANCH   8   9
ENDBRANCH   7   8
ENDBRANCH   4   7
ENDBRANCH   2   3
ENDBRANCH   1   2
BRANCH   1  17
ATOM     17  C   UNL A   1      35.170  34.281  28.810  1.00  0.00     0.118 C 
BRANCH  17  18
ATOM     18  N   UNL A   1      34.566  33.116  28.170  1.00  0.00    -0.352 N 
ATOM     19  C   UNL A   1      34.899  31.797  27.956  1.00  0.00     0.251 C 
ATOM     20  H   UNL A   1      33.685  33.333  27.789  1.00  0.00     0.163 HD
ATOM     21  O   UNL A   1      34.148  31.149  27.249  1.00  0.00    -0.269 OA
BRANCH  19  22
ATOM     22  C   UNL A   1      36.105  31.144  28.533  1.00  0.00     0.039 A 
ATOM     23  C   UNL A   1      37.242  31.931  28.798  1.00  0.00     0.014 A 
ATOM     24  C   UNL A   1      36.162  29.783  28.793  1.00  0.00     0.014 A 
ATOM     25  C   UNL A   1      38.436  31.320  29.192  1.00  0.00     0.010 A 
ATOM     26  C   UNL A   1      37.294  29.198  29.303  1.00  0.00     0.010 A 
ATOM     27  C   UNL A   1      38.459  29.936  29.379  1.00  0.00    -0.014 A 
BRANCH  27  28
ATOM     28  C   UNL A   1      39.679  29.194  29.638  1.00  0.00     0.031 A 
ATOM     29  C   UNL A   1      40.000  28.943  31.051  1.00  0.00     0.074 A 
ATOM     30  C   UNL A   1      40.376  28.554  28.674  1.00  0.00     0.049 A 
ATOM     31  N   UNL A   1      40.935  29.501  31.737  1.00  0.00    -0.248 NA
ATOM     32  C   UNL A   1      39.130  28.051  31.823  1.00  0.00     0.031 C 
ATOM     33  C   UNL A   1      40.035  28.402  27.254  1.00  0.00     0.029 A 
ATOM     34  N   UNL A   1      41.495  27.789  28.804  1.00  0.00    -0.354 N 
ATOM     35  C   UNL A   1      40.932  28.864  32.968  1.00  0.00     0.074 A 
ATOM     36  C   UNL A   1      39.690  28.137  33.033  1.00  0.00     0.031 C 
ATOM     37  C   UNL A   1      40.795  27.426  26.712  1.00  0.00     0.029 A 
ATOM     38  C   UNL A   1      41.784  27.011  27.691  1.00  0.00     0.049 A 
ATOM     39  H   UNL A   1      42.051  27.786  29.616  1.00  0.00     0.167 HD
ATOM     40  C   UNL A   1      42.058  28.818  33.731  1.00  0.00     0.034 A 
ATOM     41  C   UNL A   1      42.763  26.082  27.574  1.00  0.00     0.034 A 
ATOM     42  C   UNL A   1      43.080  29.704  33.210  1.00  0.00     0.049 A 
ATOM     43  C   UNL A   1      43.814  26.440  28.557  1.00  0.00     0.074 A 
ATOM     44  C   UNL A   1      43.140  31.056  32.929  1.00  0.00     0.029 A 
ATOM     45  N   UNL A   1      44.135  29.139  32.525  1.00  0.00    -0.354 N 
ATOM     46  N   UNL A   1      44.518  27.537  28.485  1.00  0.00    -0.248 NA
ATOM     47  C   UNL A   1      43.799  25.811  29.869  1.00  0.00     0.031 C 
ATOM     48  C   UNL A   1      43.895  31.151  31.723  1.00  0.00     0.029 A 
ATOM     49  C   UNL A   1      44.313  29.866  31.371  1.00  0.00     0.049 A 
ATOM     50  H   UNL A   1      44.664  28.360  32.809  1.00  0.00     0.167 HD
ATOM     51  C   UNL A   1      44.647  27.970  29.795  1.00  0.00     0.074 A 
ATOM     52  C   UNL A   1      44.314  26.802  30.604  1.00  0.00     0.031 C 
ATOM     53  C   UNL A   1      44.728  29.301  30.097  1.00  0.00     0.034 A 
BRANCH  40  54
ATOM     54  C   UNL A   1      42.371  27.767  34.763  1.00  0.00     0.023 A 
ATOM     55  C   UNL A   1      43.131  26.659  34.343  1.00  0.00     0.031 A 
ATOM     56  C   UNL A   1      41.776  27.660  36.039  1.00  0.00     0.131 A 
ATOM     57  C   UNL A   1      43.219  25.502  35.133  1.00  0.00     0.055 A 
ATOM     58  C   UNL A   1      41.936  26.538  36.858  1.00  0.00     0.041 A 
ATOM     59  F   UNL A   1      40.931  28.580  36.519  1.00  0.00    -0.206 F 
ATOM     60  C   UNL A   1      42.638  25.438  36.395  1.00  0.00     0.022 A 
BRANCH  57  61
ATOM     61  S   UNL A   1      43.950  24.019  34.395  1.00  0.00     0.124 S 
ATOM     62  O   UNL A   1      42.786  23.149  34.263  1.00  0.00    -0.237 OA
ATOM     63  O   UNL A   1      44.507  24.544  33.154  1.00  0.00    -0.237 OA
ATOM     64  O   UNL A   1      44.932  23.596  35.391  1.00  0.00    -0.744 OA
ENDBRANCH  57  61
ENDBRANCH  40  54
BRANCH  41  65
ATOM     65  C   UNL A   1      42.732  24.824  26.789  1.00  0.00     0.023 A 
ATOM     66  C   UNL A   1      43.806  24.418  25.976  1.00  0.00     0.031 A 
ATOM     67  C   UNL A   1      41.710  23.873  27.016  1.00  0.00     0.131 A 
ATOM     68  C   UNL A   1      43.830  23.116  25.428  1.00  0.00     0.055 A 
ATOM     69  C   UNL A   1      41.730  22.593  26.460  1.00  0.00     0.041 A 
ATOM     70  F   UNL A   1      40.697  24.127  27.860  1.00  0.00    -0.206 F 
ATOM     71  C   UNL A   1      42.799  22.205  25.669  1.00  0.00     0.022 A 
BRANCH  68  72
ATOM     72  S   UNL A   1      45.284  22.546  24.495  1.00  0.00     0.124 S 
ATOM     73  O   UNL A   1      44.686  21.665  23.498  1.00  0.00    -0.237 OA
ATOM     74  O   UNL A   1      45.850  23.796  24.000  1.00  0.00    -0.237 OA
ATOM     75  O   UNL A   1      46.095  21.870  25.508  1.00  0.00    -0.744 OA
ENDBRANCH  68  72
ENDBRANCH  41  65
BRANCH  53  76
ATOM     76  C   UNL A   1      45.023  30.280  28.974  1.00  0.00     0.023 A 
ATOM     77  C   UNL A   1      46.318  30.687  28.581  1.00  0.00     0.031 A 
ATOM     78  C   UNL A   1      43.941  30.727  28.194  1.00  0.00     0.131 A 
ATOM     79  C   UNL A   1      46.491  31.521  27.459  1.00  0.00     0.055 A 
ATOM     80  C   UNL A   1      44.117  31.534  27.069  1.00  0.00     0.041 A 
ATOM     81  F   UNL A   1      42.686  30.355  28.494  1.00  0.00    -0.206 F 
ATOM     82  C   UNL A   1      45.394  31.940  26.701  1.00  0.00     0.022 A 
BRANCH  79  83
ATOM     83  S   UNL A   1      48.155  32.086  26.975  1.00  0.00     0.124 S 
ATOM     84  O   UNL A   1      47.891  33.100  25.962  1.00  0.00    -0.237 OA
ATOM     85  O   UNL A   1      48.705  32.571  28.238  1.00  0.00    -0.237 OA
ATOM     86  O   UNL A   1      48.791  30.869  26.464  1.00  0.00    -0.744 OA
ENDBRANCH  79  83
ENDBRANCH  53  76
ENDBRANCH  27  28
ENDBRANCH  19  22
ENDBRANCH  17  18
ENDBRANCH   1  17
TORSDOF 15
ENDMDL
MODEL 2
REMARK VINA RESULT:     -11.2      1.800      2.345
REMARK SMILES Cc1n[nH]c(CCC(=O)NCCCNC(=O)c2ccc(-c3c4nc(c(-c5cc(S(=O)(=O)[O-])ccc5F)c5ccc([nH]5)c(-c5cc(S(=O)(=O)[O-])ccc5F)c5nc(c(-c6cc(S(=O)(=O)[O-])ccc6F)c6ccc3[nH]6)C=C5)C=C4)cc2)c1C
REMARK SMILES IDX 12 1 11 2 10 3 8 4 9 5 7 7 6 8 5 9 1 10 2 11 3 12 80 13 4 14
REMARK SMILES IDX 81 15 13 17 14 18 15 19 16 21 17 22 18 23 79 24 19 25 78 26
REMARK SMILES IDX 20 27 21 28 22 29 72 30 23 31 77 32 71 33 73 34 24 35 76 36
REMARK SMILES IDX 70 37 69 38 25 40 57 41 37 42 56 43 38 44 41 45 55 46 74 47
REMARK SMILES IDX 39 48 40 49 54 51 75 52 42 53 26 54 27 55 35 56 28 57 34 58
REMARK SMILES IDX 36 59 33 60 29 61 30 62 31 63 32 64 58 65 59 66 67 67 60 68
REMARK SMILES IDX 66 69 68 70 65 71 61 72 62 73 63 74 64 75 43 76 44 77 52 78
REMARK SMILES IDX 45 79 51 80 53 81 50 82 46 83 47 84 48 85 49 86
REMARK H PARENT 10 6 4 16 14 20 73 39 41 50
REMARK Flexibility Score: inf
ROOT
ATOM      1  C   UNL A   1      34.079  34.926  30.280  1.00  0.00     0.042 C 
ENDROOT
BRANCH   1   2
ATOM      2  C   UNL A   1      33.960  35.093  31.793  1.00  0.00     0.117 C 
BRANCH   2   3
ATOM      3  N   UNL A   1      35.221  35.383  32.449  1.00  0.00    -0.356 N 
ATOM      4  C   UNL A   1      36.003  34.545  33.191  1.00  0.00     0.220 C 
ATOM      5  O   UNL A   1      37.091  34.952  33.602  1.00  0.00    -0.275 OA
ATOM      6  H   UNL A   1      35.557  36.303  32.346  1.00  0.00     0.163 HD
BRANCH   4   7
ATOM      7  C   UNL A   1      35.540  33.138  33.515  1.00  0.00     0.106 C 
BRANCH   7   8
ATOM      8  C   UNL A   1      36.411  32.084  32.824  1.00  0.00     0.066 C 
BRANCH   8   9
ATOM      9  C   UNL A   1      37.621  31.765  33.635  1.00  0.00     0.039 A 
ATOM     10  C   UNL A   1      40.887  32.087  35.259  1.00  0.00     0.069 C 
ATOM     11  C   UNL A   1      39.535  31.756  34.742  1.00  0.00     0.062 A 
ATOM     12  N   UNL A   1      38.662  31.125  35.538  1.00  0.00    -0.181 NA
ATOM     13  C   UNL A   1      38.957  32.093  33.484  1.00  0.00    -0.007 A 
ATOM     14  N   UNL A   1      37.537  31.082  34.815  1.00  0.00    -0.282 N 
ATOM     15  C   UNL A   1      39.618  32.753  32.329  1.00  0.00     0.048 C 
ATOM     16  H   UNL A   1      36.727  30.604  35.106  1.00  0.00     0.190 HD
ENDBRANCH   8   9
ENDBRANCH   7   8
ENDBRANCH   4   7
ENDBRANCH   2   3
ENDBRANCH   1   2
BRANCH   1  17
ATOM     17  C   UNL A   1      35.053  33.813  29.891  1.00  0.00     0.118 C 
BRANCH  17  18
ATOM     18  N   UNL A   1      34.392  32.786  29.092  1.00  0.00    -0.352 N 
ATOM     19  C   UNL A   1      34.756  31.637  28.424  1.00  0.00     0.251 C 
ATOM     20  H   UNL A   1      33.427  32.962  29.007  1.00  0.00     0.163 HD
ATOM     21  O   UNL A   1      33.896  31.098  27.751  1.00  0.00    -0.269 OA
BRANCH  19  22
ATOM     22  C   UNL A   1      36.117  31.042  28.485  1.00  0.00     0.039 A 
ATOM     23  C   UNL A   1      36.330  29.772  27.914  1.00  0.00     0.014 A 
ATOM     24  C   UNL A   1      37.180  31.676  29.110  1.00  0.00     0.014 A 
ATOM     25  C   UNL A   1      37.555  29.123  28.094  1.00  0.00     0.010 A 
ATOM     26  C   UNL A   1      38.422  31.097  29.177  1.00  0.00     0.010 A 
ATOM     27  C   UNL A   1      38.574  29.781  28.787  1.00  0.00    -0.014 A 
BRANCH  27  28
ATOM     28  C   UNL A   1      39.822  29.137  29.156  1.00  0.00     0.031 A 
ATOM     29  C   UNL A   1      40.059  28.954  30.596  1.00  0.00     0.074 A 
ATOM     30  C   UNL A   1      40.629  28.520  28.266  1.00  0.00     0.049 A 
ATOM     31  N   UNL A   1      40.901  29.599  31.324  1.00  0.00    -0.248 NA
ATOM     32  C   UNL A   1      39.201  28.025  31.338  1.00  0.00     0.031 C 
ATOM     33  C   UNL A   1      40.401  28.301  26.832  1.00  0.00     0.029 A 
ATOM     34  N   UNL A   1      41.787  27.843  28.499  1.00  0.00    -0.354 N 
ATOM     35  C   UNL A   1      40.856  29.002  32.574  1.00  0.00     0.074 A 
ATOM     36  C   UNL A   1      39.667  28.188  32.579  1.00  0.00     0.031 C 
ATOM     37  C   UNL A   1      41.264  27.366  26.378  1.00  0.00     0.029 A 
ATOM     38  C   UNL A   1      42.208  27.054  27.437  1.00  0.00     0.049 A 
ATOM     39  H   UNL A   1      42.282  27.906  29.347  1.00  0.00     0.167 HD
ATOM     40  C   UNL A   1      41.925  29.061  33.413  1.00  0.00     0.034 A 
ATOM     41  C   UNL A   1      43.256  26.195  27.420  1.00  0.00     0.034 A 
ATOM     42  C   UNL A   1      42.917  30.002  32.933  1.00  0.00     0.049 A 
ATOM     43  C   UNL A   1      44.206  26.659  28.460  1.00  0.00     0.074 A 
ATOM     44  C   UNL A   1      42.901  31.346  32.608  1.00  0.00     0.029 A 
ATOM     45  N   UNL A   1      44.054  29.495  32.342  1.00  0.00    -0.354 N 
ATOM     46  N   UNL A   1      44.835  27.802  28.397  1.00  0.00    -0.248 NA
ATOM     47  C   UNL A   1      44.143  26.072  29.789  1.00  0.00     0.031 C 
ATOM     48  C   UNL A   1      43.732  31.459  31.454  1.00  0.00     0.029 A 
ATOM     49  C   UNL A   1      44.263  30.197  31.177  1.00  0.00     0.049 A 
ATOM     50  H   UNL A   1      44.616  28.765  32.689  1.00  0.00     0.167 HD
ATOM     51  C   UNL A   1      44.840  28.282  29.696  1.00  0.00     0.074 A 
ATOM     52  C   UNL A   1      44.533  27.119  30.522  1.00  0.00     0.031 C 
ATOM     53  C   UNL A   1      44.805  29.625  29.956  1.00  0.00     0.034 A 
BRANCH  40  54
ATOM     54  C   UNL A   1      42.238  28.067  34.501  1.00  0.00     0.023 A 
ATOM     55  C   UNL A   1      43.000  26.940  34.143  1.00  0.00     0.031 A 
ATOM     56  C   UNL A   1      41.641  28.029  35.780  1.00  0.00     0.131 A 
ATOM     57  C   UNL A   1      43.088  25.827  34.994  1.00  0.00     0.055 A 
ATOM     58  C   UNL A   1      41.800  26.953  36.658  1.00  0.00     0.041 A 
ATOM     59  F   UNL A   1      40.794  28.972  36.208  1.00  0.00    -0.206 F 
ATOM     60  C   UNL A   1      42.505  25.831  36.258  1.00  0.00     0.022 A 
BRANCH  57  61
ATOM     61  S   UNL A   1      43.822  24.307  34.340  1.00  0.00     0.124 S 
ATOM     62  O   UNL A   1      42.815  23.313  34.697  1.00  0.00    -0.237 OA
ATOM     63  O   UNL A   1      43.944  24.620  32.920  1.00  0.00    -0.237 OA
ATOM     64  O   UNL A   1      45.084  24.202  35.067  1.00  0.00    -0.744 OA
ENDBRANCH  57  61
ENDBRANCH  40  54
BRANCH  41  65
ATOM     65  C   UNL A   1      43.369  24.915  26.681  1.00  0.00     0.023 A 
ATOM     66  C   UNL A   1      42.591  23.788  27.005  1.00  0.00     0.031 A 
ATOM     67  C   UNL A   1      44.098  24.858  25.471  1.00  0.00     0.131 A 
ATOM     68  C   UNL A   1      42.565  22.670  26.141  1.00  0.00     0.055 A 
ATOM     69  C   UNL A   1      44.082  23.746  24.628  1.00  0.00     0.041 A 
ATOM     70  F   UNL A   1      44.786  25.921  25.022  1.00  0.00    -0.206 F 
ATOM     71  C   UNL A   1      43.305  22.647  24.956  1.00  0.00     0.022 A 
BRANCH  68  72
ATOM     72  S   UNL A   1      41.453  21.273  26.490  1.00  0.00     0.124 S 
ATOM     73  O   UNL A   1      42.032  20.207  25.682  1.00  0.00    -0.237 OA
ATOM     74  O   UNL A   1      41.573  21.129  27.937  1.00  0.00    -0.237 OA
ATOM     75  O   UNL A   1      40.149  21.755  26.033  1.00  0.00    -0.744 OA
ENDBRANCH  68  72
ENDBRANCH  41  65
BRANCH  53  76
ATOM     76  C   UNL A   1      45.110  30.588  28.821  1.00  0.00     0.023 A 
ATOM     77  C   UNL A   1      46.406  31.019  28.458  1.00  0.00     0.031 A 
ATOM     78  C   UNL A   1      44.041  30.991  28.000  1.00  0.00     0.131 A 
ATOM     79  C   UNL A   1      46.592  31.834  27.324  1.00  0.00     0.055 A 
ATOM     80  C   UNL A   1      44.230  31.779  26.864  1.00  0.00     0.041 A 
ATOM     81  F   UNL A   1      42.787  30.594  28.271  1.00  0.00    -0.206 F 
ATOM     82  C   UNL A   1      45.507  32.210  26.525  1.00  0.00     0.022 A 
BRANCH  79  83
ATOM     83  S   UNL A   1      48.254  32.431  26.878  1.00  0.00     0.124 S 
ATOM     84  O   UNL A   1      48.008  33.322  25.751  1.00  0.00    -0.237 OA
ATOM     85  O   UNL A   1      48.705  33.069  28.112  1.00  0.00    -0.237 OA
ATOM     86  O   UNL A   1      48.974  31.202  26.533  1.00  0.00    -0.744 OA
ENDBRANCH  79  83
ENDBRANCH  53  76
ENDBRANCH  27  28
ENDBRANCH  19  22
ENDBRANCH  17  18
ENDBRANCH   1  17
TORSDOF 15
ENDMDL
MODEL 3
REMARK VINA RESULT:     -11.2      3.806      8.836
REMARK SMILES Cc1n[nH]c(CCC(=O)NCCCNC(=O)c2ccc(-c3c4nc(c(-c5cc(S(=O)(=O)[O-])ccc5F)c5ccc([nH]5)c(-c5cc(S(=O)(=O)[O-])ccc5F)c5nc(c(-c6cc(S(=O)(=O)[O-])ccc6F)c6ccc3[nH]6)C=C5)C=C4)cc2)c1C
REMARK SMILES IDX 12 1 11 2 10 3 8 4 9 5 7 7 6 8 5 9 1 10 2 11 3 12 80 13 4 14
REMARK SMILES IDX 81 15 13 17 14 18 15 19 16 21 17 22 18 23 79 24 19 25 78 26
REMARK SMILES IDX 20 27 21 28 22 29 72 30 23 31 77 32 71 33 73 34 24 35 76 36
REMARK SMILES IDX 70 37 69 38 25 40 57 41 37 42 56 43 38 44 41 45 55 46 74 47
REMARK SMILES IDX 39 48 40 49 54 51 75 52 42 53 26 54 27 55 35 56 28 57 34 58
REMARK SMILES IDX 36 59 33 60 29 61 30 62 31 63 32 64 58 65 59 66 67 67 60 68
REMARK SMILES IDX 66 69 68 70 65 71 61 72 62 73 63 74 64 75 43 76 44 77 52 78
REMARK SMILES IDX 45 79 51 80 53 81 50 82 46 83 47 84 48 85 49 86
REMARK H PARENT 10 6 4 16 14 20 73 39 41 50
REMARK Flexibility Score: inf
ROOT
ATOM      1  C   UNL A   1      33.783  30.448  27.038  1.00  0.00     0.042 C 
ENDROOT
BRANCH   1   2
ATOM      2  C   UNL A   1      32.925  29.709  26.014  1.00  0.00     0.117 C 
BRANCH   2   3
ATOM      3  N   UNL A   1      33.495  29.689  24.680  1.00  0.00    -0.356 N 
ATOM      4  C   UNL A   1      33.794  28.609  23.900  1.00  0.00     0.220 C 
ATOM      5  O   UNL A   1      34.198  28.796  22.752  1.00  0.00    -0.275 OA
ATOM      6  H   UNL A   1      33.691  30.571  24.284  1.00  0.00     0.163 HD
BRANCH   4   7
ATOM      7  C   UNL A   1      33.642  27.200  24.440  1.00  0.00     0.106 C 
BRANCH   7   8
ATOM      8  C   UNL A   1      32.923  26.288  23.441  1.00  0.00     0.066 C 
BRANCH   8   9
ATOM      9  C   UNL A   1      31.601  26.854  23.045  1.00  0.00     0.039 A 
ATOM     10  C   UNL A   1      28.286  28.394  23.260  1.00  0.00     0.069 C 
ATOM     11  C   UNL A   1      29.611  27.809  22.930  1.00  0.00     0.062 A 
ATOM     12  N   UNL A   1      30.283  28.261  21.864  1.00  0.00    -0.181 NA
ATOM     13  C   UNL A   1      30.359  26.838  23.656  1.00  0.00    -0.007 A 
ATOM     14  N   UNL A   1      31.452  27.614  21.920  1.00  0.00    -0.282 N 
ATOM     15  C   UNL A   1      29.936  26.080  24.861  1.00  0.00     0.048 C 
ATOM     16  H   UNL A   1      32.139  27.680  21.218  1.00  0.00     0.190 HD
ENDBRANCH   8   9
ENDBRANCH   7   8
ENDBRANCH   4   7
ENDBRANCH   2   3
ENDBRANCH   1   2
BRANCH   1  17
ATOM     17  C   UNL A   1      34.889  29.567  27.618  1.00  0.00     0.118 C 
BRANCH  17  18
ATOM     18  N   UNL A   1      35.245  29.986  28.970  1.00  0.00    -0.352 N 
ATOM     19  C   UNL A   1      36.307  29.818  29.832  1.00  0.00     0.251 C 
ATOM     20  H   UNL A   1      34.536  30.535  29.375  1.00  0.00     0.163 HD
ATOM     21  O   UNL A   1      36.169  30.246  30.963  1.00  0.00    -0.269 OA
BRANCH  19  22
ATOM     22  C   UNL A   1      37.582  29.152  29.452  1.00  0.00     0.039 A 
ATOM     23  C   UNL A   1      38.135  28.196  30.325  1.00  0.00     0.014 A 
ATOM     24  C   UNL A   1      38.263  29.459  28.284  1.00  0.00     0.014 A 
ATOM     25  C   UNL A   1      39.406  27.672  30.070  1.00  0.00     0.010 A 
ATOM     26  C   UNL A   1      39.451  28.850  27.966  1.00  0.00     0.010 A 
ATOM     27  C   UNL A   1      40.079  28.062  28.910  1.00  0.00    -0.014 A 
BRANCH  27  28
ATOM     28  C   UNL A   1      41.456  27.693  28.633  1.00  0.00     0.031 A 
ATOM     29  C   UNL A   1      41.654  26.476  27.834  1.00  0.00     0.074 A 
ATOM     30  C   UNL A   1      42.503  28.512  28.871  1.00  0.00     0.049 A 
ATOM     31  N   UNL A   1      42.094  25.342  28.257  1.00  0.00    -0.248 NA
ATOM     32  C   UNL A   1      41.228  26.476  26.431  1.00  0.00     0.031 C 
ATOM     33  C   UNL A   1      42.483  29.899  29.351  1.00  0.00     0.029 A 
ATOM     34  N   UNL A   1      43.822  28.299  28.605  1.00  0.00    -0.354 N 
ATOM     35  C   UNL A   1      42.226  24.545  27.131  1.00  0.00     0.074 A 
ATOM     36  C   UNL A   1      41.499  25.215  26.084  1.00  0.00     0.031 C 
ATOM     37  C   UNL A   1      43.689  30.467  29.133  1.00  0.00     0.029 A 
ATOM     38  C   UNL A   1      44.606  29.443  28.665  1.00  0.00     0.049 A 
ATOM     39  H   UNL A   1      44.188  27.411  28.390  1.00  0.00     0.167 HD
ATOM     40  C   UNL A   1      43.113  23.512  27.110  1.00  0.00     0.034 A 
ATOM     41  C   UNL A   1      45.918  29.553  28.346  1.00  0.00     0.034 A 
ATOM     42  C   UNL A   1      43.639  23.246  28.435  1.00  0.00     0.049 A 
ATOM     43  C   UNL A   1      46.512  28.203  28.503  1.00  0.00     0.074 A 
ATOM     44  C   UNL A   1      43.073  22.939  29.658  1.00  0.00     0.029 A 
ATOM     45  N   UNL A   1      44.919  23.670  28.718  1.00  0.00    -0.354 N 
ATOM     46  N   UNL A   1      46.597  27.588  29.652  1.00  0.00    -0.248 NA
ATOM     47  C   UNL A   1      46.619  27.338  27.339  1.00  0.00     0.031 C 
ATOM     48  C   UNL A   1      43.849  23.657  30.616  1.00  0.00     0.029 A 
ATOM     49  C   UNL A   1      44.883  24.306  29.937  1.00  0.00     0.049 A 
ATOM     50  H   UNL A   1      45.714  23.542  28.152  1.00  0.00     0.167 HD
ATOM     51  C   UNL A   1      46.313  26.261  29.371  1.00  0.00     0.074 A 
ATOM     52  C   UNL A   1      46.478  26.145  27.926  1.00  0.00     0.031 C 
ATOM     53  C   UNL A   1      45.694  25.459  30.290  1.00  0.00     0.034 A 
BRANCH  40  54
ATOM     54  C   UNL A   1      43.748  22.931  25.875  1.00  0.00     0.023 A 
ATOM     55  C   UNL A   1      43.655  21.538  25.698  1.00  0.00     0.031 A 
ATOM     56  C   UNL A   1      44.633  23.607  25.006  1.00  0.00     0.131 A 
ATOM     57  C   UNL A   1      44.458  20.874  24.757  1.00  0.00     0.055 A 
ATOM     58  C   UNL A   1      45.367  22.951  24.013  1.00  0.00     0.041 A 
ATOM     59  F   UNL A   1      44.914  24.909  25.133  1.00  0.00    -0.206 F 
ATOM     60  C   UNL A   1      45.303  21.573  23.901  1.00  0.00     0.022 A 
BRANCH  57  61
ATOM     61  S   UNL A   1      44.507  19.065  24.802  1.00  0.00     0.124 S 
ATOM     62  O   UNL A   1      43.156  18.743  25.248  1.00  0.00    -0.237 OA
ATOM     63  O   UNL A   1      44.824  18.738  23.417  1.00  0.00    -0.237 OA
ATOM     64  O   UNL A   1      45.565  18.781  25.769  1.00  0.00    -0.744 OA
ENDBRANCH  57  61
ENDBRANCH  40  54
BRANCH  41  65
ATOM     65  C   UNL A   1      46.612  30.719  27.748  1.00  0.00     0.023 A 
ATOM     66  C   UNL A   1      45.955  31.635  26.905  1.00  0.00     0.031 A 
ATOM     67  C   UNL A   1      47.904  31.079  28.194  1.00  0.00     0.131 A 
ATOM     68  C   UNL A   1      46.586  32.845  26.542  1.00  0.00     0.055 A 
ATOM     69  C   UNL A   1      48.531  32.269  27.821  1.00  0.00     0.041 A 
ATOM     70  F   UNL A   1      48.570  30.323  29.083  1.00  0.00    -0.206 F 
ATOM     71  C   UNL A   1      47.868  33.165  26.998  1.00  0.00     0.022 A 
BRANCH  68  72
ATOM     72  S   UNL A   1      45.682  34.090  25.569  1.00  0.00     0.124 S 
ATOM     73  O   UNL A   1      46.750  34.716  24.800  1.00  0.00    -0.237 OA
ATOM     74  O   UNL A   1      44.734  33.274  24.819  1.00  0.00    -0.237 OA
ATOM     75  O   UNL A   1      45.075  34.944  26.590  1.00  0.00    -0.744 OA
ENDBRANCH  68  72
ENDBRANCH  41  65
BRANCH  53  76
ATOM     76  C   UNL A   1      45.633  25.929  31.734  1.00  0.00     0.023 A 
ATOM     77  C   UNL A   1      44.485  26.471  32.355  1.00  0.00     0.031 A 
ATOM     78  C   UNL A   1      46.761  25.705  32.543  1.00  0.00     0.131 A 
ATOM     79  C   UNL A   1      44.501  26.782  33.729  1.00  0.00     0.055 A 
ATOM     80  C   UNL A   1      46.767  25.991  33.909  1.00  0.00     0.041 A 
ATOM     81  F   UNL A   1      47.876  25.166  32.023  1.00  0.00    -0.206 F 
ATOM     82  C   UNL A   1      45.638  26.538  34.506  1.00  0.00     0.022 A 
BRANCH  79  83
ATOM     83  S   UNL A   1      43.040  27.523  34.525  1.00  0.00     0.124 S 
ATOM     84  O   UNL A   1      42.744  28.681  33.690  1.00  0.00    -0.237 OA
ATOM     85  O   UNL A   1      42.067  26.435  34.479  1.00  0.00    -0.237 OA
ATOM     86  O   UNL A   1      43.517  27.852  35.871  1.00  0.00    -0.744 OA
ENDBRANCH  79  83
ENDBRANCH  53  76
ENDBRANCH  27  28
ENDBRANCH  19  22
ENDBRANCH  17  18
ENDBRANCH   1  17
TORSDOF 15
ENDMDL
