MODEL 1
REMARK VINA RESULT:     -11.1      0.000      0.000
REMARK SMILES CCCC[C@H](C(=O)NCCCNC(=O)c1ccc(-c2c3nc(c(-c4cc(S(=O)(=O)[O-])ccc4F)c4ccc([nH]4)c(-c4cc(S(=O)(=O)[O-])ccc4F)c4nc(c(-c5cc(S(=O)(=O)[O-])ccc5F)c5ccc2[nH]5)C=C4)C=C3)cc1)[C@H](O)c1ccc(C(F)(F)F)cc1
REMARK SMILES IDX 10 1 9 2 8 3 6 4 7 5 5 7 4 8 3 9 2 10 1 11 78 12 80 13 81 14
REMARK SMILES IDX 89 15 82 16 88 17 83 18 84 19 85 20 86 21 87 22 79 23 11 25
REMARK SMILES IDX 12 26 13 27 14 29 15 30 16 31 77 32 17 33 76 34 18 35 19 36
REMARK SMILES IDX 20 37 70 38 21 39 75 40 69 41 71 42 22 43 74 44 68 45 67 46
REMARK SMILES IDX 23 48 55 49 35 50 54 51 36 52 39 53 53 54 72 55 37 56 38 57
REMARK SMILES IDX 52 59 73 60 40 61 24 62 25 63 33 64 26 65 32 66 34 67 31 68
REMARK SMILES IDX 27 69 28 70 29 71 30 72 56 73 57 74 65 75 58 76 64 77 66 78
REMARK SMILES IDX 63 79 59 80 60 81 61 82 62 83 41 84 42 85 50 86 43 87 49 88
REMARK SMILES IDX 51 89 48 90 44 91 45 92 46 93 47 94
REMARK H PARENT 8 6 79 24 12 28 71 47 39 58
REMARK Flexibility Score: inf
ROOT
ATOM      1  C   UNL A   1      35.846  21.734  25.239  1.00  0.00     0.042 C 
ENDROOT
BRANCH   1   2
ATOM      2  C   UNL A   1      34.760  21.664  26.289  1.00  0.00     0.117 C 
BRANCH   2   3
ATOM      3  N   UNL A   1      33.437  21.775  25.729  1.00  0.00    -0.356 N 
ATOM      4  C   UNL A   1      32.740  22.881  25.367  1.00  0.00     0.226 C 
ATOM      5  O   UNL A   1      31.689  22.688  24.744  1.00  0.00    -0.275 OA
ATOM      6  H   UNL A   1      32.968  20.921  25.587  1.00  0.00     0.163 HD
BRANCH   4   7
ATOM      7  C   UNL A   1      33.166  24.312  25.714  1.00  0.00     0.111 C 
BRANCH   7   8
ATOM      8  C   UNL A   1      34.123  24.965  24.674  1.00  0.00     0.016 C 
BRANCH   8   9
ATOM      9  C   UNL A   1      34.051  24.690  23.169  1.00  0.00     0.001 C 
BRANCH   9  10
ATOM     10  C   UNL A   1      33.139  25.570  22.318  1.00  0.00    -0.003 C 
ATOM     11  C   UNL A   1      33.470  27.049  22.393  1.00  0.00     0.004 C 
ENDBRANCH   9  10
ENDBRANCH   8   9
ENDBRANCH   7   8
BRANCH   7  12
ATOM     12  C   UNL A   1      32.158  25.258  26.437  1.00  0.00     0.157 C 
BRANCH  12  13
ATOM     13  C   UNL A   1      31.413  26.314  25.647  1.00  0.00    -0.019 A 
ATOM     14  C   UNL A   1      31.764  27.670  25.775  1.00  0.00     0.007 A 
ATOM     15  C   UNL A   1      30.392  25.978  24.745  1.00  0.00     0.007 A 
ATOM     16  C   UNL A   1      31.224  28.634  24.918  1.00  0.00     0.013 A 
ATOM     17  C   UNL A   1      29.848  26.941  23.889  1.00  0.00     0.013 A 
ATOM     18  C   UNL A   1      30.292  28.270  23.937  1.00  0.00     0.056 A 
BRANCH  18  19
ATOM     19  C   UNL A   1      29.825  29.294  22.932  1.00  0.00     0.416 C 
ATOM     20  F   UNL A   1      29.596  30.514  23.488  1.00  0.00    -0.166 F 
ATOM     21  F   UNL A   1      30.744  29.490  21.948  1.00  0.00    -0.166 F 
ATOM     22  F   UNL A   1      28.672  28.945  22.297  1.00  0.00    -0.166 F 
ENDBRANCH  18  19
ENDBRANCH  12  13
BRANCH  12  23
ATOM     23  O   UNL A   1      31.137  24.477  27.082  1.00  0.00    -0.388 OA
ATOM     24  H   UNL A   1      30.465  24.221  26.430  1.00  0.00     0.211 HD
ENDBRANCH  12  23
ENDBRANCH   7  12
ENDBRANCH   4   7
ENDBRANCH   2   3
ENDBRANCH   1   2
BRANCH   1  25
ATOM     25  C   UNL A   1      37.059  22.481  25.748  1.00  0.00     0.118 C 
BRANCH  25  26
ATOM     26  N   UNL A   1      38.201  21.592  25.951  1.00  0.00    -0.352 N 
ATOM     27  C   UNL A   1      39.485  21.896  26.335  1.00  0.00     0.251 C 
ATOM     28  H   UNL A   1      38.025  20.638  25.790  1.00  0.00     0.163 HD
ATOM     29  O   UNL A   1      40.370  21.052  26.221  1.00  0.00    -0.269 OA
BRANCH  27  30
ATOM     30  C   UNL A   1      39.796  23.248  26.841  1.00  0.00     0.039 A 
ATOM     31  C   UNL A   1      40.547  23.390  28.009  1.00  0.00     0.014 A 
ATOM     32  C   UNL A   1      39.373  24.378  26.139  1.00  0.00     0.014 A 
ATOM     33  C   UNL A   1      40.934  24.665  28.424  1.00  0.00     0.010 A 
ATOM     34  C   UNL A   1      39.885  25.622  26.466  1.00  0.00     0.010 A 
ATOM     35  C   UNL A   1      40.644  25.786  27.630  1.00  0.00    -0.014 A 
BRANCH  35  36
ATOM     36  C   UNL A   1      41.065  27.154  28.023  1.00  0.00     0.031 A 
ATOM     37  C   UNL A   1      42.511  27.552  27.877  1.00  0.00     0.074 A 
ATOM     38  C   UNL A   1      40.171  28.006  28.560  1.00  0.00     0.049 A 
ATOM     39  N   UNL A   1      43.108  28.659  28.238  1.00  0.00    -0.248 NA
ATOM     40  C   UNL A   1      43.415  26.547  27.294  1.00  0.00     0.031 C 
ATOM     41  C   UNL A   1      38.754  27.714  28.787  1.00  0.00     0.029 A 
ATOM     42  N   UNL A   1      40.320  29.292  29.008  1.00  0.00    -0.354 N 
ATOM     43  C   UNL A   1      44.455  28.473  27.938  1.00  0.00     0.074 A 
ATOM     44  C   UNL A   1      44.597  27.112  27.471  1.00  0.00     0.031 C 
ATOM     45  C   UNL A   1      38.154  28.810  29.278  1.00  0.00     0.029 A 
ATOM     46  C   UNL A   1      39.149  29.860  29.454  1.00  0.00     0.049 A 
ATOM     47  H   UNL A   1      41.183  29.766  29.010  1.00  0.00     0.167 HD
ATOM     48  C   UNL A   1      45.471  29.366  28.002  1.00  0.00     0.034 A 
ATOM     49  C   UNL A   1      38.912  31.091  29.948  1.00  0.00     0.034 A 
ATOM     50  C   UNL A   1      45.302  30.723  28.459  1.00  0.00     0.049 A 
ATOM     51  C   UNL A   1      40.065  32.057  30.059  1.00  0.00     0.074 A 
ATOM     52  C   UNL A   1      46.242  31.733  28.539  1.00  0.00     0.029 A 
ATOM     53  N   UNL A   1      44.105  31.257  28.923  1.00  0.00    -0.354 N 
ATOM     54  N   UNL A   1      41.325  31.884  29.732  1.00  0.00    -0.248 NA
ATOM     55  C   UNL A   1      39.758  33.386  30.598  1.00  0.00     0.031 C 
ATOM     56  C   UNL A   1      45.634  32.851  29.119  1.00  0.00     0.029 A 
ATOM     57  C   UNL A   1      44.291  32.572  29.320  1.00  0.00     0.049 A 
ATOM     58  H   UNL A   1      43.249  30.772  28.964  1.00  0.00     0.167 HD
ATOM     59  C   UNL A   1      41.954  33.099  29.991  1.00  0.00     0.074 A 
ATOM     60  C   UNL A   1      40.929  33.995  30.489  1.00  0.00     0.031 C 
ATOM     61  C   UNL A   1      43.257  33.446  29.825  1.00  0.00     0.034 A 
BRANCH  48  62
ATOM     62  C   UNL A   1      46.842  28.881  27.583  1.00  0.00     0.023 A 
ATOM     63  C   UNL A   1      47.163  28.662  26.230  1.00  0.00     0.031 A 
ATOM     64  C   UNL A   1      47.814  28.559  28.545  1.00  0.00     0.131 A 
ATOM     65  C   UNL A   1      48.368  28.029  25.887  1.00  0.00     0.055 A 
ATOM     66  C   UNL A   1      49.057  28.029  28.188  1.00  0.00     0.041 A 
ATOM     67  F   UNL A   1      47.565  28.723  29.854  1.00  0.00    -0.206 F 
ATOM     68  C   UNL A   1      49.330  27.738  26.855  1.00  0.00     0.022 A 
BRANCH  65  69
ATOM     69  S   UNL A   1      48.562  27.410  24.193  1.00  0.00     0.124 S 
ATOM     70  O   UNL A   1      48.285  25.986  24.366  1.00  0.00    -0.237 OA
ATOM     71  O   UNL A   1      47.557  28.173  23.461  1.00  0.00    -0.237 OA
ATOM     72  O   UNL A   1      49.951  27.731  23.869  1.00  0.00    -0.744 OA
ENDBRANCH  65  69
ENDBRANCH  48  62
BRANCH  49  73
ATOM     73  C   UNL A   1      37.534  31.491  30.351  1.00  0.00     0.023 A 
ATOM     74  C   UNL A   1      36.614  31.953  29.396  1.00  0.00     0.031 A 
ATOM     75  C   UNL A   1      37.121  31.445  31.694  1.00  0.00     0.131 A 
ATOM     76  C   UNL A   1      35.345  32.394  29.800  1.00  0.00     0.055 A 
ATOM     77  C   UNL A   1      35.837  31.833  32.085  1.00  0.00     0.041 A 
ATOM     78  F   UNL A   1      37.957  31.007  32.648  1.00  0.00    -0.206 F 
ATOM     79  C   UNL A   1      34.945  32.324  31.136  1.00  0.00     0.022 A 
BRANCH  76  80
ATOM     80  S   UNL A   1      34.251  33.140  28.562  1.00  0.00     0.124 S 
ATOM     81  O   UNL A   1      35.202  33.853  27.718  1.00  0.00    -0.237 OA
ATOM     82  O   UNL A   1      33.619  31.966  27.969  1.00  0.00    -0.237 OA
ATOM     83  O   UNL A   1      33.365  33.987  29.358  1.00  0.00    -0.744 OA
ENDBRANCH  76  80
ENDBRANCH  49  73
BRANCH  61  84
ATOM     84  C   UNL A   1      43.629  34.875  30.137  1.00  0.00     0.023 A 
ATOM     85  C   UNL A   1      43.480  35.904  29.191  1.00  0.00     0.031 A 
ATOM     86  C   UNL A   1      44.147  35.209  31.401  1.00  0.00     0.131 A 
ATOM     87  C   UNL A   1      43.905  37.205  29.503  1.00  0.00     0.055 A 
ATOM     88  C   UNL A   1      44.501  36.517  31.730  1.00  0.00     0.041 A 
ATOM     89  F   UNL A   1      44.313  34.266  32.343  1.00  0.00    -0.206 F 
ATOM     90  C   UNL A   1      44.394  37.522  30.772  1.00  0.00     0.022 A 
BRANCH  87  91
ATOM     91  S   UNL A   1      43.909  38.456  28.189  1.00  0.00     0.124 S 
ATOM     92  O   UNL A   1      44.003  37.633  26.988  1.00  0.00    -0.237 OA
ATOM     93  O   UNL A   1      42.632  39.132  28.400  1.00  0.00    -0.237 OA
ATOM     94  O   UNL A   1      45.092  39.260  28.485  1.00  0.00    -0.744 OA
ENDBRANCH  87  91
ENDBRANCH  61  84
ENDBRANCH  35  36
ENDBRANCH  27  30
ENDBRANCH  25  26
ENDBRANCH   1  25
TORSDOF 20
ENDMDL
MODEL 2
REMARK VINA RESULT:     -11.0      5.256     10.059
REMARK SMILES CCCC[C@H](C(=O)NCCCNC(=O)c1ccc(-c2c3nc(c(-c4cc(S(=O)(=O)[O-])ccc4F)c4ccc([nH]4)c(-c4cc(S(=O)(=O)[O-])ccc4F)c4nc(c(-c5cc(S(=O)(=O)[O-])ccc5F)c5ccc2[nH]5)C=C4)C=C3)cc1)[C@H](O)c1ccc(C(F)(F)F)cc1
REMARK SMILES IDX 10 1 9 2 8 3 6 4 7 5 5 7 4 8 3 9 2 10 1 11 78 12 80 13 81 14
REMARK SMILES IDX 89 15 82 16 88 17 83 18 84 19 85 20 86 21 87 22 79 23 11 25
REMARK SMILES IDX 12 26 13 27 14 29 15 30 16 31 77 32 17 33 76 34 18 35 19 36
REMARK SMILES IDX 20 37 70 38 21 39 75 40 69 41 71 42 22 43 74 44 68 45 67 46
REMARK SMILES IDX 23 48 55 49 35 50 54 51 36 52 39 53 53 54 72 55 37 56 38 57
REMARK SMILES IDX 52 59 73 60 40 61 24 62 25 63 33 64 26 65 32 66 34 67 31 68
REMARK SMILES IDX 27 69 28 70 29 71 30 72 56 73 57 74 65 75 58 76 64 77 66 78
REMARK SMILES IDX 63 79 59 80 60 81 61 82 62 83 41 84 42 85 50 86 43 87 49 88
REMARK SMILES IDX 51 89 48 90 44 91 45 92 46 93 47 94
REMARK H PARENT 8 6 79 24 12 28 71 47 39 58
REMARK Flexibility Score: inf
ROOT
ATOM      1  C   UNL A   1      32.836  29.327  24.956  1.00  0.00     0.042 C 
ENDROOT
BRANCH   1   2
ATOM      2  C   UNL A   1      31.379  29.725  24.876  1.00  0.00     0.117 C 
BRANCH   2   3
ATOM      3  N   UNL A   1      30.870  29.704  23.528  1.00  0.00    -0.356 N 
ATOM      4  C   UNL A   1      30.590  28.648  22.725  1.00  0.00     0.226 C 
ATOM      5  O   UNL A   1      29.995  28.902  21.671  1.00  0.00    -0.275 OA
ATOM      6  H   UNL A   1      30.700  30.588  23.130  1.00  0.00     0.163 HD
BRANCH   4   7
ATOM      7  C   UNL A   1      30.996  27.203  23.039  1.00  0.00     0.111 C 
BRANCH   7   8
ATOM      8  C   UNL A   1      29.852  26.331  23.634  1.00  0.00     0.016 C 
BRANCH   8   9
ATOM      9  C   UNL A   1      29.946  25.624  24.990  1.00  0.00     0.001 C 
BRANCH   9  10
ATOM     10  C   UNL A   1      30.794  26.269  26.082  1.00  0.00    -0.003 C 
ATOM     11  C   UNL A   1      32.115  25.565  26.331  1.00  0.00     0.004 C 
ENDBRANCH   9  10
ENDBRANCH   8   9
ENDBRANCH   7   8
BRANCH   7  12
ATOM     12  C   UNL A   1      32.030  26.481  22.121  1.00  0.00     0.157 C 
BRANCH  12  13
ATOM     13  C   UNL A   1      32.716  25.219  22.602  1.00  0.00    -0.019 A 
ATOM     14  C   UNL A   1      33.996  25.286  23.177  1.00  0.00     0.007 A 
ATOM     15  C   UNL A   1      32.090  23.964  22.528  1.00  0.00     0.007 A 
ATOM     16  C   UNL A   1      34.563  24.170  23.799  1.00  0.00     0.013 A 
ATOM     17  C   UNL A   1      32.656  22.845  23.147  1.00  0.00     0.013 A 
ATOM     18  C   UNL A   1      33.877  22.948  23.827  1.00  0.00     0.056 A 
BRANCH  18  19
ATOM     19  C   UNL A   1      34.437  21.792  24.620  1.00  0.00     0.416 C 
ATOM     20  F   UNL A   1      34.198  21.903  25.954  1.00  0.00    -0.166 F 
ATOM     21  F   UNL A   1      33.895  20.606  24.232  1.00  0.00    -0.166 F 
ATOM     22  F   UNL A   1      35.785  21.645  24.488  1.00  0.00    -0.166 F 
ENDBRANCH  18  19
ENDBRANCH  12  13
BRANCH  12  23
ATOM     23  O   UNL A   1      31.405  26.121  20.876  1.00  0.00    -0.388 OA
ATOM     24  H   UNL A   1      30.456  26.318  20.921  1.00  0.00     0.211 HD
ENDBRANCH  12  23
ENDBRANCH   7  12
ENDBRANCH   4   7
ENDBRANCH   2   3
ENDBRANCH   1   2
BRANCH   1  25
ATOM     25  C   UNL A   1      33.390  29.533  26.348  1.00  0.00     0.118 C 
BRANCH  25  26
ATOM     26  N   UNL A   1      33.314  30.931  26.765  1.00  0.00    -0.352 N 
ATOM     27  C   UNL A   1      34.118  31.627  27.635  1.00  0.00     0.251 C 
ATOM     28  H   UNL A   1      32.580  31.450  26.364  1.00  0.00     0.163 HD
ATOM     29  O   UNL A   1      33.759  32.727  28.048  1.00  0.00    -0.269 OA
BRANCH  27  30
ATOM     30  C   UNL A   1      35.386  31.027  28.097  1.00  0.00     0.039 A 
ATOM     31  C   UNL A   1      36.570  31.757  27.996  1.00  0.00     0.014 A 
ATOM     32  C   UNL A   1      35.395  29.751  28.665  1.00  0.00     0.014 A 
ATOM     33  C   UNL A   1      37.746  31.234  28.535  1.00  0.00     0.010 A 
ATOM     34  C   UNL A   1      36.525  29.304  29.330  1.00  0.00     0.010 A 
ATOM     35  C   UNL A   1      37.722  30.023  29.246  1.00  0.00    -0.014 A 
BRANCH  35  36
ATOM     36  C   UNL A   1      38.946  29.449  29.860  1.00  0.00     0.031 A 
ATOM     37  C   UNL A   1      39.389  29.935  31.215  1.00  0.00     0.074 A 
ATOM     38  C   UNL A   1      39.680  28.549  29.179  1.00  0.00     0.049 A 
ATOM     39  N   UNL A   1      40.468  29.634  31.892  1.00  0.00    -0.248 NA
ATOM     40  C   UNL A   1      38.528  30.931  31.872  1.00  0.00     0.031 C 
ATOM     41  C   UNL A   1      39.369  28.038  27.842  1.00  0.00     0.029 A 
ATOM     42  N   UNL A   1      40.838  27.899  29.521  1.00  0.00    -0.354 N 
ATOM     43  C   UNL A   1      40.417  30.416  33.043  1.00  0.00     0.074 A 
ATOM     44  C   UNL A   1      39.263  31.277  32.915  1.00  0.00     0.031 C 
ATOM     45  C   UNL A   1      40.282  27.113  27.504  1.00  0.00     0.029 A 
ATOM     46  C   UNL A   1      41.271  27.007  28.569  1.00  0.00     0.049 A 
ATOM     47  H   UNL A   1      41.315  28.058  30.368  1.00  0.00     0.167 HD
ATOM     48  C   UNL A   1      41.230  30.388  34.127  1.00  0.00     0.034 A 
ATOM     49  C   UNL A   1      42.346  26.195  28.562  1.00  0.00     0.034 A 
ATOM     50  C   UNL A   1      42.368  29.510  34.236  1.00  0.00     0.049 A 
ATOM     51  C   UNL A   1      43.269  26.212  29.756  1.00  0.00     0.074 A 
ATOM     52  C   UNL A   1      43.248  29.361  35.292  1.00  0.00     0.029 A 
ATOM     53  N   UNL A   1      42.789  28.633  33.242  1.00  0.00    -0.354 N 
ATOM     54  N   UNL A   1      43.187  26.924  30.856  1.00  0.00    -0.248 NA
ATOM     55  C   UNL A   1      44.423  25.308  29.706  1.00  0.00     0.031 C 
ATOM     56  C   UNL A   1      44.239  28.453  34.910  1.00  0.00     0.029 A 
ATOM     57  C   UNL A   1      43.933  27.964  33.649  1.00  0.00     0.049 A 
ATOM     58  H   UNL A   1      42.340  28.505  32.376  1.00  0.00     0.167 HD
ATOM     59  C   UNL A   1      44.260  26.524  31.648  1.00  0.00     0.074 A 
ATOM     60  C   UNL A   1      44.964  25.501  30.900  1.00  0.00     0.031 C 
ATOM     61  C   UNL A   1      44.627  26.955  32.883  1.00  0.00     0.034 A 
BRANCH  48  62
ATOM     62  C   UNL A   1      40.912  31.348  35.252  1.00  0.00     0.023 A 
ATOM     63  C   UNL A   1      39.801  31.152  36.094  1.00  0.00     0.031 A 
ATOM     64  C   UNL A   1      41.675  32.512  35.440  1.00  0.00     0.131 A 
ATOM     65  C   UNL A   1      39.418  32.155  36.997  1.00  0.00     0.055 A 
ATOM     66  C   UNL A   1      41.350  33.457  36.416  1.00  0.00     0.041 A 
ATOM     67  F   UNL A   1      42.734  32.772  34.656  1.00  0.00    -0.206 F 
ATOM     68  C   UNL A   1      40.202  33.293  37.186  1.00  0.00     0.022 A 
BRANCH  65  69
ATOM     69  S   UNL A   1      37.778  32.040  37.765  1.00  0.00     0.124 S 
ATOM     70  O   UNL A   1      37.447  30.634  37.542  1.00  0.00    -0.237 OA
ATOM     71  O   UNL A   1      38.049  32.422  39.147  1.00  0.00    -0.237 OA
ATOM     72  O   UNL A   1      36.973  32.990  36.999  1.00  0.00    -0.744 OA
ENDBRANCH  65  69
ENDBRANCH  48  62
BRANCH  49  73
ATOM     73  C   UNL A   1      42.599  25.284  27.410  1.00  0.00     0.023 A 
ATOM     74  C   UNL A   1      42.073  23.983  27.396  1.00  0.00     0.031 A 
ATOM     75  C   UNL A   1      43.390  25.686  26.319  1.00  0.00     0.131 A 
ATOM     76  C   UNL A   1      42.379  23.114  26.338  1.00  0.00     0.055 A 
ATOM     77  C   UNL A   1      43.647  24.835  25.241  1.00  0.00     0.041 A 
ATOM     78  F   UNL A   1      43.915  26.920  26.278  1.00  0.00    -0.206 F 
ATOM     79  C   UNL A   1      43.150  23.535  25.253  1.00  0.00     0.022 A 
BRANCH  76  80
ATOM     80  S   UNL A   1      41.820  21.391  26.441  1.00  0.00     0.124 S 
ATOM     81  O   UNL A   1      40.389  21.530  26.201  1.00  0.00    -0.237 OA
ATOM     82  O   UNL A   1      42.592  20.759  25.377  1.00  0.00    -0.237 OA
ATOM     83  O   UNL A   1      42.191  20.994  27.798  1.00  0.00    -0.744 OA
ENDBRANCH  76  80
ENDBRANCH  49  73
BRANCH  61  84
ATOM     84  C   UNL A   1      45.816  26.276  33.519  1.00  0.00     0.023 A 
ATOM     85  C   UNL A   1      45.690  25.069  34.228  1.00  0.00     0.031 A 
ATOM     86  C   UNL A   1      47.094  26.854  33.417  1.00  0.00     0.131 A 
ATOM     87  C   UNL A   1      46.811  24.513  34.862  1.00  0.00     0.055 A 
ATOM     88  C   UNL A   1      48.218  26.258  33.989  1.00  0.00     0.041 A 
ATOM     89  F   UNL A   1      47.273  28.008  32.754  1.00  0.00    -0.206 F 
ATOM     90  C   UNL A   1      48.077  25.087  34.729  1.00  0.00     0.022 A 
BRANCH  87  91
ATOM     91  S   UNL A   1      46.573  23.083  35.952  1.00  0.00     0.124 S 
ATOM     92  O   UNL A   1      46.999  21.978  35.100  1.00  0.00    -0.237 OA
ATOM     93  O   UNL A   1      47.451  23.397  37.075  1.00  0.00    -0.237 OA
ATOM     94  O   UNL A   1      45.143  23.117  36.255  1.00  0.00    -0.744 OA
ENDBRANCH  87  91
ENDBRANCH  61  84
ENDBRANCH  35  36
ENDBRANCH  27  30
ENDBRANCH  25  26
ENDBRANCH   1  25
TORSDOF 20
ENDMDL
MODEL 3
REMARK VINA RESULT:     -10.9      5.377     10.050
REMARK SMILES CCCC[C@H](C(=O)NCCCNC(=O)c1ccc(-c2c3nc(c(-c4cc(S(=O)(=O)[O-])ccc4F)c4ccc([nH]4)c(-c4cc(S(=O)(=O)[O-])ccc4F)c4nc(c(-c5cc(S(=O)(=O)[O-])ccc5F)c5ccc2[nH]5)C=C4)C=C3)cc1)[C@H](O)c1ccc(C(F)(F)F)cc1
REMARK SMILES IDX 10 1 9 2 8 3 6 4 7 5 5 7 4 8 3 9 2 10 1 11 78 12 80 13 81 14
REMARK SMILES IDX 89 15 82 16 88 17 83 18 84 19 85 20 86 21 87 22 79 23 11 25
REMARK SMILES IDX 12 26 13 27 14 29 15 30 16 31 77 32 17 33 76 34 18 35 19 36
REMARK SMILES IDX 20 37 70 38 21 39 75 40 69 41 71 42 22 43 74 44 68 45 67 46
REMARK SMILES IDX 23 48 55 49 35 50 54 51 36 52 39 53 53 54 72 55 37 56 38 57
REMARK SMILES IDX 52 59 73 60 40 61 24 62 25 63 33 64 26 65 32 66 34 67 31 68
REMARK SMILES IDX 27 69 28 70 29 71 30 72 56 73 57 74 65 75 58 76 64 77 66 78
REMARK SMILES IDX 63 79 59 80 60 81 61 82 62 83 41 84 42 85 50 86 43 87 49 88
REMARK SMILES IDX 51 89 48 90 44 91 45 92 46 93 47 94
REMARK H PARENT 8 6 79 24 12 28 71 47 39 58
REMARK Flexibility Score: inf
ROOT
ATOM      1  C   UNL A   1      32.590  29.289  24.745  1.00  0.00     0.042 C 
ENDROOT
BRANCH   1   2
ATOM      2  C   UNL A   1      32.931  27.833  24.521  1.00  0.00     0.117 C 
BRANCH   2   3
ATOM      3  N   UNL A   1      33.412  27.573  23.188  1.00  0.00    -0.356 N 
ATOM      4  C   UNL A   1      33.303  26.454  22.431  1.00  0.00     0.226 C 
ATOM      5  O   UNL A   1      33.652  26.554  21.248  1.00  0.00    -0.275 OA
ATOM      6  H   UNL A   1      33.892  28.320  22.763  1.00  0.00     0.163 HD
BRANCH   4   7
ATOM      7  C   UNL A   1      32.813  25.103  22.967  1.00  0.00     0.111 C 
BRANCH   7   8
ATOM      8  C   UNL A   1      31.279  25.031  23.217  1.00  0.00     0.016 C 
BRANCH   8   9
ATOM      9  C   UNL A   1      30.659  24.601  24.551  1.00  0.00     0.001 C 
BRANCH   9  10
ATOM     10  C   UNL A   1      31.578  24.464  25.762  1.00  0.00    -0.003 C 
ATOM     11  C   UNL A   1      31.278  23.255  26.627  1.00  0.00     0.004 C 
ENDBRANCH   9  10
ENDBRANCH   8   9
ENDBRANCH   7   8
BRANCH   7  12
ATOM     12  C   UNL A   1      33.514  23.792  22.494  1.00  0.00     0.157 C 
BRANCH  12  13
ATOM     13  C   UNL A   1      33.276  22.496  23.241  1.00  0.00    -0.019 A 
ATOM     14  C   UNL A   1      32.263  21.615  22.823  1.00  0.00     0.007 A 
ATOM     15  C   UNL A   1      34.072  22.116  24.332  1.00  0.00     0.007 A 
ATOM     16  C   UNL A   1      32.153  20.335  23.373  1.00  0.00     0.013 A 
ATOM     17  C   UNL A   1      33.963  20.836  24.887  1.00  0.00     0.013 A 
ATOM     18  C   UNL A   1      33.033  19.918  24.382  1.00  0.00     0.056 A 
BRANCH  18  19
ATOM     19  C   UNL A   1      32.992  18.489  24.868  1.00  0.00     0.416 C 
ATOM     20  F   UNL A   1      34.156  17.823  24.643  1.00  0.00    -0.166 F 
ATOM     21  F   UNL A   1      32.765  18.419  26.207  1.00  0.00    -0.166 F 
ATOM     22  F   UNL A   1      32.011  17.745  24.285  1.00  0.00    -0.166 F 
ENDBRANCH  18  19
ENDBRANCH  12  13
BRANCH  12  23
ATOM     23  O   UNL A   1      33.153  23.514  21.129  1.00  0.00    -0.388 OA
ATOM     24  H   UNL A   1      32.417  22.881  21.111  1.00  0.00     0.211 HD
ENDBRANCH  12  23
ENDBRANCH   7  12
ENDBRANCH   4   7
ENDBRANCH   2   3
ENDBRANCH   1   2
BRANCH   1  25
ATOM     25  C   UNL A   1      32.525  29.622  26.219  1.00  0.00     0.118 C 
BRANCH  25  26
ATOM     26  N   UNL A   1      32.380  31.057  26.449  1.00  0.00    -0.352 N 
ATOM     27  C   UNL A   1      33.141  31.898  27.224  1.00  0.00     0.251 C 
ATOM     28  H   UNL A   1      31.628  31.484  25.979  1.00  0.00     0.163 HD
ATOM     29  O   UNL A   1      32.728  33.025  27.487  1.00  0.00    -0.269 OA
BRANCH  27  30
ATOM     30  C   UNL A   1      34.430  31.423  27.768  1.00  0.00     0.039 A 
ATOM     31  C   UNL A   1      35.454  32.340  28.011  1.00  0.00     0.014 A 
ATOM     32  C   UNL A   1      34.611  30.073  28.072  1.00  0.00     0.014 A 
ATOM     33  C   UNL A   1      36.628  31.907  28.628  1.00  0.00     0.010 A 
ATOM     34  C   UNL A   1      35.709  29.678  28.819  1.00  0.00     0.010 A 
ATOM     35  C   UNL A   1      36.745  30.582  29.078  1.00  0.00    -0.014 A 
BRANCH  35  36
ATOM     36  C   UNL A   1      37.966  30.093  29.766  1.00  0.00     0.031 A 
ATOM     37  C   UNL A   1      38.273  30.577  31.159  1.00  0.00     0.074 A 
ATOM     38  C   UNL A   1      38.817  29.272  29.122  1.00  0.00     0.049 A 
ATOM     39  N   UNL A   1      39.322  30.347  31.905  1.00  0.00    -0.248 NA
ATOM     40  C   UNL A   1      37.289  31.484  31.773  1.00  0.00     0.031 C 
ATOM     41  C   UNL A   1      38.643  28.772  27.756  1.00  0.00     0.029 A 
ATOM     42  N   UNL A   1      39.998  28.708  29.533  1.00  0.00    -0.354 N 
ATOM     43  C   UNL A   1      39.127  31.092  33.065  1.00  0.00     0.074 A 
ATOM     44  C   UNL A   1      37.919  31.861  32.872  1.00  0.00     0.031 C 
ATOM     45  C   UNL A   1      39.649  27.932  27.465  1.00  0.00     0.029 A 
ATOM     46  C   UNL A   1      40.568  27.878  28.597  1.00  0.00     0.049 A 
ATOM     47  H   UNL A   1      40.399  28.883  30.415  1.00  0.00     0.167 HD
ATOM     48  C   UNL A   1      39.863  31.101  34.203  1.00  0.00     0.034 A 
ATOM     49  C   UNL A   1      41.703  27.155  28.651  1.00  0.00     0.034 A 
ATOM     50  C   UNL A   1      41.059  30.315  34.376  1.00  0.00     0.049 A 
ATOM     51  C   UNL A   1      42.536  27.215  29.907  1.00  0.00     0.074 A 
ATOM     52  C   UNL A   1      41.871  30.209  35.490  1.00  0.00     0.029 A 
ATOM     53  N   UNL A   1      41.618  29.500  33.398  1.00  0.00    -0.354 N 
ATOM     54  N   UNL A   1      42.319  27.890  31.013  1.00  0.00    -0.248 NA
ATOM     55  C   UNL A   1      43.761  26.408  29.922  1.00  0.00     0.031 C 
ATOM     56  C   UNL A   1      42.958  29.394  35.162  1.00  0.00     0.029 A 
ATOM     57  C   UNL A   1      42.781  28.915  33.873  1.00  0.00     0.049 A 
ATOM     58  H   UNL A   1      41.242  29.359  32.499  1.00  0.00     0.167 HD
ATOM     59  C   UNL A   1      43.364  27.557  31.871  1.00  0.00     0.074 A 
ATOM     60  C   UNL A   1      44.200  26.613  31.155  1.00  0.00     0.031 C 
ATOM     61  C   UNL A   1      43.607  27.984  33.138  1.00  0.00     0.034 A 
BRANCH  48  62
ATOM     62  C   UNL A   1      39.389  32.003  35.322  1.00  0.00     0.023 A 
ATOM     63  C   UNL A   1      39.826  33.338  35.425  1.00  0.00     0.031 A 
ATOM     64  C   UNL A   1      38.556  31.509  36.340  1.00  0.00     0.131 A 
ATOM     65  C   UNL A   1      39.528  34.088  36.572  1.00  0.00     0.055 A 
ATOM     66  C   UNL A   1      38.175  32.298  37.428  1.00  0.00     0.041 A 
ATOM     67  F   UNL A   1      38.123  30.239  36.315  1.00  0.00    -0.206 F 
ATOM     68  C   UNL A   1      38.681  33.588  37.562  1.00  0.00     0.022 A 
BRANCH  65  69
ATOM     69  S   UNL A   1      40.430  35.639  36.844  1.00  0.00     0.124 S 
ATOM     70  O   UNL A   1      41.759  35.299  36.337  1.00  0.00    -0.237 OA
ATOM     71  O   UNL A   1      39.667  36.592  36.047  1.00  0.00    -0.237 OA
ATOM     72  O   UNL A   1      40.355  35.830  38.291  1.00  0.00    -0.744 OA
ENDBRANCH  65  69
ENDBRANCH  48  62
BRANCH  49  73
ATOM     73  C   UNL A   1      42.110  26.298  27.502  1.00  0.00     0.023 A 
ATOM     74  C   UNL A   1      41.739  24.945  27.451  1.00  0.00     0.031 A 
ATOM     75  C   UNL A   1      42.895  26.805  26.451  1.00  0.00     0.131 A 
ATOM     76  C   UNL A   1      42.190  24.133  26.399  1.00  0.00     0.055 A 
ATOM     77  C   UNL A   1      43.294  26.006  25.377  1.00  0.00     0.041 A 
ATOM     78  F   UNL A   1      43.273  28.092  26.445  1.00  0.00    -0.206 F 
ATOM     79  C   UNL A   1      42.952  24.657  25.354  1.00  0.00     0.022 A 
BRANCH  76  80
ATOM     80  S   UNL A   1      41.831  22.356  26.460  1.00  0.00     0.124 S 
ATOM     81  O   UNL A   1      42.274  22.010  27.805  1.00  0.00    -0.237 OA
ATOM     82  O   UNL A   1      40.391  22.329  26.230  1.00  0.00    -0.237 OA
ATOM     83  O   UNL A   1      42.643  21.809  25.375  1.00  0.00    -0.744 OA
ENDBRANCH  76  80
ENDBRANCH  49  73
BRANCH  61  84
ATOM     84  C   UNL A   1      44.800  27.387  33.844  1.00  0.00     0.023 A 
ATOM     85  C   UNL A   1      44.693  26.230  34.634  1.00  0.00     0.031 A 
ATOM     86  C   UNL A   1      46.064  27.993  33.727  1.00  0.00     0.131 A 
ATOM     87  C   UNL A   1      45.814  25.752  35.328  1.00  0.00     0.055 A 
ATOM     88  C   UNL A   1      47.191  27.472  34.362  1.00  0.00     0.041 A 
ATOM     89  F   UNL A   1      46.225  29.102  32.987  1.00  0.00    -0.206 F 
ATOM     90  C   UNL A   1      47.067  26.352  35.180  1.00  0.00     0.022 A 
BRANCH  87  91
ATOM     91  S   UNL A   1      45.592  24.396  36.511  1.00  0.00     0.124 S 
ATOM     92  O   UNL A   1      46.530  23.398  36.008  1.00  0.00    -0.237 OA
ATOM     93  O   UNL A   1      45.951  25.026  37.778  1.00  0.00    -0.237 OA
ATOM     94  O   UNL A   1      44.180  24.047  36.372  1.00  0.00    -0.744 OA
ENDBRANCH  87  91
ENDBRANCH  61  84
ENDBRANCH  35  36
ENDBRANCH  27  30
ENDBRANCH  25  26
ENDBRANCH   1  25
TORSDOF 20
ENDMDL
