MODEL 1
REMARK VINA RESULT:     -12.1      0.000      0.000
REMARK SMILES CCCc1c(C(=O)NCCCNC(=O)c2ccc(-c3c4nc(c(-c5cc(S(=O)(=O)[O-])ccc5F)c5ccc([nH]5)c(-c5cc(S(=O)(=O)[O-])ccc5F)c5nc(c(-c6cc(S(=O)(=O)[O-])ccc6F)c6ccc3[nH]6)C=C5)C=C4)cc2)nnn1-c1ccccc1[N+](=O)[O-]
REMARK SMILES IDX 10 1 9 2 8 3 6 4 7 5 5 7 4 8 80 9 78 10 79 11 3 12 2 13 1 14
REMARK SMILES IDX 81 15 82 16 86 17 83 18 85 19 84 20 87 21 88 22 89 23 11 24
REMARK SMILES IDX 12 25 13 26 14 28 15 29 16 30 77 31 17 32 76 33 18 34 19 35
REMARK SMILES IDX 20 36 70 37 21 38 75 39 69 40 71 41 22 42 74 43 68 44 67 45
REMARK SMILES IDX 23 47 55 48 35 49 54 50 36 51 39 52 53 53 72 54 37 55 38 56
REMARK SMILES IDX 52 58 73 59 40 60 24 61 25 62 33 63 26 64 32 65 34 66 31 67
REMARK SMILES IDX 27 68 28 69 29 70 30 71 56 72 57 73 65 74 58 75 64 76 66 77
REMARK SMILES IDX 63 78 59 79 60 80 61 81 62 82 41 83 42 84 50 85 43 86 49 87
REMARK SMILES IDX 51 88 48 89 44 90 45 91 46 92 47 93
REMARK H PARENT 8 6 12 27 71 46 39 57
REMARK Flexibility Score: inf
ROOT
ATOM      1  C   UNL A   1      33.160  29.727  27.606  1.00  0.00     0.042 C 
ENDROOT
BRANCH   1   2
ATOM      2  C   UNL A   1      33.015  30.841  26.589  1.00  0.00     0.118 C 
BRANCH   2   3
ATOM      3  N   UNL A   1      31.798  30.929  25.840  1.00  0.00    -0.351 N 
ATOM      4  C   UNL A   1      31.311  30.005  24.939  1.00  0.00     0.273 C 
ATOM      5  O   UNL A   1      30.200  30.237  24.460  1.00  0.00    -0.267 OA
ATOM      6  H   UNL A   1      31.252  31.735  25.982  1.00  0.00     0.163 HD
BRANCH   4   7
ATOM      7  C   UNL A   1      32.099  28.843  24.487  1.00  0.00     0.174 A 
ATOM      8  C   UNL A   1      32.041  27.445  24.652  1.00  0.00     0.078 A 
ATOM      9  N   UNL A   1      33.168  27.006  23.939  1.00  0.00    -0.210 N 
ATOM     10  N   UNL A   1      33.212  29.145  23.727  1.00  0.00    -0.124 NA
ATOM     11  N   UNL A   1      33.896  28.045  23.503  1.00  0.00    -0.061 NA
BRANCH   8  12
ATOM     12  C   UNL A   1      31.226  26.483  25.479  1.00  0.00     0.059 C 
BRANCH  12  13
ATOM     13  C   UNL A   1      29.958  25.827  24.920  1.00  0.00     0.003 C 
ATOM     14  C   UNL A   1      29.074  26.610  23.972  1.00  0.00     0.004 C 
ENDBRANCH  12  13
ENDBRANCH   8  12
BRANCH   9  15
ATOM     15  C   UNL A   1      33.730  25.709  23.863  1.00  0.00     0.144 A 
ATOM     16  C   UNL A   1      34.585  25.311  24.906  1.00  0.00     0.036 A 
ATOM     17  C   UNL A   1      33.431  24.798  22.843  1.00  0.00     0.294 A 
ATOM     18  C   UNL A   1      35.058  23.999  24.964  1.00  0.00     0.003 A 
ATOM     19  C   UNL A   1      33.904  23.478  22.905  1.00  0.00     0.088 A 
ATOM     20  C   UNL A   1      34.704  23.080  23.976  1.00  0.00     0.007 A 
BRANCH  17  21
ATOM     21  N   UNL A   1      32.708  25.197  21.643  1.00  0.00     0.065 N 
ATOM     22  O   UNL A   1      31.503  25.455  21.772  1.00  0.00    -0.258 OA
ATOM     23  O   UNL A   1      33.339  25.237  20.581  1.00  0.00    -0.258 OA
ENDBRANCH  17  21
ENDBRANCH   9  15
ENDBRANCH   4   7
ENDBRANCH   2   3
ENDBRANCH   1   2
BRANCH   1  24
ATOM     24  C   UNL A   1      34.609  29.426  27.953  1.00  0.00     0.118 C 
BRANCH  24  25
ATOM     25  N   UNL A   1      35.296  30.453  28.751  1.00  0.00    -0.352 N 
ATOM     26  C   UNL A   1      36.639  30.440  29.127  1.00  0.00     0.251 C 
ATOM     27  H   UNL A   1      34.757  31.221  29.048  1.00  0.00     0.163 HD
ATOM     28  O   UNL A   1      37.106  31.269  29.889  1.00  0.00    -0.269 OA
BRANCH  26  29
ATOM     29  C   UNL A   1      37.458  29.342  28.569  1.00  0.00     0.039 A 
ATOM     30  C   UNL A   1      38.126  29.529  27.358  1.00  0.00     0.014 A 
ATOM     31  C   UNL A   1      37.867  28.379  29.476  1.00  0.00     0.014 A 
ATOM     32  C   UNL A   1      39.346  28.874  27.154  1.00  0.00     0.010 A 
ATOM     33  C   UNL A   1      39.144  27.872  29.333  1.00  0.00     0.010 A 
ATOM     34  C   UNL A   1      39.920  28.117  28.189  1.00  0.00    -0.014 A 
BRANCH  34  35
ATOM     35  C   UNL A   1      41.355  27.747  28.149  1.00  0.00     0.031 A 
ATOM     36  C   UNL A   1      41.774  26.515  27.389  1.00  0.00     0.074 A 
ATOM     37  C   UNL A   1      42.372  28.560  28.519  1.00  0.00     0.049 A 
ATOM     38  N   UNL A   1      42.378  25.469  27.859  1.00  0.00    -0.248 NA
ATOM     39  C   UNL A   1      41.507  26.423  25.946  1.00  0.00     0.031 C 
ATOM     40  C   UNL A   1      42.323  29.922  29.059  1.00  0.00     0.029 A 
ATOM     41  N   UNL A   1      43.711  28.367  28.332  1.00  0.00    -0.354 N 
ATOM     42  C   UNL A   1      42.731  24.662  26.774  1.00  0.00     0.074 A 
ATOM     43  C   UNL A   1      42.073  25.252  25.633  1.00  0.00     0.031 C 
ATOM     44  C   UNL A   1      43.507  30.534  28.854  1.00  0.00     0.029 A 
ATOM     45  C   UNL A   1      44.454  29.534  28.406  1.00  0.00     0.049 A 
ATOM     46  H   UNL A   1      44.110  27.484  28.162  1.00  0.00     0.167 HD
ATOM     47  C   UNL A   1      43.654  23.657  26.882  1.00  0.00     0.034 A 
ATOM     48  C   UNL A   1      45.774  29.699  28.168  1.00  0.00     0.034 A 
ATOM     49  C   UNL A   1      43.964  23.371  28.263  1.00  0.00     0.049 A 
ATOM     50  C   UNL A   1      46.422  28.403  28.457  1.00  0.00     0.074 A 
ATOM     51  C   UNL A   1      43.228  23.021  29.379  1.00  0.00     0.029 A 
ATOM     52  N   UNL A   1      45.184  23.772  28.760  1.00  0.00    -0.354 N 
ATOM     53  N   UNL A   1      46.409  27.853  29.643  1.00  0.00    -0.248 NA
ATOM     54  C   UNL A   1      46.708  27.492  27.361  1.00  0.00     0.031 C 
ATOM     55  C   UNL A   1      43.814  23.772  30.442  1.00  0.00     0.029 A 
ATOM     56  C   UNL A   1      44.903  24.468  29.909  1.00  0.00     0.049 A 
ATOM     57  H   UNL A   1      46.072  23.596  28.373  1.00  0.00     0.167 HD
ATOM     58  C   UNL A   1      46.229  26.501  29.408  1.00  0.00     0.074 A 
ATOM     59  C   UNL A   1      46.562  26.324  27.996  1.00  0.00     0.031 C 
ATOM     60  C   UNL A   1      45.559  25.702  30.294  1.00  0.00     0.034 A 
BRANCH  47  61
ATOM     61  C   UNL A   1      44.501  23.060  25.774  1.00  0.00     0.023 A 
ATOM     62  C   UNL A   1      44.474  21.656  25.597  1.00  0.00     0.031 A 
ATOM     63  C   UNL A   1      45.519  23.741  25.077  1.00  0.00     0.131 A 
ATOM     64  C   UNL A   1      45.452  20.993  24.833  1.00  0.00     0.055 A 
ATOM     65  C   UNL A   1      46.449  23.085  24.260  1.00  0.00     0.041 A 
ATOM     66  F   UNL A   1      45.724  25.056  25.226  1.00  0.00    -0.206 F 
ATOM     67  C   UNL A   1      46.438  21.702  24.155  1.00  0.00     0.022 A 
BRANCH  64  68
ATOM     68  S   UNL A   1      45.535  19.179  24.900  1.00  0.00     0.124 S 
ATOM     69  O   UNL A   1      44.287  18.845  25.577  1.00  0.00    -0.237 OA
ATOM     70  O   UNL A   1      45.613  18.829  23.486  1.00  0.00    -0.237 OA
ATOM     71  O   UNL A   1      46.749  18.922  25.674  1.00  0.00    -0.744 OA
ENDBRANCH  64  68
ENDBRANCH  47  61
BRANCH  48  72
ATOM     72  C   UNL A   1      46.391  30.870  27.509  1.00  0.00     0.023 A 
ATOM     73  C   UNL A   1      45.639  31.868  26.872  1.00  0.00     0.031 A 
ATOM     74  C   UNL A   1      47.777  31.116  27.675  1.00  0.00     0.131 A 
ATOM     75  C   UNL A   1      46.272  33.043  26.412  1.00  0.00     0.055 A 
ATOM     76  C   UNL A   1      48.401  32.272  27.206  1.00  0.00     0.041 A 
ATOM     77  F   UNL A   1      48.554  30.267  28.368  1.00  0.00    -0.206 F 
ATOM     78  C   UNL A   1      47.647  33.247  26.574  1.00  0.00     0.022 A 
BRANCH  75  79
ATOM     79  S   UNL A   1      45.279  34.384  25.691  1.00  0.00     0.124 S 
ATOM     80  O   UNL A   1      45.046  33.900  24.336  1.00  0.00    -0.237 OA
ATOM     81  O   UNL A   1      44.117  34.424  26.573  1.00  0.00    -0.237 OA
ATOM     82  O   UNL A   1      46.159  35.549  25.791  1.00  0.00    -0.744 OA
ENDBRANCH  75  79
ENDBRANCH  48  72
BRANCH  60  83
ATOM     83  C   UNL A   1      45.212  26.245  31.667  1.00  0.00     0.023 A 
ATOM     84  C   UNL A   1      44.078  27.043  31.939  1.00  0.00     0.031 A 
ATOM     85  C   UNL A   1      45.959  25.788  32.768  1.00  0.00     0.131 A 
ATOM     86  C   UNL A   1      43.728  27.356  33.266  1.00  0.00     0.055 A 
ATOM     87  C   UNL A   1      45.601  26.086  34.084  1.00  0.00     0.041 A 
ATOM     88  F   UNL A   1      47.026  24.992  32.583  1.00  0.00    -0.206 F 
ATOM     89  C   UNL A   1      44.486  26.875  34.338  1.00  0.00     0.022 A 
BRANCH  86  90
ATOM     90  S   UNL A   1      42.270  28.391  33.615  1.00  0.00     0.124 S 
ATOM     91  O   UNL A   1      41.862  27.969  34.950  1.00  0.00    -0.237 OA
ATOM     92  O   UNL A   1      42.807  29.745  33.511  1.00  0.00    -0.237 OA
ATOM     93  O   UNL A   1      41.333  28.027  32.550  1.00  0.00    -0.744 OA
ENDBRANCH  86  90
ENDBRANCH  60  83
ENDBRANCH  34  35
ENDBRANCH  26  29
ENDBRANCH  24  25
ENDBRANCH   1  24
TORSDOF 17
ENDMDL
MODEL 2
REMARK VINA RESULT:     -11.8      4.424     10.420
REMARK SMILES CCCc1c(C(=O)NCCCNC(=O)c2ccc(-c3c4nc(c(-c5cc(S(=O)(=O)[O-])ccc5F)c5ccc([nH]5)c(-c5cc(S(=O)(=O)[O-])ccc5F)c5nc(c(-c6cc(S(=O)(=O)[O-])ccc6F)c6ccc3[nH]6)C=C5)C=C4)cc2)nnn1-c1ccccc1[N+](=O)[O-]
REMARK SMILES IDX 10 1 9 2 8 3 6 4 7 5 5 7 4 8 80 9 78 10 79 11 3 12 2 13 1 14
REMARK SMILES IDX 81 15 82 16 86 17 83 18 85 19 84 20 87 21 88 22 89 23 11 24
REMARK SMILES IDX 12 25 13 26 14 28 15 29 16 30 77 31 17 32 76 33 18 34 19 35
REMARK SMILES IDX 20 36 70 37 21 38 75 39 69 40 71 41 22 42 74 43 68 44 67 45
REMARK SMILES IDX 23 47 55 48 35 49 54 50 36 51 39 52 53 53 72 54 37 55 38 56
REMARK SMILES IDX 52 58 73 59 40 60 24 61 25 62 33 63 26 64 32 65 34 66 31 67
REMARK SMILES IDX 27 68 28 69 29 70 30 71 56 72 57 73 65 74 58 75 64 76 66 77
REMARK SMILES IDX 63 78 59 79 60 80 61 81 62 82 41 83 42 84 50 85 43 86 49 87
REMARK SMILES IDX 51 88 48 89 44 90 45 91 46 92 47 93
REMARK H PARENT 8 6 12 27 71 46 39 57
REMARK Flexibility Score: inf
ROOT
ATOM      1  C   UNL A   1      38.791  22.049  26.269  1.00  0.00     0.042 C 
ENDROOT
BRANCH   1   2
ATOM      2  C   UNL A   1      37.512  21.684  25.542  1.00  0.00     0.118 C 
BRANCH   2   3
ATOM      3  N   UNL A   1      37.421  21.958  24.140  1.00  0.00    -0.351 N 
ATOM      4  C   UNL A   1      36.566  22.848  23.524  1.00  0.00     0.273 C 
ATOM      5  O   UNL A   1      36.704  22.993  22.309  1.00  0.00    -0.267 OA
ATOM      6  H   UNL A   1      38.031  21.457  23.553  1.00  0.00     0.163 HD
BRANCH   4   7
ATOM      7  C   UNL A   1      35.476  23.534  24.246  1.00  0.00     0.174 A 
ATOM      8  C   UNL A   1      34.132  23.866  23.985  1.00  0.00     0.078 A 
ATOM      9  N   UNL A   1      33.754  24.550  25.152  1.00  0.00    -0.210 N 
ATOM     10  N   UNL A   1      35.811  24.023  25.494  1.00  0.00    -0.124 NA
ATOM     11  N   UNL A   1      34.804  24.720  25.970  1.00  0.00    -0.061 NA
BRANCH   8  12
ATOM     12  C   UNL A   1      33.209  23.801  22.795  1.00  0.00     0.059 C 
BRANCH  12  13
ATOM     13  C   UNL A   1      32.989  22.494  22.026  1.00  0.00     0.003 C 
ATOM     14  C   UNL A   1      32.121  21.413  22.633  1.00  0.00     0.004 C 
ENDBRANCH  12  13
ENDBRANCH   8  12
BRANCH   9  15
ATOM     15  C   UNL A   1      32.562  25.262  25.427  1.00  0.00     0.144 A 
ATOM     16  C   UNL A   1      32.538  26.631  25.111  1.00  0.00     0.036 A 
ATOM     17  C   UNL A   1      31.406  24.659  25.935  1.00  0.00     0.294 A 
ATOM     18  C   UNL A   1      31.350  27.356  25.225  1.00  0.00     0.003 A 
ATOM     19  C   UNL A   1      30.211  25.389  26.046  1.00  0.00     0.088 A 
ATOM     20  C   UNL A   1      30.186  26.733  25.674  1.00  0.00     0.007 A 
BRANCH  17  21
ATOM     21  N   UNL A   1      31.411  23.298  26.456  1.00  0.00     0.065 N 
ATOM     22  O   UNL A   1      31.895  23.130  27.584  1.00  0.00    -0.258 OA
ATOM     23  O   UNL A   1      30.948  22.408  25.734  1.00  0.00    -0.258 OA
ENDBRANCH  17  21
ENDBRANCH   9  15
ENDBRANCH   4   7
ENDBRANCH   2   3
ENDBRANCH   1   2
BRANCH   1  24
ATOM     24  C   UNL A   1      39.163  23.515  26.113  1.00  0.00     0.118 C 
BRANCH  24  25
ATOM     25  N   UNL A   1      40.605  23.807  26.120  1.00  0.00    -0.352 N 
ATOM     26  C   UNL A   1      41.200  25.001  26.526  1.00  0.00     0.251 C 
ATOM     27  H   UNL A   1      41.206  23.092  25.809  1.00  0.00     0.163 HD
ATOM     28  O   UNL A   1      42.393  25.208  26.391  1.00  0.00    -0.269 OA
BRANCH  26  29
ATOM     29  C   UNL A   1      40.291  26.014  27.104  1.00  0.00     0.039 A 
ATOM     30  C   UNL A   1      39.722  25.792  28.359  1.00  0.00     0.014 A 
ATOM     31  C   UNL A   1      40.409  27.291  26.583  1.00  0.00     0.014 A 
ATOM     32  C   UNL A   1      39.458  26.891  29.183  1.00  0.00     0.010 A 
ATOM     33  C   UNL A   1      40.299  28.351  27.463  1.00  0.00     0.010 A 
ATOM     34  C   UNL A   1      39.843  28.181  28.780  1.00  0.00    -0.014 A 
BRANCH  34  35
ATOM     35  C   UNL A   1      39.936  29.285  29.766  1.00  0.00     0.031 A 
ATOM     36  C   UNL A   1      38.697  30.073  30.104  1.00  0.00     0.074 A 
ATOM     37  C   UNL A   1      40.986  29.492  30.595  1.00  0.00     0.049 A 
ATOM     38  N   UNL A   1      38.508  31.346  29.950  1.00  0.00    -0.248 NA
ATOM     39  C   UNL A   1      37.534  29.387  30.686  1.00  0.00     0.031 C 
ATOM     40  C   UNL A   1      42.245  28.749  30.704  1.00  0.00     0.029 A 
ATOM     41  N   UNL A   1      41.065  30.357  31.649  1.00  0.00    -0.354 N 
ATOM     42  C   UNL A   1      37.295  31.670  30.562  1.00  0.00     0.074 A 
ATOM     43  C   UNL A   1      36.692  30.405  30.904  1.00  0.00     0.031 C 
ATOM     44  C   UNL A   1      42.793  28.961  31.917  1.00  0.00     0.029 A 
ATOM     45  C   UNL A   1      42.062  30.036  32.555  1.00  0.00     0.049 A 
ATOM     46  H   UNL A   1      40.470  31.134  31.755  1.00  0.00     0.167 HD
ATOM     47  C   UNL A   1      36.954  32.960  30.867  1.00  0.00     0.034 A 
ATOM     48  C   UNL A   1      42.331  30.622  33.742  1.00  0.00     0.034 A 
ATOM     49  C   UNL A   1      37.838  33.906  30.227  1.00  0.00     0.049 A 
ATOM     50  C   UNL A   1      41.862  32.020  33.641  1.00  0.00     0.074 A 
ATOM     51  C   UNL A   1      38.226  34.156  28.925  1.00  0.00     0.029 A 
ATOM     52  N   UNL A   1      38.763  34.570  31.002  1.00  0.00    -0.354 N 
ATOM     53  N   UNL A   1      42.353  32.872  32.780  1.00  0.00    -0.248 NA
ATOM     54  C   UNL A   1      40.556  32.371  34.174  1.00  0.00     0.031 C 
ATOM     55  C   UNL A   1      39.625  34.428  29.017  1.00  0.00     0.029 A 
ATOM     56  C   UNL A   1      39.968  34.391  30.371  1.00  0.00     0.049 A 
ATOM     57  H   UNL A   1      38.595  35.068  31.834  1.00  0.00     0.167 HD
ATOM     58  C   UNL A   1      41.262  33.594  32.329  1.00  0.00     0.074 A 
ATOM     59  C   UNL A   1      40.217  33.342  33.320  1.00  0.00     0.031 C 
ATOM     60  C   UNL A   1      41.211  34.098  31.058  1.00  0.00     0.034 A 
BRANCH  47  61
ATOM     61  C   UNL A   1      35.984  33.430  31.936  1.00  0.00     0.023 A 
ATOM     62  C   UNL A   1      35.031  34.416  31.585  1.00  0.00     0.031 A 
ATOM     63  C   UNL A   1      36.115  33.175  33.315  1.00  0.00     0.131 A 
ATOM     64  C   UNL A   1      34.325  35.137  32.566  1.00  0.00     0.055 A 
ATOM     65  C   UNL A   1      35.359  33.845  34.286  1.00  0.00     0.041 A 
ATOM     66  F   UNL A   1      37.044  32.340  33.798  1.00  0.00    -0.206 F 
ATOM     67  C   UNL A   1      34.478  34.851  33.918  1.00  0.00     0.022 A 
BRANCH  64  68
ATOM     68  S   UNL A   1      33.353  36.585  32.057  1.00  0.00     0.124 S 
ATOM     69  O   UNL A   1      34.148  37.685  32.593  1.00  0.00    -0.237 OA
ATOM     70  O   UNL A   1      33.343  36.446  30.605  1.00  0.00    -0.237 OA
ATOM     71  O   UNL A   1      32.063  36.375  32.713  1.00  0.00    -0.744 OA
ENDBRANCH  64  68
ENDBRANCH  47  61
BRANCH  48  72
ATOM     72  C   UNL A   1      42.774  29.924  34.969  1.00  0.00     0.023 A 
ATOM     73  C   UNL A   1      42.208  28.716  35.401  1.00  0.00     0.031 A 
ATOM     74  C   UNL A   1      43.934  30.370  35.647  1.00  0.00     0.131 A 
ATOM     75  C   UNL A   1      42.785  28.013  36.481  1.00  0.00     0.055 A 
ATOM     76  C   UNL A   1      44.494  29.680  36.724  1.00  0.00     0.041 A 
ATOM     77  F   UNL A   1      44.605  31.458  35.233  1.00  0.00    -0.206 F 
ATOM     78  C   UNL A   1      43.922  28.491  37.143  1.00  0.00     0.022 A 
BRANCH  75  79
ATOM     79  S   UNL A   1      42.121  26.391  36.965  1.00  0.00     0.124 S 
ATOM     80  O   UNL A   1      42.056  25.693  35.687  1.00  0.00    -0.237 OA
ATOM     81  O   UNL A   1      43.120  25.913  37.914  1.00  0.00    -0.237 OA
ATOM     82  O   UNL A   1      40.825  26.719  37.559  1.00  0.00    -0.744 OA
ENDBRANCH  75  79
ENDBRANCH  48  72
BRANCH  60  83
ATOM     83  C   UNL A   1      42.462  34.075  30.200  1.00  0.00     0.023 A 
ATOM     84  C   UNL A   1      42.828  32.996  29.365  1.00  0.00     0.031 A 
ATOM     85  C   UNL A   1      43.210  35.261  30.089  1.00  0.00     0.131 A 
ATOM     86  C   UNL A   1      43.904  33.124  28.466  1.00  0.00     0.055 A 
ATOM     87  C   UNL A   1      44.266  35.392  29.186  1.00  0.00     0.041 A 
ATOM     88  F   UNL A   1      42.889  36.339  30.825  1.00  0.00    -0.206 F 
ATOM     89  C   UNL A   1      44.620  34.321  28.373  1.00  0.00     0.022 A 
BRANCH  86  90
ATOM     90  S   UNL A   1      44.382  31.729  27.396  1.00  0.00     0.124 S 
ATOM     91  O   UNL A   1      43.479  30.659  27.803  1.00  0.00    -0.237 OA
ATOM     92  O   UNL A   1      44.169  32.267  26.055  1.00  0.00    -0.237 OA
ATOM     93  O   UNL A   1      45.787  31.503  27.742  1.00  0.00    -0.744 OA
ENDBRANCH  86  90
ENDBRANCH  60  83
ENDBRANCH  34  35
ENDBRANCH  26  29
ENDBRANCH  24  25
ENDBRANCH   1  24
TORSDOF 17
ENDMDL
MODEL 3
REMARK VINA RESULT:     -11.6      2.966      7.219
REMARK SMILES CCCc1c(C(=O)NCCCNC(=O)c2ccc(-c3c4nc(c(-c5cc(S(=O)(=O)[O-])ccc5F)c5ccc([nH]5)c(-c5cc(S(=O)(=O)[O-])ccc5F)c5nc(c(-c6cc(S(=O)(=O)[O-])ccc6F)c6ccc3[nH]6)C=C5)C=C4)cc2)nnn1-c1ccccc1[N+](=O)[O-]
REMARK SMILES IDX 10 1 9 2 8 3 6 4 7 5 5 7 4 8 80 9 78 10 79 11 3 12 2 13 1 14
REMARK SMILES IDX 81 15 82 16 86 17 83 18 85 19 84 20 87 21 88 22 89 23 11 24
REMARK SMILES IDX 12 25 13 26 14 28 15 29 16 30 77 31 17 32 76 33 18 34 19 35
REMARK SMILES IDX 20 36 70 37 21 38 75 39 69 40 71 41 22 42 74 43 68 44 67 45
REMARK SMILES IDX 23 47 55 48 35 49 54 50 36 51 39 52 53 53 72 54 37 55 38 56
REMARK SMILES IDX 52 58 73 59 40 60 24 61 25 62 33 63 26 64 32 65 34 66 31 67
REMARK SMILES IDX 27 68 28 69 29 70 30 71 56 72 57 73 65 74 58 75 64 76 66 77
REMARK SMILES IDX 63 78 59 79 60 80 61 81 62 82 41 83 42 84 50 85 43 86 49 87
REMARK SMILES IDX 51 88 48 89 44 90 45 91 46 92 47 93
REMARK H PARENT 8 6 12 27 71 46 39 57
REMARK Flexibility Score: inf
ROOT
ATOM      1  C   UNL A   1      33.190  29.183  27.217  1.00  0.00     0.042 C 
ENDROOT
BRANCH   1   2
ATOM      2  C   UNL A   1      31.740  29.135  26.778  1.00  0.00     0.118 C 
BRANCH   2   3
ATOM      3  N   UNL A   1      31.401  29.635  25.481  1.00  0.00    -0.351 N 
ATOM      4  C   UNL A   1      30.898  28.912  24.419  1.00  0.00     0.273 C 
ATOM      5  O   UNL A   1      30.597  29.552  23.410  1.00  0.00    -0.267 OA
ATOM      6  H   UNL A   1      31.543  30.597  25.330  1.00  0.00     0.163 HD
BRANCH   4   7
ATOM      7  C   UNL A   1      30.804  27.439  24.433  1.00  0.00     0.174 A 
ATOM      8  C   UNL A   1      31.682  26.365  24.675  1.00  0.00     0.078 A 
ATOM      9  N   UNL A   1      30.859  25.246  24.467  1.00  0.00    -0.210 N 
ATOM     10  N   UNL A   1      29.566  26.924  24.101  1.00  0.00    -0.124 NA
ATOM     11  N   UNL A   1      29.649  25.616  24.020  1.00  0.00    -0.061 NA
BRANCH   8  12
ATOM     12  C   UNL A   1      33.163  26.202  24.901  1.00  0.00     0.059 C 
BRANCH  12  13
ATOM     13  C   UNL A   1      34.119  25.900  23.742  1.00  0.00     0.003 C 
ATOM     14  C   UNL A   1      33.642  26.093  22.318  1.00  0.00     0.004 C 
ENDBRANCH  12  13
ENDBRANCH   8  12
BRANCH   9  15
ATOM     15  C   UNL A   1      31.207  23.875  24.415  1.00  0.00     0.144 A 
ATOM     16  C   UNL A   1      31.441  23.314  23.148  1.00  0.00     0.036 A 
ATOM     17  C   UNL A   1      31.385  23.081  25.554  1.00  0.00     0.294 A 
ATOM     18  C   UNL A   1      31.925  22.008  23.036  1.00  0.00     0.003 A 
ATOM     19  C   UNL A   1      31.875  21.771  25.441  1.00  0.00     0.088 A 
ATOM     20  C   UNL A   1      32.158  21.246  24.180  1.00  0.00     0.007 A 
BRANCH  17  21
ATOM     21  N   UNL A   1      30.986  23.536  26.879  1.00  0.00     0.065 N 
ATOM     22  O   UNL A   1      31.889  23.717  27.707  1.00  0.00    -0.258 OA
ATOM     23  O   UNL A   1      29.779  23.697  27.089  1.00  0.00    -0.258 OA
ENDBRANCH  17  21
ENDBRANCH   9  15
ENDBRANCH   4   7
ENDBRANCH   2   3
ENDBRANCH   1   2
BRANCH   1  24
ATOM     24  C   UNL A   1      33.789  30.578  27.130  1.00  0.00     0.118 C 
BRANCH  24  25
ATOM     25  N   UNL A   1      33.812  31.337  28.389  1.00  0.00    -0.352 N 
ATOM     26  C   UNL A   1      34.946  31.663  29.133  1.00  0.00     0.251 C 
ATOM     27  H   UNL A   1      32.945  31.645  28.740  1.00  0.00     0.163 HD
ATOM     28  O   UNL A   1      34.872  32.194  30.227  1.00  0.00    -0.269 OA
BRANCH  26  29
ATOM     29  C   UNL A   1      36.245  31.299  28.526  1.00  0.00     0.039 A 
ATOM     30  C   UNL A   1      37.360  32.108  28.750  1.00  0.00     0.014 A 
ATOM     31  C   UNL A   1      36.381  29.973  28.154  1.00  0.00     0.014 A 
ATOM     32  C   UNL A   1      38.625  31.513  28.798  1.00  0.00     0.010 A 
ATOM     33  C   UNL A   1      37.608  29.374  28.367  1.00  0.00     0.010 A 
ATOM     34  C   UNL A   1      38.749  30.116  28.710  1.00  0.00    -0.014 A 
BRANCH  34  35
ATOM     35  C   UNL A   1      39.996  29.439  29.141  1.00  0.00     0.031 A 
ATOM     36  C   UNL A   1      40.218  29.177  30.609  1.00  0.00     0.074 A 
ATOM     37  C   UNL A   1      40.849  28.793  28.313  1.00  0.00     0.049 A 
ATOM     38  N   UNL A   1      41.191  29.613  31.346  1.00  0.00    -0.248 NA
ATOM     39  C   UNL A   1      39.269  28.335  31.350  1.00  0.00     0.031 C 
ATOM     40  C   UNL A   1      40.790  28.635  26.857  1.00  0.00     0.029 A 
ATOM     41  N   UNL A   1      41.901  27.989  28.651  1.00  0.00    -0.354 N 
ATOM     42  C   UNL A   1      41.096  28.978  32.587  1.00  0.00     0.074 A 
ATOM     43  C   UNL A   1      39.831  28.284  32.564  1.00  0.00     0.031 C 
ATOM     44  C   UNL A   1      41.527  27.569  26.485  1.00  0.00     0.029 A 
ATOM     45  C   UNL A   1      42.297  27.137  27.633  1.00  0.00     0.049 A 
ATOM     46  H   UNL A   1      42.336  28.014  29.534  1.00  0.00     0.167 HD
ATOM     47  C   UNL A   1      42.136  28.959  33.478  1.00  0.00     0.034 A 
ATOM     48  C   UNL A   1      43.227  26.159  27.680  1.00  0.00     0.034 A 
ATOM     49  C   UNL A   1      43.172  29.892  33.101  1.00  0.00     0.049 A 
ATOM     50  C   UNL A   1      44.198  26.545  28.725  1.00  0.00     0.074 A 
ATOM     51  C   UNL A   1      43.220  31.248  32.841  1.00  0.00     0.029 A 
ATOM     52  N   UNL A   1      44.349  29.395  32.588  1.00  0.00    -0.354 N 
ATOM     53  N   UNL A   1      44.923  27.630  28.652  1.00  0.00    -0.248 NA
ATOM     54  C   UNL A   1      44.064  25.983  30.059  1.00  0.00     0.031 C 
ATOM     55  C   UNL A   1      44.091  31.364  31.716  1.00  0.00     0.029 A 
ATOM     56  C   UNL A   1      44.560  30.082  31.419  1.00  0.00     0.049 A 
ATOM     57  H   UNL A   1      44.920  28.694  32.978  1.00  0.00     0.167 HD
ATOM     58  C   UNL A   1      44.949  28.129  29.943  1.00  0.00     0.074 A 
ATOM     59  C   UNL A   1      44.530  27.007  30.782  1.00  0.00     0.031 C 
ATOM     60  C   UNL A   1      45.031  29.472  30.190  1.00  0.00     0.034 A 
BRANCH  47  61
ATOM     61  C   UNL A   1      42.391  27.942  34.575  1.00  0.00     0.023 A 
ATOM     62  C   UNL A   1      43.129  26.779  34.247  1.00  0.00     0.031 A 
ATOM     63  C   UNL A   1      41.736  27.915  35.822  1.00  0.00     0.131 A 
ATOM     64  C   UNL A   1      43.134  25.652  35.089  1.00  0.00     0.055 A 
ATOM     65  C   UNL A   1      41.801  26.817  36.690  1.00  0.00     0.041 A 
ATOM     66  F   UNL A   1      40.925  28.904  36.220  1.00  0.00    -0.206 F 
ATOM     67  C   UNL A   1      42.479  25.666  36.315  1.00  0.00     0.022 A 
BRANCH  64  68
ATOM     68  S   UNL A   1      43.843  24.099  34.467  1.00  0.00     0.124 S 
ATOM     69  O   UNL A   1      42.782  23.143  34.762  1.00  0.00    -0.237 OA
ATOM     70  O   UNL A   1      44.058  24.408  33.058  1.00  0.00    -0.237 OA
ATOM     71  O   UNL A   1      45.060  23.939  35.263  1.00  0.00    -0.744 OA
ENDBRANCH  64  68
ENDBRANCH  47  61
BRANCH  48  72
ATOM     72  C   UNL A   1      43.138  24.851  26.994  1.00  0.00     0.023 A 
ATOM     73  C   UNL A   1      44.045  24.449  26.003  1.00  0.00     0.031 A 
ATOM     74  C   UNL A   1      42.227  23.874  27.467  1.00  0.00     0.131 A 
ATOM     75  C   UNL A   1      44.010  23.127  25.509  1.00  0.00     0.055 A 
ATOM     76  C   UNL A   1      42.186  22.573  26.966  1.00  0.00     0.041 A 
ATOM     77  F   UNL A   1      41.396  24.137  28.489  1.00  0.00    -0.206 F 
ATOM     78  C   UNL A   1      43.086  22.191  25.984  1.00  0.00     0.022 A 
BRANCH  75  79
ATOM     79  S   UNL A   1      45.260  22.575  24.310  1.00  0.00     0.124 S 
ATOM     80  O   UNL A   1      44.437  22.092  23.208  1.00  0.00    -0.237 OA
ATOM     81  O   UNL A   1      46.020  23.796  24.064  1.00  0.00    -0.237 OA
ATOM     82  O   UNL A   1      45.993  21.538  25.037  1.00  0.00    -0.744 OA
ENDBRANCH  75  79
ENDBRANCH  48  72
BRANCH  60  83
ATOM     83  C   UNL A   1      45.338  30.420  29.047  1.00  0.00     0.023 A 
ATOM     84  C   UNL A   1      46.641  30.826  28.683  1.00  0.00     0.031 A 
ATOM     85  C   UNL A   1      44.285  30.780  28.185  1.00  0.00     0.131 A 
ATOM     86  C   UNL A   1      46.855  31.561  27.503  1.00  0.00     0.055 A 
ATOM     87  C   UNL A   1      44.501  31.495  27.006  1.00  0.00     0.041 A 
ATOM     88  F   UNL A   1      43.026  30.392  28.450  1.00  0.00    -0.206 F 
ATOM     89  C   UNL A   1      45.788  31.893  26.662  1.00  0.00     0.022 A 
BRANCH  86  90
ATOM     90  S   UNL A   1      48.535  32.092  27.039  1.00  0.00     0.124 S 
ATOM     91  O   UNL A   1      49.131  32.492  28.308  1.00  0.00    -0.237 OA
ATOM     92  O   UNL A   1      49.092  30.890  26.425  1.00  0.00    -0.237 OA
ATOM     93  O   UNL A   1      48.297  33.194  26.105  1.00  0.00    -0.744 OA
ENDBRANCH  86  90
ENDBRANCH  60  83
ENDBRANCH  34  35
ENDBRANCH  26  29
ENDBRANCH  24  25
ENDBRANCH   1  24
TORSDOF 17
ENDMDL
