MODEL 1
REMARK VINA RESULT:     -11.0      0.000      0.000
REMARK SMILES Cc1ccc(C(c2ccccc2)(c2ccccc2)n2cnc(C[C@H]([NH3+])C(=O)NCCCNC(=O)c3ccc(-c4c5nc(c(-c6cc(S(=O)(=O)[O-])ccc6F)c6ccc([nH]6)c(-c6cc(S(=O)(=O)[O-])ccc6F)c6nc(c(-c7cc(S(=O)(=O)[O-])ccc7F)c7ccc4[nH]7)C=C6)C=C5)cc3)c2)cc1
REMARK SMILES IDX 29 1 28 2 26 3 27 4 24 6 23 7 22 8 19 9 20 10 98 11 21 12
REMARK SMILES IDX 6 13 5 14 1 15 2 16 3 17 100 18 4 19 99 20 7 21 8 22 12 23
REMARK SMILES IDX 9 24 11 25 10 26 13 27 14 28 18 29 15 30 17 31 16 32 25 33
REMARK SMILES IDX 30 37 31 38 32 39 33 40 34 42 35 43 36 44 97 45 37 46 96 47
REMARK SMILES IDX 38 48 39 49 40 50 90 51 41 52 95 53 89 54 91 55 42 56 94 57
REMARK SMILES IDX 88 58 87 59 43 61 75 62 55 63 74 64 56 65 59 66 73 67 92 68
REMARK SMILES IDX 57 69 58 70 72 72 93 73 60 74 44 75 45 76 53 77 46 78 52 79
REMARK SMILES IDX 54 80 51 81 47 82 48 83 49 84 50 85 76 86 77 87 85 88 78 89
REMARK SMILES IDX 84 90 86 91 83 92 79 93 80 94 81 95 82 96 61 97 62 98 70 99
REMARK SMILES IDX 63 100 69 101 71 102 68 103 64 104 65 105 66 106 67 107
REMARK H PARENT 28 5 25 34 25 35 25 36 32 41 91 60 59 71
REMARK Flexibility Score: inf
ROOT
ATOM      1  C   UNL A   1      39.571  34.832  29.933  1.00  0.00     0.118 C 
ENDROOT
BRANCH   1   2
ATOM      2  N   UNL A   1      40.883  34.355  29.531  1.00  0.00    -0.351 N 
ATOM      3  C   UNL A   1      41.959  34.970  28.963  1.00  0.00     0.278 C 
ATOM      4  O   UNL A   1      42.895  34.240  28.608  1.00  0.00    -0.268 OA
ATOM      5  H   UNL A   1      41.022  33.396  29.701  1.00  0.00     0.163 HD
BRANCH   3   6
ATOM      6  C   UNL A   1      42.009  36.486  28.652  1.00  0.00     0.276 C 
BRANCH   6   7
ATOM      7  C   UNL A   1      42.155  36.911  27.188  1.00  0.00     0.133 C 
BRANCH   7   8
ATOM      8  C   UNL A   1      42.491  38.338  26.950  1.00  0.00     0.065 A 
ATOM      9  N   UNL A   1      43.585  40.221  26.664  1.00  0.00    -0.319 N 
ATOM     10  C   UNL A   1      42.243  40.458  26.850  1.00  0.00     0.201 A 
ATOM     11  C   UNL A   1      43.715  38.852  26.589  1.00  0.00     0.112 A 
ATOM     12  N   UNL A   1      41.584  39.347  27.088  1.00  0.00    -0.241 NA
BRANCH   9  13
ATOM     13  C   UNL A   1      44.680  41.247  26.688  1.00  0.00     0.121 C 
BRANCH  13  14
ATOM     14  C   UNL A   1      44.565  42.123  27.996  1.00  0.00    -0.013 A 
ATOM     15  C   UNL A   1      44.342  44.647  31.533  1.00  0.00     0.044 C 
ATOM     16  C   UNL A   1      44.408  43.796  30.300  1.00  0.00    -0.051 A 
ATOM     17  C   UNL A   1      43.970  42.469  30.344  1.00  0.00     0.004 A 
ATOM     18  C   UNL A   1      44.906  44.301  29.099  1.00  0.00     0.004 A 
ATOM     19  C   UNL A   1      44.046  41.645  29.213  1.00  0.00     0.007 A 
ATOM     20  C   UNL A   1      44.973  43.482  27.967  1.00  0.00     0.007 A 
ENDBRANCH  13  14
BRANCH  13  21
ATOM     21  C   UNL A   1      46.066  40.453  26.643  1.00  0.00    -0.013 A 
ATOM     22  C   UNL A   1      46.454  39.727  25.491  1.00  0.00     0.007 A 
ATOM     23  C   UNL A   1      46.923  40.329  27.756  1.00  0.00     0.007 A 
ATOM     24  C   UNL A   1      47.651  39.004  25.427  1.00  0.00     0.000 A 
ATOM     25  C   UNL A   1      48.119  39.597  27.699  1.00  0.00     0.000 A 
ATOM     26  C   UNL A   1      48.491  38.949  26.530  1.00  0.00     0.000 A 
ENDBRANCH  13  21
BRANCH  13  27
ATOM     27  C   UNL A   1      44.465  42.178  25.401  1.00  0.00    -0.013 A 
ATOM     28  C   UNL A   1      45.452  43.117  25.005  1.00  0.00     0.007 A 
ATOM     29  C   UNL A   1      43.223  42.280  24.737  1.00  0.00     0.007 A 
ATOM     30  C   UNL A   1      45.216  44.073  24.010  1.00  0.00     0.000 A 
ATOM     31  C   UNL A   1      42.976  43.257  23.764  1.00  0.00     0.000 A 
ATOM     32  C   UNL A   1      43.973  44.152  23.399  1.00  0.00     0.000 A 
ENDBRANCH  13  27
ENDBRANCH   9  13
ENDBRANCH   7   8
ENDBRANCH   6   7
BRANCH   6  33
ATOM     33  N   UNL A   1      43.041  37.145  29.503  1.00  0.00    -0.347 N 
ATOM     34  H   UNL A   1      43.899  36.595  29.485  1.00  0.00     0.345 HD
ATOM     35  H   UNL A   1      42.700  37.212  30.462  1.00  0.00     0.345 HD
ATOM     36  H   UNL A   1      43.229  38.082  29.144  1.00  0.00     0.345 HD
ENDBRANCH   6  33
ENDBRANCH   3   6
ENDBRANCH   1   2
BRANCH   1  37
ATOM     37  C   UNL A   1      38.458  33.917  29.437  1.00  0.00     0.042 C 
BRANCH  37  38
ATOM     38  C   UNL A   1      37.640  33.324  30.575  1.00  0.00     0.118 C 
BRANCH  38  39
ATOM     39  N   UNL A   1      36.224  33.138  30.267  1.00  0.00    -0.352 N 
ATOM     40  C   UNL A   1      35.609  32.079  29.615  1.00  0.00     0.251 C 
ATOM     41  H   UNL A   1      35.625  33.861  30.563  1.00  0.00     0.163 HD
ATOM     42  O   UNL A   1      34.416  32.107  29.354  1.00  0.00    -0.269 OA
BRANCH  40  43
ATOM     43  C   UNL A   1      36.404  30.860  29.336  1.00  0.00     0.039 A 
ATOM     44  C   UNL A   1      36.778  30.060  30.423  1.00  0.00     0.014 A 
ATOM     45  C   UNL A   1      36.976  30.664  28.085  1.00  0.00     0.014 A 
ATOM     46  C   UNL A   1      37.893  29.234  30.306  1.00  0.00     0.010 A 
ATOM     47  C   UNL A   1      38.155  29.952  28.008  1.00  0.00     0.010 A 
ATOM     48  C   UNL A   1      38.643  29.278  29.132  1.00  0.00    -0.014 A 
BRANCH  48  49
ATOM     49  C   UNL A   1      40.012  28.782  29.035  1.00  0.00     0.031 A 
ATOM     50  C   UNL A   1      40.289  27.362  28.734  1.00  0.00     0.074 A 
ATOM     51  C   UNL A   1      41.044  29.649  29.120  1.00  0.00     0.049 A 
ATOM     52  N   UNL A   1      41.378  26.752  29.058  1.00  0.00    -0.248 NA
ATOM     53  C   UNL A   1      39.327  26.496  28.065  1.00  0.00     0.031 C 
ATOM     54  C   UNL A   1      42.437  29.404  28.754  1.00  0.00     0.029 A 
ATOM     55  N   UNL A   1      41.068  30.878  29.779  1.00  0.00    -0.354 N 
ATOM     56  C   UNL A   1      41.404  25.557  28.376  1.00  0.00     0.074 A 
ATOM     57  C   UNL A   1      40.070  25.409  27.840  1.00  0.00     0.031 C 
ATOM     58  C   UNL A   1      43.216  30.285  29.399  1.00  0.00     0.029 A 
ATOM     59  C   UNL A   1      42.364  31.034  30.304  1.00  0.00     0.049 A 
ATOM     60  H   UNL A   1      40.321  31.514  29.862  1.00  0.00     0.167 HD
ATOM     61  C   UNL A   1      42.589  24.901  28.211  1.00  0.00     0.034 A 
ATOM     62  C   UNL A   1      42.568  31.161  31.646  1.00  0.00     0.034 A 
ATOM     63  C   UNL A   1      43.691  25.597  28.881  1.00  0.00     0.049 A 
ATOM     64  C   UNL A   1      43.433  30.071  32.237  1.00  0.00     0.074 A 
ATOM     65  C   UNL A   1      44.733  26.385  28.417  1.00  0.00     0.029 A 
ATOM     66  N   UNL A   1      43.677  25.752  30.264  1.00  0.00    -0.354 N 
ATOM     67  N   UNL A   1      43.715  28.943  31.644  1.00  0.00    -0.248 NA
ATOM     68  C   UNL A   1      44.031  30.164  33.562  1.00  0.00     0.031 C 
ATOM     69  C   UNL A   1      45.339  27.022  29.532  1.00  0.00     0.029 A 
ATOM     70  C   UNL A   1      44.679  26.610  30.677  1.00  0.00     0.049 A 
ATOM     71  H   UNL A   1      43.039  25.308  30.869  1.00  0.00     0.167 HD
ATOM     72  C   UNL A   1      44.485  28.158  32.471  1.00  0.00     0.074 A 
ATOM     73  C   UNL A   1      44.666  28.983  33.654  1.00  0.00     0.031 C 
ATOM     74  C   UNL A   1      44.885  26.900  32.094  1.00  0.00     0.034 A 
BRANCH  61  75
ATOM     75  C   UNL A   1      42.809  23.809  27.182  1.00  0.00     0.023 A 
ATOM     76  C   UNL A   1      42.218  22.543  27.379  1.00  0.00     0.031 A 
ATOM     77  C   UNL A   1      43.608  23.918  26.027  1.00  0.00     0.131 A 
ATOM     78  C   UNL A   1      42.523  21.446  26.550  1.00  0.00     0.055 A 
ATOM     79  C   UNL A   1      43.965  22.815  25.238  1.00  0.00     0.041 A 
ATOM     80  F   UNL A   1      44.028  25.106  25.570  1.00  0.00    -0.206 F 
ATOM     81  C   UNL A   1      43.435  21.564  25.509  1.00  0.00     0.022 A 
BRANCH  78  82
ATOM     82  S   UNL A   1      41.694  19.860  26.847  1.00  0.00     0.124 S 
ATOM     83  O   UNL A   1      40.520  20.260  27.614  1.00  0.00    -0.237 OA
ATOM     84  O   UNL A   1      41.450  19.382  25.490  1.00  0.00    -0.237 OA
ATOM     85  O   UNL A   1      42.690  19.093  27.598  1.00  0.00    -0.744 OA
ENDBRANCH  78  82
ENDBRANCH  61  75
BRANCH  62  86
ATOM     86  C   UNL A   1      41.458  31.867  32.345  1.00  0.00     0.023 A 
ATOM     87  C   UNL A   1      40.481  31.071  32.981  1.00  0.00     0.031 A 
ATOM     88  C   UNL A   1      41.561  33.211  32.727  1.00  0.00     0.131 A 
ATOM     89  C   UNL A   1      39.749  31.578  34.064  1.00  0.00     0.055 A 
ATOM     90  C   UNL A   1      40.791  33.728  33.777  1.00  0.00     0.041 A 
ATOM     91  F   UNL A   1      42.495  34.007  32.185  1.00  0.00    -0.206 F 
ATOM     92  C   UNL A   1      39.910  32.901  34.477  1.00  0.00     0.022 A 
BRANCH  89  93
ATOM     93  S   UNL A   1      38.778  30.419  35.074  1.00  0.00     0.124 S 
ATOM     94  O   UNL A   1      38.242  29.510  34.067  1.00  0.00    -0.237 OA
ATOM     95  O   UNL A   1      39.784  29.854  35.971  1.00  0.00    -0.237 OA
ATOM     96  O   UNL A   1      37.795  31.275  35.735  1.00  0.00    -0.744 OA
ENDBRANCH  89  93
ENDBRANCH  62  86
BRANCH  74  97
ATOM     97  C   UNL A   1      45.576  25.847  32.956  1.00  0.00     0.023 A 
ATOM     98  C   UNL A   1      44.905  24.888  33.727  1.00  0.00     0.031 A 
ATOM     99  C   UNL A   1      46.995  25.758  33.008  1.00  0.00     0.131 A 
ATOM    100  C   UNL A   1      45.598  23.948  34.520  1.00  0.00     0.055 A 
ATOM    101  C   UNL A   1      47.685  24.800  33.764  1.00  0.00     0.041 A 
ATOM    102  F   UNL A   1      47.788  26.585  32.314  1.00  0.00    -0.206 F 
ATOM    103  C   UNL A   1      46.986  23.891  34.536  1.00  0.00     0.022 A 
BRANCH 100 104
ATOM    104  S   UNL A   1      44.629  22.823  35.560  1.00  0.00     0.124 S 
ATOM    105  O   UNL A   1      45.104  23.161  36.899  1.00  0.00    -0.237 OA
ATOM    106  O   UNL A   1      43.259  23.223  35.256  1.00  0.00    -0.237 OA
ATOM    107  O   UNL A   1      45.009  21.496  35.082  1.00  0.00    -0.744 OA
ENDBRANCH 100 104
ENDBRANCH  74  97
ENDBRANCH  48  49
ENDBRANCH  40  43
ENDBRANCH  38  39
ENDBRANCH  37  38
ENDBRANCH   1  37
TORSDOF 20
ENDMDL
MODEL 2
REMARK VINA RESULT:     -10.9      5.161     14.161
REMARK SMILES Cc1ccc(C(c2ccccc2)(c2ccccc2)n2cnc(C[C@H]([NH3+])C(=O)NCCCNC(=O)c3ccc(-c4c5nc(c(-c6cc(S(=O)(=O)[O-])ccc6F)c6ccc([nH]6)c(-c6cc(S(=O)(=O)[O-])ccc6F)c6nc(c(-c7cc(S(=O)(=O)[O-])ccc7F)c7ccc4[nH]7)C=C6)C=C5)cc3)c2)cc1
REMARK SMILES IDX 29 1 28 2 26 3 27 4 24 6 23 7 22 8 19 9 20 10 98 11 21 12
REMARK SMILES IDX 6 13 5 14 1 15 2 16 3 17 100 18 4 19 99 20 7 21 8 22 12 23
REMARK SMILES IDX 9 24 11 25 10 26 13 27 14 28 18 29 15 30 17 31 16 32 25 33
REMARK SMILES IDX 30 37 31 38 32 39 33 40 34 42 35 43 36 44 97 45 37 46 96 47
REMARK SMILES IDX 38 48 39 49 40 50 90 51 41 52 95 53 89 54 91 55 42 56 94 57
REMARK SMILES IDX 88 58 87 59 43 61 75 62 55 63 74 64 56 65 59 66 73 67 92 68
REMARK SMILES IDX 57 69 58 70 72 72 93 73 60 74 44 75 45 76 53 77 46 78 52 79
REMARK SMILES IDX 54 80 51 81 47 82 48 83 49 84 50 85 76 86 77 87 85 88 78 89
REMARK SMILES IDX 84 90 86 91 83 92 79 93 80 94 81 95 82 96 61 97 62 98 70 99
REMARK SMILES IDX 63 100 69 101 71 102 68 103 64 104 65 105 66 106 67 107
REMARK H PARENT 28 5 25 34 25 35 25 36 32 41 91 60 59 71
REMARK Flexibility Score: inf
ROOT
ATOM      1  C   UNL A   1      40.327  20.360  26.444  1.00  0.00     0.118 C 
ENDROOT
BRANCH   1   2
ATOM      2  N   UNL A   1      39.331  19.630  25.680  1.00  0.00    -0.351 N 
ATOM      3  C   UNL A   1      38.122  19.981  25.158  1.00  0.00     0.278 C 
ATOM      4  O   UNL A   1      37.439  19.070  24.670  1.00  0.00    -0.268 OA
ATOM      5  H   UNL A   1      39.578  18.694  25.505  1.00  0.00     0.163 HD
BRANCH   3   6
ATOM      6  C   UNL A   1      37.538  21.413  25.248  1.00  0.00     0.276 C 
BRANCH   6   7
ATOM      7  C   UNL A   1      36.210  21.598  25.988  1.00  0.00     0.133 C 
BRANCH   7   8
ATOM      8  C   UNL A   1      35.585  22.941  25.888  1.00  0.00     0.065 A 
ATOM      9  N   UNL A   1      34.133  24.572  25.646  1.00  0.00    -0.319 N 
ATOM     10  C   UNL A   1      35.422  25.050  25.582  1.00  0.00     0.201 A 
ATOM     11  C   UNL A   1      34.246  23.241  25.982  1.00  0.00     0.112 A 
ATOM     12  N   UNL A   1      36.302  24.079  25.659  1.00  0.00    -0.241 NA
BRANCH   9  13
ATOM     13  C   UNL A   1      32.887  25.324  25.279  1.00  0.00     0.121 C 
BRANCH  13  14
ATOM     14  C   UNL A   1      32.993  26.816  25.785  1.00  0.00    -0.013 A 
ATOM     15  C   UNL A   1      33.167  30.896  27.284  1.00  0.00     0.044 C 
ATOM     16  C   UNL A   1      33.113  29.481  26.790  1.00  0.00    -0.051 A 
ATOM     17  C   UNL A   1      33.766  29.130  25.605  1.00  0.00     0.004 A 
ATOM     18  C   UNL A   1      32.415  28.498  27.491  1.00  0.00     0.004 A 
ATOM     19  C   UNL A   1      33.708  27.821  25.109  1.00  0.00     0.007 A 
ATOM     20  C   UNL A   1      32.366  27.189  27.002  1.00  0.00     0.007 A 
ENDBRANCH  13  14
BRANCH  13  21
ATOM     21  C   UNL A   1      32.755  25.261  23.688  1.00  0.00    -0.013 A 
ATOM     22  C   UNL A   1      32.010  26.233  22.978  1.00  0.00     0.007 A 
ATOM     23  C   UNL A   1      33.261  24.198  22.911  1.00  0.00     0.007 A 
ATOM     24  C   UNL A   1      31.858  26.194  21.586  1.00  0.00     0.000 A 
ATOM     25  C   UNL A   1      33.103  24.149  21.518  1.00  0.00     0.000 A 
ATOM     26  C   UNL A   1      32.415  25.155  20.854  1.00  0.00     0.000 A 
ENDBRANCH  13  21
BRANCH  13  27
ATOM     27  C   UNL A   1      31.671  24.592  26.024  1.00  0.00    -0.013 A 
ATOM     28  C   UNL A   1      31.776  23.239  26.436  1.00  0.00     0.007 A 
ATOM     29  C   UNL A   1      30.381  25.160  26.109  1.00  0.00     0.007 A 
ATOM     30  C   UNL A   1      30.674  22.516  26.912  1.00  0.00     0.000 A 
ATOM     31  C   UNL A   1      29.273  24.427  26.555  1.00  0.00     0.000 A 
ATOM     32  C   UNL A   1      29.420  23.107  26.958  1.00  0.00     0.000 A 
ENDBRANCH  13  27
ENDBRANCH   9  13
ENDBRANCH   7   8
ENDBRANCH   6   7
BRANCH   6  33
ATOM     33  N   UNL A   1      37.480  22.024  23.889  1.00  0.00    -0.347 N 
ATOM     34  H   UNL A   1      36.966  21.407  23.260  1.00  0.00     0.345 HD
ATOM     35  H   UNL A   1      38.427  22.159  23.535  1.00  0.00     0.345 HD
ATOM     36  H   UNL A   1      37.005  22.926  23.942  1.00  0.00     0.345 HD
ENDBRANCH   6  33
ENDBRANCH   3   6
ENDBRANCH   1   2
BRANCH   1  37
ATOM     37  C   UNL A   1      41.646  19.601  26.529  1.00  0.00     0.042 C 
BRANCH  37  38
ATOM     38  C   UNL A   1      42.504  19.782  25.286  1.00  0.00     0.118 C 
BRANCH  38  39
ATOM     39  N   UNL A   1      43.894  20.137  25.559  1.00  0.00    -0.352 N 
ATOM     40  C   UNL A   1      44.412  21.348  25.998  1.00  0.00     0.251 C 
ATOM     41  H   UNL A   1      44.554  19.420  25.413  1.00  0.00     0.163 HD
ATOM     42  O   UNL A   1      45.617  21.518  26.100  1.00  0.00    -0.269 OA
BRANCH  40  43
ATOM     43  C   UNL A   1      43.470  22.400  26.448  1.00  0.00     0.039 A 
ATOM     44  C   UNL A   1      43.334  23.541  25.648  1.00  0.00     0.014 A 
ATOM     45  C   UNL A   1      42.948  22.372  27.736  1.00  0.00     0.014 A 
ATOM     46  C   UNL A   1      42.891  24.727  26.228  1.00  0.00     0.010 A 
ATOM     47  C   UNL A   1      42.638  23.572  28.342  1.00  0.00     0.010 A 
ATOM     48  C   UNL A   1      42.659  24.759  27.603  1.00  0.00    -0.014 A 
BRANCH  48  49
ATOM     49  C   UNL A   1      42.582  25.995  28.374  1.00  0.00     0.031 A 
ATOM     50  C   UNL A   1      41.412  26.891  28.264  1.00  0.00     0.074 A 
ATOM     51  C   UNL A   1      43.542  26.278  29.281  1.00  0.00     0.049 A 
ATOM     52  N   UNL A   1      41.438  28.153  28.529  1.00  0.00    -0.248 NA
ATOM     53  C   UNL A   1      40.108  26.431  27.803  1.00  0.00     0.031 C 
ATOM     54  C   UNL A   1      43.492  27.283  30.339  1.00  0.00     0.029 A 
ATOM     55  N   UNL A   1      44.869  25.847  29.272  1.00  0.00    -0.354 N 
ATOM     56  C   UNL A   1      40.135  28.591  28.596  1.00  0.00     0.074 A 
ATOM     57  C   UNL A   1      39.352  27.504  28.056  1.00  0.00     0.031 C 
ATOM     58  C   UNL A   1      44.744  27.592  30.704  1.00  0.00     0.029 A 
ATOM     59  C   UNL A   1      45.642  26.898  29.799  1.00  0.00     0.049 A 
ATOM     60  H   UNL A   1      45.202  24.975  28.958  1.00  0.00     0.167 HD
ATOM     61  C   UNL A   1      39.850  29.758  29.242  1.00  0.00     0.034 A 
ATOM     62  C   UNL A   1      46.619  27.493  29.057  1.00  0.00     0.034 A 
ATOM     63  C   UNL A   1      41.064  30.417  29.733  1.00  0.00     0.049 A 
ATOM     64  C   UNL A   1      46.396  28.971  28.830  1.00  0.00     0.074 A 
ATOM     65  C   UNL A   1      41.629  30.539  30.993  1.00  0.00     0.029 A 
ATOM     66  N   UNL A   1      42.030  30.854  28.833  1.00  0.00    -0.354 N 
ATOM     67  N   UNL A   1      45.264  29.590  29.024  1.00  0.00    -0.248 NA
ATOM     68  C   UNL A   1      47.438  29.863  28.340  1.00  0.00     0.031 C 
ATOM     69  C   UNL A   1      42.947  31.045  30.841  1.00  0.00     0.029 A 
ATOM     70  C   UNL A   1      43.180  31.247  29.492  1.00  0.00     0.049 A 
ATOM     71  H   UNL A   1      41.911  30.881  27.856  1.00  0.00     0.167 HD
ATOM     72  C   UNL A   1      45.390  30.917  28.679  1.00  0.00     0.074 A 
ATOM     73  C   UNL A   1      46.781  31.033  28.273  1.00  0.00     0.031 C 
ATOM     74  C   UNL A   1      44.325  31.779  28.756  1.00  0.00     0.034 A 
BRANCH  61  75
ATOM     75  C   UNL A   1      38.459  30.144  29.707  1.00  0.00     0.023 A 
ATOM     76  C   UNL A   1      37.861  31.319  29.205  1.00  0.00     0.031 A 
ATOM     77  C   UNL A   1      37.688  29.446  30.657  1.00  0.00     0.131 A 
ATOM     78  C   UNL A   1      36.650  31.815  29.722  1.00  0.00     0.055 A 
ATOM     79  C   UNL A   1      36.515  29.969  31.222  1.00  0.00     0.041 A 
ATOM     80  F   UNL A   1      37.997  28.199  31.037  1.00  0.00    -0.206 F 
ATOM     81  C   UNL A   1      35.998  31.171  30.767  1.00  0.00     0.022 A 
BRANCH  78  82
ATOM     82  S   UNL A   1      35.929  33.314  28.998  1.00  0.00     0.124 S 
ATOM     83  O   UNL A   1      36.914  34.332  29.343  1.00  0.00    -0.237 OA
ATOM     84  O   UNL A   1      35.832  32.958  27.586  1.00  0.00    -0.237 OA
ATOM     85  O   UNL A   1      34.644  33.438  29.688  1.00  0.00    -0.744 OA
ENDBRANCH  78  82
ENDBRANCH  61  75
BRANCH  62  86
ATOM     86  C   UNL A   1      47.291  26.557  28.113  1.00  0.00     0.023 A 
ATOM     87  C   UNL A   1      47.094  26.776  26.732  1.00  0.00     0.031 A 
ATOM     88  C   UNL A   1      48.380  25.767  28.504  1.00  0.00     0.131 A 
ATOM     89  C   UNL A   1      48.048  26.340  25.802  1.00  0.00     0.055 A 
ATOM     90  C   UNL A   1      49.305  25.290  27.566  1.00  0.00     0.041 A 
ATOM     91  F   UNL A   1      48.640  25.556  29.802  1.00  0.00    -0.206 F 
ATOM     92  C   UNL A   1      49.164  25.610  26.214  1.00  0.00     0.022 A 
BRANCH  89  93
ATOM     93  S   UNL A   1      47.940  26.955  24.094  1.00  0.00     0.124 S 
ATOM     94  O   UNL A   1      48.997  27.959  24.062  1.00  0.00    -0.237 OA
ATOM     95  O   UNL A   1      48.181  25.750  23.303  1.00  0.00    -0.237 OA
ATOM     96  O   UNL A   1      46.577  27.474  24.000  1.00  0.00    -0.744 OA
ENDBRANCH  89  93
ENDBRANCH  62  86
BRANCH  74  97
ATOM     97  C   UNL A   1      44.253  33.215  28.244  1.00  0.00     0.023 A 
ATOM     98  C   UNL A   1      44.366  34.353  29.056  1.00  0.00     0.031 A 
ATOM     99  C   UNL A   1      44.089  33.493  26.859  1.00  0.00     0.131 A 
ATOM    100  C   UNL A   1      44.275  35.658  28.528  1.00  0.00     0.055 A 
ATOM    101  C   UNL A   1      44.037  34.789  26.328  1.00  0.00     0.041 A 
ATOM    102  F   UNL A   1      43.986  32.521  25.943  1.00  0.00    -0.206 F 
ATOM    103  C   UNL A   1      44.121  35.885  27.166  1.00  0.00     0.022 A 
BRANCH 100 104
ATOM    104  S   UNL A   1      44.327  37.055  29.682  1.00  0.00     0.124 S 
ATOM    105  O   UNL A   1      43.566  36.540  30.818  1.00  0.00    -0.237 OA
ATOM    106  O   UNL A   1      45.760  37.219  29.906  1.00  0.00    -0.237 OA
ATOM    107  O   UNL A   1      43.685  38.140  28.945  1.00  0.00    -0.744 OA
ENDBRANCH 100 104
ENDBRANCH  74  97
ENDBRANCH  48  49
ENDBRANCH  40  43
ENDBRANCH  38  39
ENDBRANCH  37  38
ENDBRANCH   1  37
TORSDOF 20
ENDMDL
MODEL 3
REMARK VINA RESULT:     -10.8      5.610     14.955
REMARK SMILES Cc1ccc(C(c2ccccc2)(c2ccccc2)n2cnc(C[C@H]([NH3+])C(=O)NCCCNC(=O)c3ccc(-c4c5nc(c(-c6cc(S(=O)(=O)[O-])ccc6F)c6ccc([nH]6)c(-c6cc(S(=O)(=O)[O-])ccc6F)c6nc(c(-c7cc(S(=O)(=O)[O-])ccc7F)c7ccc4[nH]7)C=C6)C=C5)cc3)c2)cc1
REMARK SMILES IDX 29 1 28 2 26 3 27 4 24 6 23 7 22 8 19 9 20 10 98 11 21 12
REMARK SMILES IDX 6 13 5 14 1 15 2 16 3 17 100 18 4 19 99 20 7 21 8 22 12 23
REMARK SMILES IDX 9 24 11 25 10 26 13 27 14 28 18 29 15 30 17 31 16 32 25 33
REMARK SMILES IDX 30 37 31 38 32 39 33 40 34 42 35 43 36 44 97 45 37 46 96 47
REMARK SMILES IDX 38 48 39 49 40 50 90 51 41 52 95 53 89 54 91 55 42 56 94 57
REMARK SMILES IDX 88 58 87 59 43 61 75 62 55 63 74 64 56 65 59 66 73 67 92 68
REMARK SMILES IDX 57 69 58 70 72 72 93 73 60 74 44 75 45 76 53 77 46 78 52 79
REMARK SMILES IDX 54 80 51 81 47 82 48 83 49 84 50 85 76 86 77 87 85 88 78 89
REMARK SMILES IDX 84 90 86 91 83 92 79 93 80 94 81 95 82 96 61 97 62 98 70 99
REMARK SMILES IDX 63 100 69 101 71 102 68 103 64 104 65 105 66 106 67 107
REMARK H PARENT 28 5 25 34 25 35 25 36 32 41 91 60 59 71
REMARK Flexibility Score: inf
ROOT
ATOM      1  C   UNL A   1      41.045  20.148  27.134  1.00  0.00     0.118 C 
ENDROOT
BRANCH   1   2
ATOM      2  N   UNL A   1      39.983  20.224  26.147  1.00  0.00    -0.351 N 
ATOM      3  C   UNL A   1      39.062  21.183  25.848  1.00  0.00     0.278 C 
ATOM      4  O   UNL A   1      38.186  20.878  25.026  1.00  0.00    -0.268 OA
ATOM      5  H   UNL A   1      39.914  19.423  25.580  1.00  0.00     0.163 HD
BRANCH   3   6
ATOM      6  C   UNL A   1      39.002  22.558  26.557  1.00  0.00     0.276 C 
BRANCH   6   7
ATOM      7  C   UNL A   1      37.627  23.091  26.970  1.00  0.00     0.133 C 
BRANCH   7   8
ATOM      8  C   UNL A   1      36.668  23.357  25.868  1.00  0.00     0.065 A 
ATOM      9  N   UNL A   1      34.852  23.438  24.635  1.00  0.00    -0.319 N 
ATOM     10  C   UNL A   1      35.959  23.794  23.899  1.00  0.00     0.201 A 
ATOM     11  C   UNL A   1      35.295  23.296  25.931  1.00  0.00     0.112 A 
ATOM     12  N   UNL A   1      37.062  23.686  24.604  1.00  0.00    -0.241 NA
BRANCH   9  13
ATOM     13  C   UNL A   1      33.486  23.133  24.092  1.00  0.00     0.121 C 
BRANCH  13  14
ATOM     14  C   UNL A   1      33.314  21.573  23.920  1.00  0.00    -0.013 A 
ATOM     15  C   UNL A   1      32.982  17.255  23.512  1.00  0.00     0.044 C 
ATOM     16  C   UNL A   1      33.099  18.740  23.678  1.00  0.00    -0.051 A 
ATOM     17  C   UNL A   1      32.207  19.588  23.014  1.00  0.00     0.004 A 
ATOM     18  C   UNL A   1      34.089  19.302  24.483  1.00  0.00     0.004 A 
ATOM     19  C   UNL A   1      32.310  20.981  23.132  1.00  0.00     0.007 A 
ATOM     20  C   UNL A   1      34.187  20.691  24.609  1.00  0.00     0.007 A 
ENDBRANCH  13  14
BRANCH  13  21
ATOM     21  C   UNL A   1      32.427  23.721  25.134  1.00  0.00    -0.013 A 
ATOM     22  C   UNL A   1      31.518  22.871  25.810  1.00  0.00     0.007 A 
ATOM     23  C   UNL A   1      32.251  25.101  25.363  1.00  0.00     0.007 A 
ATOM     24  C   UNL A   1      30.565  23.357  26.712  1.00  0.00     0.000 A 
ATOM     25  C   UNL A   1      31.290  25.593  26.259  1.00  0.00     0.000 A 
ATOM     26  C   UNL A   1      30.458  24.720  26.946  1.00  0.00     0.000 A 
ENDBRANCH  13  21
BRANCH  13  27
ATOM     27  C   UNL A   1      33.393  23.842  22.657  1.00  0.00    -0.013 A 
ATOM     28  C   UNL A   1      33.171  25.238  22.546  1.00  0.00     0.007 A 
ATOM     29  C   UNL A   1      33.299  23.109  21.454  1.00  0.00     0.007 A 
ATOM     30  C   UNL A   1      32.893  25.854  21.319  1.00  0.00     0.000 A 
ATOM     31  C   UNL A   1      32.990  23.721  20.232  1.00  0.00     0.000 A 
ATOM     32  C   UNL A   1      32.789  25.093  20.164  1.00  0.00     0.000 A 
ENDBRANCH  13  27
ENDBRANCH   9  13
ENDBRANCH   7   8
ENDBRANCH   6   7
BRANCH   6  33
ATOM     33  N   UNL A   1      39.749  23.574  25.760  1.00  0.00    -0.347 N 
ATOM     34  H   UNL A   1      39.967  24.376  26.351  1.00  0.00     0.345 HD
ATOM     35  H   UNL A   1      39.176  23.877  24.973  1.00  0.00     0.345 HD
ATOM     36  H   UNL A   1      40.615  23.163  25.412  1.00  0.00     0.345 HD
ENDBRANCH   6  33
ENDBRANCH   3   6
ENDBRANCH   1   2
BRANCH   1  37
ATOM     37  C   UNL A   1      42.156  19.198  26.701  1.00  0.00     0.042 C 
BRANCH  37  38
ATOM     38  C   UNL A   1      42.808  19.623  25.393  1.00  0.00     0.118 C 
BRANCH  38  39
ATOM     39  N   UNL A   1      44.223  19.968  25.510  1.00  0.00    -0.352 N 
ATOM     40  C   UNL A   1      44.801  21.214  25.711  1.00  0.00     0.251 C 
ATOM     41  H   UNL A   1      44.853  19.214  25.436  1.00  0.00     0.163 HD
ATOM     42  O   UNL A   1      46.014  21.355  25.702  1.00  0.00    -0.269 OA
BRANCH  40  43
ATOM     43  C   UNL A   1      43.920  22.357  26.049  1.00  0.00     0.039 A 
ATOM     44  C   UNL A   1      44.063  23.535  25.307  1.00  0.00     0.014 A 
ATOM     45  C   UNL A   1      43.173  22.346  27.221  1.00  0.00     0.014 A 
ATOM     46  C   UNL A   1      43.661  24.745  25.868  1.00  0.00     0.010 A 
ATOM     47  C   UNL A   1      42.898  23.552  27.833  1.00  0.00     0.010 A 
ATOM     48  C   UNL A   1      43.188  24.754  27.180  1.00  0.00    -0.014 A 
BRANCH  48  49
ATOM     49  C   UNL A   1      43.115  25.960  27.997  1.00  0.00     0.031 A 
ATOM     50  C   UNL A   1      41.904  26.807  27.998  1.00  0.00     0.074 A 
ATOM     51  C   UNL A   1      44.124  26.255  28.845  1.00  0.00     0.049 A 
ATOM     52  N   UNL A   1      41.897  28.060  28.304  1.00  0.00    -0.248 NA
ATOM     53  C   UNL A   1      40.591  26.307  27.612  1.00  0.00     0.031 C 
ATOM     54  C   UNL A   1      44.106  27.224  29.938  1.00  0.00     0.029 A 
ATOM     55  N   UNL A   1      45.464  25.884  28.731  1.00  0.00    -0.354 N 
ATOM     56  C   UNL A   1      40.585  28.439  28.476  1.00  0.00     0.074 A 
ATOM     57  C   UNL A   1      39.812  27.337  27.953  1.00  0.00     0.031 C 
ATOM     58  C   UNL A   1      45.368  27.575  30.227  1.00  0.00     0.029 A 
ATOM     59  C   UNL A   1      46.227  26.949  29.239  1.00  0.00     0.049 A 
ATOM     60  H   UNL A   1      45.809  25.037  28.365  1.00  0.00     0.167 HD
ATOM     61  C   UNL A   1      40.298  29.572  29.179  1.00  0.00     0.034 A 
ATOM     62  C   UNL A   1      47.125  27.610  28.453  1.00  0.00     0.034 A 
ATOM     63  C   UNL A   1      41.515  30.267  29.608  1.00  0.00     0.049 A 
ATOM     64  C   UNL A   1      46.826  29.083  28.292  1.00  0.00     0.074 A 
ATOM     65  C   UNL A   1      42.162  30.373  30.830  1.00  0.00     0.029 A 
ATOM     66  N   UNL A   1      42.398  30.774  28.660  1.00  0.00    -0.354 N 
ATOM     67  N   UNL A   1      45.687  29.646  28.585  1.00  0.00    -0.248 NA
ATOM     68  C   UNL A   1      47.794  30.034  27.764  1.00  0.00     0.031 C 
ATOM     69  C   UNL A   1      43.444  30.940  30.606  1.00  0.00     0.029 A 
ATOM     70  C   UNL A   1      43.574  31.195  29.251  1.00  0.00     0.049 A 
ATOM     71  H   UNL A   1      42.210  30.826  27.694  1.00  0.00     0.167 HD
ATOM     72  C   UNL A   1      45.733  30.987  28.278  1.00  0.00     0.074 A 
ATOM     73  C   UNL A   1      47.086  31.176  27.782  1.00  0.00     0.031 C 
ATOM     74  C   UNL A   1      44.642  31.800  28.458  1.00  0.00     0.034 A 
BRANCH  61  75
ATOM     75  C   UNL A   1      38.928  29.882  29.751  1.00  0.00     0.023 A 
ATOM     76  C   UNL A   1      38.254  31.052  29.340  1.00  0.00     0.031 A 
ATOM     77  C   UNL A   1      38.251  29.116  30.720  1.00  0.00     0.131 A 
ATOM     78  C   UNL A   1      37.063  31.477  29.957  1.00  0.00     0.055 A 
ATOM     79  C   UNL A   1      37.100  29.569  31.384  1.00  0.00     0.041 A 
ATOM     80  F   UNL A   1      38.632  27.869  31.026  1.00  0.00    -0.206 F 
ATOM     81  C   UNL A   1      36.508  30.766  31.015  1.00  0.00     0.022 A 
BRANCH  78  82
ATOM     82  S   UNL A   1      36.238  32.973  29.347  1.00  0.00     0.124 S 
ATOM     83  O   UNL A   1      35.111  32.424  28.601  1.00  0.00    -0.237 OA
ATOM     84  O   UNL A   1      35.916  33.674  30.585  1.00  0.00    -0.237 OA
ATOM     85  O   UNL A   1      37.267  33.616  28.528  1.00  0.00    -0.744 OA
ENDBRANCH  78  82
ENDBRANCH  61  75
BRANCH  62  86
ATOM     86  C   UNL A   1      47.767  26.734  27.433  1.00  0.00     0.023 A 
ATOM     87  C   UNL A   1      47.541  27.046  26.075  1.00  0.00     0.031 A 
ATOM     88  C   UNL A   1      48.858  25.912  27.746  1.00  0.00     0.131 A 
ATOM     89  C   UNL A   1      48.470  26.666  25.096  1.00  0.00     0.055 A 
ATOM     90  C   UNL A   1      49.757  25.492  26.756  1.00  0.00     0.041 A 
ATOM     91  F   UNL A   1      49.145  25.612  29.021  1.00  0.00    -0.206 F 
ATOM     92  C   UNL A   1      49.589  25.902  25.432  1.00  0.00     0.022 A 
BRANCH  89  93
ATOM     93  S   UNL A   1      48.328  27.394  23.436  1.00  0.00     0.124 S 
ATOM     94  O   UNL A   1      48.264  26.210  22.587  1.00  0.00    -0.237 OA
ATOM     95  O   UNL A   1      47.097  28.175  23.532  1.00  0.00    -0.237 OA
ATOM     96  O   UNL A   1      49.542  28.197  23.305  1.00  0.00    -0.744 OA
ENDBRANCH  89  93
ENDBRANCH  62  86
BRANCH  74  97
ATOM     97  C   UNL A   1      44.475  33.247  28.002  1.00  0.00     0.023 A 
ATOM     98  C   UNL A   1      44.709  34.365  28.813  1.00  0.00     0.031 A 
ATOM     99  C   UNL A   1      44.085  33.556  26.670  1.00  0.00     0.131 A 
ATOM    100  C   UNL A   1      44.522  35.682  28.342  1.00  0.00     0.055 A 
ATOM    101  C   UNL A   1      43.937  34.863  26.188  1.00  0.00     0.041 A 
ATOM    102  F   UNL A   1      43.843  32.605  25.757  1.00  0.00    -0.206 F 
ATOM    103  C   UNL A   1      44.147  35.940  27.029  1.00  0.00     0.022 A 
BRANCH 100 104
ATOM    104  S   UNL A   1      44.750  37.051  29.508  1.00  0.00     0.124 S 
ATOM    105  O   UNL A   1      45.202  36.355  30.710  1.00  0.00    -0.237 OA
ATOM    106  O   UNL A   1      45.756  37.866  28.836  1.00  0.00    -0.237 OA
ATOM    107  O   UNL A   1      43.422  37.653  29.601  1.00  0.00    -0.744 OA
ENDBRANCH 100 104
ENDBRANCH  74  97
ENDBRANCH  48  49
ENDBRANCH  40  43
ENDBRANCH  38  39
ENDBRANCH  37  38
ENDBRANCH   1  37
TORSDOF 20
ENDMDL
