MODEL 1
REMARK VINA RESULT:     -12.9      0.000      0.000
REMARK SMILES O=C(NCCCNC(=O)[C@H]1C[C@](O)(c2ccccc2Cl)[C@@H](c2ccccc2Cl)O1)c1ccc(-c2c3nc(c(-c4cc(S(=O)(=O)[O-])ccc4F)c4ccc([nH]4)c(-c4cc(S(=O)(=O)[O-])ccc4F)c4nc(c(-c5cc(S(=O)(=O)[O-])ccc5F)c5ccc2[nH]5)C=C4)C=C3)cc1
REMARK SMILES IDX 4 1 3 2 1 3 2 4 30 6 31 7 92 8 32 9 91 10 33 11 34 12 35 13
REMARK SMILES IDX 85 14 36 15 90 16 84 17 86 18 37 19 89 20 83 21 82 22 38 24
REMARK SMILES IDX 70 25 50 26 69 27 51 28 54 29 68 30 87 31 52 32 53 33 67 35
REMARK SMILES IDX 88 36 55 37 39 38 40 39 48 40 41 41 47 42 49 43 46 44 42 45
REMARK SMILES IDX 43 46 44 47 45 48 71 49 72 50 80 51 73 52 79 53 81 54 78 55
REMARK SMILES IDX 74 56 75 57 76 58 77 59 56 60 57 61 65 62 58 63 64 64 66 65
REMARK SMILES IDX 63 66 59 67 60 68 61 69 62 70 5 71 6 72 7 73 8 74 9 76 10 77
REMARK SMILES IDX 11 78 29 79 12 80 21 81 14 82 15 83 19 84 16 85 18 86 20 87
REMARK SMILES IDX 17 88 13 89 22 91 23 92 27 93 24 94 26 95 28 96 25 97
REMARK H PARENT 3 5 86 23 54 34 7 75 13 90
REMARK Flexibility Score: inf
ROOT
ATOM      1  C   UNL A   1      32.718  32.473  26.998  1.00  0.00     0.118 C 
ENDROOT
BRANCH   1   2
ATOM      2  N   UNL A   1      32.498  33.807  27.545  1.00  0.00    -0.352 N 
ATOM      3  O   UNL A   1      32.668  35.536  28.973  1.00  0.00    -0.269 OA
ATOM      4  C   UNL A   1      33.121  34.468  28.582  1.00  0.00     0.251 C 
ATOM      5  H   UNL A   1      31.785  34.321  27.100  1.00  0.00     0.163 HD
BRANCH   4   6
ATOM      6  C   UNL A   1      34.309  33.876  29.239  1.00  0.00     0.039 A 
ATOM      7  C   UNL A   1      34.178  32.791  30.102  1.00  0.00     0.014 A 
ATOM      8  C   UNL A   1      35.581  34.392  28.968  1.00  0.00     0.014 A 
ATOM      9  C   UNL A   1      35.266  32.355  30.843  1.00  0.00     0.010 A 
ATOM     10  C   UNL A   1      36.704  33.856  29.610  1.00  0.00     0.010 A 
ATOM     11  C   UNL A   1      36.551  32.849  30.574  1.00  0.00    -0.014 A 
BRANCH  11  12
ATOM     12  C   UNL A   1      37.712  32.196  31.232  1.00  0.00     0.031 A 
ATOM     13  C   UNL A   1      38.483  31.097  30.557  1.00  0.00     0.074 A 
ATOM     14  C   UNL A   1      38.083  32.646  32.450  1.00  0.00     0.049 A 
ATOM     15  N   UNL A   1      39.513  30.425  31.004  1.00  0.00    -0.248 NA
ATOM     16  C   UNL A   1      38.039  30.687  29.216  1.00  0.00     0.031 C 
ATOM     17  C   UNL A   1      37.395  33.706  33.198  1.00  0.00     0.029 A 
ATOM     18  N   UNL A   1      39.126  32.297  33.268  1.00  0.00    -0.354 N 
ATOM     19  C   UNL A   1      39.824  29.495  30.018  1.00  0.00     0.074 A 
ATOM     20  C   UNL A   1      38.866  29.683  28.950  1.00  0.00     0.031 C 
ATOM     21  C   UNL A   1      38.064  33.957  34.330  1.00  0.00     0.029 A 
ATOM     22  C   UNL A   1      39.167  33.013  34.443  1.00  0.00     0.049 A 
ATOM     23  H   UNL A   1      39.783  31.601  33.036  1.00  0.00     0.167 HD
ATOM     24  C   UNL A   1      40.816  28.572  30.017  1.00  0.00     0.034 A 
ATOM     25  C   UNL A   1      39.970  32.896  35.517  1.00  0.00     0.034 A 
ATOM     26  C   UNL A   1      41.776  28.422  31.085  1.00  0.00     0.049 A 
ATOM     27  C   UNL A   1      41.037  31.839  35.494  1.00  0.00     0.074 A 
ATOM     28  C   UNL A   1      42.869  27.574  31.147  1.00  0.00     0.029 A 
ATOM     29  N   UNL A   1      41.750  29.123  32.284  1.00  0.00    -0.354 N 
ATOM     30  N   UNL A   1      41.337  30.995  34.533  1.00  0.00    -0.248 NA
ATOM     31  C   UNL A   1      41.865  31.709  36.697  1.00  0.00     0.031 C 
ATOM     32  C   UNL A   1      43.459  27.712  32.409  1.00  0.00     0.029 A 
ATOM     33  C   UNL A   1      42.777  28.692  33.110  1.00  0.00     0.049 A 
ATOM     34  H   UNL A   1      41.098  29.824  32.513  1.00  0.00     0.167 HD
ATOM     35  C   UNL A   1      42.390  30.231  35.021  1.00  0.00     0.074 A 
ATOM     36  C   UNL A   1      42.697  30.742  36.342  1.00  0.00     0.031 C 
ATOM     37  C   UNL A   1      43.041  29.194  34.437  1.00  0.00     0.034 A 
BRANCH  24  38
ATOM     38  C   UNL A   1      40.891  27.611  28.857  1.00  0.00     0.023 A 
ATOM     39  C   UNL A   1      41.832  27.755  27.822  1.00  0.00     0.031 A 
ATOM     40  C   UNL A   1      40.023  26.504  28.810  1.00  0.00     0.131 A 
ATOM     41  C   UNL A   1      41.858  26.827  26.768  1.00  0.00     0.055 A 
ATOM     42  C   UNL A   1      40.092  25.554  27.790  1.00  0.00     0.041 A 
ATOM     43  F   UNL A   1      39.093  26.328  29.762  1.00  0.00    -0.206 F 
ATOM     44  C   UNL A   1      41.011  25.715  26.758  1.00  0.00     0.022 A 
BRANCH  41  45
ATOM     45  S   UNL A   1      42.966  27.132  25.364  1.00  0.00     0.124 S 
ATOM     46  O   UNL A   1      44.214  27.475  26.041  1.00  0.00    -0.237 OA
ATOM     47  O   UNL A   1      42.950  25.854  24.664  1.00  0.00    -0.237 OA
ATOM     48  O   UNL A   1      42.325  28.238  24.656  1.00  0.00    -0.744 OA
ENDBRANCH  41  45
ENDBRANCH  24  38
BRANCH  25  49
ATOM     49  C   UNL A   1      39.744  33.741  36.725  1.00  0.00     0.023 A 
ATOM     50  C   UNL A   1      39.186  33.208  37.894  1.00  0.00     0.031 A 
ATOM     51  C   UNL A   1      40.051  35.116  36.708  1.00  0.00     0.131 A 
ATOM     52  C   UNL A   1      38.912  34.049  38.984  1.00  0.00     0.055 A 
ATOM     53  C   UNL A   1      39.835  35.935  37.815  1.00  0.00     0.041 A 
ATOM     54  F   UNL A   1      40.586  35.680  35.613  1.00  0.00    -0.206 F 
ATOM     55  C   UNL A   1      39.247  35.406  38.957  1.00  0.00     0.022 A 
BRANCH  52  56
ATOM     56  S   UNL A   1      38.011  33.367  40.401  1.00  0.00     0.124 S 
ATOM     57  O   UNL A   1      38.840  32.222  40.761  1.00  0.00    -0.237 OA
ATOM     58  O   UNL A   1      38.026  34.488  41.334  1.00  0.00    -0.237 OA
ATOM     59  O   UNL A   1      36.700  33.039  39.844  1.00  0.00    -0.744 OA
ENDBRANCH  52  56
ENDBRANCH  25  49
BRANCH  37  60
ATOM     60  C   UNL A   1      44.146  28.562  35.240  1.00  0.00     0.023 A 
ATOM     61  C   UNL A   1      43.889  27.488  36.110  1.00  0.00     0.031 A 
ATOM     62  C   UNL A   1      45.457  29.060  35.165  1.00  0.00     0.131 A 
ATOM     63  C   UNL A   1      44.917  26.984  36.916  1.00  0.00     0.055 A 
ATOM     64  C   UNL A   1      46.491  28.516  35.928  1.00  0.00     0.041 A 
ATOM     65  F   UNL A   1      45.753  30.087  34.353  1.00  0.00    -0.206 F 
ATOM     66  C   UNL A   1      46.221  27.479  36.819  1.00  0.00     0.022 A 
BRANCH  63  67
ATOM     67  S   UNL A   1      44.511  25.726  38.157  1.00  0.00     0.124 S 
ATOM     68  O   UNL A   1      43.460  24.968  37.485  1.00  0.00    -0.237 OA
ATOM     69  O   UNL A   1      45.784  25.034  38.330  1.00  0.00    -0.237 OA
ATOM     70  O   UNL A   1      44.070  26.510  39.309  1.00  0.00    -0.744 OA
ENDBRANCH  63  67
ENDBRANCH  37  60
ENDBRANCH  11  12
ENDBRANCH   4   6
ENDBRANCH   1   2
BRANCH   1  71
ATOM     71  C   UNL A   1      31.459  31.854  26.394  1.00  0.00     0.042 C 
BRANCH  71  72
ATOM     72  C   UNL A   1      31.692  30.412  25.977  1.00  0.00     0.117 C 
BRANCH  72  73
ATOM     73  N   UNL A   1      31.475  29.473  27.066  1.00  0.00    -0.354 N 
ATOM     74  C   UNL A   1      31.965  28.233  27.326  1.00  0.00     0.249 C 
ATOM     75  H   UNL A   1      30.847  29.800  27.749  1.00  0.00     0.163 HD
ATOM     76  O   UNL A   1      31.639  27.764  28.423  1.00  0.00    -0.272 OA
BRANCH  74  77
ATOM     77  C   UNL A   1      32.863  27.427  26.353  1.00  0.00     0.211 C 
ATOM     78  C   UNL A   1      32.697  25.926  26.270  1.00  0.00     0.085 C 
ATOM     79  O   UNL A   1      32.688  27.944  25.025  1.00  0.00    -0.357 OA
ATOM     80  C   UNL A   1      32.582  25.547  24.791  1.00  0.00     0.124 C 
ATOM     81  C   UNL A   1      32.223  26.911  24.135  1.00  0.00     0.187 C 
BRANCH  80  82
ATOM     82  C   UNL A   1      33.813  24.694  24.434  1.00  0.00     0.005 A 
ATOM     83  C   UNL A   1      34.829  24.652  25.440  1.00  0.00     0.008 A 
ATOM     84  C   UNL A   1      34.082  23.969  23.265  1.00  0.00     0.047 A 
ATOM     85  C   UNL A   1      36.021  23.945  25.297  1.00  0.00     0.001 A 
ATOM     86  C   UNL A   1      35.278  23.230  23.138  1.00  0.00     0.021 A 
ATOM     87  Cl  UNL A   1      33.075  23.912  21.869  1.00  0.00    -0.084 Cl
ATOM     88  C   UNL A   1      36.243  23.220  24.142  1.00  0.00     0.002 A 
ENDBRANCH  80  82
BRANCH  80  89
ATOM     89  O   UNL A   1      31.488  24.610  24.634  1.00  0.00    -0.382 OA
ATOM     90  H   UNL A   1      31.843  23.715  24.515  1.00  0.00     0.212 HD
ENDBRANCH  80  89
BRANCH  81  91
ATOM     91  C   UNL A   1      30.748  27.182  23.805  1.00  0.00     0.003 A 
ATOM     92  C   UNL A   1      29.725  26.342  24.291  1.00  0.00     0.008 A 
ATOM     93  C   UNL A   1      30.354  28.277  23.013  1.00  0.00     0.046 A 
ATOM     94  C   UNL A   1      28.375  26.592  24.026  1.00  0.00     0.000 A 
ATOM     95  C   UNL A   1      28.998  28.531  22.756  1.00  0.00     0.021 A 
ATOM     96  Cl  UNL A   1      31.486  29.373  22.297  1.00  0.00    -0.084 Cl
ATOM     97  C   UNL A   1      28.010  27.692  23.264  1.00  0.00     0.002 A 
ENDBRANCH  81  91
ENDBRANCH  74  77
ENDBRANCH  72  73
ENDBRANCH  71  72
ENDBRANCH   1  71
TORSDOF 16
ENDMDL
MODEL 2
REMARK VINA RESULT:     -12.8      2.493      8.162
REMARK SMILES O=C(NCCCNC(=O)[C@H]1C[C@](O)(c2ccccc2Cl)[C@@H](c2ccccc2Cl)O1)c1ccc(-c2c3nc(c(-c4cc(S(=O)(=O)[O-])ccc4F)c4ccc([nH]4)c(-c4cc(S(=O)(=O)[O-])ccc4F)c4nc(c(-c5cc(S(=O)(=O)[O-])ccc5F)c5ccc2[nH]5)C=C4)C=C3)cc1
REMARK SMILES IDX 4 1 3 2 1 3 2 4 30 6 31 7 92 8 32 9 91 10 33 11 34 12 35 13
REMARK SMILES IDX 85 14 36 15 90 16 84 17 86 18 37 19 89 20 83 21 82 22 38 24
REMARK SMILES IDX 70 25 50 26 69 27 51 28 54 29 68 30 87 31 52 32 53 33 67 35
REMARK SMILES IDX 88 36 55 37 39 38 40 39 48 40 41 41 47 42 49 43 46 44 42 45
REMARK SMILES IDX 43 46 44 47 45 48 71 49 72 50 80 51 73 52 79 53 81 54 78 55
REMARK SMILES IDX 74 56 75 57 76 58 77 59 56 60 57 61 65 62 58 63 64 64 66 65
REMARK SMILES IDX 63 66 59 67 60 68 61 69 62 70 5 71 6 72 7 73 8 74 9 76 10 77
REMARK SMILES IDX 11 78 29 79 12 80 21 81 14 82 15 83 19 84 16 85 18 86 20 87
REMARK SMILES IDX 17 88 13 89 22 91 23 92 27 93 24 94 26 95 28 96 25 97
REMARK H PARENT 3 5 86 23 54 34 7 75 13 90
REMARK Flexibility Score: inf
ROOT
ATOM      1  C   UNL A   1      33.376  28.989  24.851  1.00  0.00     0.118 C 
ENDROOT
BRANCH   1   2
ATOM      2  N   UNL A   1      32.695  30.150  25.413  1.00  0.00    -0.352 N 
ATOM      3  O   UNL A   1      32.153  31.731  26.918  1.00  0.00    -0.269 OA
ATOM      4  C   UNL A   1      32.953  30.879  26.555  1.00  0.00     0.251 C 
ATOM      5  H   UNL A   1      31.923  30.467  24.890  1.00  0.00     0.163 HD
BRANCH   4   6
ATOM      6  C   UNL A   1      34.171  30.611  27.354  1.00  0.00     0.039 A 
ATOM      7  C   UNL A   1      34.453  29.326  27.811  1.00  0.00     0.014 A 
ATOM      8  C   UNL A   1      35.065  31.653  27.626  1.00  0.00     0.014 A 
ATOM      9  C   UNL A   1      35.498  29.118  28.699  1.00  0.00     0.010 A 
ATOM     10  C   UNL A   1      36.203  31.411  28.407  1.00  0.00     0.010 A 
ATOM     11  C   UNL A   1      36.414  30.145  28.972  1.00  0.00    -0.014 A 
BRANCH  11  12
ATOM     12  C   UNL A   1      37.638  29.815  29.747  1.00  0.00     0.031 A 
ATOM     13  C   UNL A   1      37.827  30.293  31.159  1.00  0.00     0.074 A 
ATOM     14  C   UNL A   1      38.568  29.036  29.156  1.00  0.00     0.049 A 
ATOM     15  N   UNL A   1      38.840  30.094  31.962  1.00  0.00    -0.248 NA
ATOM     16  C   UNL A   1      36.751  31.107  31.745  1.00  0.00     0.031 C 
ATOM     17  C   UNL A   1      38.485  28.524  27.782  1.00  0.00     0.029 A 
ATOM     18  N   UNL A   1      39.749  28.518  29.623  1.00  0.00    -0.354 N 
ATOM     19  C   UNL A   1      38.543  30.780  33.135  1.00  0.00     0.074 A 
ATOM     20  C   UNL A   1      37.255  31.409  32.935  1.00  0.00     0.031 C 
ATOM     21  C   UNL A   1      39.533  27.726  27.540  1.00  0.00     0.029 A 
ATOM     22  C   UNL A   1      40.416  27.747  28.698  1.00  0.00     0.049 A 
ATOM     23  H   UNL A   1      40.087  28.684  30.533  1.00  0.00     0.167 HD
ATOM     24  C   UNL A   1      39.285  30.872  34.265  1.00  0.00     0.034 A 
ATOM     25  C   UNL A   1      41.624  27.158  28.751  1.00  0.00     0.034 A 
ATOM     26  C   UNL A   1      40.556  30.212  34.448  1.00  0.00     0.049 A 
ATOM     27  C   UNL A   1      42.434  27.310  30.008  1.00  0.00     0.074 A 
ATOM     28  C   UNL A   1      41.350  30.174  35.582  1.00  0.00     0.029 A 
ATOM     29  N   UNL A   1      41.227  29.489  33.470  1.00  0.00    -0.354 N 
ATOM     30  N   UNL A   1      42.116  27.933  31.120  1.00  0.00    -0.248 NA
ATOM     31  C   UNL A   1      43.765  26.694  30.016  1.00  0.00     0.031 C 
ATOM     32  C   UNL A   1      42.530  29.491  35.267  1.00  0.00     0.029 A 
ATOM     33  C   UNL A   1      42.446  29.045  33.959  1.00  0.00     0.049 A 
ATOM     34  H   UNL A   1      40.887  29.318  32.562  1.00  0.00     0.167 HD
ATOM     35  C   UNL A   1      43.212  27.783  31.960  1.00  0.00     0.074 A 
ATOM     36  C   UNL A   1      44.180  26.980  31.241  1.00  0.00     0.031 C 
ATOM     37  C   UNL A   1      43.409  28.272  33.210  1.00  0.00     0.034 A 
BRANCH  24  38
ATOM     38  C   UNL A   1      38.780  31.757  35.377  1.00  0.00     0.023 A 
ATOM     39  C   UNL A   1      38.188  31.236  36.540  1.00  0.00     0.031 A 
ATOM     40  C   UNL A   1      38.930  33.153  35.281  1.00  0.00     0.131 A 
ATOM     41  C   UNL A   1      37.738  32.108  37.546  1.00  0.00     0.055 A 
ATOM     42  C   UNL A   1      38.533  34.010  36.309  1.00  0.00     0.041 A 
ATOM     43  F   UNL A   1      39.472  33.706  34.184  1.00  0.00    -0.206 F 
ATOM     44  C   UNL A   1      37.928  33.489  37.448  1.00  0.00     0.022 A 
BRANCH  41  45
ATOM     45  S   UNL A   1      36.827  31.419  38.956  1.00  0.00     0.124 S 
ATOM     46  O   UNL A   1      36.579  30.051  38.507  1.00  0.00    -0.237 OA
ATOM     47  O   UNL A   1      37.778  31.569  40.051  1.00  0.00    -0.237 OA
ATOM     48  O   UNL A   1      35.639  32.265  39.043  1.00  0.00    -0.744 OA
ENDBRANCH  41  45
ENDBRANCH  24  38
BRANCH  25  49
ATOM     49  C   UNL A   1      42.172  26.448  27.560  1.00  0.00     0.023 A 
ATOM     50  C   UNL A   1      41.928  25.084  27.348  1.00  0.00     0.031 A 
ATOM     51  C   UNL A   1      42.987  27.125  26.631  1.00  0.00     0.131 A 
ATOM     52  C   UNL A   1      42.526  24.429  26.259  1.00  0.00     0.055 A 
ATOM     53  C   UNL A   1      43.527  26.484  25.517  1.00  0.00     0.041 A 
ATOM     54  F   UNL A   1      43.254  28.431  26.786  1.00  0.00    -0.206 F 
ATOM     55  C   UNL A   1      43.311  25.124  25.335  1.00  0.00     0.022 A 
BRANCH  52  56
ATOM     56  S   UNL A   1      42.351  22.630  26.127  1.00  0.00     0.124 S 
ATOM     57  O   UNL A   1      40.901  22.469  26.126  1.00  0.00    -0.237 OA
ATOM     58  O   UNL A   1      43.028  22.354  24.865  1.00  0.00    -0.237 OA
ATOM     59  O   UNL A   1      43.034  22.134  27.321  1.00  0.00    -0.744 OA
ENDBRANCH  52  56
ENDBRANCH  25  49
BRANCH  37  60
ATOM     60  C   UNL A   1      44.724  27.937  33.859  1.00  0.00     0.023 A 
ATOM     61  C   UNL A   1      44.881  26.766  34.621  1.00  0.00     0.031 A 
ATOM     62  C   UNL A   1      45.818  28.811  33.748  1.00  0.00     0.131 A 
ATOM     63  C   UNL A   1      46.087  26.529  35.293  1.00  0.00     0.055 A 
ATOM     64  C   UNL A   1      47.036  28.541  34.372  1.00  0.00     0.041 A 
ATOM     65  F   UNL A   1      45.717  29.944  33.035  1.00  0.00    -0.206 F 
ATOM     66  C   UNL A   1      47.172  27.401  35.160  1.00  0.00     0.022 A 
BRANCH  63  67
ATOM     67  S   UNL A   1      46.193  25.108  36.414  1.00  0.00     0.124 S 
ATOM     68  O   UNL A   1      47.427  25.388  37.141  1.00  0.00    -0.237 OA
ATOM     69  O   UNL A   1      44.959  25.223  37.184  1.00  0.00    -0.237 OA
ATOM     70  O   UNL A   1      46.253  23.962  35.509  1.00  0.00    -0.744 OA
ENDBRANCH  63  67
ENDBRANCH  37  60
ENDBRANCH  11  12
ENDBRANCH   4   6
ENDBRANCH   1   2
BRANCH   1  71
ATOM     71  C   UNL A   1      32.819  28.562  23.495  1.00  0.00     0.042 C 
BRANCH  71  72
ATOM     72  C   UNL A   1      33.661  27.465  22.867  1.00  0.00     0.117 C 
BRANCH  72  73
ATOM     73  N   UNL A   1      33.048  26.904  21.674  1.00  0.00    -0.354 N 
ATOM     74  C   UNL A   1      32.853  25.628  21.250  1.00  0.00     0.249 C 
ATOM     75  H   UNL A   1      32.707  27.583  21.049  1.00  0.00     0.163 HD
ATOM     76  O   UNL A   1      32.187  25.520  20.213  1.00  0.00    -0.272 OA
BRANCH  74  77
ATOM     77  C   UNL A   1      33.409  24.374  21.971  1.00  0.00     0.211 C 
ATOM     78  C   UNL A   1      34.394  24.552  23.106  1.00  0.00     0.085 C 
ATOM     79  O   UNL A   1      32.309  23.608  22.485  1.00  0.00    -0.357 OA
ATOM     80  C   UNL A   1      33.908  23.706  24.287  1.00  0.00     0.124 C 
ATOM     81  C   UNL A   1      32.419  23.456  23.912  1.00  0.00     0.187 C 
BRANCH  80  82
ATOM     82  C   UNL A   1      34.954  22.603  24.527  1.00  0.00     0.005 A 
ATOM     83  C   UNL A   1      36.315  23.036  24.451  1.00  0.00     0.008 A 
ATOM     84  C   UNL A   1      34.762  21.240  24.794  1.00  0.00     0.047 A 
ATOM     85  C   UNL A   1      37.403  22.183  24.627  1.00  0.00     0.001 A 
ATOM     86  C   UNL A   1      35.867  20.387  25.001  1.00  0.00     0.021 A 
ATOM     87  Cl  UNL A   1      33.239  20.439  24.858  1.00  0.00    -0.084 Cl
ATOM     88  C   UNL A   1      37.178  20.850  24.914  1.00  0.00     0.002 A 
ENDBRANCH  80  82
BRANCH  80  89
ATOM     89  O   UNL A   1      33.996  24.500  25.495  1.00  0.00    -0.382 OA
ATOM     90  H   UNL A   1      34.478  24.002  26.174  1.00  0.00     0.212 HD
ENDBRANCH  80  89
BRANCH  81  91
ATOM     91  C   UNL A   1      31.354  24.340  24.578  1.00  0.00     0.003 A 
ATOM     92  C   UNL A   1      30.786  25.437  23.898  1.00  0.00     0.008 A 
ATOM     93  C   UNL A   1      30.896  24.092  25.887  1.00  0.00     0.046 A 
ATOM     94  C   UNL A   1      29.793  26.233  24.478  1.00  0.00     0.000 A 
ATOM     95  C   UNL A   1      29.894  24.886  26.463  1.00  0.00     0.021 A 
ATOM     96  Cl  UNL A   1      31.527  22.820  26.876  1.00  0.00    -0.084 Cl
ATOM     97  C   UNL A   1      29.340  25.953  25.759  1.00  0.00     0.002 A 
ENDBRANCH  81  91
ENDBRANCH  74  77
ENDBRANCH  72  73
ENDBRANCH  71  72
ENDBRANCH   1  71
TORSDOF 16
ENDMDL
MODEL 3
REMARK VINA RESULT:     -12.7      2.476      3.421
REMARK SMILES O=C(NCCCNC(=O)[C@H]1C[C@](O)(c2ccccc2Cl)[C@@H](c2ccccc2Cl)O1)c1ccc(-c2c3nc(c(-c4cc(S(=O)(=O)[O-])ccc4F)c4ccc([nH]4)c(-c4cc(S(=O)(=O)[O-])ccc4F)c4nc(c(-c5cc(S(=O)(=O)[O-])ccc5F)c5ccc2[nH]5)C=C4)C=C3)cc1
REMARK SMILES IDX 4 1 3 2 1 3 2 4 30 6 31 7 92 8 32 9 91 10 33 11 34 12 35 13
REMARK SMILES IDX 85 14 36 15 90 16 84 17 86 18 37 19 89 20 83 21 82 22 38 24
REMARK SMILES IDX 70 25 50 26 69 27 51 28 54 29 68 30 87 31 52 32 53 33 67 35
REMARK SMILES IDX 88 36 55 37 39 38 40 39 48 40 41 41 47 42 49 43 46 44 42 45
REMARK SMILES IDX 43 46 44 47 45 48 71 49 72 50 80 51 73 52 79 53 81 54 78 55
REMARK SMILES IDX 74 56 75 57 76 58 77 59 56 60 57 61 65 62 58 63 64 64 66 65
REMARK SMILES IDX 63 66 59 67 60 68 61 69 62 70 5 71 6 72 7 73 8 74 9 76 10 77
REMARK SMILES IDX 11 78 29 79 12 80 21 81 14 82 15 83 19 84 16 85 18 86 20 87
REMARK SMILES IDX 17 88 13 89 22 91 23 92 27 93 24 94 26 95 28 96 25 97
REMARK H PARENT 3 5 86 23 54 34 7 75 13 90
REMARK Flexibility Score: inf
ROOT
ATOM      1  C   UNL A   1      33.532  29.089  24.839  1.00  0.00     0.118 C 
ENDROOT
BRANCH   1   2
ATOM      2  N   UNL A   1      32.807  30.210  25.427  1.00  0.00    -0.352 N 
ATOM      3  O   UNL A   1      32.196  31.725  26.973  1.00  0.00    -0.269 OA
ATOM      4  C   UNL A   1      33.028  30.911  26.594  1.00  0.00     0.251 C 
ATOM      5  H   UNL A   1      32.032  30.517  24.904  1.00  0.00     0.163 HD
BRANCH   4   6
ATOM      6  C   UNL A   1      34.245  30.657  27.400  1.00  0.00     0.039 A 
ATOM      7  C   UNL A   1      34.489  29.398  27.942  1.00  0.00     0.014 A 
ATOM      8  C   UNL A   1      35.175  31.684  27.593  1.00  0.00     0.014 A 
ATOM      9  C   UNL A   1      35.536  29.215  28.834  1.00  0.00     0.010 A 
ATOM     10  C   UNL A   1      36.312  31.458  28.380  1.00  0.00     0.010 A 
ATOM     11  C   UNL A   1      36.487  30.228  29.028  1.00  0.00    -0.014 A 
BRANCH  11  12
ATOM     12  C   UNL A   1      37.707  29.910  29.815  1.00  0.00     0.031 A 
ATOM     13  C   UNL A   1      38.794  29.033  29.260  1.00  0.00     0.074 A 
ATOM     14  C   UNL A   1      37.832  30.466  31.038  1.00  0.00     0.049 A 
ATOM     15  N   UNL A   1      39.913  28.660  29.825  1.00  0.00    -0.248 NA
ATOM     16  C   UNL A   1      38.601  28.495  27.904  1.00  0.00     0.031 C 
ATOM     17  C   UNL A   1      36.828  31.328  31.675  1.00  0.00     0.029 A 
ATOM     18  N   UNL A   1      38.846  30.416  31.960  1.00  0.00    -0.354 N 
ATOM     19  C   UNL A   1      40.544  27.820  28.913  1.00  0.00     0.074 A 
ATOM     20  C   UNL A   1      39.677  27.733  27.757  1.00  0.00     0.031 C 
ATOM     21  C   UNL A   1      37.298  31.767  32.849  1.00  0.00     0.029 A 
ATOM     22  C   UNL A   1      38.589  31.142  33.100  1.00  0.00     0.049 A 
ATOM     23  H   UNL A   1      39.677  29.907  31.818  1.00  0.00     0.167 HD
ATOM     24  C   UNL A   1      41.734  27.185  29.041  1.00  0.00     0.034 A 
ATOM     25  C   UNL A   1      39.288  31.259  34.244  1.00  0.00     0.034 A 
ATOM     26  C   UNL A   1      42.593  27.310  30.194  1.00  0.00     0.049 A 
ATOM     27  C   UNL A   1      40.587  30.513  34.363  1.00  0.00     0.074 A 
ATOM     28  C   UNL A   1      43.855  26.775  30.390  1.00  0.00     0.029 A 
ATOM     29  N   UNL A   1      42.274  28.006  31.354  1.00  0.00    -0.354 N 
ATOM     30  N   UNL A   1      41.183  29.754  33.471  1.00  0.00    -0.248 NA
ATOM     31  C   UNL A   1      41.301  30.626  35.639  1.00  0.00     0.031 C 
ATOM     32  C   UNL A   1      44.266  27.086  31.691  1.00  0.00     0.029 A 
ATOM     33  C   UNL A   1      43.292  27.871  32.284  1.00  0.00     0.049 A 
ATOM     34  H   UNL A   1      41.446  28.519  31.493  1.00  0.00     0.167 HD
ATOM     35  C   UNL A   1      42.344  29.299  34.083  1.00  0.00     0.074 A 
ATOM     36  C   UNL A   1      42.382  29.898  35.402  1.00  0.00     0.031 C 
ATOM     37  C   UNL A   1      43.291  28.453  33.606  1.00  0.00     0.034 A 
BRANCH  24  38
ATOM     38  C   UNL A   1      42.164  26.251  27.936  1.00  0.00     0.023 A 
ATOM     39  C   UNL A   1      41.713  24.922  27.858  1.00  0.00     0.031 A 
ATOM     40  C   UNL A   1      43.015  26.720  26.918  1.00  0.00     0.131 A 
ATOM     41  C   UNL A   1      42.144  24.099  26.804  1.00  0.00     0.055 A 
ATOM     42  C   UNL A   1      43.393  25.915  25.842  1.00  0.00     0.041 A 
ATOM     43  F   UNL A   1      43.490  27.975  26.952  1.00  0.00    -0.206 F 
ATOM     44  C   UNL A   1      42.961  24.594  25.784  1.00  0.00     0.022 A 
BRANCH  41  45
ATOM     45  S   UNL A   1      41.683  22.345  26.823  1.00  0.00     0.124 S 
ATOM     46  O   UNL A   1      40.245  22.419  27.070  1.00  0.00    -0.237 OA
ATOM     47  O   UNL A   1      42.080  21.899  25.492  1.00  0.00    -0.237 OA
ATOM     48  O   UNL A   1      42.470  21.795  27.924  1.00  0.00    -0.744 OA
ENDBRANCH  41  45
ENDBRANCH  24  38
BRANCH  25  49
ATOM     49  C   UNL A   1      38.739  32.042  35.389  1.00  0.00     0.023 A 
ATOM     50  C   UNL A   1      38.265  31.409  36.546  1.00  0.00     0.031 A 
ATOM     51  C   UNL A   1      38.645  33.446  35.319  1.00  0.00     0.131 A 
ATOM     52  C   UNL A   1      37.681  32.171  37.569  1.00  0.00     0.055 A 
ATOM     53  C   UNL A   1      38.120  34.204  36.365  1.00  0.00     0.041 A 
ATOM     54  F   UNL A   1      39.082  34.104  34.234  1.00  0.00    -0.206 F 
ATOM     55  C   UNL A   1      37.619  33.565  37.493  1.00  0.00     0.022 A 
BRANCH  52  56
ATOM     56  S   UNL A   1      36.902  31.305  38.958  1.00  0.00     0.124 S 
ATOM     57  O   UNL A   1      35.669  32.064  39.132  1.00  0.00    -0.237 OA
ATOM     58  O   UNL A   1      36.755  29.955  38.426  1.00  0.00    -0.237 OA
ATOM     59  O   UNL A   1      37.879  31.446  40.036  1.00  0.00    -0.744 OA
ENDBRANCH  52  56
ENDBRANCH  25  49
BRANCH  37  60
ATOM     60  C   UNL A   1      44.438  28.144  34.530  1.00  0.00     0.023 A 
ATOM     61  C   UNL A   1      44.329  27.146  35.514  1.00  0.00     0.031 A 
ATOM     62  C   UNL A   1      45.633  28.877  34.454  1.00  0.00     0.131 A 
ATOM     63  C   UNL A   1      45.377  26.947  36.423  1.00  0.00     0.055 A 
ATOM     64  C   UNL A   1      46.696  28.635  35.324  1.00  0.00     0.041 A 
ATOM     65  F   UNL A   1      45.784  29.844  33.534  1.00  0.00    -0.206 F 
ATOM     66  C   UNL A   1      46.567  27.674  36.324  1.00  0.00     0.022 A 
BRANCH  63  67
ATOM     67  S   UNL A   1      45.132  25.783  37.791  1.00  0.00     0.124 S 
ATOM     68  O   UNL A   1      44.340  24.733  37.155  1.00  0.00    -0.237 OA
ATOM     69  O   UNL A   1      46.500  25.422  38.145  1.00  0.00    -0.237 OA
ATOM     70  O   UNL A   1      44.420  26.575  38.792  1.00  0.00    -0.744 OA
ENDBRANCH  63  67
ENDBRANCH  37  60
ENDBRANCH  11  12
ENDBRANCH   4   6
ENDBRANCH   1   2
BRANCH   1  71
ATOM     71  C   UNL A   1      33.011  28.692  23.459  1.00  0.00     0.042 C 
BRANCH  71  72
ATOM     72  C   UNL A   1      33.734  27.470  22.921  1.00  0.00     0.117 C 
BRANCH  72  73
ATOM     73  N   UNL A   1      33.096  26.921  21.735  1.00  0.00    -0.354 N 
ATOM     74  C   UNL A   1      32.888  25.649  21.305  1.00  0.00     0.249 C 
ATOM     75  H   UNL A   1      32.745  27.606  21.122  1.00  0.00     0.163 HD
ATOM     76  O   UNL A   1      32.200  25.551  20.281  1.00  0.00    -0.272 OA
BRANCH  74  77
ATOM     77  C   UNL A   1      33.453  24.387  22.006  1.00  0.00     0.211 C 
ATOM     78  C   UNL A   1      34.425  24.554  23.153  1.00  0.00     0.085 C 
ATOM     79  O   UNL A   1      32.357  23.598  22.495  1.00  0.00    -0.357 OA
ATOM     80  C   UNL A   1      33.939  23.679  24.312  1.00  0.00     0.124 C 
ATOM     81  C   UNL A   1      32.456  23.418  23.920  1.00  0.00     0.187 C 
BRANCH  80  82
ATOM     82  C   UNL A   1      34.996  22.584  24.540  1.00  0.00     0.005 A 
ATOM     83  C   UNL A   1      36.352  23.034  24.484  1.00  0.00     0.008 A 
ATOM     84  C   UNL A   1      34.818  21.213  24.778  1.00  0.00     0.047 A 
ATOM     85  C   UNL A   1      37.449  22.190  24.651  1.00  0.00     0.001 A 
ATOM     86  C   UNL A   1      35.932  20.369  24.978  1.00  0.00     0.021 A 
ATOM     87  Cl  UNL A   1      33.305  20.393  24.815  1.00  0.00    -0.084 Cl
ATOM     88  C   UNL A   1      37.237  20.850  24.911  1.00  0.00     0.002 A 
ENDBRANCH  80  82
BRANCH  80  89
ATOM     89  O   UNL A   1      34.007  24.449  25.537  1.00  0.00    -0.382 OA
ATOM     90  H   UNL A   1      34.116  23.847  26.291  1.00  0.00     0.212 HD
ENDBRANCH  80  89
BRANCH  81  91
ATOM     91  C   UNL A   1      31.375  24.276  24.594  1.00  0.00     0.003 A 
ATOM     92  C   UNL A   1      30.811  25.389  23.937  1.00  0.00     0.008 A 
ATOM     93  C   UNL A   1      30.897  23.987  25.887  1.00  0.00     0.046 A 
ATOM     94  C   UNL A   1      29.804  26.162  24.524  1.00  0.00     0.000 A 
ATOM     95  C   UNL A   1      29.881  24.758  26.469  1.00  0.00     0.021 A 
ATOM     96  Cl  UNL A   1      31.520  22.690  26.848  1.00  0.00    -0.084 Cl
ATOM     97  C   UNL A   1      29.332  25.841  25.788  1.00  0.00     0.002 A 
ENDBRANCH  81  91
ENDBRANCH  74  77
ENDBRANCH  72  73
ENDBRANCH  71  72
ENDBRANCH   1  71
TORSDOF 16
ENDMDL
