MODEL 1
REMARK VINA RESULT:     -11.5      0.000      0.000
REMARK SMILES O=C(CN(CC(F)(F)F)S(=O)(=O)c1cccc(F)c1)NCCCNC(=O)c1ccc(-c2c3nc(c(-c4cc(S(=O)(=O)[O-])ccc4F)c4ccc([nH]4)c(-c4cc(S(=O)(=O)[O-])ccc4F)c4nc(c(-c5cc(S(=O)(=O)[O-])ccc5F)c5ccc2[nH]5)C=C4)C=C3)cc1
REMARK SMILES IDX 22 1 21 2 20 3 1 4 2 5 3 7 4 8 5 9 6 10 7 11 8 12 9 13 10 14
REMARK SMILES IDX 11 15 12 16 13 17 14 18 19 19 15 20 17 21 16 22 18 23 23 24
REMARK SMILES IDX 24 25 25 26 26 28 27 29 28 30 89 31 29 32 88 33 30 34 31 35
REMARK SMILES IDX 32 36 82 37 33 38 87 39 81 40 83 41 34 42 86 43 80 44 79 45
REMARK SMILES IDX 35 47 67 48 47 49 66 50 48 51 51 52 65 53 84 54 49 55 50 56
REMARK SMILES IDX 64 58 85 59 52 60 36 61 37 62 45 63 38 64 44 65 46 66 43 67
REMARK SMILES IDX 39 68 40 69 41 70 42 71 68 72 69 73 77 74 70 75 76 76 78 77
REMARK SMILES IDX 75 78 71 79 72 80 73 81 74 82 53 83 54 84 62 85 55 86 61 87
REMARK SMILES IDX 63 88 60 89 56 90 57 91 58 92 59 93
REMARK H PARENT 20 6 24 27 83 46 51 57
REMARK Flexibility Score: inf
ROOT
ATOM      1  C   UNL A   1      35.276  22.270  25.528  1.00  0.00     0.042 C 
ENDROOT
BRANCH   1   2
ATOM      2  C   UNL A   1      34.077  21.870  24.676  1.00  0.00     0.117 C 
BRANCH   2   3
ATOM      3  N   UNL A   1      33.238  22.992  24.304  1.00  0.00    -0.355 N 
ATOM      4  O   UNL A   1      34.343  23.459  22.344  1.00  0.00    -0.274 OA
ATOM      5  C   UNL A   1      33.392  23.641  23.099  1.00  0.00     0.235 C 
ATOM      6  H   UNL A   1      32.541  23.297  24.928  1.00  0.00     0.163 HD
BRANCH   5   7
ATOM      7  C   UNL A   1      32.333  24.691  22.807  1.00  0.00     0.202 C 
BRANCH   7   8
ATOM      8  N   UNL A   1      32.488  26.024  23.500  1.00  0.00    -0.179 NA
BRANCH   8   9
ATOM      9  C   UNL A   1      32.565  27.145  22.468  1.00  0.00     0.218 C 
BRANCH   9  10
ATOM     10  C   UNL A   1      33.650  28.224  22.616  1.00  0.00     0.402 C 
ATOM     11  F   UNL A   1      34.377  28.381  21.493  1.00  0.00    -0.170 F 
ATOM     12  F   UNL A   1      33.056  29.422  22.860  1.00  0.00    -0.170 F 
ATOM     13  F   UNL A   1      34.479  27.984  23.650  1.00  0.00    -0.170 F 
ENDBRANCH   9  10
ENDBRANCH   8   9
BRANCH   8  14
ATOM     14  S   UNL A   1      31.345  26.241  24.767  1.00  0.00     0.243 S 
ATOM     15  O   UNL A   1      30.095  26.608  24.152  1.00  0.00    -0.207 OA
ATOM     16  O   UNL A   1      31.442  25.113  25.666  1.00  0.00    -0.207 OA
BRANCH  14  17
ATOM     17  C   UNL A   1      31.967  27.634  25.675  1.00  0.00     0.085 A 
ATOM     18  C   UNL A   1      33.082  27.482  26.508  1.00  0.00     0.022 A 
ATOM     19  C   UNL A   1      31.363  28.883  25.508  1.00  0.00     0.061 A 
ATOM     20  C   UNL A   1      33.591  28.589  27.188  1.00  0.00     0.004 A 
ATOM     21  C   UNL A   1      31.883  29.971  26.197  1.00  0.00     0.124 A 
ATOM     22  C   UNL A   1      32.988  29.837  27.033  1.00  0.00     0.039 A 
ATOM     23  F   UNL A   1      31.313  31.174  26.053  1.00  0.00    -0.207 F 
ENDBRANCH  14  17
ENDBRANCH   8  14
ENDBRANCH   7   8
ENDBRANCH   5   7
ENDBRANCH   2   3
ENDBRANCH   1   2
BRANCH   1  24
ATOM     24  C   UNL A   1      36.614  22.257  24.791  1.00  0.00     0.118 C 
BRANCH  24  25
ATOM     25  N   UNL A   1      37.471  21.142  25.174  1.00  0.00    -0.352 N 
ATOM     26  C   UNL A   1      38.686  21.126  25.817  1.00  0.00     0.251 C 
ATOM     27  H   UNL A   1      37.122  20.254  24.934  1.00  0.00     0.163 HD
ATOM     28  O   UNL A   1      39.289  20.061  25.920  1.00  0.00    -0.269 OA
BRANCH  26  29
ATOM     29  C   UNL A   1      39.285  22.369  26.354  1.00  0.00     0.039 A 
ATOM     30  C   UNL A   1      40.413  22.267  27.174  1.00  0.00     0.014 A 
ATOM     31  C   UNL A   1      38.740  23.626  26.076  1.00  0.00     0.014 A 
ATOM     32  C   UNL A   1      41.042  23.422  27.644  1.00  0.00     0.010 A 
ATOM     33  C   UNL A   1      39.402  24.781  26.498  1.00  0.00     0.010 A 
ATOM     34  C   UNL A   1      40.571  24.690  27.269  1.00  0.00    -0.014 A 
BRANCH  34  35
ATOM     35  C   UNL A   1      41.312  25.927  27.631  1.00  0.00     0.031 A 
ATOM     36  C   UNL A   1      40.664  26.993  28.470  1.00  0.00     0.074 A 
ATOM     37  C   UNL A   1      42.555  26.118  27.144  1.00  0.00     0.049 A 
ATOM     38  N   UNL A   1      41.109  28.184  28.778  1.00  0.00    -0.248 NA
ATOM     39  C   UNL A   1      39.335  26.685  29.018  1.00  0.00     0.031 C 
ATOM     40  C   UNL A   1      43.290  25.166  26.307  1.00  0.00     0.029 A 
ATOM     41  N   UNL A   1      43.418  27.177  27.275  1.00  0.00    -0.354 N 
ATOM     42  C   UNL A   1      40.113  28.775  29.546  1.00  0.00     0.074 A 
ATOM     43  C   UNL A   1      39.025  27.822  29.627  1.00  0.00     0.031 C 
ATOM     44  C   UNL A   1      44.498  25.675  26.020  1.00  0.00     0.029 A 
ATOM     45  C   UNL A   1      44.608  27.006  26.607  1.00  0.00     0.049 A 
ATOM     46  H   UNL A   1      43.205  27.983  27.799  1.00  0.00     0.167 HD
ATOM     47  C   UNL A   1      40.111  29.996  30.137  1.00  0.00     0.034 A 
ATOM     48  C   UNL A   1      45.663  27.831  26.465  1.00  0.00     0.034 A 
ATOM     49  C   UNL A   1      41.204  30.934  30.064  1.00  0.00     0.049 A 
ATOM     50  C   UNL A   1      45.626  29.191  27.107  1.00  0.00     0.074 A 
ATOM     51  C   UNL A   1      41.306  32.184  30.652  1.00  0.00     0.029 A 
ATOM     52  N   UNL A   1      42.386  30.729  29.365  1.00  0.00    -0.354 N 
ATOM     53  N   UNL A   1      44.666  29.743  27.809  1.00  0.00    -0.248 NA
ATOM     54  C   UNL A   1      46.814  30.039  26.936  1.00  0.00     0.031 C 
ATOM     55  C   UNL A   1      42.525  32.754  30.268  1.00  0.00     0.029 A 
ATOM     56  C   UNL A   1      43.212  31.835  29.493  1.00  0.00     0.049 A 
ATOM     57  H   UNL A   1      42.605  29.916  28.853  1.00  0.00     0.167 HD
ATOM     58  C   UNL A   1      45.142  30.997  28.181  1.00  0.00     0.074 A 
ATOM     59  C   UNL A   1      46.476  31.118  27.627  1.00  0.00     0.031 C 
ATOM     60  C   UNL A   1      44.532  31.954  28.922  1.00  0.00     0.034 A 
BRANCH  47  61
ATOM     61  C   UNL A   1      38.874  30.399  30.897  1.00  0.00     0.023 A 
ATOM     62  C   UNL A   1      37.823  31.093  30.277  1.00  0.00     0.031 A 
ATOM     63  C   UNL A   1      38.739  30.066  32.256  1.00  0.00     0.131 A 
ATOM     64  C   UNL A   1      36.700  31.474  31.027  1.00  0.00     0.055 A 
ATOM     65  C   UNL A   1      37.592  30.393  32.982  1.00  0.00     0.041 A 
ATOM     66  F   UNL A   1      39.723  29.418  32.902  1.00  0.00    -0.206 F 
ATOM     67  C   UNL A   1      36.567  31.107  32.369  1.00  0.00     0.022 A 
BRANCH  64  68
ATOM     68  S   UNL A   1      35.446  32.523  30.246  1.00  0.00     0.124 S 
ATOM     69  O   UNL A   1      36.183  33.771  30.060  1.00  0.00    -0.237 OA
ATOM     70  O   UNL A   1      35.122  31.784  29.031  1.00  0.00    -0.237 OA
ATOM     71  O   UNL A   1      34.378  32.581  31.243  1.00  0.00    -0.744 OA
ENDBRANCH  64  68
ENDBRANCH  47  61
BRANCH  48  72
ATOM     72  C   UNL A   1      46.839  27.399  25.666  1.00  0.00     0.023 A 
ATOM     73  C   UNL A   1      46.977  27.781  24.323  1.00  0.00     0.031 A 
ATOM     74  C   UNL A   1      47.847  26.604  26.239  1.00  0.00     0.131 A 
ATOM     75  C   UNL A   1      48.091  27.348  23.588  1.00  0.00     0.055 A 
ATOM     76  C   UNL A   1      48.970  26.206  25.514  1.00  0.00     0.041 A 
ATOM     77  F   UNL A   1      47.763  26.225  27.525  1.00  0.00    -0.206 F 
ATOM     78  C   UNL A   1      49.095  26.574  24.178  1.00  0.00     0.022 A 
BRANCH  75  79
ATOM     79  S   UNL A   1      48.206  27.799  21.835  1.00  0.00     0.124 S 
ATOM     80  O   UNL A   1      49.343  28.711  21.836  1.00  0.00    -0.237 OA
ATOM     81  O   UNL A   1      48.422  26.503  21.200  1.00  0.00    -0.237 OA
ATOM     82  O   UNL A   1      46.910  28.415  21.557  1.00  0.00    -0.744 OA
ENDBRANCH  75  79
ENDBRANCH  48  72
BRANCH  60  83
ATOM     83  C   UNL A   1      45.316  33.207  29.210  1.00  0.00     0.023 A 
ATOM     84  C   UNL A   1      45.251  34.328  28.366  1.00  0.00     0.031 A 
ATOM     85  C   UNL A   1      46.122  33.282  30.359  1.00  0.00     0.131 A 
ATOM     86  C   UNL A   1      46.007  35.471  28.669  1.00  0.00     0.055 A 
ATOM     87  C   UNL A   1      46.839  34.436  30.677  1.00  0.00     0.041 A 
ATOM     88  F   UNL A   1      46.217  32.236  31.196  1.00  0.00    -0.206 F 
ATOM     89  C   UNL A   1      46.788  35.536  29.826  1.00  0.00     0.022 A 
BRANCH  86  90
ATOM     90  S   UNL A   1      45.988  36.863  27.508  1.00  0.00     0.124 S 
ATOM     91  O   UNL A   1      44.696  37.480  27.795  1.00  0.00    -0.237 OA
ATOM     92  O   UNL A   1      47.163  37.628  27.912  1.00  0.00    -0.237 OA
ATOM     93  O   UNL A   1      46.091  36.220  26.199  1.00  0.00    -0.744 OA
ENDBRANCH  86  90
ENDBRANCH  60  83
ENDBRANCH  34  35
ENDBRANCH  26  29
ENDBRANCH  24  25
ENDBRANCH   1  24
TORSDOF 18
ENDMDL
MODEL 2
REMARK VINA RESULT:     -11.4      5.265     10.172
REMARK SMILES O=C(CN(CC(F)(F)F)S(=O)(=O)c1cccc(F)c1)NCCCNC(=O)c1ccc(-c2c3nc(c(-c4cc(S(=O)(=O)[O-])ccc4F)c4ccc([nH]4)c(-c4cc(S(=O)(=O)[O-])ccc4F)c4nc(c(-c5cc(S(=O)(=O)[O-])ccc5F)c5ccc2[nH]5)C=C4)C=C3)cc1
REMARK SMILES IDX 22 1 21 2 20 3 1 4 2 5 3 7 4 8 5 9 6 10 7 11 8 12 9 13 10 14
REMARK SMILES IDX 11 15 12 16 13 17 14 18 19 19 15 20 17 21 16 22 18 23 23 24
REMARK SMILES IDX 24 25 25 26 26 28 27 29 28 30 89 31 29 32 88 33 30 34 31 35
REMARK SMILES IDX 32 36 82 37 33 38 87 39 81 40 83 41 34 42 86 43 80 44 79 45
REMARK SMILES IDX 35 47 67 48 47 49 66 50 48 51 51 52 65 53 84 54 49 55 50 56
REMARK SMILES IDX 64 58 85 59 52 60 36 61 37 62 45 63 38 64 44 65 46 66 43 67
REMARK SMILES IDX 39 68 40 69 41 70 42 71 68 72 69 73 77 74 70 75 76 76 78 77
REMARK SMILES IDX 75 78 71 79 72 80 73 81 74 82 53 83 54 84 62 85 55 86 61 87
REMARK SMILES IDX 63 88 60 89 56 90 57 91 58 92 59 93
REMARK H PARENT 20 6 24 27 83 46 51 57
REMARK Flexibility Score: inf
ROOT
ATOM      1  C   UNL A   1      33.151  27.417  25.063  1.00  0.00     0.042 C 
ENDROOT
BRANCH   1   2
ATOM      2  C   UNL A   1      32.228  27.101  23.892  1.00  0.00     0.117 C 
BRANCH   2   3
ATOM      3  N   UNL A   1      32.345  25.736  23.420  1.00  0.00    -0.355 N 
ATOM      4  O   UNL A   1      33.934  26.186  21.821  1.00  0.00    -0.274 OA
ATOM      5  C   UNL A   1      33.276  25.377  22.470  1.00  0.00     0.235 C 
ATOM      6  H   UNL A   1      31.745  25.048  23.788  1.00  0.00     0.163 HD
BRANCH   5   7
ATOM      7  C   UNL A   1      33.366  23.883  22.205  1.00  0.00     0.202 C 
BRANCH   7   8
ATOM      8  N   UNL A   1      33.850  23.018  23.345  1.00  0.00    -0.179 NA
BRANCH   8   9
ATOM      9  C   UNL A   1      35.062  23.660  24.012  1.00  0.00     0.218 C 
BRANCH   9  10
ATOM     10  C   UNL A   1      36.425  22.954  23.926  1.00  0.00     0.402 C 
ATOM     11  F   UNL A   1      36.333  21.630  24.159  1.00  0.00    -0.170 F 
ATOM     12  F   UNL A   1      36.918  23.089  22.667  1.00  0.00    -0.170 F 
ATOM     13  F   UNL A   1      37.337  23.487  24.760  1.00  0.00    -0.170 F 
ENDBRANCH   9  10
ENDBRANCH   8   9
BRANCH   8  14
ATOM     14  S   UNL A   1      32.574  22.542  24.395  1.00  0.00     0.243 S 
ATOM     15  O   UNL A   1      32.923  22.993  25.718  1.00  0.00    -0.207 OA
ATOM     16  O   UNL A   1      31.317  22.908  23.781  1.00  0.00    -0.207 OA
BRANCH  14  17
ATOM     17  C   UNL A   1      32.625  20.768  24.362  1.00  0.00     0.085 A 
ATOM     18  C   UNL A   1      32.897  20.056  25.537  1.00  0.00     0.022 A 
ATOM     19  C   UNL A   1      32.342  20.099  23.169  1.00  0.00     0.061 A 
ATOM     20  C   UNL A   1      32.897  18.661  25.515  1.00  0.00     0.004 A 
ATOM     21  C   UNL A   1      32.350  18.709  23.167  1.00  0.00     0.124 A 
ATOM     22  C   UNL A   1      32.623  17.986  24.325  1.00  0.00     0.039 A 
ATOM     23  F   UNL A   1      32.086  18.052  22.031  1.00  0.00    -0.207 F 
ENDBRANCH  14  17
ENDBRANCH   8  14
ENDBRANCH   7   8
ENDBRANCH   5   7
ENDBRANCH   2   3
ENDBRANCH   1   2
BRANCH   1  24
ATOM     24  C   UNL A   1      33.887  28.751  24.952  1.00  0.00     0.118 C 
BRANCH  24  25
ATOM     25  N   UNL A   1      33.084  29.888  25.384  1.00  0.00    -0.352 N 
ATOM     26  C   UNL A   1      33.207  30.706  26.482  1.00  0.00     0.251 C 
ATOM     27  H   UNL A   1      32.330  30.107  24.792  1.00  0.00     0.163 HD
ATOM     28  O   UNL A   1      32.326  31.531  26.710  1.00  0.00    -0.269 OA
BRANCH  26  29
ATOM     29  C   UNL A   1      34.362  30.586  27.401  1.00  0.00     0.039 A 
ATOM     30  C   UNL A   1      34.527  29.393  28.114  1.00  0.00     0.014 A 
ATOM     31  C   UNL A   1      35.268  31.634  27.583  1.00  0.00     0.014 A 
ATOM     32  C   UNL A   1      35.641  29.221  28.939  1.00  0.00     0.010 A 
ATOM     33  C   UNL A   1      36.410  31.440  28.362  1.00  0.00     0.010 A 
ATOM     34  C   UNL A   1      36.617  30.225  29.032  1.00  0.00    -0.014 A 
BRANCH  34  35
ATOM     35  C   UNL A   1      37.883  30.003  29.781  1.00  0.00     0.031 A 
ATOM     36  C   UNL A   1      38.963  29.121  29.219  1.00  0.00     0.074 A 
ATOM     37  C   UNL A   1      38.029  30.550  31.005  1.00  0.00     0.049 A 
ATOM     38  N   UNL A   1      40.072  28.717  29.783  1.00  0.00    -0.248 NA
ATOM     39  C   UNL A   1      38.760  28.616  27.855  1.00  0.00     0.031 C 
ATOM     40  C   UNL A   1      37.049  31.414  31.668  1.00  0.00     0.029 A 
ATOM     41  N   UNL A   1      39.054  30.456  31.913  1.00  0.00    -0.354 N 
ATOM     42  C   UNL A   1      40.696  27.899  28.848  1.00  0.00     0.074 A 
ATOM     43  C   UNL A   1      39.823  27.838  27.695  1.00  0.00     0.031 C 
ATOM     44  C   UNL A   1      37.530  31.787  32.864  1.00  0.00     0.029 A 
ATOM     45  C   UNL A   1      38.826  31.153  33.077  1.00  0.00     0.049 A 
ATOM     46  H   UNL A   1      39.875  29.939  31.747  1.00  0.00     0.167 HD
ATOM     47  C   UNL A   1      41.892  27.265  28.941  1.00  0.00     0.034 A 
ATOM     48  C   UNL A   1      39.565  31.258  34.198  1.00  0.00     0.034 A 
ATOM     49  C   UNL A   1      42.763  27.342  30.088  1.00  0.00     0.049 A 
ATOM     50  C   UNL A   1      40.875  30.524  34.288  1.00  0.00     0.074 A 
ATOM     51  C   UNL A   1      44.006  26.756  30.264  1.00  0.00     0.029 A 
ATOM     52  N   UNL A   1      42.489  28.046  31.252  1.00  0.00    -0.354 N 
ATOM     53  N   UNL A   1      41.438  29.735  33.405  1.00  0.00    -0.248 NA
ATOM     54  C   UNL A   1      41.648  30.693  35.527  1.00  0.00     0.031 C 
ATOM     55  C   UNL A   1      44.460  27.066  31.551  1.00  0.00     0.029 A 
ATOM     56  C   UNL A   1      43.530  27.895  32.155  1.00  0.00     0.049 A 
ATOM     57  H   UNL A   1      41.674  28.575  31.413  1.00  0.00     0.167 HD
ATOM     58  C   UNL A   1      42.641  29.329  33.972  1.00  0.00     0.074 A 
ATOM     59  C   UNL A   1      42.724  29.962  35.274  1.00  0.00     0.031 C 
ATOM     60  C   UNL A   1      43.595  28.514  33.457  1.00  0.00     0.034 A 
BRANCH  47  61
ATOM     61  C   UNL A   1      42.318  26.411  27.776  1.00  0.00     0.023 A 
ATOM     62  C   UNL A   1      41.859  25.093  27.623  1.00  0.00     0.031 A 
ATOM     63  C   UNL A   1      43.183  26.930  26.796  1.00  0.00     0.131 A 
ATOM     64  C   UNL A   1      42.302  24.321  26.538  1.00  0.00     0.055 A 
ATOM     65  C   UNL A   1      43.570  26.178  25.686  1.00  0.00     0.041 A 
ATOM     66  F   UNL A   1      43.666  28.179  26.905  1.00  0.00    -0.206 F 
ATOM     67  C   UNL A   1      43.135  24.863  25.555  1.00  0.00     0.022 A 
BRANCH  64  68
ATOM     68  S   UNL A   1      41.836  22.571  26.466  1.00  0.00     0.124 S 
ATOM     69  O   UNL A   1      40.380  22.659  26.389  1.00  0.00    -0.237 OA
ATOM     70  O   UNL A   1      42.513  22.109  25.259  1.00  0.00    -0.237 OA
ATOM     71  O   UNL A   1      42.357  22.026  27.718  1.00  0.00    -0.744 OA
ENDBRANCH  64  68
ENDBRANCH  47  61
BRANCH  48  72
ATOM     72  C   UNL A   1      39.074  32.080  35.335  1.00  0.00     0.023 A 
ATOM     73  C   UNL A   1      38.431  31.483  36.430  1.00  0.00     0.031 A 
ATOM     74  C   UNL A   1      39.250  33.474  35.345  1.00  0.00     0.131 A 
ATOM     75  C   UNL A   1      37.966  32.283  37.484  1.00  0.00     0.055 A 
ATOM     76  C   UNL A   1      38.817  34.262  36.412  1.00  0.00     0.041 A 
ATOM     77  F   UNL A   1      39.871  34.087  34.324  1.00  0.00    -0.206 F 
ATOM     78  C   UNL A   1      38.165  33.666  37.489  1.00  0.00     0.022 A 
BRANCH  75  79
ATOM     79  S   UNL A   1      37.075  31.491  38.851  1.00  0.00     0.124 S 
ATOM     80  O   UNL A   1      35.850  32.279  38.904  1.00  0.00    -0.237 OA
ATOM     81  O   UNL A   1      36.938  30.119  38.372  1.00  0.00    -0.237 OA
ATOM     82  O   UNL A   1      37.978  31.661  39.988  1.00  0.00    -0.744 OA
ENDBRANCH  75  79
ENDBRANCH  48  72
BRANCH  60  83
ATOM     83  C   UNL A   1      44.830  28.288  34.287  1.00  0.00     0.023 A 
ATOM     84  C   UNL A   1      44.929  27.212  35.184  1.00  0.00     0.031 A 
ATOM     85  C   UNL A   1      45.931  29.153  34.159  1.00  0.00     0.131 A 
ATOM     86  C   UNL A   1      46.097  27.045  35.945  1.00  0.00     0.055 A 
ATOM     87  C   UNL A   1      47.105  28.958  34.886  1.00  0.00     0.041 A 
ATOM     88  F   UNL A   1      45.884  30.196  33.314  1.00  0.00    -0.206 F 
ATOM     89  C   UNL A   1      47.190  27.903  35.790  1.00  0.00     0.022 A 
BRANCH  86  90
ATOM     90  S   UNL A   1      46.158  25.712  37.171  1.00  0.00     0.124 S 
ATOM     91  O   UNL A   1      47.351  24.977  36.762  1.00  0.00    -0.237 OA
ATOM     92  O   UNL A   1      46.260  26.444  38.430  1.00  0.00    -0.237 OA
ATOM     93  O   UNL A   1      44.895  25.003  36.970  1.00  0.00    -0.744 OA
ENDBRANCH  86  90
ENDBRANCH  60  83
ENDBRANCH  34  35
ENDBRANCH  26  29
ENDBRANCH  24  25
ENDBRANCH   1  24
TORSDOF 18
ENDMDL
MODEL 3
REMARK VINA RESULT:     -11.4      5.209     10.235
REMARK SMILES O=C(CN(CC(F)(F)F)S(=O)(=O)c1cccc(F)c1)NCCCNC(=O)c1ccc(-c2c3nc(c(-c4cc(S(=O)(=O)[O-])ccc4F)c4ccc([nH]4)c(-c4cc(S(=O)(=O)[O-])ccc4F)c4nc(c(-c5cc(S(=O)(=O)[O-])ccc5F)c5ccc2[nH]5)C=C4)C=C3)cc1
REMARK SMILES IDX 22 1 21 2 20 3 1 4 2 5 3 7 4 8 5 9 6 10 7 11 8 12 9 13 10 14
REMARK SMILES IDX 11 15 12 16 13 17 14 18 19 19 15 20 17 21 16 22 18 23 23 24
REMARK SMILES IDX 24 25 25 26 26 28 27 29 28 30 89 31 29 32 88 33 30 34 31 35
REMARK SMILES IDX 32 36 82 37 33 38 87 39 81 40 83 41 34 42 86 43 80 44 79 45
REMARK SMILES IDX 35 47 67 48 47 49 66 50 48 51 51 52 65 53 84 54 49 55 50 56
REMARK SMILES IDX 64 58 85 59 52 60 36 61 37 62 45 63 38 64 44 65 46 66 43 67
REMARK SMILES IDX 39 68 40 69 41 70 42 71 68 72 69 73 77 74 70 75 76 76 78 77
REMARK SMILES IDX 75 78 71 79 72 80 73 81 74 82 53 83 54 84 62 85 55 86 61 87
REMARK SMILES IDX 63 88 60 89 56 90 57 91 58 92 59 93
REMARK H PARENT 20 6 24 27 83 46 51 57
REMARK Flexibility Score: inf
ROOT
ATOM      1  C   UNL A   1      31.743  28.711  25.649  1.00  0.00     0.042 C 
ENDROOT
BRANCH   1   2
ATOM      2  C   UNL A   1      30.989  28.669  24.326  1.00  0.00     0.117 C 
BRANCH   2   3
ATOM      3  N   UNL A   1      30.880  27.335  23.770  1.00  0.00    -0.355 N 
ATOM      4  O   UNL A   1      32.955  27.332  22.782  1.00  0.00    -0.274 OA
ATOM      5  C   UNL A   1      31.933  26.737  23.112  1.00  0.00     0.235 C 
ATOM      6  H   UNL A   1      30.032  26.843  23.864  1.00  0.00     0.163 HD
BRANCH   5   7
ATOM      7  C   UNL A   1      31.697  25.285  22.730  1.00  0.00     0.202 C 
BRANCH   7   8
ATOM      8  N   UNL A   1      32.222  24.238  23.682  1.00  0.00    -0.179 NA
BRANCH   8   9
ATOM      9  C   UNL A   1      31.121  23.805  24.646  1.00  0.00     0.218 C 
BRANCH   9  10
ATOM     10  C   UNL A   1      31.015  24.492  26.017  1.00  0.00     0.402 C 
ATOM     11  F   UNL A   1      29.908  25.252  26.127  1.00  0.00    -0.170 F 
ATOM     12  F   UNL A   1      30.927  23.543  26.985  1.00  0.00    -0.170 F 
ATOM     13  F   UNL A   1      32.096  25.242  26.304  1.00  0.00    -0.170 F 
ENDBRANCH   9  10
ENDBRANCH   8   9
BRANCH   8  14
ATOM     14  S   UNL A   1      33.055  22.971  22.870  1.00  0.00     0.243 S 
ATOM     15  O   UNL A   1      32.165  21.838  22.826  1.00  0.00    -0.207 OA
ATOM     16  O   UNL A   1      33.647  23.512  21.667  1.00  0.00    -0.207 OA
BRANCH  14  17
ATOM     17  C   UNL A   1      34.415  22.589  23.944  1.00  0.00     0.085 A 
ATOM     18  C   UNL A   1      34.473  21.343  24.580  1.00  0.00     0.022 A 
ATOM     19  C   UNL A   1      35.444  23.521  24.102  1.00  0.00     0.061 A 
ATOM     20  C   UNL A   1      35.565  21.032  25.392  1.00  0.00     0.004 A 
ATOM     21  C   UNL A   1      36.520  23.194  24.917  1.00  0.00     0.124 A 
ATOM     22  C   UNL A   1      36.591  21.962  25.562  1.00  0.00     0.039 A 
ATOM     23  F   UNL A   1      37.511  24.078  25.085  1.00  0.00    -0.207 F 
ENDBRANCH  14  17
ENDBRANCH   8  14
ENDBRANCH   7   8
ENDBRANCH   5   7
ENDBRANCH   2   3
ENDBRANCH   1   2
BRANCH   1  24
ATOM     24  C   UNL A   1      32.923  29.681  25.679  1.00  0.00     0.118 C 
BRANCH  24  25
ATOM     25  N   UNL A   1      32.583  30.982  26.241  1.00  0.00    -0.352 N 
ATOM     26  C   UNL A   1      33.200  31.724  27.219  1.00  0.00     0.251 C 
ATOM     27  H   UNL A   1      31.780  31.399  25.854  1.00  0.00     0.163 HD
ATOM     28  O   UNL A   1      32.654  32.748  27.622  1.00  0.00    -0.269 OA
BRANCH  26  29
ATOM     29  C   UNL A   1      34.488  31.294  27.810  1.00  0.00     0.039 A 
ATOM     30  C   UNL A   1      35.489  32.252  28.001  1.00  0.00     0.014 A 
ATOM     31  C   UNL A   1      34.727  29.961  28.157  1.00  0.00     0.014 A 
ATOM     32  C   UNL A   1      36.691  31.893  28.616  1.00  0.00     0.010 A 
ATOM     33  C   UNL A   1      35.904  29.615  28.823  1.00  0.00     0.010 A 
ATOM     34  C   UNL A   1      36.889  30.582  29.077  1.00  0.00    -0.014 A 
BRANCH  34  35
ATOM     35  C   UNL A   1      38.094  30.216  29.868  1.00  0.00     0.031 A 
ATOM     36  C   UNL A   1      39.109  29.252  29.319  1.00  0.00     0.074 A 
ATOM     37  C   UNL A   1      38.238  30.706  31.116  1.00  0.00     0.049 A 
ATOM     38  N   UNL A   1      40.149  28.724  29.912  1.00  0.00    -0.248 NA
ATOM     39  C   UNL A   1      38.918  28.813  27.930  1.00  0.00     0.031 C 
ATOM     40  C   UNL A   1      37.316  31.638  31.770  1.00  0.00     0.029 A 
ATOM     41  N   UNL A   1      39.208  30.484  32.061  1.00  0.00    -0.354 N 
ATOM     42  C   UNL A   1      40.732  27.880  28.973  1.00  0.00     0.074 A 
ATOM     43  C   UNL A   1      39.908  27.942  27.785  1.00  0.00     0.031 C 
ATOM     44  C   UNL A   1      37.778  31.925  32.997  1.00  0.00     0.029 A 
ATOM     45  C   UNL A   1      38.997  31.162  33.239  1.00  0.00     0.049 A 
ATOM     46  H   UNL A   1      39.983  29.896  31.909  1.00  0.00     0.167 HD
ATOM     47  C   UNL A   1      41.857  27.132  29.092  1.00  0.00     0.034 A 
ATOM     48  C   UNL A   1      39.693  31.159  34.393  1.00  0.00     0.034 A 
ATOM     49  C   UNL A   1      42.681  27.087  30.275  1.00  0.00     0.049 A 
ATOM     50  C   UNL A   1      40.922  30.299  34.508  1.00  0.00     0.074 A 
ATOM     51  C   UNL A   1      43.854  26.379  30.480  1.00  0.00     0.029 A 
ATOM     52  N   UNL A   1      42.424  27.776  31.452  1.00  0.00    -0.354 N 
ATOM     53  N   UNL A   1      41.446  29.489  33.620  1.00  0.00    -0.248 NA
ATOM     54  C   UNL A   1      41.652  30.353  35.783  1.00  0.00     0.031 C 
ATOM     55  C   UNL A   1      44.278  26.601  31.795  1.00  0.00     0.029 A 
ATOM     56  C   UNL A   1      43.406  27.497  32.391  1.00  0.00     0.049 A 
ATOM     57  H   UNL A   1      41.658  28.377  31.599  1.00  0.00     0.167 HD
ATOM     58  C   UNL A   1      42.579  28.950  34.221  1.00  0.00     0.074 A 
ATOM     59  C   UNL A   1      42.665  29.530  35.547  1.00  0.00     0.031 C 
ATOM     60  C   UNL A   1      43.472  28.064  33.716  1.00  0.00     0.034 A 
BRANCH  47  61
ATOM     61  C   UNL A   1      42.251  26.278  27.915  1.00  0.00     0.023 A 
ATOM     62  C   UNL A   1      41.779  24.964  27.769  1.00  0.00     0.031 A 
ATOM     63  C   UNL A   1      43.097  26.795  26.917  1.00  0.00     0.131 A 
ATOM     64  C   UNL A   1      42.192  24.193  26.671  1.00  0.00     0.055 A 
ATOM     65  C   UNL A   1      43.453  26.044  25.796  1.00  0.00     0.041 A 
ATOM     66  F   UNL A   1      43.591  28.040  27.018  1.00  0.00    -0.206 F 
ATOM     67  C   UNL A   1      43.006  24.733  25.671  1.00  0.00     0.022 A 
BRANCH  64  68
ATOM     68  S   UNL A   1      41.712  22.446  26.604  1.00  0.00     0.124 S 
ATOM     69  O   UNL A   1      40.255  22.544  26.569  1.00  0.00    -0.237 OA
ATOM     70  O   UNL A   1      42.352  21.986  25.376  1.00  0.00    -0.237 OA
ATOM     71  O   UNL A   1      42.264  21.892  27.839  1.00  0.00    -0.744 OA
ENDBRANCH  64  68
ENDBRANCH  47  61
BRANCH  48  72
ATOM     72  C   UNL A   1      39.233  31.987  35.538  1.00  0.00     0.023 A 
ATOM     73  C   UNL A   1      38.483  31.421  36.579  1.00  0.00     0.031 A 
ATOM     74  C   UNL A   1      39.546  33.355  35.609  1.00  0.00     0.131 A 
ATOM     75  C   UNL A   1      38.051  32.228  37.643  1.00  0.00     0.055 A 
ATOM     76  C   UNL A   1      39.144  34.146  36.686  1.00  0.00     0.041 A 
ATOM     77  F   UNL A   1      40.273  33.936  34.640  1.00  0.00    -0.206 F 
ATOM     78  C   UNL A   1      38.386  33.583  37.709  1.00  0.00     0.022 A 
BRANCH  75  79
ATOM     79  S   UNL A   1      37.022  31.484  38.938  1.00  0.00     0.124 S 
ATOM     80  O   UNL A   1      35.839  32.337  38.905  1.00  0.00    -0.237 OA
ATOM     81  O   UNL A   1      36.847  30.122  38.445  1.00  0.00    -0.237 OA
ATOM     82  O   UNL A   1      37.848  31.606  40.139  1.00  0.00    -0.744 OA
ENDBRANCH  75  79
ENDBRANCH  48  72
BRANCH  60  83
ATOM     83  C   UNL A   1      44.643  27.693  34.586  1.00  0.00     0.023 A 
ATOM     84  C   UNL A   1      44.633  26.536  35.381  1.00  0.00     0.031 A 
ATOM     85  C   UNL A   1      45.792  28.502  34.599  1.00  0.00     0.131 A 
ATOM     86  C   UNL A   1      45.743  26.234  36.185  1.00  0.00     0.055 A 
ATOM     87  C   UNL A   1      46.910  28.175  35.368  1.00  0.00     0.041 A 
ATOM     88  F   UNL A   1      45.850  29.619  33.856  1.00  0.00    -0.206 F 
ATOM     89  C   UNL A   1      46.886  27.038  36.171  1.00  0.00     0.022 A 
BRANCH  86  90
ATOM     90  S   UNL A   1      45.662  24.793  37.282  1.00  0.00     0.124 S 
ATOM     91  O   UNL A   1      45.453  25.415  38.585  1.00  0.00    -0.237 OA
ATOM     92  O   UNL A   1      44.530  24.047  36.742  1.00  0.00    -0.237 OA
ATOM     93  O   UNL A   1      46.964  24.152  37.103  1.00  0.00    -0.744 OA
ENDBRANCH  86  90
ENDBRANCH  60  83
ENDBRANCH  34  35
ENDBRANCH  26  29
ENDBRANCH  24  25
ENDBRANCH   1  24
TORSDOF 18
ENDMDL
