MODEL 1
REMARK VINA RESULT:     -12.6      0.000      0.000
REMARK SMILES O=C(N[C@@H]1C=C[C@@H](C(=O)NCCCNC(=O)c2ccc(-c3c4nc(c(-c5cc(S(=O)(=O)[O-])ccc5F)c5ccc([nH]5)c(-c5cc(S(=O)(=O)[O-])ccc5F)c5nc(c(-c6cc(S(=O)(=O)[O-])ccc6F)c6ccc3[nH]6)C=C5)C=C4)cc2)C1)N[C@H]1CCCc2sccc21
REMARK SMILES IDX 12 1 11 2 10 3 8 4 9 5 7 7 4 8 5 9 80 10 6 11 3 12 1 13 2 14
REMARK SMILES IDX 81 15 82 18 83 19 90 20 84 21 86 22 89 23 85 24 87 25 88 26
REMARK SMILES IDX 13 27 14 28 15 29 16 31 17 32 18 33 79 34 19 35 78 36 20 37
REMARK SMILES IDX 21 38 22 39 72 40 23 41 77 42 71 43 73 44 24 45 76 46 70 47
REMARK SMILES IDX 69 48 25 50 57 51 37 52 56 53 38 54 41 55 55 56 74 57 39 58
REMARK SMILES IDX 40 59 54 61 75 62 42 63 26 64 27 65 35 66 28 67 34 68 36 69
REMARK SMILES IDX 33 70 29 71 30 72 31 73 32 74 58 75 59 76 67 77 60 78 66 79
REMARK SMILES IDX 68 80 65 81 61 82 62 83 63 84 64 85 43 86 44 87 52 88 45 89
REMARK SMILES IDX 51 90 53 91 50 92 46 93 47 94 48 95 49 96
REMARK H PARENT 10 6 3 16 81 17 14 30 73 49 41 60
REMARK Flexibility Score: inf
ROOT
ATOM      1  C   UNL A   1      31.353  32.114  26.727  1.00  0.00     0.042 C 
ENDROOT
BRANCH   1   2
ATOM      2  C   UNL A   1      31.458  30.861  25.865  1.00  0.00     0.117 C 
BRANCH   2   3
ATOM      3  N   UNL A   1      31.776  29.703  26.674  1.00  0.00    -0.356 N 
ATOM      4  C   UNL A   1      32.041  28.423  26.325  1.00  0.00     0.227 C 
ATOM      5  O   UNL A   1      32.096  27.596  27.241  1.00  0.00    -0.274 OA
ATOM      6  H   UNL A   1      31.803  29.877  27.643  1.00  0.00     0.163 HD
BRANCH   4   7
ATOM      7  C   UNL A   1      32.288  27.989  24.884  1.00  0.00     0.103 C 
ATOM      8  C   UNL A   1      31.592  28.138  22.555  1.00  0.00     0.107 C 
ATOM      9  C   UNL A   1      32.844  28.921  22.816  1.00  0.00    -0.006 C 
ATOM     10  C   UNL A   1      31.069  27.847  23.968  1.00  0.00     0.047 C 
ATOM     11  C   UNL A   1      33.219  28.859  24.100  1.00  0.00    -0.016 C 
BRANCH   8  12
ATOM     12  N   UNL A   1      31.905  27.034  21.655  1.00  0.00    -0.332 N 
ATOM     13  O   UNL A   1      33.140  25.398  20.776  1.00  0.00    -0.249 OA
ATOM     14  C   UNL A   1      32.648  25.904  21.778  1.00  0.00     0.315 C 
ATOM     15  N   UNL A   1      32.803  25.404  23.020  1.00  0.00    -0.331 N 
ATOM     16  H   UNL A   1      31.488  27.129  20.769  1.00  0.00     0.165 HD
ATOM     17  H   UNL A   1      32.209  25.751  23.725  1.00  0.00     0.166 HD
BRANCH  15  18
ATOM     18  C   UNL A   1      33.777  24.392  23.404  1.00  0.00     0.115 C 
ATOM     19  C   UNL A   1      34.613  24.911  24.603  1.00  0.00     0.030 C 
ATOM     20  C   UNL A   1      33.053  23.152  23.848  1.00  0.00    -0.012 A 
ATOM     21  C   UNL A   1      33.922  24.825  26.001  1.00  0.00     0.008 C 
ATOM     22  C   UNL A   1      32.423  23.130  25.077  1.00  0.00     0.010 A 
ATOM     23  C   UNL A   1      33.056  21.857  23.251  1.00  0.00     0.018 A 
ATOM     24  C   UNL A   1      32.475  24.291  26.013  1.00  0.00     0.047 C 
ATOM     25  S   UNL A   1      31.740  21.629  25.456  1.00  0.00    -0.149 S 
ATOM     26  C   UNL A   1      32.395  20.931  24.033  1.00  0.00     0.065 A 
ENDBRANCH  15  18
ENDBRANCH   8  12
ENDBRANCH   4   7
ENDBRANCH   2   3
ENDBRANCH   1   2
BRANCH   1  27
ATOM     27  C   UNL A   1      32.702  32.625  27.221  1.00  0.00     0.118 C 
BRANCH  27  28
ATOM     28  N   UNL A   1      32.631  34.010  27.661  1.00  0.00    -0.352 N 
ATOM     29  C   UNL A   1      33.259  34.626  28.715  1.00  0.00     0.251 C 
ATOM     30  H   UNL A   1      32.047  34.592  27.122  1.00  0.00     0.163 HD
ATOM     31  O   UNL A   1      32.843  35.706  29.118  1.00  0.00    -0.269 OA
BRANCH  29  32
ATOM     32  C   UNL A   1      34.416  33.973  29.361  1.00  0.00     0.039 A 
ATOM     33  C   UNL A   1      35.708  34.351  28.991  1.00  0.00     0.014 A 
ATOM     34  C   UNL A   1      34.224  32.973  30.318  1.00  0.00     0.014 A 
ATOM     35  C   UNL A   1      36.806  33.764  29.625  1.00  0.00     0.010 A 
ATOM     36  C   UNL A   1      35.312  32.461  31.013  1.00  0.00     0.010 A 
ATOM     37  C   UNL A   1      36.616  32.839  30.664  1.00  0.00    -0.014 A 
BRANCH  37  38
ATOM     38  C   UNL A   1      37.767  32.228  31.376  1.00  0.00     0.031 A 
ATOM     39  C   UNL A   1      38.519  31.088  30.743  1.00  0.00     0.074 A 
ATOM     40  C   UNL A   1      38.093  32.658  32.610  1.00  0.00     0.049 A 
ATOM     41  N   UNL A   1      39.498  30.369  31.228  1.00  0.00    -0.248 NA
ATOM     42  C   UNL A   1      38.088  30.680  29.396  1.00  0.00     0.031 C 
ATOM     43  C   UNL A   1      37.406  33.726  33.342  1.00  0.00     0.029 A 
ATOM     44  N   UNL A   1      39.080  32.251  33.471  1.00  0.00    -0.354 N 
ATOM     45  C   UNL A   1      39.788  29.418  30.256  1.00  0.00     0.074 A 
ATOM     46  C   UNL A   1      38.831  29.607  29.187  1.00  0.00     0.031 C 
ATOM     47  C   UNL A   1      38.014  33.911  34.524  1.00  0.00     0.029 A 
ATOM     48  C   UNL A   1      39.102  32.947  34.657  1.00  0.00     0.049 A 
ATOM     49  H   UNL A   1      39.712  31.527  33.259  1.00  0.00     0.167 HD
ATOM     50  C   UNL A   1      40.780  28.492  30.241  1.00  0.00     0.034 A 
ATOM     51  C   UNL A   1      39.904  32.817  35.731  1.00  0.00     0.034 A 
ATOM     52  C   UNL A   1      41.734  28.332  31.310  1.00  0.00     0.049 A 
ATOM     53  C   UNL A   1      40.990  31.771  35.702  1.00  0.00     0.074 A 
ATOM     54  C   UNL A   1      42.807  27.461  31.387  1.00  0.00     0.029 A 
ATOM     55  N   UNL A   1      41.728  29.058  32.495  1.00  0.00    -0.354 N 
ATOM     56  N   UNL A   1      41.279  30.906  34.755  1.00  0.00    -0.248 NA
ATOM     57  C   UNL A   1      41.863  31.691  36.878  1.00  0.00     0.031 C 
ATOM     58  C   UNL A   1      43.409  27.616  32.641  1.00  0.00     0.029 A 
ATOM     59  C   UNL A   1      42.762  28.637  33.318  1.00  0.00     0.049 A 
ATOM     60  H   UNL A   1      41.083  29.767  32.719  1.00  0.00     0.167 HD
ATOM     61  C   UNL A   1      42.389  30.203  35.212  1.00  0.00     0.074 A 
ATOM     62  C   UNL A   1      42.725  30.756  36.508  1.00  0.00     0.031 C 
ATOM     63  C   UNL A   1      43.073  29.193  34.615  1.00  0.00     0.034 A 
BRANCH  50  64
ATOM     64  C   UNL A   1      40.861  27.582  29.038  1.00  0.00     0.023 A 
ATOM     65  C   UNL A   1      41.799  27.796  28.012  1.00  0.00     0.031 A 
ATOM     66  C   UNL A   1      39.966  26.506  28.893  1.00  0.00     0.131 A 
ATOM     67  C   UNL A   1      41.766  27.006  26.853  1.00  0.00     0.055 A 
ATOM     68  C   UNL A   1      39.996  25.668  27.776  1.00  0.00     0.041 A 
ATOM     69  F   UNL A   1      39.033  26.263  29.827  1.00  0.00    -0.206 F 
ATOM     70  C   UNL A   1      40.889  25.925  26.740  1.00  0.00     0.022 A 
BRANCH  67  71
ATOM     71  S   UNL A   1      42.781  27.508  25.436  1.00  0.00     0.124 S 
ATOM     72  O   UNL A   1      44.055  27.816  26.082  1.00  0.00    -0.237 OA
ATOM     73  O   UNL A   1      42.762  26.317  24.596  1.00  0.00    -0.237 OA
ATOM     74  O   UNL A   1      42.068  28.665  24.897  1.00  0.00    -0.744 OA
ENDBRANCH  67  71
ENDBRANCH  50  64
BRANCH  51  75
ATOM     75  C   UNL A   1      39.723  33.697  36.921  1.00  0.00     0.023 A 
ATOM     76  C   UNL A   1      39.057  33.232  38.066  1.00  0.00     0.031 A 
ATOM     77  C   UNL A   1      40.181  35.027  36.919  1.00  0.00     0.131 A 
ATOM     78  C   UNL A   1      38.823  34.103  39.142  1.00  0.00     0.055 A 
ATOM     79  C   UNL A   1      39.993  35.873  38.013  1.00  0.00     0.041 A 
ATOM     80  F   UNL A   1      40.832  35.519  35.853  1.00  0.00    -0.206 F 
ATOM     81  C   UNL A   1      39.298  35.416  39.129  1.00  0.00     0.022 A 
BRANCH  78  82
ATOM     82  S   UNL A   1      37.816  33.514  40.531  1.00  0.00     0.124 S 
ATOM     83  O   UNL A   1      38.730  32.589  41.190  1.00  0.00    -0.237 OA
ATOM     84  O   UNL A   1      37.530  34.755  41.244  1.00  0.00    -0.237 OA
ATOM     85  O   UNL A   1      36.664  32.895  39.877  1.00  0.00    -0.744 OA
ENDBRANCH  78  82
ENDBRANCH  51  75
BRANCH  63  86
ATOM     86  C   UNL A   1      44.280  28.660  35.347  1.00  0.00     0.023 A 
ATOM     87  C   UNL A   1      44.168  27.648  36.317  1.00  0.00     0.031 A 
ATOM     88  C   UNL A   1      45.557  29.184  35.081  1.00  0.00     0.131 A 
ATOM     89  C   UNL A   1      45.304  27.236  37.030  1.00  0.00     0.055 A 
ATOM     90  C   UNL A   1      46.693  28.726  35.749  1.00  0.00     0.041 A 
ATOM     91  F   UNL A   1      45.721  30.153  34.167  1.00  0.00    -0.206 F 
ATOM     92  C   UNL A   1      46.568  27.757  36.740  1.00  0.00     0.022 A 
BRANCH  89  93
ATOM     93  S   UNL A   1      45.091  26.085  38.414  1.00  0.00     0.124 S 
ATOM     94  O   UNL A   1      44.416  24.960  37.772  1.00  0.00    -0.237 OA
ATOM     95  O   UNL A   1      46.468  25.845  38.835  1.00  0.00    -0.237 OA
ATOM     96  O   UNL A   1      44.275  26.837  39.365  1.00  0.00    -0.744 OA
ENDBRANCH  89  93
ENDBRANCH  63  86
ENDBRANCH  37  38
ENDBRANCH  29  32
ENDBRANCH  27  28
ENDBRANCH   1  27
TORSDOF 15
ENDMDL
MODEL 2
REMARK VINA RESULT:     -12.5      5.566     10.695
REMARK SMILES O=C(N[C@@H]1C=C[C@@H](C(=O)NCCCNC(=O)c2ccc(-c3c4nc(c(-c5cc(S(=O)(=O)[O-])ccc5F)c5ccc([nH]5)c(-c5cc(S(=O)(=O)[O-])ccc5F)c5nc(c(-c6cc(S(=O)(=O)[O-])ccc6F)c6ccc3[nH]6)C=C5)C=C4)cc2)C1)N[C@H]1CCCc2sccc21
REMARK SMILES IDX 12 1 11 2 10 3 8 4 9 5 7 7 4 8 5 9 80 10 6 11 3 12 1 13 2 14
REMARK SMILES IDX 81 15 82 18 83 19 90 20 84 21 86 22 89 23 85 24 87 25 88 26
REMARK SMILES IDX 13 27 14 28 15 29 16 31 17 32 18 33 79 34 19 35 78 36 20 37
REMARK SMILES IDX 21 38 22 39 72 40 23 41 77 42 71 43 73 44 24 45 76 46 70 47
REMARK SMILES IDX 69 48 25 50 57 51 37 52 56 53 38 54 41 55 55 56 74 57 39 58
REMARK SMILES IDX 40 59 54 61 75 62 42 63 26 64 27 65 35 66 28 67 34 68 36 69
REMARK SMILES IDX 33 70 29 71 30 72 31 73 32 74 58 75 59 76 67 77 60 78 66 79
REMARK SMILES IDX 68 80 65 81 61 82 62 83 63 84 64 85 43 86 44 87 52 88 45 89
REMARK SMILES IDX 51 90 53 91 50 92 46 93 47 94 48 95 49 96
REMARK H PARENT 10 6 3 16 81 17 14 30 73 49 41 60
REMARK Flexibility Score: inf
ROOT
ATOM      1  C   UNL A   1      34.716  21.930  26.611  1.00  0.00     0.042 C 
ENDROOT
BRANCH   1   2
ATOM      2  C   UNL A   1      33.814  21.024  25.781  1.00  0.00     0.117 C 
BRANCH   2   3
ATOM      3  N   UNL A   1      32.420  21.252  26.098  1.00  0.00    -0.356 N 
ATOM      4  C   UNL A   1      31.503  22.067  25.528  1.00  0.00     0.227 C 
ATOM      5  O   UNL A   1      30.429  22.201  26.125  1.00  0.00    -0.274 OA
ATOM      6  H   UNL A   1      32.082  20.725  26.858  1.00  0.00     0.163 HD
BRANCH   4   7
ATOM      7  C   UNL A   1      31.737  22.784  24.204  1.00  0.00     0.103 C 
ATOM      8  C   UNL A   1      33.343  23.830  22.700  1.00  0.00     0.107 C 
ATOM      9  C   UNL A   1      32.903  22.486  22.201  1.00  0.00    -0.006 C 
ATOM     10  C   UNL A   1      32.851  23.834  24.154  1.00  0.00     0.047 C 
ATOM     11  C   UNL A   1      32.036  21.898  23.035  1.00  0.00    -0.016 C 
BRANCH   8  12
ATOM     12  N   UNL A   1      32.875  24.854  21.772  1.00  0.00    -0.332 N 
ATOM     13  O   UNL A   1      31.442  26.325  20.901  1.00  0.00    -0.249 OA
ATOM     14  C   UNL A   1      32.039  25.918  21.892  1.00  0.00     0.315 C 
ATOM     15  N   UNL A   1      31.914  26.466  23.117  1.00  0.00    -0.331 N 
ATOM     16  H   UNL A   1      33.244  24.751  20.866  1.00  0.00     0.165 HD
ATOM     17  H   UNL A   1      32.580  26.210  23.797  1.00  0.00     0.166 HD
BRANCH  15  18
ATOM     18  C   UNL A   1      30.876  27.404  23.516  1.00  0.00     0.115 C 
ATOM     19  C   UNL A   1      29.587  26.623  23.880  1.00  0.00     0.030 C 
ATOM     20  C   UNL A   1      31.326  28.148  24.742  1.00  0.00    -0.012 A 
ATOM     21  C   UNL A   1      29.573  25.954  25.291  1.00  0.00     0.008 C 
ATOM     22  C   UNL A   1      31.334  27.508  25.967  1.00  0.00     0.010 A 
ATOM     23  C   UNL A   1      31.599  29.539  24.891  1.00  0.00     0.018 A 
ATOM     24  C   UNL A   1      30.860  26.102  26.127  1.00  0.00     0.047 C 
ATOM     25  S   UNL A   1      31.778  28.517  27.251  1.00  0.00    -0.149 S 
ATOM     26  C   UNL A   1      31.839  29.877  26.208  1.00  0.00     0.065 A 
ENDBRANCH  15  18
ENDBRANCH   8  12
ENDBRANCH   4   7
ENDBRANCH   2   3
ENDBRANCH   1   2
BRANCH   1  27
ATOM     27  C   UNL A   1      36.000  22.330  25.893  1.00  0.00     0.118 C 
BRANCH  27  28
ATOM     28  N   UNL A   1      36.936  21.222  25.796  1.00  0.00    -0.352 N 
ATOM     29  C   UNL A   1      38.309  21.237  25.772  1.00  0.00     0.251 C 
ATOM     30  H   UNL A   1      36.525  20.329  25.739  1.00  0.00     0.163 HD
ATOM     31  O   UNL A   1      38.917  20.250  25.375  1.00  0.00    -0.269 OA
BRANCH  29  32
ATOM     32  C   UNL A   1      39.037  22.447  26.210  1.00  0.00     0.039 A 
ATOM     33  C   UNL A   1      40.152  22.310  27.039  1.00  0.00     0.014 A 
ATOM     34  C   UNL A   1      38.604  23.716  25.818  1.00  0.00     0.014 A 
ATOM     35  C   UNL A   1      40.865  23.447  27.426  1.00  0.00     0.010 A 
ATOM     36  C   UNL A   1      39.368  24.834  26.124  1.00  0.00     0.010 A 
ATOM     37  C   UNL A   1      40.499  24.714  26.944  1.00  0.00    -0.014 A 
BRANCH  37  38
ATOM     38  C   UNL A   1      41.263  25.933  27.314  1.00  0.00     0.031 A 
ATOM     39  C   UNL A   1      40.621  26.986  28.177  1.00  0.00     0.074 A 
ATOM     40  C   UNL A   1      42.505  26.116  26.826  1.00  0.00     0.049 A 
ATOM     41  N   UNL A   1      41.086  28.151  28.548  1.00  0.00    -0.248 NA
ATOM     42  C   UNL A   1      39.259  26.704  28.658  1.00  0.00     0.031 C 
ATOM     43  C   UNL A   1      43.212  25.183  25.943  1.00  0.00     0.029 A 
ATOM     44  N   UNL A   1      43.393  27.146  26.996  1.00  0.00    -0.354 N 
ATOM     45  C   UNL A   1      40.071  28.745  29.290  1.00  0.00     0.074 A 
ATOM     46  C   UNL A   1      38.941  27.842  29.253  1.00  0.00     0.031 C 
ATOM     47  C   UNL A   1      44.435  25.669  25.679  1.00  0.00     0.029 A 
ATOM     48  C   UNL A   1      44.585  26.965  26.331  1.00  0.00     0.049 A 
ATOM     49  H   UNL A   1      43.196  27.941  27.542  1.00  0.00     0.167 HD
ATOM     50  C   UNL A   1      40.089  29.922  29.966  1.00  0.00     0.034 A 
ATOM     51  C   UNL A   1      45.670  27.759  26.253  1.00  0.00     0.034 A 
ATOM     52  C   UNL A   1      41.232  30.800  30.004  1.00  0.00     0.049 A 
ATOM     53  C   UNL A   1      45.664  29.070  26.998  1.00  0.00     0.074 A 
ATOM     54  C   UNL A   1      41.383  31.992  30.690  1.00  0.00     0.029 A 
ATOM     55  N   UNL A   1      42.423  30.582  29.322  1.00  0.00    -0.354 N 
ATOM     56  N   UNL A   1      44.710  29.599  27.733  1.00  0.00    -0.248 NA
ATOM     57  C   UNL A   1      46.881  29.884  26.914  1.00  0.00     0.031 C 
ATOM     58  C   UNL A   1      42.637  32.526  30.372  1.00  0.00     0.029 A 
ATOM     59  C   UNL A   1      43.303  31.630  29.550  1.00  0.00     0.049 A 
ATOM     60  H   UNL A   1      42.615  29.799  28.757  1.00  0.00     0.167 HD
ATOM     61  C   UNL A   1      45.229  30.793  28.223  1.00  0.00     0.074 A 
ATOM     62  C   UNL A   1      46.583  30.896  27.716  1.00  0.00     0.031 C 
ATOM     63  C   UNL A   1      44.645  31.721  29.024  1.00  0.00     0.034 A 
BRANCH  50  64
ATOM     64  C   UNL A   1      38.829  30.320  30.698  1.00  0.00     0.023 A 
ATOM     65  C   UNL A   1      37.885  31.190  30.123  1.00  0.00     0.031 A 
ATOM     66  C   UNL A   1      38.583  29.858  32.004  1.00  0.00     0.131 A 
ATOM     67  C   UNL A   1      36.788  31.636  30.876  1.00  0.00     0.055 A 
ATOM     68  C   UNL A   1      37.443  30.237  32.717  1.00  0.00     0.041 A 
ATOM     69  F   UNL A   1      39.456  29.044  32.617  1.00  0.00    -0.206 F 
ATOM     70  C   UNL A   1      36.545  31.143  32.160  1.00  0.00     0.022 A 
BRANCH  67  71
ATOM     71  S   UNL A   1      35.772  32.983  30.210  1.00  0.00     0.124 S 
ATOM     72  O   UNL A   1      36.197  34.108  31.039  1.00  0.00    -0.237 OA
ATOM     73  O   UNL A   1      36.183  33.027  28.812  1.00  0.00    -0.237 OA
ATOM     74  O   UNL A   1      34.403  32.527  30.445  1.00  0.00    -0.744 OA
ENDBRANCH  67  71
ENDBRANCH  50  64
BRANCH  51  75
ATOM     75  C   UNL A   1      46.855  27.343  25.449  1.00  0.00     0.023 A 
ATOM     76  C   UNL A   1      47.033  27.806  24.136  1.00  0.00     0.031 A 
ATOM     77  C   UNL A   1      47.807  26.448  25.968  1.00  0.00     0.131 A 
ATOM     78  C   UNL A   1      48.109  27.337  23.368  1.00  0.00     0.055 A 
ATOM     79  C   UNL A   1      48.906  26.025  25.218  1.00  0.00     0.041 A 
ATOM     80  F   UNL A   1      47.689  25.981  27.221  1.00  0.00    -0.206 F 
ATOM     81  C   UNL A   1      49.055  26.460  23.904  1.00  0.00     0.022 A 
BRANCH  78  82
ATOM     82  S   UNL A   1      48.212  27.829  21.625  1.00  0.00     0.124 S 
ATOM     83  O   UNL A   1      46.925  28.485  21.426  1.00  0.00    -0.237 OA
ATOM     84  O   UNL A   1      49.384  28.698  21.625  1.00  0.00    -0.237 OA
ATOM     85  O   UNL A   1      48.381  26.558  20.923  1.00  0.00    -0.744 OA
ENDBRANCH  78  82
ENDBRANCH  51  75
BRANCH  63  86
ATOM     86  C   UNL A   1      45.491  32.902  29.432  1.00  0.00     0.023 A 
ATOM     87  C   UNL A   1      45.511  34.090  28.681  1.00  0.00     0.031 A 
ATOM     88  C   UNL A   1      46.301  32.829  30.578  1.00  0.00     0.131 A 
ATOM     89  C   UNL A   1      46.371  35.135  29.050  1.00  0.00     0.055 A 
ATOM     90  C   UNL A   1      47.107  33.895  30.977  1.00  0.00     0.041 A 
ATOM     91  F   UNL A   1      46.322  31.717  31.330  1.00  0.00    -0.206 F 
ATOM     92  C   UNL A   1      47.156  35.051  30.203  1.00  0.00     0.022 A 
BRANCH  89  93
ATOM     93  S   UNL A   1      46.527  36.565  27.947  1.00  0.00     0.124 S 
ATOM     94  O   UNL A   1      47.974  36.661  27.778  1.00  0.00    -0.237 OA
ATOM     95  O   UNL A   1      45.776  36.135  26.771  1.00  0.00    -0.237 OA
ATOM     96  O   UNL A   1      45.917  37.654  28.707  1.00  0.00    -0.744 OA
ENDBRANCH  89  93
ENDBRANCH  63  86
ENDBRANCH  37  38
ENDBRANCH  29  32
ENDBRANCH  27  28
ENDBRANCH   1  27
TORSDOF 15
ENDMDL
MODEL 3
REMARK VINA RESULT:     -12.3      1.555      7.695
REMARK SMILES O=C(N[C@@H]1C=C[C@@H](C(=O)NCCCNC(=O)c2ccc(-c3c4nc(c(-c5cc(S(=O)(=O)[O-])ccc5F)c5ccc([nH]5)c(-c5cc(S(=O)(=O)[O-])ccc5F)c5nc(c(-c6cc(S(=O)(=O)[O-])ccc6F)c6ccc3[nH]6)C=C5)C=C4)cc2)C1)N[C@H]1CCCc2sccc21
REMARK SMILES IDX 12 1 11 2 10 3 8 4 9 5 7 7 4 8 5 9 80 10 6 11 3 12 1 13 2 14
REMARK SMILES IDX 81 15 82 18 83 19 90 20 84 21 86 22 89 23 85 24 87 25 88 26
REMARK SMILES IDX 13 27 14 28 15 29 16 31 17 32 18 33 79 34 19 35 78 36 20 37
REMARK SMILES IDX 21 38 22 39 72 40 23 41 77 42 71 43 73 44 24 45 76 46 70 47
REMARK SMILES IDX 69 48 25 50 57 51 37 52 56 53 38 54 41 55 55 56 74 57 39 58
REMARK SMILES IDX 40 59 54 61 75 62 42 63 26 64 27 65 35 66 28 67 34 68 36 69
REMARK SMILES IDX 33 70 29 71 30 72 31 73 32 74 58 75 59 76 67 77 60 78 66 79
REMARK SMILES IDX 68 80 65 81 61 82 62 83 63 84 64 85 43 86 44 87 52 88 45 89
REMARK SMILES IDX 51 90 53 91 50 92 46 93 47 94 48 95 49 96
REMARK H PARENT 10 6 3 16 81 17 14 30 73 49 41 60
REMARK Flexibility Score: inf
ROOT
ATOM      1  C   UNL A   1      31.421  32.242  26.795  1.00  0.00     0.042 C 
ENDROOT
BRANCH   1   2
ATOM      2  C   UNL A   1      31.419  30.941  25.999  1.00  0.00     0.117 C 
BRANCH   2   3
ATOM      3  N   UNL A   1      31.745  29.815  26.848  1.00  0.00    -0.356 N 
ATOM      4  C   UNL A   1      32.076  28.540  26.542  1.00  0.00     0.227 C 
ATOM      5  O   UNL A   1      32.122  27.735  27.478  1.00  0.00    -0.274 OA
ATOM      6  H   UNL A   1      31.720  30.011  27.813  1.00  0.00     0.163 HD
BRANCH   4   7
ATOM      7  C   UNL A   1      32.406  28.085  25.125  1.00  0.00     0.103 C 
ATOM      8  C   UNL A   1      32.148  28.483  22.736  1.00  0.00     0.107 C 
ATOM      9  C   UNL A   1      33.516  28.859  23.221  1.00  0.00    -0.006 C 
ATOM     10  C   UNL A   1      31.353  28.326  24.040  1.00  0.00     0.047 C 
ATOM     11  C   UNL A   1      33.656  28.661  24.538  1.00  0.00    -0.016 C 
BRANCH   8  12
ATOM     12  N   UNL A   1      32.266  27.356  21.817  1.00  0.00    -0.332 N 
ATOM     13  O   UNL A   1      33.238  25.594  20.855  1.00  0.00    -0.249 OA
ATOM     14  C   UNL A   1      32.880  26.147  21.889  1.00  0.00     0.315 C 
ATOM     15  N   UNL A   1      33.063  25.624  23.118  1.00  0.00    -0.331 N 
ATOM     16  H   UNL A   1      31.801  27.505  20.963  1.00  0.00     0.165 HD
ATOM     17  H   UNL A   1      32.565  26.032  23.863  1.00  0.00     0.166 HD
BRANCH  15  18
ATOM     18  C   UNL A   1      33.938  24.504  23.433  1.00  0.00     0.115 C 
ATOM     19  C   UNL A   1      34.830  24.872  24.646  1.00  0.00     0.030 C 
ATOM     20  C   UNL A   1      33.101  23.316  23.819  1.00  0.00    -0.012 A 
ATOM     21  C   UNL A   1      34.146  24.776  26.047  1.00  0.00     0.008 C 
ATOM     22  C   UNL A   1      32.482  23.287  25.054  1.00  0.00     0.010 A 
ATOM     23  C   UNL A   1      32.973  22.062  23.153  1.00  0.00     0.018 A 
ATOM     24  C   UNL A   1      32.655  24.384  26.050  1.00  0.00     0.047 C 
ATOM     25  S   UNL A   1      31.661  21.840  25.361  1.00  0.00    -0.149 S 
ATOM     26  C   UNL A   1      32.232  21.162  23.893  1.00  0.00     0.065 A 
ENDBRANCH  15  18
ENDBRANCH   8  12
ENDBRANCH   4   7
ENDBRANCH   2   3
ENDBRANCH   1   2
BRANCH   1  27
ATOM     27  C   UNL A   1      32.809  32.668  27.257  1.00  0.00     0.118 C 
BRANCH  27  28
ATOM     28  N   UNL A   1      32.835  34.056  27.691  1.00  0.00    -0.352 N 
ATOM     29  C   UNL A   1      33.541  34.639  28.715  1.00  0.00     0.251 C 
ATOM     30  H   UNL A   1      32.264  34.669  27.173  1.00  0.00     0.163 HD
ATOM     31  O   UNL A   1      33.204  35.742  29.129  1.00  0.00    -0.269 OA
BRANCH  29  32
ATOM     32  C   UNL A   1      34.686  33.923  29.317  1.00  0.00     0.039 A 
ATOM     33  C   UNL A   1      34.447  32.945  30.284  1.00  0.00     0.014 A 
ATOM     34  C   UNL A   1      35.994  34.234  28.940  1.00  0.00     0.014 A 
ATOM     35  C   UNL A   1      35.522  32.240  30.830  1.00  0.00     0.010 A 
ATOM     36  C   UNL A   1      37.052  33.467  29.411  1.00  0.00     0.010 A 
ATOM     37  C   UNL A   1      36.830  32.472  30.373  1.00  0.00    -0.014 A 
BRANCH  37  38
ATOM     38  C   UNL A   1      37.984  31.710  30.913  1.00  0.00     0.031 A 
ATOM     39  C   UNL A   1      38.524  32.037  32.280  1.00  0.00     0.074 A 
ATOM     40  C   UNL A   1      38.579  30.771  30.152  1.00  0.00     0.049 A 
ATOM     41  N   UNL A   1      39.566  31.546  32.900  1.00  0.00    -0.248 NA
ATOM     42  C   UNL A   1      37.815  33.082  33.036  1.00  0.00     0.031 C 
ATOM     43  C   UNL A   1      38.170  30.400  28.794  1.00  0.00     0.029 A 
ATOM     44  N   UNL A   1      39.654  29.959  30.407  1.00  0.00    -0.354 N 
ATOM     45  C   UNL A   1      39.646  32.232  34.108  1.00  0.00     0.074 A 
ATOM     46  C   UNL A   1      38.591  33.222  34.098  1.00  0.00     0.031 C 
ATOM     47  C   UNL A   1      38.964  29.412  28.351  1.00  0.00     0.029 A 
ATOM     48  C   UNL A   1      39.965  29.110  29.369  1.00  0.00     0.049 A 
ATOM     49  H   UNL A   1      40.158  29.983  31.252  1.00  0.00     0.167 HD
ATOM     50  C   UNL A   1      40.501  32.033  35.143  1.00  0.00     0.034 A 
ATOM     51  C   UNL A   1      40.949  28.198  29.251  1.00  0.00     0.034 A 
ATOM     52  C   UNL A   1      41.535  31.029  35.138  1.00  0.00     0.049 A 
ATOM     53  C   UNL A   1      41.898  28.005  30.406  1.00  0.00     0.074 A 
ATOM     54  C   UNL A   1      42.430  30.706  36.143  1.00  0.00     0.029 A 
ATOM     55  N   UNL A   1      41.817  30.184  34.071  1.00  0.00    -0.354 N 
ATOM     56  N   UNL A   1      41.934  28.632  31.561  1.00  0.00    -0.248 NA
ATOM     57  C   UNL A   1      42.931  26.974  30.248  1.00  0.00     0.031 C 
ATOM     58  C   UNL A   1      43.291  29.713  35.663  1.00  0.00     0.029 A 
ATOM     59  C   UNL A   1      42.887  29.359  34.385  1.00  0.00     0.049 A 
ATOM     60  H   UNL A   1      41.330  30.173  33.216  1.00  0.00     0.167 HD
ATOM     61  C   UNL A   1      42.974  28.047  32.277  1.00  0.00     0.074 A 
ATOM     62  C   UNL A   1      43.526  27.007  31.431  1.00  0.00     0.031 C 
ATOM     63  C   UNL A   1      43.432  28.337  33.522  1.00  0.00     0.034 A 
BRANCH  50  64
ATOM     64  C   UNL A   1      40.353  32.934  36.346  1.00  0.00     0.023 A 
ATOM     65  C   UNL A   1      39.609  32.543  37.474  1.00  0.00     0.031 A 
ATOM     66  C   UNL A   1      40.931  34.217  36.355  1.00  0.00     0.131 A 
ATOM     67  C   UNL A   1      39.391  33.450  38.522  1.00  0.00     0.055 A 
ATOM     68  C   UNL A   1      40.783  35.083  37.441  1.00  0.00     0.041 A 
ATOM     69  F   UNL A   1      41.634  34.657  35.300  1.00  0.00    -0.206 F 
ATOM     70  C   UNL A   1      39.996  34.708  38.526  1.00  0.00     0.022 A 
BRANCH  67  71
ATOM     71  S   UNL A   1      38.182  33.017  39.803  1.00  0.00     0.124 S 
ATOM     72  O   UNL A   1      37.065  32.526  38.998  1.00  0.00    -0.237 OA
ATOM     73  O   UNL A   1      38.895  32.014  40.584  1.00  0.00    -0.237 OA
ATOM     74  O   UNL A   1      37.938  34.286  40.486  1.00  0.00    -0.744 OA
ENDBRANCH  67  71
ENDBRANCH  50  64
BRANCH  51  75
ATOM     75  C   UNL A   1      41.089  27.393  28.004  1.00  0.00     0.023 A 
ATOM     76  C   UNL A   1      40.747  26.032  27.983  1.00  0.00     0.031 A 
ATOM     77  C   UNL A   1      41.601  27.962  26.825  1.00  0.00     0.131 A 
ATOM     78  C   UNL A   1      40.965  25.272  26.823  1.00  0.00     0.055 A 
ATOM     79  C   UNL A   1      41.766  27.216  25.657  1.00  0.00     0.041 A 
ATOM     80  F   UNL A   1      41.936  29.262  26.788  1.00  0.00    -0.206 F 
ATOM     81  C   UNL A   1      41.460  25.858  25.656  1.00  0.00     0.022 A 
BRANCH  78  82
ATOM     82  S   UNL A   1      40.666  23.485  26.887  1.00  0.00     0.124 S 
ATOM     83  O   UNL A   1      40.942  23.187  28.288  1.00  0.00    -0.237 OA
ATOM     84  O   UNL A   1      39.269  23.396  26.475  1.00  0.00    -0.237 OA
ATOM     85  O   UNL A   1      41.631  22.944  25.932  1.00  0.00    -0.744 OA
ENDBRANCH  78  82
ENDBRANCH  51  75
BRANCH  63  86
ATOM     86  C   UNL A   1      44.556  27.482  34.053  1.00  0.00     0.023 A 
ATOM     87  C   UNL A   1      44.310  26.300  34.772  1.00  0.00     0.031 A 
ATOM     88  C   UNL A   1      45.893  27.867  33.849  1.00  0.00     0.131 A 
ATOM     89  C   UNL A   1      45.382  25.577  35.316  1.00  0.00     0.055 A 
ATOM     90  C   UNL A   1      46.958  27.110  34.337  1.00  0.00     0.041 A 
ATOM     91  F   UNL A   1      46.186  28.988  33.171  1.00  0.00    -0.206 F 
ATOM     92  C   UNL A   1      46.705  25.965  35.088  1.00  0.00     0.022 A 
BRANCH  89  93
ATOM     93  S   UNL A   1      45.022  24.179  36.412  1.00  0.00     0.124 S 
ATOM     94  O   UNL A   1      44.382  24.838  37.546  1.00  0.00    -0.237 OA
ATOM     95  O   UNL A   1      44.151  23.349  35.584  1.00  0.00    -0.237 OA
ATOM     96  O   UNL A   1      46.339  23.609  36.688  1.00  0.00    -0.744 OA
ENDBRANCH  89  93
ENDBRANCH  63  86
ENDBRANCH  37  38
ENDBRANCH  29  32
ENDBRANCH  27  28
ENDBRANCH   1  27
TORSDOF 15
ENDMDL
