MODEL 1
REMARK VINA RESULT:     -13.6      0.000      0.000
REMARK SMILES Cc1oc2cc3c(cc2c1C)[C@H](C)[C@@H](CC(=O)N[C@H](CC1=c2ccccc2=NC1)C(=O)NCCCNC(=O)c1ccc(-c2c4nc(c(-c5cc(S(=O)(=O)[O-])ccc5F)c5ccc([nH]5)c(-c5cc(S(=O)(=O)[O-])ccc5F)c5nc(c(-c6cc(S(=O)(=O)[O-])ccc6F)c6ccc2[nH]6)C=C5)C=C4)cc1)C(=O)O3
REMARK SMILES IDX 34 1 33 2 32 3 30 4 31 5 19 7 18 8 16 9 17 10 15 12 14 13
REMARK SMILES IDX 1 14 2 15 3 16 10 17 4 18 9 19 11 20 5 21 8 22 6 23 7 24
REMARK SMILES IDX 104 25 12 26 102 27 13 28 103 29 20 30 21 31 22 32 29 33
REMARK SMILES IDX 23 34 27 35 28 36 24 37 26 38 25 39 35 40 36 41 37 42 38 44
REMARK SMILES IDX 39 45 40 46 101 47 41 48 100 49 42 50 43 51 44 52 94 53
REMARK SMILES IDX 45 54 99 55 93 56 95 57 46 58 98 59 92 60 91 61 47 63 79 64
REMARK SMILES IDX 59 65 78 66 60 67 63 68 77 69 96 70 61 71 62 72 76 74 97 75
REMARK SMILES IDX 64 76 48 77 49 78 57 79 50 80 56 81 58 82 55 83 51 84 52 85
REMARK SMILES IDX 53 86 54 87 80 88 81 89 89 90 82 91 88 92 90 93 87 94 83 95
REMARK SMILES IDX 84 96 85 97 86 98 65 99 66 100 74 101 67 102 73 103 75 104
REMARK SMILES IDX 72 105 68 106 69 107 70 108 71 109
REMARK H PARENT 32 6 18 11 36 43 95 62 63 73
REMARK Flexibility Score: inf
ROOT
ATOM      1  C   UNL A   1      45.310  27.494  35.371  1.00  0.00     0.042 C 
ENDROOT
BRANCH   1   2
ATOM      2  C   UNL A   1      43.579  27.399  33.981  1.00  0.00     0.117 C 
BRANCH   2   3
ATOM      3  N   UNL A   1      41.846  27.270  34.720  1.00  0.00    -0.354 N 
ATOM      4  C   UNL A   1      41.303  28.171  35.805  1.00  0.00     0.242 C 
ATOM      5  O   UNL A   1      41.393  27.748  36.962  1.00  0.00    -0.273 OA
ATOM      6  H   UNL A   1      41.253  26.564  34.375  1.00  0.00     0.163 HD
BRANCH   4   7
ATOM      7  C   UNL A   1      40.963  29.846  35.618  1.00  0.00     0.175 C 
BRANCH   7   8
ATOM      8  N   UNL A   1      39.517  29.782  35.960  1.00  0.00    -0.344 N 
ATOM      9  C   UNL A   1      38.666  30.840  36.177  1.00  0.00     0.221 C 
ATOM     10  O   UNL A   1      37.850  30.745  37.102  1.00  0.00    -0.275 OA
ATOM     11  H   UNL A   1      39.125  28.883  36.038  1.00  0.00     0.164 HD
BRANCH   9  12
ATOM     12  C   UNL A   1      38.651  32.110  35.318  1.00  0.00     0.116 C 
BRANCH  12  13
ATOM     13  C   UNL A   1      37.297  32.495  34.684  1.00  0.00     0.116 C 
ATOM     14  C   UNL A   1      32.700  36.516  28.782  1.00  0.00     0.088 C 
ATOM     15  C   UNL A   1      33.507  35.627  29.639  1.00  0.00     0.105 A 
ATOM     16  O   UNL A   1      33.398  35.866  30.967  1.00  0.00    -0.461 OA
ATOM     17  C   UNL A   1      34.385  34.580  29.405  1.00  0.00    -0.002 A 
ATOM     18  C   UNL A   1      34.214  34.990  31.593  1.00  0.00     0.138 A 
ATOM     19  C   UNL A   1      34.837  34.140  30.689  1.00  0.00     0.024 A 
ATOM     20  C   UNL A   1      34.817  34.033  28.101  1.00  0.00     0.049 C 
ATOM     21  C   UNL A   1      34.442  34.987  32.945  1.00  0.00     0.095 A 
ATOM     22  C   UNL A   1      35.732  33.149  31.174  1.00  0.00     0.020 A 
ATOM     23  C   UNL A   1      35.427  34.092  33.349  1.00  0.00     0.138 A 
ATOM     24  C   UNL A   1      36.033  33.114  32.544  1.00  0.00    -0.001 A 
ATOM     25  O   UNL A   1      35.888  34.376  34.613  1.00  0.00    -0.426 OA
ATOM     26  C   UNL A   1      37.086  32.171  33.167  1.00  0.00     0.035 C 
ATOM     27  C   UNL A   1      37.198  33.997  34.669  1.00  0.00     0.315 C 
ATOM     28  C   UNL A   1      36.698  30.707  32.940  1.00  0.00     0.014 C 
ATOM     29  O   UNL A   1      38.130  34.787  34.628  1.00  0.00    -0.251 OA
ENDBRANCH  12  13
ENDBRANCH   9  12
ENDBRANCH   7   8
BRANCH   7  30
ATOM     30  C   UNL A   1      41.472  30.716  34.087  1.00  0.00     0.068 C 
BRANCH  30  31
ATOM     31  C   UNL A   1      43.010  31.669  34.035  1.00  0.00    -0.037 C 
ATOM     32  C   UNL A   1      43.605  32.158  32.885  1.00  0.00     0.001 A 
ATOM     33  C   UNL A   1      42.469  32.862  34.607  1.00  0.00     0.174 C 
ATOM     34  C   UNL A   1      44.465  33.619  32.192  1.00  0.00     0.010 A 
ATOM     35  C   UNL A   1      42.051  32.129  32.261  1.00  0.00     0.065 A 
ATOM     36  N   UNL A   1      41.583  32.907  33.439  1.00  0.00    -0.280 NA
ATOM     37  C   UNL A   1      44.168  34.263  30.764  1.00  0.00     0.001 A 
ATOM     38  C   UNL A   1      41.667  32.624  30.307  1.00  0.00     0.028 A 
ATOM     39  C   UNL A   1      42.700  33.744  29.672  1.00  0.00     0.002 A 
ENDBRANCH  30  31
ENDBRANCH   7  30
ENDBRANCH   4   7
ENDBRANCH   2   3
ENDBRANCH   1   2
BRANCH   1  40
ATOM     40  C   UNL A   1      46.933  26.696  35.321  1.00  0.00     0.118 C 
BRANCH  40  41
ATOM     41  N   UNL A   1      47.050  25.248  35.540  1.00  0.00    -0.352 N 
ATOM     42  C   UNL A   1      46.919  24.233  34.625  1.00  0.00     0.251 C 
ATOM     43  H   UNL A   1      47.247  24.971  36.463  1.00  0.00     0.163 HD
ATOM     44  O   UNL A   1      46.911  23.056  34.952  1.00  0.00    -0.269 OA
BRANCH  42  45
ATOM     45  C   UNL A   1      46.819  24.663  33.231  1.00  0.00     0.039 A 
ATOM     46  C   UNL A   1      47.884  25.425  32.743  1.00  0.00     0.014 A 
ATOM     47  C   UNL A   1      45.580  24.608  32.594  1.00  0.00     0.014 A 
ATOM     48  C   UNL A   1      47.645  26.296  31.705  1.00  0.00     0.010 A 
ATOM     49  C   UNL A   1      45.363  25.444  31.509  1.00  0.00     0.010 A 
ATOM     50  C   UNL A   1      46.380  26.322  31.109  1.00  0.00    -0.014 A 
BRANCH  50  51
ATOM     51  C   UNL A   1      46.292  27.173  29.926  1.00  0.00     0.031 A 
ATOM     52  C   UNL A   1      46.188  26.340  28.698  1.00  0.00     0.074 A 
ATOM     53  C   UNL A   1      45.827  28.435  29.949  1.00  0.00     0.049 A 
ATOM     54  N   UNL A   1      45.061  25.801  28.340  1.00  0.00    -0.248 NA
ATOM     55  C   UNL A   1      47.364  25.754  28.059  1.00  0.00     0.031 C 
ATOM     56  C   UNL A   1      44.723  28.901  30.794  1.00  0.00     0.029 A 
ATOM     57  N   UNL A   1      46.052  29.467  29.072  1.00  0.00    -0.354 N 
ATOM     58  C   UNL A   1      45.366  24.771  27.474  1.00  0.00     0.074 A 
ATOM     59  C   UNL A   1      46.805  24.781  27.324  1.00  0.00     0.031 C 
ATOM     60  C   UNL A   1      44.230  30.039  30.262  1.00  0.00     0.029 A 
ATOM     61  C   UNL A   1      45.063  30.446  29.132  1.00  0.00     0.049 A 
ATOM     62  H   UNL A   1      46.828  29.511  28.467  1.00  0.00     0.167 HD
ATOM     63  C   UNL A   1      44.418  23.957  26.939  1.00  0.00     0.034 A 
ATOM     64  C   UNL A   1      44.635  31.118  28.025  1.00  0.00     0.034 A 
ATOM     65  C   UNL A   1      43.066  24.263  27.308  1.00  0.00     0.049 A 
ATOM     66  C   UNL A   1      43.798  30.036  27.363  1.00  0.00     0.074 A 
ATOM     67  C   UNL A   1      42.127  23.790  28.196  1.00  0.00     0.029 A 
ATOM     68  N   UNL A   1      42.482  25.373  26.738  1.00  0.00    -0.354 N 
ATOM     69  N   UNL A   1      42.597  29.654  27.724  1.00  0.00    -0.248 NA
ATOM     70  C   UNL A   1      44.485  29.094  26.478  1.00  0.00     0.031 C 
ATOM     71  C   UNL A   1      41.229  24.882  28.423  1.00  0.00     0.029 A 
ATOM     72  C   UNL A   1      41.712  25.978  27.704  1.00  0.00     0.049 A 
ATOM     73  H   UNL A   1      42.593  25.676  25.808  1.00  0.00     0.167 HD
ATOM     74  C   UNL A   1      42.495  28.310  27.337  1.00  0.00     0.074 A 
ATOM     75  C   UNL A   1      43.674  28.049  26.541  1.00  0.00     0.031 C 
ATOM     76  C   UNL A   1      41.578  27.422  27.830  1.00  0.00     0.034 A 
BRANCH  63  77
ATOM     77  C   UNL A   1      44.714  22.987  25.867  1.00  0.00     0.023 A 
ATOM     78  C   UNL A   1      45.046  21.645  26.096  1.00  0.00     0.031 A 
ATOM     79  C   UNL A   1      44.540  23.431  24.544  1.00  0.00     0.131 A 
ATOM     80  C   UNL A   1      45.173  20.782  24.995  1.00  0.00     0.055 A 
ATOM     81  C   UNL A   1      44.660  22.570  23.460  1.00  0.00     0.041 A 
ATOM     82  F   UNL A   1      44.221  24.715  24.301  1.00  0.00    -0.206 F 
ATOM     83  C   UNL A   1      44.971  21.236  23.684  1.00  0.00     0.022 A 
BRANCH  80  84
ATOM     84  S   UNL A   1      45.573  19.023  25.201  1.00  0.00     0.124 S 
ATOM     85  O   UNL A   1      45.812  18.597  23.824  1.00  0.00    -0.237 OA
ATOM     86  O   UNL A   1      46.760  19.082  26.050  1.00  0.00    -0.237 OA
ATOM     87  O   UNL A   1      44.382  18.464  25.832  1.00  0.00    -0.744 OA
ENDBRANCH  80  84
ENDBRANCH  63  77
BRANCH  64  88
ATOM     88  C   UNL A   1      45.749  31.879  27.353  1.00  0.00     0.023 A 
ATOM     89  C   UNL A   1      47.105  31.531  27.391  1.00  0.00     0.031 A 
ATOM     90  C   UNL A   1      45.433  33.113  26.738  1.00  0.00     0.131 A 
ATOM     91  C   UNL A   1      48.087  32.473  27.044  1.00  0.00     0.055 A 
ATOM     92  C   UNL A   1      46.411  34.021  26.319  1.00  0.00     0.041 A 
ATOM     93  F   UNL A   1      44.150  33.480  26.572  1.00  0.00    -0.206 F 
ATOM     94  C   UNL A   1      47.752  33.719  26.512  1.00  0.00     0.022 A 
BRANCH  91  95
ATOM     95  S   UNL A   1      49.836  32.150  27.408  1.00  0.00     0.124 S 
ATOM     96  O   UNL A   1      50.420  33.486  27.335  1.00  0.00    -0.237 OA
ATOM     97  O   UNL A   1      49.747  31.567  28.744  1.00  0.00    -0.237 OA
ATOM     98  O   UNL A   1      50.234  31.229  26.349  1.00  0.00    -0.744 OA
ENDBRANCH  91  95
ENDBRANCH  64  88
BRANCH  76  99
ATOM     99  C   UNL A   1      40.511  27.976  28.726  1.00  0.00     0.023 A 
ATOM    100  C   UNL A   1      39.339  28.542  28.186  1.00  0.00     0.031 A 
ATOM    101  C   UNL A   1      40.709  28.061  30.112  1.00  0.00     0.131 A 
ATOM    102  C   UNL A   1      38.457  29.249  29.011  1.00  0.00     0.055 A 
ATOM    103  C   UNL A   1      39.793  28.712  30.941  1.00  0.00     0.041 A 
ATOM    104  F   UNL A   1      41.823  27.568  30.677  1.00  0.00    -0.206 F 
ATOM    105  C   UNL A   1      38.671  29.327  30.390  1.00  0.00     0.022 A 
BRANCH 102 106
ATOM    106  S   UNL A   1      37.048  30.150  28.309  1.00  0.00     0.124 S 
ATOM    107  O   UNL A   1      37.184  31.472  28.914  1.00  0.00    -0.237 OA
ATOM    108  O   UNL A   1      37.331  30.085  26.877  1.00  0.00    -0.237 OA
ATOM    109  O   UNL A   1      35.883  29.389  28.754  1.00  0.00    -0.744 OA
ENDBRANCH 102 106
ENDBRANCH  76  99
ENDBRANCH  50  51
ENDBRANCH  42  45
ENDBRANCH  40  41
ENDBRANCH   1  40
TORSDOF 18
ENDMDL
MODEL 2
REMARK VINA RESULT:     -13.6      3.408     11.656
REMARK SMILES Cc1oc2cc3c(cc2c1C)[C@H](C)[C@@H](CC(=O)N[C@H](CC1=c2ccccc2=NC1)C(=O)NCCCNC(=O)c1ccc(-c2c4nc(c(-c5cc(S(=O)(=O)[O-])ccc5F)c5ccc([nH]5)c(-c5cc(S(=O)(=O)[O-])ccc5F)c5nc(c(-c6cc(S(=O)(=O)[O-])ccc6F)c6ccc2[nH]6)C=C5)C=C4)cc1)C(=O)O3
REMARK SMILES IDX 34 1 33 2 32 3 30 4 31 5 19 7 18 8 16 9 17 10 15 12 14 13
REMARK SMILES IDX 1 14 2 15 3 16 10 17 4 18 9 19 11 20 5 21 8 22 6 23 7 24
REMARK SMILES IDX 104 25 12 26 102 27 13 28 103 29 20 30 21 31 22 32 29 33
REMARK SMILES IDX 23 34 27 35 28 36 24 37 26 38 25 39 35 40 36 41 37 42 38 44
REMARK SMILES IDX 39 45 40 46 101 47 41 48 100 49 42 50 43 51 44 52 94 53
REMARK SMILES IDX 45 54 99 55 93 56 95 57 46 58 98 59 92 60 91 61 47 63 79 64
REMARK SMILES IDX 59 65 78 66 60 67 63 68 77 69 96 70 61 71 62 72 76 74 97 75
REMARK SMILES IDX 64 76 48 77 49 78 57 79 50 80 56 81 58 82 55 83 51 84 52 85
REMARK SMILES IDX 53 86 54 87 80 88 81 89 89 90 82 91 88 92 90 93 87 94 83 95
REMARK SMILES IDX 84 96 85 97 86 98 65 99 66 100 74 101 67 102 73 103 75 104
REMARK SMILES IDX 72 105 68 106 69 107 70 108 71 109
REMARK H PARENT 32 6 18 11 36 43 95 62 63 73
REMARK Flexibility Score: inf
ROOT
ATOM      1  C   UNL A   1      45.430  33.382  26.547  1.00  0.00     0.042 C 
ENDROOT
BRANCH   1   2
ATOM      2  C   UNL A   1      46.242  32.698  28.499  1.00  0.00     0.117 C 
BRANCH   2   3
ATOM      3  N   UNL A   1      48.091  32.338  28.621  1.00  0.00    -0.354 N 
ATOM      4  C   UNL A   1      48.703  31.255  29.480  1.00  0.00     0.242 C 
ATOM      5  O   UNL A   1      49.106  31.605  30.594  1.00  0.00    -0.273 OA
ATOM      6  H   UNL A   1      48.702  32.895  28.086  1.00  0.00     0.163 HD
BRANCH   4   7
ATOM      7  C   UNL A   1      48.518  29.566  29.219  1.00  0.00     0.175 C 
BRANCH   7   8
ATOM      8  N   UNL A   1      48.261  29.629  27.756  1.00  0.00    -0.344 N 
ATOM      9  C   UNL A   1      48.495  28.643  26.827  1.00  0.00     0.221 C 
ATOM     10  O   UNL A   1      48.965  28.979  25.733  1.00  0.00    -0.275 OA
ATOM     11  H   UNL A   1      47.881  30.470  27.415  1.00  0.00     0.164 HD
BRANCH   9  12
ATOM     12  C   UNL A   1      48.174  27.162  27.060  1.00  0.00     0.116 C 
BRANCH  12  13
ATOM     13  C   UNL A   1      46.825  26.655  26.507  1.00  0.00     0.116 C 
ATOM     14  C   UNL A   1      40.777  20.725  25.875  1.00  0.00     0.088 C 
ATOM     15  C   UNL A   1      41.699  21.834  26.189  1.00  0.00     0.105 A 
ATOM     16  O   UNL A   1      42.401  22.306  25.132  1.00  0.00    -0.461 OA
ATOM     17  C   UNL A   1      42.037  22.523  27.343  1.00  0.00    -0.002 A 
ATOM     18  C   UNL A   1      43.204  23.286  25.599  1.00  0.00     0.138 A 
ATOM     19  C   UNL A   1      43.011  23.497  26.958  1.00  0.00     0.024 A 
ATOM     20  C   UNL A   1      41.538  22.293  28.716  1.00  0.00     0.049 C 
ATOM     21  C   UNL A   1      44.135  23.943  24.836  1.00  0.00     0.095 A 
ATOM     22  C   UNL A   1      43.774  24.498  27.618  1.00  0.00     0.020 A 
ATOM     23  C   UNL A   1      44.947  24.811  25.559  1.00  0.00     0.138 A 
ATOM     24  C   UNL A   1      44.766  25.183  26.901  1.00  0.00    -0.001 A 
ATOM     25  O   UNL A   1      46.080  25.153  24.860  1.00  0.00    -0.426 OA
ATOM     26  C   UNL A   1      45.743  26.195  27.540  1.00  0.00     0.035 C 
ATOM     27  C   UNL A   1      47.075  25.368  25.768  1.00  0.00     0.315 C 
ATOM     28  C   UNL A   1      44.976  27.379  28.136  1.00  0.00     0.014 C 
ATOM     29  O   UNL A   1      47.978  24.572  25.980  1.00  0.00    -0.251 OA
ENDBRANCH  12  13
ENDBRANCH   9  12
ENDBRANCH   7   8
BRANCH   7  30
ATOM     30  C   UNL A   1      47.373  28.599  30.276  1.00  0.00     0.068 C 
BRANCH  30  31
ATOM     31  C   UNL A   1      47.748  28.318  32.025  1.00  0.00    -0.037 C 
ATOM     32  C   UNL A   1      46.881  27.751  32.944  1.00  0.00     0.001 A 
ATOM     33  C   UNL A   1      48.677  27.254  31.812  1.00  0.00     0.174 C 
ATOM     34  C   UNL A   1      46.801  26.575  34.344  1.00  0.00     0.010 A 
ATOM     35  C   UNL A   1      46.204  27.006  31.604  1.00  0.00     0.065 A 
ATOM     36  N   UNL A   1      47.555  26.521  31.214  1.00  0.00    -0.280 NA
ATOM     37  C   UNL A   1      45.682  25.455  34.537  1.00  0.00     0.001 A 
ATOM     38  C   UNL A   1      44.537  25.820  31.761  1.00  0.00     0.028 A 
ATOM     39  C   UNL A   1      44.399  25.025  33.200  1.00  0.00     0.002 A 
ENDBRANCH  30  31
ENDBRANCH   7  30
ENDBRANCH   4   7
ENDBRANCH   2   3
ENDBRANCH   1   2
BRANCH   1  40
ATOM     40  C   UNL A   1      43.905  34.258  26.124  1.00  0.00     0.118 C 
BRANCH  40  41
ATOM     41  N   UNL A   1      43.891  35.726  26.060  1.00  0.00    -0.352 N 
ATOM     42  C   UNL A   1      43.375  36.615  26.971  1.00  0.00     0.251 C 
ATOM     43  H   UNL A   1      44.305  36.123  25.261  1.00  0.00     0.163 HD
ATOM     44  O   UNL A   1      43.307  37.814  26.747  1.00  0.00    -0.269 OA
BRANCH  42  45
ATOM     45  C   UNL A   1      42.938  36.025  28.236  1.00  0.00     0.039 A 
ATOM     46  C   UNL A   1      43.946  35.733  29.159  1.00  0.00     0.014 A 
ATOM     47  C   UNL A   1      41.659  35.478  28.321  1.00  0.00     0.014 A 
ATOM     48  C   UNL A   1      43.725  34.729  30.074  1.00  0.00     0.010 A 
ATOM     49  C   UNL A   1      41.423  34.510  29.286  1.00  0.00     0.010 A 
ATOM     50  C   UNL A   1      42.475  34.103  30.117  1.00  0.00    -0.014 A 
BRANCH  50  51
ATOM     51  C   UNL A   1      42.312  33.165  31.224  1.00  0.00     0.031 A 
ATOM     52  C   UNL A   1      40.928  33.236  31.762  1.00  0.00     0.074 A 
ATOM     53  C   UNL A   1      43.059  32.055  31.375  1.00  0.00     0.049 A 
ATOM     54  N   UNL A   1      39.939  32.639  31.167  1.00  0.00    -0.248 NA
ATOM     55  C   UNL A   1      40.521  34.266  32.716  1.00  0.00     0.031 C 
ATOM     56  C   UNL A   1      43.532  31.214  30.272  1.00  0.00     0.029 A 
ATOM     57  N   UNL A   1      43.321  31.325  32.507  1.00  0.00    -0.354 N 
ATOM     58  C   UNL A   1      38.780  33.238  31.615  1.00  0.00     0.074 A 
ATOM     59  C   UNL A   1      39.188  34.238  32.577  1.00  0.00     0.031 C 
ATOM     60  C   UNL A   1      43.837  29.995  30.766  1.00  0.00     0.029 A 
ATOM     61  C   UNL A   1      43.710  30.017  32.222  1.00  0.00     0.049 A 
ATOM     62  H   UNL A   1      43.243  31.685  33.420  1.00  0.00     0.167 HD
ATOM     63  C   UNL A   1      37.549  32.887  31.158  1.00  0.00     0.034 A 
ATOM     64  C   UNL A   1      43.352  28.963  33.009  1.00  0.00     0.034 A 
ATOM     65  C   UNL A   1      37.530  31.821  30.199  1.00  0.00     0.049 A 
ATOM     66  C   UNL A   1      41.891  28.821  32.617  1.00  0.00     0.074 A 
ATOM     67  C   UNL A   1      37.424  31.690  28.833  1.00  0.00     0.029 A 
ATOM     68  N   UNL A   1      37.760  30.543  30.657  1.00  0.00    -0.354 N 
ATOM     69  N   UNL A   1      41.433  28.286  31.510  1.00  0.00    -0.248 NA
ATOM     70  C   UNL A   1      40.913  29.639  33.335  1.00  0.00     0.031 C 
ATOM     71  C   UNL A   1      38.029  30.430  28.521  1.00  0.00     0.029 A 
ATOM     72  C   UNL A   1      38.522  29.895  29.713  1.00  0.00     0.049 A 
ATOM     73  H   UNL A   1      37.436  30.162  31.505  1.00  0.00     0.167 HD
ATOM     74  C   UNL A   1      40.210  28.923  31.260  1.00  0.00     0.074 A 
ATOM     75  C   UNL A   1      39.936  29.709  32.443  1.00  0.00     0.031 C 
ATOM     76  C   UNL A   1      39.574  28.946  30.049  1.00  0.00     0.034 A 
BRANCH  63  77
ATOM     77  C   UNL A   1      36.301  33.382  31.771  1.00  0.00     0.023 A 
ATOM     78  C   UNL A   1      35.405  34.249  31.131  1.00  0.00     0.031 A 
ATOM     79  C   UNL A   1      35.959  32.854  33.029  1.00  0.00     0.131 A 
ATOM     80  C   UNL A   1      34.184  34.544  31.760  1.00  0.00     0.055 A 
ATOM     81  C   UNL A   1      34.746  33.143  33.641  1.00  0.00     0.041 A 
ATOM     82  F   UNL A   1      36.804  32.019  33.661  1.00  0.00    -0.206 F 
ATOM     83  C   UNL A   1      33.848  33.988  33.003  1.00  0.00     0.022 A 
BRANCH  80  84
ATOM     84  S   UNL A   1      32.953  35.635  30.990  1.00  0.00     0.124 S 
ATOM     85  O   UNL A   1      33.684  36.895  30.881  1.00  0.00    -0.237 OA
ATOM     86  O   UNL A   1      32.694  34.952  29.726  1.00  0.00    -0.237 OA
ATOM     87  O   UNL A   1      31.844  35.635  31.938  1.00  0.00    -0.744 OA
ENDBRANCH  80  84
ENDBRANCH  63  77
BRANCH  64  88
ATOM     88  C   UNL A   1      43.855  29.109  34.423  1.00  0.00     0.023 A 
ATOM     89  C   UNL A   1      44.785  30.062  34.857  1.00  0.00     0.031 A 
ATOM     90  C   UNL A   1      43.462  28.136  35.371  1.00  0.00     0.131 A 
ATOM     91  C   UNL A   1      45.446  29.897  36.085  1.00  0.00     0.055 A 
ATOM     92  C   UNL A   1      44.065  28.019  36.627  1.00  0.00     0.041 A 
ATOM     93  F   UNL A   1      42.503  27.243  35.070  1.00  0.00    -0.206 F 
ATOM     94  C   UNL A   1      45.097  28.879  36.974  1.00  0.00     0.022 A 
BRANCH  91  95
ATOM     95  S   UNL A   1      46.881  30.930  36.500  1.00  0.00     0.124 S 
ATOM     96  O   UNL A   1      47.082  30.627  37.913  1.00  0.00    -0.237 OA
ATOM     97  O   UNL A   1      47.889  30.397  35.587  1.00  0.00    -0.237 OA
ATOM     98  O   UNL A   1      46.418  32.281  36.203  1.00  0.00    -0.744 OA
ENDBRANCH  91  95
ENDBRANCH  64  88
BRANCH  76  99
ATOM     99  C   UNL A   1      40.155  28.092  28.962  1.00  0.00     0.023 A 
ATOM    100  C   UNL A   1      41.022  28.645  27.997  1.00  0.00     0.031 A 
ATOM    101  C   UNL A   1      39.751  26.759  28.801  1.00  0.00     0.131 A 
ATOM    102  C   UNL A   1      41.381  27.899  26.869  1.00  0.00     0.055 A 
ATOM    103  C   UNL A   1      40.164  25.998  27.706  1.00  0.00     0.041 A 
ATOM    104  F   UNL A   1      38.899  26.191  29.672  1.00  0.00    -0.206 F 
ATOM    105  C   UNL A   1      40.967  26.572  26.723  1.00  0.00     0.022 A 
BRANCH 102 106
ATOM    106  S   UNL A   1      42.334  28.653  25.522  1.00  0.00     0.124 S 
ATOM    107  O   UNL A   1      41.381  29.602  24.952  1.00  0.00    -0.237 OA
ATOM    108  O   UNL A   1      43.455  29.250  26.244  1.00  0.00    -0.237 OA
ATOM    109  O   UNL A   1      42.673  27.528  24.654  1.00  0.00    -0.744 OA
ENDBRANCH 102 106
ENDBRANCH  76  99
ENDBRANCH  50  51
ENDBRANCH  42  45
ENDBRANCH  40  41
ENDBRANCH   1  40
TORSDOF 18
ENDMDL
MODEL 3
REMARK VINA RESULT:     -12.9      3.739     11.339
REMARK SMILES Cc1oc2cc3c(cc2c1C)[C@H](C)[C@@H](CC(=O)N[C@H](CC1=c2ccccc2=NC1)C(=O)NCCCNC(=O)c1ccc(-c2c4nc(c(-c5cc(S(=O)(=O)[O-])ccc5F)c5ccc([nH]5)c(-c5cc(S(=O)(=O)[O-])ccc5F)c5nc(c(-c6cc(S(=O)(=O)[O-])ccc6F)c6ccc2[nH]6)C=C5)C=C4)cc1)C(=O)O3
REMARK SMILES IDX 34 1 33 2 32 3 30 4 31 5 19 7 18 8 16 9 17 10 15 12 14 13
REMARK SMILES IDX 1 14 2 15 3 16 10 17 4 18 9 19 11 20 5 21 8 22 6 23 7 24
REMARK SMILES IDX 104 25 12 26 102 27 13 28 103 29 20 30 21 31 22 32 29 33
REMARK SMILES IDX 23 34 27 35 28 36 24 37 26 38 25 39 35 40 36 41 37 42 38 44
REMARK SMILES IDX 39 45 40 46 101 47 41 48 100 49 42 50 43 51 44 52 94 53
REMARK SMILES IDX 45 54 99 55 93 56 95 57 46 58 98 59 92 60 91 61 47 63 79 64
REMARK SMILES IDX 59 65 78 66 60 67 63 68 77 69 96 70 61 71 62 72 76 74 97 75
REMARK SMILES IDX 64 76 48 77 49 78 57 79 50 80 56 81 58 82 55 83 51 84 52 85
REMARK SMILES IDX 53 86 54 87 80 88 81 89 89 90 82 91 88 92 90 93 87 94 83 95
REMARK SMILES IDX 84 96 85 97 86 98 65 99 66 100 74 101 67 102 73 103 75 104
REMARK SMILES IDX 72 105 68 106 69 107 70 108 71 109
REMARK H PARENT 32 6 18 11 36 43 95 62 63 73
REMARK Flexibility Score: inf
ROOT
ATOM      1  C   UNL A   1      48.282  31.739  28.343  1.00  0.00     0.042 C 
ENDROOT
BRANCH   1   2
ATOM      2  C   UNL A   1      49.997  30.489  29.001  1.00  0.00     0.117 C 
BRANCH   2   3
ATOM      3  N   UNL A   1      50.162  28.750  28.285  1.00  0.00    -0.354 N 
ATOM      4  C   UNL A   1      49.191  27.619  28.538  1.00  0.00     0.242 C 
ATOM      5  O   UNL A   1      49.488  26.839  29.449  1.00  0.00    -0.273 OA
ATOM      6  H   UNL A   1      50.936  28.565  27.706  1.00  0.00     0.163 HD
BRANCH   4   7
ATOM      7  C   UNL A   1      47.570  27.564  27.970  1.00  0.00     0.175 C 
BRANCH   7   8
ATOM      8  N   UNL A   1      46.978  26.891  29.157  1.00  0.00    -0.344 N 
ATOM      9  C   UNL A   1      45.908  27.316  29.907  1.00  0.00     0.221 C 
ATOM     10  O   UNL A   1      45.977  27.191  31.135  1.00  0.00    -0.275 OA
ATOM     11  H   UNL A   1      47.400  26.047  29.436  1.00  0.00     0.164 HD
BRANCH   9  12
ATOM     12  C   UNL A   1      44.625  27.901  29.303  1.00  0.00     0.116 C 
BRANCH  12  13
ATOM     13  C   UNL A   1      43.380  26.990  29.319  1.00  0.00     0.116 C 
ATOM     14  C   UNL A   1      38.164  21.423  25.585  1.00  0.00     0.088 C 
ATOM     15  C   UNL A   1      39.204  22.185  26.303  1.00  0.00     0.105 A 
ATOM     16  O   UNL A   1      38.806  23.396  26.760  1.00  0.00    -0.461 OA
ATOM     17  C   UNL A   1      40.533  21.958  26.623  1.00  0.00    -0.002 A 
ATOM     18  C   UNL A   1      39.877  23.961  27.360  1.00  0.00     0.138 A 
ATOM     19  C   UNL A   1      40.977  23.113  27.340  1.00  0.00     0.024 A 
ATOM     20  C   UNL A   1      41.362  20.785  26.273  1.00  0.00     0.049 C 
ATOM     21  C   UNL A   1      39.888  25.235  27.866  1.00  0.00     0.095 A 
ATOM     22  C   UNL A   1      42.194  23.545  27.931  1.00  0.00     0.020 A 
ATOM     23  C   UNL A   1      41.138  25.656  28.308  1.00  0.00     0.138 A 
ATOM     24  C   UNL A   1      42.280  24.851  28.439  1.00  0.00    -0.001 A 
ATOM     25  O   UNL A   1      41.196  27.023  28.449  1.00  0.00    -0.426 OA
ATOM     26  C   UNL A   1      43.584  25.475  28.985  1.00  0.00     0.035 C 
ATOM     27  C   UNL A   1      42.478  27.410  28.189  1.00  0.00     0.315 C 
ATOM     28  C   UNL A   1      44.094  24.683  30.193  1.00  0.00     0.014 C 
ATOM     29  O   UNL A   1      42.823  27.944  27.144  1.00  0.00    -0.251 OA
ENDBRANCH  12  13
ENDBRANCH   9  12
ENDBRANCH   7   8
BRANCH   7  30
ATOM     30  C   UNL A   1      47.209  26.894  26.302  1.00  0.00     0.068 C 
BRANCH  30  31
ATOM     31  C   UNL A   1      47.672  25.198  25.869  1.00  0.00    -0.037 C 
ATOM     32  C   UNL A   1      46.791  24.137  25.753  1.00  0.00     0.001 A 
ATOM     33  C   UNL A   1      47.977  25.469  24.500  1.00  0.00     0.174 C 
ATOM     34  C   UNL A   1      46.399  22.669  24.733  1.00  0.00     0.010 A 
ATOM     35  C   UNL A   1      45.659  25.324  25.407  1.00  0.00     0.065 A 
ATOM     36  N   UNL A   1      46.571  25.863  24.362  1.00  0.00    -0.280 NA
ATOM     37  C   UNL A   1      44.937  22.257  24.244  1.00  0.00     0.001 A 
ATOM     38  C   UNL A   1      43.681  24.869  25.109  1.00  0.00     0.028 A 
ATOM     39  C   UNL A   1      43.414  23.379  24.454  1.00  0.00     0.002 A 
ENDBRANCH  30  31
ENDBRANCH   7  30
ENDBRANCH   4   7
ENDBRANCH   2   3
ENDBRANCH   1   2
BRANCH   1  40
ATOM     40  C   UNL A   1      46.689  31.297  27.607  1.00  0.00     0.118 C 
BRANCH  40  41
ATOM     41  N   UNL A   1      46.266  31.911  26.342  1.00  0.00    -0.352 N 
ATOM     42  C   UNL A   1      45.069  32.515  26.044  1.00  0.00     0.251 C 
ATOM     43  H   UNL A   1      46.927  31.887  25.613  1.00  0.00     0.163 HD
ATOM     44  O   UNL A   1      44.783  32.877  24.913  1.00  0.00    -0.269 OA
BRANCH  42  45
ATOM     45  C   UNL A   1      44.175  32.716  27.183  1.00  0.00     0.039 A 
ATOM     46  C   UNL A   1      44.197  33.986  27.766  1.00  0.00     0.014 A 
ATOM     47  C   UNL A   1      43.639  31.602  27.828  1.00  0.00     0.014 A 
ATOM     48  C   UNL A   1      43.849  34.104  29.093  1.00  0.00     0.010 A 
ATOM     49  C   UNL A   1      43.233  31.740  29.147  1.00  0.00     0.010 A 
ATOM     50  C   UNL A   1      43.394  32.977  29.786  1.00  0.00    -0.014 A 
BRANCH  50  51
ATOM     51  C   UNL A   1      42.914  33.257  31.136  1.00  0.00     0.031 A 
ATOM     52  C   UNL A   1      41.431  33.379  31.141  1.00  0.00     0.074 A 
ATOM     53  C   UNL A   1      43.586  32.918  32.250  1.00  0.00     0.049 A 
ATOM     54  N   UNL A   1      40.667  32.328  31.134  1.00  0.00    -0.248 NA
ATOM     55  C   UNL A   1      40.756  34.617  30.758  1.00  0.00     0.031 C 
ATOM     56  C   UNL A   1      44.369  31.689  32.409  1.00  0.00     0.029 A 
ATOM     57  N   UNL A   1      43.503  33.442  33.516  1.00  0.00    -0.354 N 
ATOM     58  C   UNL A   1      39.424  32.739  30.697  1.00  0.00     0.074 A 
ATOM     59  C   UNL A   1      39.524  34.166  30.480  1.00  0.00     0.031 C 
ATOM     60  C   UNL A   1      44.519  31.445  33.728  1.00  0.00     0.029 A 
ATOM     61  C   UNL A   1      43.965  32.561  34.492  1.00  0.00     0.049 A 
ATOM     62  H   UNL A   1      43.156  34.342  33.713  1.00  0.00     0.167 HD
ATOM     63  C   UNL A   1      38.386  31.880  30.524  1.00  0.00     0.034 A 
ATOM     64  C   UNL A   1      43.393  32.478  35.727  1.00  0.00     0.034 A 
ATOM     65  C   UNL A   1      38.658  30.512  30.861  1.00  0.00     0.049 A 
ATOM     66  C   UNL A   1      42.116  31.732  35.381  1.00  0.00     0.074 A 
ATOM     67  C   UNL A   1      38.963  29.346  30.196  1.00  0.00     0.029 A 
ATOM     68  N   UNL A   1      38.747  30.187  32.197  1.00  0.00    -0.354 N 
ATOM     69  N   UNL A   1      42.009  30.449  35.130  1.00  0.00    -0.248 NA
ATOM     70  C   UNL A   1      40.965  32.524  34.945  1.00  0.00     0.031 C 
ATOM     71  C   UNL A   1      39.639  28.524  31.154  1.00  0.00     0.029 A 
ATOM     72  C   UNL A   1      39.757  29.265  32.332  1.00  0.00     0.049 A 
ATOM     73  H   UNL A   1      38.187  30.548  32.921  1.00  0.00     0.167 HD
ATOM     74  C   UNL A   1      40.913  30.322  34.264  1.00  0.00     0.074 A 
ATOM     75  C   UNL A   1      40.297  31.631  34.230  1.00  0.00     0.031 C 
ATOM     76  C   UNL A   1      40.666  29.236  33.470  1.00  0.00     0.034 A 
BRANCH  63  77
ATOM     77  C   UNL A   1      37.010  32.337  30.248  1.00  0.00     0.023 A 
ATOM     78  C   UNL A   1      36.230  33.063  31.158  1.00  0.00     0.031 A 
ATOM     79  C   UNL A   1      36.516  32.112  28.951  1.00  0.00     0.131 A 
ATOM     80  C   UNL A   1      34.986  33.561  30.735  1.00  0.00     0.055 A 
ATOM     81  C   UNL A   1      35.289  32.614  28.537  1.00  0.00     0.041 A 
ATOM     82  F   UNL A   1      37.248  31.418  28.062  1.00  0.00    -0.206 F 
ATOM     83  C   UNL A   1      34.520  33.349  29.429  1.00  0.00     0.022 A 
BRANCH  80  84
ATOM     84  S   UNL A   1      33.922  34.535  31.838  1.00  0.00     0.124 S 
ATOM     85  O   UNL A   1      32.861  34.973  30.935  1.00  0.00    -0.237 OA
ATOM     86  O   UNL A   1      33.525  33.539  32.830  1.00  0.00    -0.237 OA
ATOM     87  O   UNL A   1      34.801  35.590  32.330  1.00  0.00    -0.744 OA
ENDBRANCH  80  84
ENDBRANCH  63  77
BRANCH  64  88
ATOM     88  C   UNL A   1      43.453  33.786  36.473  1.00  0.00     0.023 A 
ATOM     89  C   UNL A   1      42.404  34.343  37.217  1.00  0.00     0.031 A 
ATOM     90  C   UNL A   1      44.608  34.588  36.316  1.00  0.00     0.131 A 
ATOM     91  C   UNL A   1      42.432  35.701  37.572  1.00  0.00     0.055 A 
ATOM     92  C   UNL A   1      44.666  35.919  36.741  1.00  0.00     0.041 A 
ATOM     93  F   UNL A   1      45.697  34.096  35.701  1.00  0.00    -0.206 F 
ATOM     94  C   UNL A   1      43.554  36.497  37.336  1.00  0.00     0.022 A 
BRANCH  91  95
ATOM     95  S   UNL A   1      40.945  36.506  38.232  1.00  0.00     0.124 S 
ATOM     96  O   UNL A   1      40.400  35.476  39.112  1.00  0.00    -0.237 OA
ATOM     97  O   UNL A   1      41.523  37.670  38.899  1.00  0.00    -0.237 OA
ATOM     98  O   UNL A   1      40.161  36.794  37.037  1.00  0.00    -0.744 OA
ENDBRANCH  91  95
ENDBRANCH  64  88
BRANCH  76  99
ATOM     99  C   UNL A   1      41.547  28.039  33.665  1.00  0.00     0.023 A 
ATOM    100  C   UNL A   1      41.261  27.089  34.666  1.00  0.00     0.031 A 
ATOM    101  C   UNL A   1      42.743  27.901  32.946  1.00  0.00     0.131 A 
ATOM    102  C   UNL A   1      42.199  26.101  34.984  1.00  0.00     0.055 A 
ATOM    103  C   UNL A   1      43.648  26.874  33.223  1.00  0.00     0.041 A 
ATOM    104  F   UNL A   1      43.082  28.796  32.002  1.00  0.00    -0.206 F 
ATOM    105  C   UNL A   1      43.388  25.980  34.259  1.00  0.00     0.022 A 
BRANCH 102 106
ATOM    106  S   UNL A   1      41.939  24.992  36.395  1.00  0.00     0.124 S 
ATOM    107  O   UNL A   1      42.110  23.671  35.797  1.00  0.00    -0.237 OA
ATOM    108  O   UNL A   1      43.003  25.408  37.307  1.00  0.00    -0.237 OA
ATOM    109  O   UNL A   1      40.580  25.293  36.837  1.00  0.00    -0.744 OA
ENDBRANCH 102 106
ENDBRANCH  76  99
ENDBRANCH  50  51
ENDBRANCH  42  45
ENDBRANCH  40  41
ENDBRANCH   1  40
TORSDOF 18
ENDMDL
