MODEL 1
REMARK VINA RESULT:     -12.5      0.000      0.000
REMARK SMILES CCc1cc(C(=O)c2[nH]c3cc(Cl)ccc3c2CC(=O)NCCCNC(=O)c2ccc(-c3c4nc(c(-c5cc(S(=O)(=O)[O-])ccc5F)c5ccc([nH]5)c(-c5cc(S(=O)(=O)[O-])ccc5F)c5nc(c(-c6cc(S(=O)(=O)[O-])ccc6F)c6ccc3[nH]6)C=C5)C=C4)cc2)ncc1Cl
REMARK SMILES IDX 22 1 21 2 19 3 20 4 18 6 17 7 8 8 9 9 10 10 16 12 11 13
REMARK SMILES IDX 15 14 12 15 14 16 13 17 6 18 7 19 5 20 3 21 4 22 93 23 92 24
REMARK SMILES IDX 94 25 91 26 2 27 1 28 23 29 24 30 25 31 26 32 27 34 28 35
REMARK SMILES IDX 29 36 90 37 30 38 89 39 31 40 32 41 33 42 83 43 34 44 88 45
REMARK SMILES IDX 82 46 84 47 35 48 87 49 81 50 80 51 36 53 68 54 48 55 67 56
REMARK SMILES IDX 49 57 52 58 66 59 85 60 50 61 51 62 65 64 86 65 53 66 37 67
REMARK SMILES IDX 38 68 46 69 39 70 45 71 47 72 44 73 40 74 41 75 42 76 43 77
REMARK SMILES IDX 69 78 70 79 78 80 71 81 77 82 79 83 76 84 72 85 73 86 74 87
REMARK SMILES IDX 75 88 54 89 55 90 63 91 56 92 62 93 64 94 61 95 57 96 58 97
REMARK SMILES IDX 59 98 60 99
REMARK H PARENT 21 5 9 11 25 33 84 52 52 63
REMARK Flexibility Score: inf
ROOT
ATOM      1  C   UNL A   1      37.020  20.778  24.961  1.00  0.00     0.117 C 
ENDROOT
BRANCH   1   2
ATOM      2  N   UNL A   1      37.383  22.094  25.457  1.00  0.00    -0.356 N 
ATOM      3  C   UNL A   1      36.742  23.289  25.308  1.00  0.00     0.224 C 
ATOM      4  O   UNL A   1      37.168  24.269  25.924  1.00  0.00    -0.275 OA
ATOM      5  H   UNL A   1      38.217  22.128  25.979  1.00  0.00     0.163 HD
BRANCH   3   6
ATOM      6  C   UNL A   1      35.482  23.393  24.467  1.00  0.00     0.138 C 
BRANCH   6   7
ATOM      7  C   UNL A   1      34.262  23.821  25.228  1.00  0.00    -0.002 A 
ATOM      8  C   UNL A   1      33.411  23.027  25.990  1.00  0.00     0.093 A 
ATOM      9  N   UNL A   1      32.500  23.860  26.599  1.00  0.00    -0.351 N 
ATOM     10  C   UNL A   1      32.646  25.148  26.146  1.00  0.00     0.048 A 
ATOM     11  H   UNL A   1      31.835  23.572  27.265  1.00  0.00     0.167 HD
ATOM     12  C   UNL A   1      33.746  25.159  25.288  1.00  0.00     0.004 A 
ATOM     13  C   UNL A   1      31.908  26.297  26.451  1.00  0.00     0.047 A 
ATOM     14  C   UNL A   1      34.131  26.386  24.708  1.00  0.00     0.012 A 
ATOM     15  C   UNL A   1      32.307  27.495  25.853  1.00  0.00     0.043 A 
ATOM     16  C   UNL A   1      33.403  27.546  24.996  1.00  0.00     0.021 A 
ATOM     17  Cl  UNL A   1      31.425  28.936  26.182  1.00  0.00    -0.084 Cl
BRANCH   8  18
ATOM     18  C   UNL A   1      33.452  21.601  26.252  1.00  0.00     0.227 C 
ATOM     19  O   UNL A   1      33.714  21.175  27.374  1.00  0.00    -0.285 OA
BRANCH  18  20
ATOM     20  C   UNL A   1      33.098  20.659  25.125  1.00  0.00     0.113 A 
ATOM     21  C   UNL A   1      33.201  18.496  24.025  1.00  0.00    -0.026 A 
ATOM     22  C   UNL A   1      33.496  19.319  25.129  1.00  0.00     0.037 A 
ATOM     23  C   UNL A   1      32.494  19.059  22.957  1.00  0.00     0.062 A 
ATOM     24  C   UNL A   1      32.127  20.395  23.039  1.00  0.00     0.132 A 
ATOM     25  Cl  UNL A   1      32.072  18.164  21.546  1.00  0.00    -0.082 Cl
ATOM     26  N   UNL A   1      32.418  21.203  24.086  1.00  0.00    -0.251 NA
BRANCH  21  27
ATOM     27  C   UNL A   1      33.706  17.073  24.021  1.00  0.00     0.034 C 
ATOM     28  C   UNL A   1      34.961  16.915  24.868  1.00  0.00     0.009 C 
ENDBRANCH  21  27
ENDBRANCH  18  20
ENDBRANCH   8  18
ENDBRANCH   6   7
ENDBRANCH   3   6
ENDBRANCH   1   2
BRANCH   1  29
ATOM     29  C   UNL A   1      38.153  19.755  25.034  1.00  0.00     0.042 C 
BRANCH  29  30
ATOM     30  C   UNL A   1      39.226  20.047  26.080  1.00  0.00     0.118 C 
BRANCH  30  31
ATOM     31  N   UNL A   1      40.323  19.095  26.028  1.00  0.00    -0.352 N 
ATOM     32  C   UNL A   1      41.682  19.296  26.034  1.00  0.00     0.251 C 
ATOM     33  H   UNL A   1      40.048  18.151  25.980  1.00  0.00     0.163 HD
ATOM     34  O   UNL A   1      42.418  18.345  25.781  1.00  0.00    -0.269 OA
BRANCH  32  35
ATOM     35  C   UNL A   1      42.274  20.624  26.328  1.00  0.00     0.039 A 
ATOM     36  C   UNL A   1      42.512  20.966  27.665  1.00  0.00     0.014 A 
ATOM     37  C   UNL A   1      42.513  21.567  25.322  1.00  0.00     0.014 A 
ATOM     38  C   UNL A   1      43.025  22.226  27.991  1.00  0.00     0.010 A 
ATOM     39  C   UNL A   1      43.056  22.814  25.646  1.00  0.00     0.010 A 
ATOM     40  C   UNL A   1      43.313  23.155  26.981  1.00  0.00    -0.014 A 
BRANCH  40  41
ATOM     41  C   UNL A   1      43.852  24.499  27.308  1.00  0.00     0.031 A 
ATOM     42  C   UNL A   1      42.944  25.557  27.871  1.00  0.00     0.074 A 
ATOM     43  C   UNL A   1      45.140  24.791  27.051  1.00  0.00     0.049 A 
ATOM     44  N   UNL A   1      43.177  26.831  28.060  1.00  0.00    -0.248 NA
ATOM     45  C   UNL A   1      41.591  25.126  28.247  1.00  0.00     0.031 C 
ATOM     46  C   UNL A   1      46.126  23.865  26.489  1.00  0.00     0.029 A 
ATOM     47  N   UNL A   1      45.835  25.962  27.212  1.00  0.00    -0.354 N 
ATOM     48  C   UNL A   1      41.985  27.367  28.532  1.00  0.00     0.074 A 
ATOM     49  C   UNL A   1      41.037  26.273  28.616  1.00  0.00     0.031 C 
ATOM     50  C   UNL A   1      47.297  24.508  26.346  1.00  0.00     0.029 A 
ATOM     51  C   UNL A   1      47.137  25.892  26.780  1.00  0.00     0.049 A 
ATOM     52  H   UNL A   1      45.439  26.776  27.600  1.00  0.00     0.167 HD
ATOM     53  C   UNL A   1      41.698  28.654  28.848  1.00  0.00     0.034 A 
ATOM     54  C   UNL A   1      48.087  26.843  26.718  1.00  0.00     0.034 A 
ATOM     55  C   UNL A   1      42.644  29.739  28.792  1.00  0.00     0.049 A 
ATOM     56  C   UNL A   1      47.776  28.240  27.168  1.00  0.00     0.074 A 
ATOM     57  C   UNL A   1      42.446  31.080  29.080  1.00  0.00     0.029 A 
ATOM     58  N   UNL A   1      43.978  29.603  28.439  1.00  0.00    -0.354 N 
ATOM     59  N   UNL A   1      46.629  28.745  27.551  1.00  0.00    -0.248 NA
ATOM     60  C   UNL A   1      48.893  29.195  27.179  1.00  0.00     0.031 C 
ATOM     61  C   UNL A   1      43.660  31.755  28.889  1.00  0.00     0.029 A 
ATOM     62  C   UNL A   1      44.618  30.830  28.510  1.00  0.00     0.049 A 
ATOM     63  H   UNL A   1      44.409  28.758  28.176  1.00  0.00     0.167 HD
ATOM     64  C   UNL A   1      46.881  30.082  27.832  1.00  0.00     0.074 A 
ATOM     65  C   UNL A   1      48.291  30.305  27.588  1.00  0.00     0.031 C 
ATOM     66  C   UNL A   1      46.018  31.039  28.252  1.00  0.00     0.034 A 
BRANCH  53  67
ATOM     67  C   UNL A   1      40.275  28.954  29.222  1.00  0.00     0.023 A 
ATOM     68  C   UNL A   1      39.852  28.977  30.560  1.00  0.00     0.031 A 
ATOM     69  C   UNL A   1      39.320  29.171  28.212  1.00  0.00     0.131 A 
ATOM     70  C   UNL A   1      38.494  29.165  30.856  1.00  0.00     0.055 A 
ATOM     71  C   UNL A   1      37.979  29.402  28.515  1.00  0.00     0.041 A 
ATOM     72  F   UNL A   1      39.675  29.134  26.918  1.00  0.00    -0.206 F 
ATOM     73  C   UNL A   1      37.558  29.391  29.842  1.00  0.00     0.022 A 
BRANCH  70  74
ATOM     74  S   UNL A   1      37.947  29.018  32.580  1.00  0.00     0.124 S 
ATOM     75  O   UNL A   1      38.994  29.749  33.287  1.00  0.00    -0.237 OA
ATOM     76  O   UNL A   1      36.633  29.650  32.552  1.00  0.00    -0.237 OA
ATOM     77  O   UNL A   1      37.937  27.575  32.815  1.00  0.00    -0.744 OA
ENDBRANCH  70  74
ENDBRANCH  53  67
BRANCH  54  78
ATOM     78  C   UNL A   1      49.417  26.517  26.153  1.00  0.00     0.023 A 
ATOM     79  C   UNL A   1      49.789  26.961  24.873  1.00  0.00     0.031 A 
ATOM     80  C   UNL A   1      50.330  25.756  26.899  1.00  0.00     0.131 A 
ATOM     81  C   UNL A   1      51.053  26.630  24.364  1.00  0.00     0.055 A 
ATOM     82  C   UNL A   1      51.587  25.433  26.392  1.00  0.00     0.041 A 
ATOM     83  F   UNL A   1      50.012  25.331  28.131  1.00  0.00    -0.206 F 
ATOM     84  C   UNL A   1      51.953  25.866  25.117  1.00  0.00     0.022 A 
BRANCH  81  85
ATOM     85  S   UNL A   1      51.503  27.205  22.696  1.00  0.00     0.124 S 
ATOM     86  O   UNL A   1      51.550  28.652  22.870  1.00  0.00    -0.237 OA
ATOM     87  O   UNL A   1      52.787  26.545  22.481  1.00  0.00    -0.237 OA
ATOM     88  O   UNL A   1      50.409  26.714  21.860  1.00  0.00    -0.744 OA
ENDBRANCH  81  85
ENDBRANCH  54  78
BRANCH  66  89
ATOM     89  C   UNL A   1      46.591  32.406  28.481  1.00  0.00     0.023 A 
ATOM     90  C   UNL A   1      46.743  33.315  27.422  1.00  0.00     0.031 A 
ATOM     91  C   UNL A   1      47.002  32.791  29.767  1.00  0.00     0.131 A 
ATOM     92  C   UNL A   1      47.311  34.575  27.664  1.00  0.00     0.055 A 
ATOM     93  C   UNL A   1      47.556  34.048  30.006  1.00  0.00     0.041 A 
ATOM     94  F   UNL A   1      46.881  31.946  30.804  1.00  0.00    -0.206 F 
ATOM     95  C   UNL A   1      47.717  34.946  28.950  1.00  0.00     0.022 A 
BRANCH  92  96
ATOM     96  S   UNL A   1      47.552  35.713  26.268  1.00  0.00     0.124 S 
ATOM     97  O   UNL A   1      48.757  36.437  26.662  1.00  0.00    -0.237 OA
ATOM     98  O   UNL A   1      47.700  34.799  25.140  1.00  0.00    -0.237 OA
ATOM     99  O   UNL A   1      46.329  36.512  26.260  1.00  0.00    -0.744 OA
ENDBRANCH  92  96
ENDBRANCH  66  89
ENDBRANCH  40  41
ENDBRANCH  32  35
ENDBRANCH  30  31
ENDBRANCH  29  30
ENDBRANCH   1  29
TORSDOF 17
ENDMDL
MODEL 2
REMARK VINA RESULT:     -12.0      5.280      9.080
REMARK SMILES CCc1cc(C(=O)c2[nH]c3cc(Cl)ccc3c2CC(=O)NCCCNC(=O)c2ccc(-c3c4nc(c(-c5cc(S(=O)(=O)[O-])ccc5F)c5ccc([nH]5)c(-c5cc(S(=O)(=O)[O-])ccc5F)c5nc(c(-c6cc(S(=O)(=O)[O-])ccc6F)c6ccc3[nH]6)C=C5)C=C4)cc2)ncc1Cl
REMARK SMILES IDX 22 1 21 2 19 3 20 4 18 6 17 7 8 8 9 9 10 10 16 12 11 13
REMARK SMILES IDX 15 14 12 15 14 16 13 17 6 18 7 19 5 20 3 21 4 22 93 23 92 24
REMARK SMILES IDX 94 25 91 26 2 27 1 28 23 29 24 30 25 31 26 32 27 34 28 35
REMARK SMILES IDX 29 36 90 37 30 38 89 39 31 40 32 41 33 42 83 43 34 44 88 45
REMARK SMILES IDX 82 46 84 47 35 48 87 49 81 50 80 51 36 53 68 54 48 55 67 56
REMARK SMILES IDX 49 57 52 58 66 59 85 60 50 61 51 62 65 64 86 65 53 66 37 67
REMARK SMILES IDX 38 68 46 69 39 70 45 71 47 72 44 73 40 74 41 75 42 76 43 77
REMARK SMILES IDX 69 78 70 79 78 80 71 81 77 82 79 83 76 84 72 85 73 86 74 87
REMARK SMILES IDX 75 88 54 89 55 90 63 91 56 92 62 93 64 94 61 95 57 96 58 97
REMARK SMILES IDX 59 98 60 99
REMARK H PARENT 21 5 9 11 25 33 84 52 52 63
REMARK Flexibility Score: inf
ROOT
ATOM      1  C   UNL A   1      32.668  27.644  26.230  1.00  0.00     0.117 C 
ENDROOT
BRANCH   1   2
ATOM      2  N   UNL A   1      33.862  26.852  25.994  1.00  0.00    -0.356 N 
ATOM      3  C   UNL A   1      33.991  25.513  25.768  1.00  0.00     0.224 C 
ATOM      4  O   UNL A   1      35.101  25.068  25.467  1.00  0.00    -0.275 OA
ATOM      5  H   UNL A   1      34.707  27.358  25.999  1.00  0.00     0.163 HD
BRANCH   3   6
ATOM      6  C   UNL A   1      32.777  24.601  25.804  1.00  0.00     0.138 C 
BRANCH   6   7
ATOM      7  C   UNL A   1      32.462  23.935  24.497  1.00  0.00    -0.002 A 
ATOM      8  C   UNL A   1      32.136  24.542  23.288  1.00  0.00     0.093 A 
ATOM      9  N   UNL A   1      32.045  23.552  22.337  1.00  0.00    -0.351 N 
ATOM     10  C   UNL A   1      32.164  22.313  22.918  1.00  0.00     0.048 A 
ATOM     11  H   UNL A   1      31.913  23.709  21.375  1.00  0.00     0.167 HD
ATOM     12  C   UNL A   1      32.430  22.518  24.271  1.00  0.00     0.004 A 
ATOM     13  C   UNL A   1      32.080  21.040  22.343  1.00  0.00     0.047 A 
ATOM     14  C   UNL A   1      32.629  21.389  25.094  1.00  0.00     0.012 A 
ATOM     15  C   UNL A   1      32.272  19.941  23.185  1.00  0.00     0.043 A 
ATOM     16  C   UNL A   1      32.545  20.106  24.540  1.00  0.00     0.021 A 
ATOM     17  Cl  UNL A   1      32.166  18.351  22.533  1.00  0.00    -0.084 Cl
BRANCH   8  18
ATOM     18  C   UNL A   1      32.003  25.948  22.958  1.00  0.00     0.227 C 
ATOM     19  O   UNL A   1      32.962  26.589  22.535  1.00  0.00    -0.285 OA
BRANCH  18  20
ATOM     20  C   UNL A   1      30.637  26.583  23.082  1.00  0.00     0.113 A 
ATOM     21  C   UNL A   1      29.127  28.476  22.894  1.00  0.00    -0.026 A 
ATOM     22  C   UNL A   1      30.400  27.905  22.696  1.00  0.00     0.037 A 
ATOM     23  C   UNL A   1      28.131  27.677  23.463  1.00  0.00     0.062 A 
ATOM     24  C   UNL A   1      28.448  26.370  23.807  1.00  0.00     0.132 A 
ATOM     25  Cl  UNL A   1      26.534  28.252  23.761  1.00  0.00    -0.082 Cl
ATOM     26  N   UNL A   1      29.671  25.813  23.639  1.00  0.00    -0.251 NA
BRANCH  21  27
ATOM     27  C   UNL A   1      28.916  29.929  22.537  1.00  0.00     0.034 C 
ATOM     28  C   UNL A   1      29.413  30.859  23.635  1.00  0.00     0.009 C 
ENDBRANCH  21  27
ENDBRANCH  18  20
ENDBRANCH   8  18
ENDBRANCH   6   7
ENDBRANCH   3   6
ENDBRANCH   1   2
BRANCH   1  29
ATOM     29  C   UNL A   1      32.898  28.861  27.123  1.00  0.00     0.042 C 
BRANCH  29  30
ATOM     30  C   UNL A   1      33.843  29.917  26.553  1.00  0.00     0.118 C 
BRANCH  30  31
ATOM     31  N   UNL A   1      33.761  31.178  27.270  1.00  0.00    -0.352 N 
ATOM     32  C   UNL A   1      34.521  31.670  28.302  1.00  0.00     0.251 C 
ATOM     33  H   UNL A   1      33.042  31.780  26.966  1.00  0.00     0.163 HD
ATOM     34  O   UNL A   1      34.138  32.684  28.884  1.00  0.00    -0.269 OA
BRANCH  32  35
ATOM     35  C   UNL A   1      35.776  31.007  28.734  1.00  0.00     0.039 A 
ATOM     36  C   UNL A   1      35.690  29.954  29.655  1.00  0.00     0.014 A 
ATOM     37  C   UNL A   1      37.033  31.461  28.321  1.00  0.00     0.014 A 
ATOM     38  C   UNL A   1      36.851  29.332  30.125  1.00  0.00     0.010 A 
ATOM     39  C   UNL A   1      38.192  30.818  28.768  1.00  0.00     0.010 A 
ATOM     40  C   UNL A   1      38.111  29.752  29.675  1.00  0.00    -0.014 A 
BRANCH  40  41
ATOM     41  C   UNL A   1      39.354  29.108  30.168  1.00  0.00     0.031 A 
ATOM     42  C   UNL A   1      40.056  29.656  31.380  1.00  0.00     0.074 A 
ATOM     43  C   UNL A   1      39.885  28.067  29.501  1.00  0.00     0.049 A 
ATOM     44  N   UNL A   1      41.232  29.348  31.864  1.00  0.00    -0.248 NA
ATOM     45  C   UNL A   1      39.347  30.704  32.128  1.00  0.00     0.031 C 
ATOM     46  C   UNL A   1      39.319  27.447  28.302  1.00  0.00     0.029 A 
ATOM     47  N   UNL A   1      41.038  27.359  29.731  1.00  0.00    -0.354 N 
ATOM     48  C   UNL A   1      41.429  30.198  32.946  1.00  0.00     0.074 A 
ATOM     49  C   UNL A   1      40.241  31.021  33.055  1.00  0.00     0.031 C 
ATOM     50  C   UNL A   1      40.131  26.455  27.898  1.00  0.00     0.029 A 
ATOM     51  C   UNL A   1      41.283  26.389  28.792  1.00  0.00     0.049 A 
ATOM     52  H   UNL A   1      41.633  27.530  30.497  1.00  0.00     0.167 HD
ATOM     53  C   UNL A   1      42.507  30.298  33.762  1.00  0.00     0.034 A 
ATOM     54  C   UNL A   1      42.331  25.555  28.652  1.00  0.00     0.034 A 
ATOM     55  C   UNL A   1      43.678  29.464  33.674  1.00  0.00     0.049 A 
ATOM     56  C   UNL A   1      43.468  25.616  29.628  1.00  0.00     0.074 A 
ATOM     57  C   UNL A   1      44.828  29.497  34.446  1.00  0.00     0.029 A 
ATOM     58  N   UNL A   1      43.843  28.430  32.765  1.00  0.00    -0.354 N 
ATOM     59  N   UNL A   1      43.669  26.465  30.606  1.00  0.00    -0.248 NA
ATOM     60  C   UNL A   1      44.520  24.600  29.480  1.00  0.00     0.031 C 
ATOM     61  C   UNL A   1      45.692  28.489  33.994  1.00  0.00     0.029 A 
ATOM     62  C   UNL A   1      45.066  27.812  32.960  1.00  0.00     0.049 A 
ATOM     63  H   UNL A   1      43.185  28.172  32.079  1.00  0.00     0.167 HD
ATOM     64  C   UNL A   1      44.880  26.098  31.180  1.00  0.00     0.074 A 
ATOM     65  C   UNL A   1      45.360  24.943  30.449  1.00  0.00     0.031 C 
ATOM     66  C   UNL A   1      45.536  26.672  32.218  1.00  0.00     0.034 A 
BRANCH  53  67
ATOM     67  C   UNL A   1      42.480  31.401  34.781  1.00  0.00     0.023 A 
ATOM     68  C   UNL A   1      42.813  32.723  34.446  1.00  0.00     0.031 A 
ATOM     69  C   UNL A   1      42.161  31.107  36.118  1.00  0.00     0.131 A 
ATOM     70  C   UNL A   1      42.868  33.700  35.451  1.00  0.00     0.055 A 
ATOM     71  C   UNL A   1      42.174  32.093  37.104  1.00  0.00     0.041 A 
ATOM     72  F   UNL A   1      41.860  29.852  36.488  1.00  0.00    -0.206 F 
ATOM     73  C   UNL A   1      42.537  33.396  36.775  1.00  0.00     0.022 A 
BRANCH  70  74
ATOM     74  S   UNL A   1      43.468  35.359  35.024  1.00  0.00     0.124 S 
ATOM     75  O   UNL A   1      43.178  36.104  36.246  1.00  0.00    -0.237 OA
ATOM     76  O   UNL A   1      44.879  35.124  34.739  1.00  0.00    -0.237 OA
ATOM     77  O   UNL A   1      42.655  35.731  33.867  1.00  0.00    -0.744 OA
ENDBRANCH  70  74
ENDBRANCH  53  67
BRANCH  54  78
ATOM     78  C   UNL A   1      42.378  24.622  27.503  1.00  0.00     0.023 A 
ATOM     79  C   UNL A   1      41.702  23.392  27.540  1.00  0.00     0.031 A 
ATOM     80  C   UNL A   1      43.105  24.962  26.351  1.00  0.00     0.131 A 
ATOM     81  C   UNL A   1      41.772  22.527  26.437  1.00  0.00     0.055 A 
ATOM     82  C   UNL A   1      43.169  24.103  25.256  1.00  0.00     0.041 A 
ATOM     83  F   UNL A   1      43.749  26.137  26.277  1.00  0.00    -0.206 F 
ATOM     84  C   UNL A   1      42.504  22.878  25.296  1.00  0.00     0.022 A 
BRANCH  81  85
ATOM     85  S   UNL A   1      40.898  20.932  26.518  1.00  0.00     0.124 S 
ATOM     86  O   UNL A   1      39.611  21.253  25.912  1.00  0.00    -0.237 OA
ATOM     87  O   UNL A   1      41.774  20.064  25.738  1.00  0.00    -0.237 OA
ATOM     88  O   UNL A   1      40.855  20.640  27.950  1.00  0.00    -0.744 OA
ENDBRANCH  81  85
ENDBRANCH  54  78
BRANCH  66  89
ATOM     89  C   UNL A   1      46.835  26.040  32.623  1.00  0.00     0.023 A 
ATOM     90  C   UNL A   1      46.874  25.017  33.584  1.00  0.00     0.031 A 
ATOM     91  C   UNL A   1      48.040  26.479  32.051  1.00  0.00     0.131 A 
ATOM     92  C   UNL A   1      48.108  24.468  33.964  1.00  0.00     0.055 A 
ATOM     93  C   UNL A   1      49.263  25.922  32.423  1.00  0.00     0.041 A 
ATOM     94  F   UNL A   1      48.043  27.460  31.135  1.00  0.00    -0.206 F 
ATOM     95  C   UNL A   1      49.302  24.915  33.387  1.00  0.00     0.022 A 
BRANCH  92  96
ATOM     96  S   UNL A   1      48.141  23.188  35.253  1.00  0.00     0.124 S 
ATOM     97  O   UNL A   1      48.803  23.875  36.357  1.00  0.00    -0.237 OA
ATOM     98  O   UNL A   1      46.723  22.898  35.443  1.00  0.00    -0.237 OA
ATOM     99  O   UNL A   1      48.916  22.108  34.645  1.00  0.00    -0.744 OA
ENDBRANCH  92  96
ENDBRANCH  66  89
ENDBRANCH  40  41
ENDBRANCH  32  35
ENDBRANCH  30  31
ENDBRANCH  29  30
ENDBRANCH   1  29
TORSDOF 17
ENDMDL
MODEL 3
REMARK VINA RESULT:     -12.0      1.634      3.923
REMARK SMILES CCc1cc(C(=O)c2[nH]c3cc(Cl)ccc3c2CC(=O)NCCCNC(=O)c2ccc(-c3c4nc(c(-c5cc(S(=O)(=O)[O-])ccc5F)c5ccc([nH]5)c(-c5cc(S(=O)(=O)[O-])ccc5F)c5nc(c(-c6cc(S(=O)(=O)[O-])ccc6F)c6ccc3[nH]6)C=C5)C=C4)cc2)ncc1Cl
REMARK SMILES IDX 22 1 21 2 19 3 20 4 18 6 17 7 8 8 9 9 10 10 16 12 11 13
REMARK SMILES IDX 15 14 12 15 14 16 13 17 6 18 7 19 5 20 3 21 4 22 93 23 92 24
REMARK SMILES IDX 94 25 91 26 2 27 1 28 23 29 24 30 25 31 26 32 27 34 28 35
REMARK SMILES IDX 29 36 90 37 30 38 89 39 31 40 32 41 33 42 83 43 34 44 88 45
REMARK SMILES IDX 82 46 84 47 35 48 87 49 81 50 80 51 36 53 68 54 48 55 67 56
REMARK SMILES IDX 49 57 52 58 66 59 85 60 50 61 51 62 65 64 86 65 53 66 37 67
REMARK SMILES IDX 38 68 46 69 39 70 45 71 47 72 44 73 40 74 41 75 42 76 43 77
REMARK SMILES IDX 69 78 70 79 78 80 71 81 77 82 79 83 76 84 72 85 73 86 74 87
REMARK SMILES IDX 75 88 54 89 55 90 63 91 56 92 62 93 64 94 61 95 57 96 58 97
REMARK SMILES IDX 59 98 60 99
REMARK H PARENT 21 5 9 11 25 33 84 52 52 63
REMARK Flexibility Score: inf
ROOT
ATOM      1  C   UNL A   1      38.278  21.989  25.838  1.00  0.00     0.117 C 
ENDROOT
BRANCH   1   2
ATOM      2  N   UNL A   1      37.528  22.630  24.772  1.00  0.00    -0.356 N 
ATOM      3  C   UNL A   1      36.246  23.096  24.765  1.00  0.00     0.224 C 
ATOM      4  O   UNL A   1      35.849  23.722  23.780  1.00  0.00    -0.275 OA
ATOM      5  H   UNL A   1      38.019  22.744  23.926  1.00  0.00     0.163 HD
BRANCH   3   6
ATOM      6  C   UNL A   1      35.351  22.920  25.980  1.00  0.00     0.138 C 
BRANCH   6   7
ATOM      7  C   UNL A   1      34.149  22.055  25.744  1.00  0.00    -0.002 A 
ATOM      8  C   UNL A   1      32.809  22.393  25.910  1.00  0.00     0.093 A 
ATOM      9  N   UNL A   1      32.055  21.331  25.465  1.00  0.00    -0.351 N 
ATOM     10  C   UNL A   1      32.861  20.267  25.147  1.00  0.00     0.048 A 
ATOM     11  H   UNL A   1      31.074  21.335  25.386  1.00  0.00     0.167 HD
ATOM     12  C   UNL A   1      34.180  20.688  25.306  1.00  0.00     0.004 A 
ATOM     13  C   UNL A   1      32.520  18.981  24.708  1.00  0.00     0.047 A 
ATOM     14  C   UNL A   1      35.216  19.777  25.007  1.00  0.00     0.012 A 
ATOM     15  C   UNL A   1      33.567  18.099  24.430  1.00  0.00     0.043 A 
ATOM     16  C   UNL A   1      34.897  18.486  24.572  1.00  0.00     0.021 A 
ATOM     17  Cl  UNL A   1      33.205  16.501  23.902  1.00  0.00    -0.084 Cl
BRANCH   8  18
ATOM     18  C   UNL A   1      32.211  23.636  26.355  1.00  0.00     0.227 C 
ATOM     19  O   UNL A   1      31.466  23.662  27.332  1.00  0.00    -0.285 OA
BRANCH  18  20
ATOM     20  C   UNL A   1      32.584  24.907  25.628  1.00  0.00     0.113 A 
ATOM     21  C   UNL A   1      33.459  27.172  25.580  1.00  0.00    -0.026 A 
ATOM     22  C   UNL A   1      33.192  25.982  26.284  1.00  0.00     0.037 A 
ATOM     23  C   UNL A   1      33.115  27.226  24.225  1.00  0.00     0.062 A 
ATOM     24  C   UNL A   1      32.525  26.109  23.650  1.00  0.00     0.132 A 
ATOM     25  Cl  UNL A   1      33.386  28.621  23.251  1.00  0.00    -0.082 Cl
ATOM     26  N   UNL A   1      32.246  24.964  24.316  1.00  0.00    -0.251 NA
BRANCH  21  27
ATOM     27  C   UNL A   1      34.048  28.345  26.328  1.00  0.00     0.034 C 
ATOM     28  C   UNL A   1      33.050  28.951  27.305  1.00  0.00     0.009 C 
ENDBRANCH  21  27
ENDBRANCH  18  20
ENDBRANCH   8  18
ENDBRANCH   6   7
ENDBRANCH   3   6
ENDBRANCH   1   2
BRANCH   1  29
ATOM     29  C   UNL A   1      39.245  20.911  25.353  1.00  0.00     0.042 C 
BRANCH  29  30
ATOM     30  C   UNL A   1      39.585  19.833  26.380  1.00  0.00     0.118 C 
BRANCH  30  31
ATOM     31  N   UNL A   1      40.780  19.086  26.023  1.00  0.00    -0.352 N 
ATOM     32  C   UNL A   1      42.076  19.505  25.846  1.00  0.00     0.251 C 
ATOM     33  H   UNL A   1      40.638  18.121  25.885  1.00  0.00     0.163 HD
ATOM     34  O   UNL A   1      42.884  18.722  25.349  1.00  0.00    -0.269 OA
BRANCH  32  35
ATOM     35  C   UNL A   1      42.517  20.868  26.229  1.00  0.00     0.039 A 
ATOM     36  C   UNL A   1      42.850  21.771  25.212  1.00  0.00     0.014 A 
ATOM     37  C   UNL A   1      42.693  21.241  27.566  1.00  0.00     0.014 A 
ATOM     38  C   UNL A   1      43.315  23.051  25.528  1.00  0.00     0.010 A 
ATOM     39  C   UNL A   1      43.128  22.532  27.882  1.00  0.00     0.010 A 
ATOM     40  C   UNL A   1      43.445  23.446  26.867  1.00  0.00    -0.014 A 
BRANCH  40  41
ATOM     41  C   UNL A   1      43.944  24.798  27.222  1.00  0.00     0.031 A 
ATOM     42  C   UNL A   1      43.012  25.806  27.836  1.00  0.00     0.074 A 
ATOM     43  C   UNL A   1      45.216  25.142  26.946  1.00  0.00     0.049 A 
ATOM     44  N   UNL A   1      43.205  27.081  28.058  1.00  0.00    -0.248 NA
ATOM     45  C   UNL A   1      41.684  25.316  28.228  1.00  0.00     0.031 C 
ATOM     46  C   UNL A   1      46.220  24.269  26.337  1.00  0.00     0.029 A 
ATOM     47  N   UNL A   1      45.872  26.333  27.128  1.00  0.00    -0.354 N 
ATOM     48  C   UNL A   1      42.006  27.560  28.572  1.00  0.00     0.074 A 
ATOM     49  C   UNL A   1      41.099  26.431  28.643  1.00  0.00     0.031 C 
ATOM     50  C   UNL A   1      47.364  24.957  26.188  1.00  0.00     0.029 A 
ATOM     51  C   UNL A   1      47.166  26.322  26.666  1.00  0.00     0.049 A 
ATOM     52  H   UNL A   1      45.457  27.120  27.549  1.00  0.00     0.167 HD
ATOM     53  C   UNL A   1      41.681  28.826  28.932  1.00  0.00     0.034 A 
ATOM     54  C   UNL A   1      48.081  27.308  26.613  1.00  0.00     0.034 A 
ATOM     55  C   UNL A   1      42.587  29.945  28.889  1.00  0.00     0.049 A 
ATOM     56  C   UNL A   1      47.731  28.679  27.112  1.00  0.00     0.074 A 
ATOM     57  C   UNL A   1      42.349  31.270  29.221  1.00  0.00     0.029 A 
ATOM     58  N   UNL A   1      43.917  29.868  28.503  1.00  0.00    -0.354 N 
ATOM     59  N   UNL A   1      46.576  29.131  27.534  1.00  0.00    -0.248 NA
ATOM     60  C   UNL A   1      48.814  29.672  27.127  1.00  0.00     0.031 C 
ATOM     61  C   UNL A   1      43.534  31.993  29.025  1.00  0.00     0.029 A 
ATOM     62  C   UNL A   1      44.515  31.114  28.597  1.00  0.00     0.049 A 
ATOM     63  H   UNL A   1      44.371  29.047  28.205  1.00  0.00     0.167 HD
ATOM     64  C   UNL A   1      46.787  30.467  27.850  1.00  0.00     0.074 A 
ATOM     65  C   UNL A   1      48.183  30.747  27.582  1.00  0.00     0.031 C 
ATOM     66  C   UNL A   1      45.901  31.380  28.316  1.00  0.00     0.034 A 
BRANCH  53  67
ATOM     67  C   UNL A   1      40.257  29.064  29.345  1.00  0.00     0.023 A 
ATOM     68  C   UNL A   1      39.856  28.993  30.688  1.00  0.00     0.031 A 
ATOM     69  C   UNL A   1      39.281  29.318  28.365  1.00  0.00     0.131 A 
ATOM     70  C   UNL A   1      38.499  29.126  31.015  1.00  0.00     0.055 A 
ATOM     71  C   UNL A   1      37.939  29.494  28.702  1.00  0.00     0.041 A 
ATOM     72  F   UNL A   1      39.615  29.370  27.066  1.00  0.00    -0.206 F 
ATOM     73  C   UNL A   1      37.540  29.389  30.032  1.00  0.00     0.022 A 
BRANCH  70  74
ATOM     74  S   UNL A   1      37.984  28.858  32.735  1.00  0.00     0.124 S 
ATOM     75  O   UNL A   1      38.066  27.405  32.847  1.00  0.00    -0.237 OA
ATOM     76  O   UNL A   1      38.980  29.614  33.487  1.00  0.00    -0.237 OA
ATOM     77  O   UNL A   1      36.628  29.404  32.777  1.00  0.00    -0.744 OA
ENDBRANCH  70  74
ENDBRANCH  53  67
BRANCH  54  78
ATOM     78  C   UNL A   1      49.408  27.046  26.010  1.00  0.00     0.023 A 
ATOM     79  C   UNL A   1      49.665  27.352  24.663  1.00  0.00     0.031 A 
ATOM     80  C   UNL A   1      50.434  26.486  26.786  1.00  0.00     0.131 A 
ATOM     81  C   UNL A   1      50.931  27.086  24.121  1.00  0.00     0.055 A 
ATOM     82  C   UNL A   1      51.692  26.227  26.245  1.00  0.00     0.041 A 
ATOM     83  F   UNL A   1      50.226  26.197  28.080  1.00  0.00    -0.206 F 
ATOM     84  C   UNL A   1      51.945  26.524  24.906  1.00  0.00     0.022 A 
BRANCH  81  85
ATOM     85  S   UNL A   1      51.232  27.479  22.368  1.00  0.00     0.124 S 
ATOM     86  O   UNL A   1      51.149  28.934  22.359  1.00  0.00    -0.237 OA
ATOM     87  O   UNL A   1      52.560  26.912  22.152  1.00  0.00    -0.237 OA
ATOM     88  O   UNL A   1      50.146  26.789  21.674  1.00  0.00    -0.744 OA
ENDBRANCH  81  85
ENDBRANCH  54  78
BRANCH  66  89
ATOM     89  C   UNL A   1      46.431  32.759  28.574  1.00  0.00     0.023 A 
ATOM     90  C   UNL A   1      46.924  33.120  29.839  1.00  0.00     0.031 A 
ATOM     91  C   UNL A   1      46.427  33.719  27.551  1.00  0.00     0.131 A 
ATOM     92  C   UNL A   1      47.385  34.427  30.058  1.00  0.00     0.055 A 
ATOM     93  C   UNL A   1      46.896  35.014  27.769  1.00  0.00     0.041 A 
ATOM     94  F   UNL A   1      45.956  33.414  26.331  1.00  0.00    -0.206 F 
ATOM     95  C   UNL A   1      47.374  35.375  29.029  1.00  0.00     0.022 A 
BRANCH  92  96
ATOM     96  S   UNL A   1      47.962  34.890  31.718  1.00  0.00     0.124 S 
ATOM     97  O   UNL A   1      47.137  36.055  32.020  1.00  0.00    -0.237 OA
ATOM     98  O   UNL A   1      47.675  33.688  32.495  1.00  0.00    -0.237 OA
ATOM     99  O   UNL A   1      49.382  35.173  31.521  1.00  0.00    -0.744 OA
ENDBRANCH  92  96
ENDBRANCH  66  89
ENDBRANCH  40  41
ENDBRANCH  32  35
ENDBRANCH  30  31
ENDBRANCH  29  30
ENDBRANCH   1  29
TORSDOF 17
ENDMDL
