MODEL 1
REMARK VINA RESULT:     -11.8      0.000      0.000
REMARK SMILES Cc1cc(C(=O)NC2CC2)sc1/C=C/C(=O)NCCCNC(=O)c1ccc(-c2c3nc(c(-c4cc(S(=O)(=O)[O-])ccc4F)c4ccc([nH]4)c(-c4cc(S(=O)(=O)[O-])ccc4F)c4nc(c(-c5cc(S(=O)(=O)[O-])ccc5F)c5ccc2[nH]5)C=C4)C=C3)cc1
REMARK SMILES IDX 19 1 18 2 17 3 15 4 16 5 14 7 13 8 12 9 1 10 2 11 3 12 4 13
REMARK SMILES IDX 11 14 5 15 6 16 7 17 8 19 9 20 10 21 20 22 21 23 22 24 23 26
REMARK SMILES IDX 24 27 25 28 86 29 26 30 85 31 27 32 28 33 29 34 79 35 30 36
REMARK SMILES IDX 84 37 78 38 80 39 31 40 83 41 77 42 76 43 32 45 64 46 44 47
REMARK SMILES IDX 63 48 45 49 48 50 62 51 81 52 46 53 47 54 61 56 82 57 49 58
REMARK SMILES IDX 33 59 34 60 42 61 35 62 41 63 43 64 40 65 36 66 37 67 38 68
REMARK SMILES IDX 39 69 65 70 66 71 74 72 67 73 73 74 75 75 72 76 68 77 69 78
REMARK SMILES IDX 70 79 71 80 50 81 51 82 59 83 52 84 58 85 60 86 57 87 53 88
REMARK SMILES IDX 54 89 55 90 56 91
REMARK H PARENT 17 6 7 18 21 25 80 44 48 55
REMARK Flexibility Score: inf
ROOT
ATOM      1  C   UNL A   1      31.305  32.246  26.573  1.00  0.00     0.042 C 
ENDROOT
BRANCH   1   2
ATOM      2  C   UNL A   1      31.444  30.902  25.864  1.00  0.00     0.118 C 
BRANCH   2   3
ATOM      3  N   UNL A   1      30.626  30.861  24.665  1.00  0.00    -0.352 N 
ATOM      4  C   UNL A   1      30.328  29.823  23.842  1.00  0.00     0.244 C 
ATOM      5  O   UNL A   1      29.543  29.985  22.910  1.00  0.00    -0.270 OA
ATOM      6  H   UNL A   1      30.224  31.721  24.408  1.00  0.00     0.163 HD
BRANCH   4   7
ATOM      7  C   UNL A   1      30.853  28.471  24.119  1.00  0.00     0.072 C 
ATOM      8  C   UNL A   1      30.171  27.334  23.914  1.00  0.00     0.025 C 
BRANCH   8   9
ATOM      9  C   UNL A   1      30.679  26.036  24.220  1.00  0.00     0.031 A 
ATOM     10  C   UNL A   1      31.749  25.349  21.974  1.00  0.00     0.046 C 
ATOM     11  C   UNL A   1      31.282  25.109  23.376  1.00  0.00    -0.032 A 
ATOM     12  C   UNL A   1      31.364  23.824  24.016  1.00  0.00     0.029 A 
ATOM     13  C   UNL A   1      30.893  23.814  25.321  1.00  0.00     0.093 A 
ATOM     14  S   UNL A   1      30.643  25.406  25.814  1.00  0.00    -0.130 S 
BRANCH  13  15
ATOM     15  C   UNL A   1      30.805  22.643  26.171  1.00  0.00     0.261 C 
ATOM     16  O   UNL A   1      30.171  22.698  27.236  1.00  0.00    -0.268 OA
ATOM     17  N   UNL A   1      31.380  21.408  25.959  1.00  0.00    -0.349 N 
ATOM     18  H   UNL A   1      31.082  20.787  26.662  1.00  0.00     0.164 HD
BRANCH  17  19
ATOM     19  C   UNL A   1      32.259  20.720  25.071  1.00  0.00     0.082 C 
ATOM     20  C   UNL A   1      33.707  20.522  25.429  1.00  0.00     0.027 C 
ATOM     21  C   UNL A   1      32.841  19.347  25.059  1.00  0.00     0.027 C 
ENDBRANCH  17  19
ENDBRANCH  13  15
ENDBRANCH   8   9
ENDBRANCH   4   7
ENDBRANCH   2   3
ENDBRANCH   1   2
BRANCH   1  22
ATOM     22  C   UNL A   1      32.595  32.690  27.254  1.00  0.00     0.118 C 
BRANCH  22  23
ATOM     23  N   UNL A   1      32.535  34.089  27.647  1.00  0.00    -0.352 N 
ATOM     24  C   UNL A   1      33.174  34.743  28.669  1.00  0.00     0.251 C 
ATOM     25  H   UNL A   1      31.945  34.652  27.095  1.00  0.00     0.163 HD
ATOM     26  O   UNL A   1      32.773  35.851  29.010  1.00  0.00    -0.269 OA
BRANCH  24  27
ATOM     27  C   UNL A   1      34.327  34.119  29.354  1.00  0.00     0.039 A 
ATOM     28  C   UNL A   1      35.618  34.497  28.979  1.00  0.00     0.014 A 
ATOM     29  C   UNL A   1      34.141  33.129  30.324  1.00  0.00     0.014 A 
ATOM     30  C   UNL A   1      36.722  33.915  29.608  1.00  0.00     0.010 A 
ATOM     31  C   UNL A   1      35.238  32.607  31.003  1.00  0.00     0.010 A 
ATOM     32  C   UNL A   1      36.539  32.985  30.644  1.00  0.00    -0.014 A 
BRANCH  32  33
ATOM     33  C   UNL A   1      37.700  32.382  31.347  1.00  0.00     0.031 A 
ATOM     34  C   UNL A   1      38.444  31.233  30.723  1.00  0.00     0.074 A 
ATOM     35  C   UNL A   1      38.044  32.834  32.568  1.00  0.00     0.049 A 
ATOM     36  N   UNL A   1      39.430  30.522  31.208  1.00  0.00    -0.248 NA
ATOM     37  C   UNL A   1      37.998  30.807  29.388  1.00  0.00     0.031 C 
ATOM     38  C   UNL A   1      37.370  33.916  33.289  1.00  0.00     0.029 A 
ATOM     39  N   UNL A   1      39.038  32.435  33.425  1.00  0.00    -0.354 N 
ATOM     40  C   UNL A   1      39.713  29.559  30.246  1.00  0.00     0.074 A 
ATOM     41  C   UNL A   1      38.751  29.738  29.179  1.00  0.00     0.031 C 
ATOM     42  C   UNL A   1      37.984  34.111  34.466  1.00  0.00     0.029 A 
ATOM     43  C   UNL A   1      39.063  33.139  34.608  1.00  0.00     0.049 A 
ATOM     44  H   UNL A   1      39.674  31.714  33.215  1.00  0.00     0.167 HD
ATOM     45  C   UNL A   1      40.699  28.627  30.242  1.00  0.00     0.034 A 
ATOM     46  C   UNL A   1      39.858  33.007  35.688  1.00  0.00     0.034 A 
ATOM     47  C   UNL A   1      41.655  28.472  31.313  1.00  0.00     0.049 A 
ATOM     48  C   UNL A   1      40.936  31.955  35.670  1.00  0.00     0.074 A 
ATOM     49  C   UNL A   1      42.723  27.595  31.397  1.00  0.00     0.029 A 
ATOM     50  N   UNL A   1      41.654  29.207  32.493  1.00  0.00    -0.354 N 
ATOM     51  N   UNL A   1      41.220  31.079  34.732  1.00  0.00    -0.248 NA
ATOM     52  C   UNL A   1      41.809  31.881  36.848  1.00  0.00     0.031 C 
ATOM     53  C   UNL A   1      43.326  27.756  32.649  1.00  0.00     0.029 A 
ATOM     54  C   UNL A   1      42.685  28.785  33.319  1.00  0.00     0.049 A 
ATOM     55  H   UNL A   1      41.016  29.924  32.709  1.00  0.00     0.167 HD
ATOM     56  C   UNL A   1      42.324  30.370  35.198  1.00  0.00     0.074 A 
ATOM     57  C   UNL A   1      42.662  30.934  36.490  1.00  0.00     0.031 C 
ATOM     58  C   UNL A   1      43.000  29.349  34.611  1.00  0.00     0.034 A 
BRANCH  45  59
ATOM     59  C   UNL A   1      40.770  27.695  29.055  1.00  0.00     0.023 A 
ATOM     60  C   UNL A   1      41.717  27.875  28.030  1.00  0.00     0.031 A 
ATOM     61  C   UNL A   1      39.860  26.631  28.927  1.00  0.00     0.131 A 
ATOM     62  C   UNL A   1      41.679  27.061  26.889  1.00  0.00     0.055 A 
ATOM     63  C   UNL A   1      39.884  25.768  27.827  1.00  0.00     0.041 A 
ATOM     64  F   UNL A   1      38.920  26.419  29.861  1.00  0.00    -0.206 F 
ATOM     65  C   UNL A   1      40.786  25.991  26.792  1.00  0.00     0.022 A 
BRANCH  62  66
ATOM     66  S   UNL A   1      42.711  27.514  25.468  1.00  0.00     0.124 S 
ATOM     67  O   UNL A   1      42.692  26.281  24.684  1.00  0.00    -0.237 OA
ATOM     68  O   UNL A   1      41.986  28.644  24.899  1.00  0.00    -0.237 OA
ATOM     69  O   UNL A   1      44.003  27.839  26.071  1.00  0.00    -0.744 OA
ENDBRANCH  62  66
ENDBRANCH  45  59
BRANCH  46  70
ATOM     70  C   UNL A   1      39.664  33.884  36.877  1.00  0.00     0.023 A 
ATOM     71  C   UNL A   1      39.074  33.391  38.051  1.00  0.00     0.031 A 
ATOM     72  C   UNL A   1      40.040  35.240  36.847  1.00  0.00     0.131 A 
ATOM     73  C   UNL A   1      38.835  34.256  39.130  1.00  0.00     0.055 A 
ATOM     74  C   UNL A   1      39.848  36.083  37.941  1.00  0.00     0.041 A 
ATOM     75  F   UNL A   1      40.616  35.760  35.751  1.00  0.00    -0.206 F 
ATOM     76  C   UNL A   1      39.229  35.595  39.088  1.00  0.00     0.022 A 
BRANCH  73  77
ATOM     77  S   UNL A   1      37.925  33.622  40.566  1.00  0.00     0.124 S 
ATOM     78  O   UNL A   1      37.741  34.832  41.358  1.00  0.00    -0.237 OA
ATOM     79  O   UNL A   1      36.725  33.072  39.944  1.00  0.00    -0.237 OA
ATOM     80  O   UNL A   1      38.838  32.633  41.136  1.00  0.00    -0.744 OA
ENDBRANCH  73  77
ENDBRANCH  46  70
BRANCH  58  81
ATOM     81  C   UNL A   1      44.200  28.810  35.352  1.00  0.00     0.023 A 
ATOM     82  C   UNL A   1      44.069  27.884  36.400  1.00  0.00     0.031 A 
ATOM     83  C   UNL A   1      45.493  29.245  35.010  1.00  0.00     0.131 A 
ATOM     84  C   UNL A   1      45.205  27.467  37.111  1.00  0.00     0.055 A 
ATOM     85  C   UNL A   1      46.626  28.779  35.678  1.00  0.00     0.041 A 
ATOM     86  F   UNL A   1      45.677  30.132  34.018  1.00  0.00    -0.206 F 
ATOM     87  C   UNL A   1      46.484  27.896  36.745  1.00  0.00     0.022 A 
BRANCH  84  88
ATOM     88  S   UNL A   1      44.980  26.433  38.583  1.00  0.00     0.124 S 
ATOM     89  O   UNL A   1      45.572  25.169  38.159  1.00  0.00    -0.237 OA
ATOM     90  O   UNL A   1      45.719  27.173  39.600  1.00  0.00    -0.237 OA
ATOM     91  O   UNL A   1      43.530  26.408  38.767  1.00  0.00    -0.744 OA
ENDBRANCH  84  88
ENDBRANCH  58  81
ENDBRANCH  32  33
ENDBRANCH  24  27
ENDBRANCH  22  23
ENDBRANCH   1  22
TORSDOF 16
ENDMDL
MODEL 2
REMARK VINA RESULT:     -11.6      2.897      3.753
REMARK SMILES Cc1cc(C(=O)NC2CC2)sc1/C=C/C(=O)NCCCNC(=O)c1ccc(-c2c3nc(c(-c4cc(S(=O)(=O)[O-])ccc4F)c4ccc([nH]4)c(-c4cc(S(=O)(=O)[O-])ccc4F)c4nc(c(-c5cc(S(=O)(=O)[O-])ccc5F)c5ccc2[nH]5)C=C4)C=C3)cc1
REMARK SMILES IDX 19 1 18 2 17 3 15 4 16 5 14 7 13 8 12 9 1 10 2 11 3 12 4 13
REMARK SMILES IDX 11 14 5 15 6 16 7 17 8 19 9 20 10 21 20 22 21 23 22 24 23 26
REMARK SMILES IDX 24 27 25 28 86 29 26 30 85 31 27 32 28 33 29 34 79 35 30 36
REMARK SMILES IDX 84 37 78 38 80 39 31 40 83 41 77 42 76 43 32 45 64 46 44 47
REMARK SMILES IDX 63 48 45 49 48 50 62 51 81 52 46 53 47 54 61 56 82 57 49 58
REMARK SMILES IDX 33 59 34 60 42 61 35 62 41 63 43 64 40 65 36 66 37 67 38 68
REMARK SMILES IDX 39 69 65 70 66 71 74 72 67 73 73 74 75 75 72 76 68 77 69 78
REMARK SMILES IDX 70 79 71 80 50 81 51 82 59 83 52 84 58 85 60 86 57 87 53 88
REMARK SMILES IDX 54 89 55 90 56 91
REMARK H PARENT 17 6 7 18 21 25 80 44 48 55
REMARK Flexibility Score: inf
ROOT
ATOM      1  C   UNL A   1      33.273  28.836  23.636  1.00  0.00     0.042 C 
ENDROOT
BRANCH   1   2
ATOM      2  C   UNL A   1      32.027  28.010  23.333  1.00  0.00     0.118 C 
BRANCH   2   3
ATOM      3  N   UNL A   1      32.107  27.416  22.011  1.00  0.00    -0.352 N 
ATOM      4  C   UNL A   1      32.454  26.158  21.634  1.00  0.00     0.244 C 
ATOM      5  O   UNL A   1      32.383  25.829  20.452  1.00  0.00    -0.270 OA
ATOM      6  H   UNL A   1      31.874  28.020  21.270  1.00  0.00     0.163 HD
BRANCH   4   7
ATOM      7  C   UNL A   1      32.812  25.144  22.646  1.00  0.00     0.072 C 
ATOM      8  C   UNL A   1      34.068  24.837  23.003  1.00  0.00     0.025 C 
BRANCH   8   9
ATOM      9  C   UNL A   1      34.400  23.829  23.958  1.00  0.00     0.031 A 
ATOM     10  C   UNL A   1      36.661  22.976  23.054  1.00  0.00     0.046 C 
ATOM     11  C   UNL A   1      35.467  22.937  23.956  1.00  0.00    -0.032 A 
ATOM     12  C   UNL A   1      35.259  21.900  24.931  1.00  0.00     0.029 A 
ATOM     13  C   UNL A   1      34.100  22.055  25.678  1.00  0.00     0.093 A 
ATOM     14  S   UNL A   1      33.466  23.587  25.375  1.00  0.00    -0.130 S 
BRANCH  13  15
ATOM     15  C   UNL A   1      33.620  21.126  26.682  1.00  0.00     0.261 C 
ATOM     16  O   UNL A   1      33.632  21.448  27.879  1.00  0.00    -0.268 OA
ATOM     17  N   UNL A   1      33.143  19.847  26.481  1.00  0.00    -0.349 N 
ATOM     18  H   UNL A   1      32.815  19.486  27.336  1.00  0.00     0.164 HD
BRANCH  17  19
ATOM     19  C   UNL A   1      32.963  18.868  25.460  1.00  0.00     0.082 C 
ATOM     20  C   UNL A   1      32.667  19.284  24.045  1.00  0.00     0.027 C 
ATOM     21  C   UNL A   1      33.823  18.369  24.349  1.00  0.00     0.027 C 
ENDBRANCH  17  19
ENDBRANCH  13  15
ENDBRANCH   8   9
ENDBRANCH   4   7
ENDBRANCH   2   3
ENDBRANCH   1   2
BRANCH   1  22
ATOM     22  C   UNL A   1      33.483  29.060  25.130  1.00  0.00     0.118 C 
BRANCH  22  23
ATOM     23  N   UNL A   1      32.883  30.309  25.570  1.00  0.00    -0.352 N 
ATOM     24  C   UNL A   1      33.137  31.060  26.689  1.00  0.00     0.251 C 
ATOM     25  H   UNL A   1      32.188  30.671  24.974  1.00  0.00     0.163 HD
ATOM     26  O   UNL A   1      32.331  31.922  27.025  1.00  0.00    -0.269 OA
BRANCH  24  27
ATOM     27  C   UNL A   1      34.363  30.830  27.485  1.00  0.00     0.039 A 
ATOM     28  C   UNL A   1      34.582  29.565  28.033  1.00  0.00     0.014 A 
ATOM     29  C   UNL A   1      35.268  31.867  27.733  1.00  0.00     0.014 A 
ATOM     30  C   UNL A   1      35.729  29.327  28.793  1.00  0.00     0.010 A 
ATOM     31  C   UNL A   1      36.447  31.608  28.425  1.00  0.00     0.010 A 
ATOM     32  C   UNL A   1      36.684  30.340  28.973  1.00  0.00    -0.014 A 
BRANCH  32  33
ATOM     33  C   UNL A   1      37.926  30.094  29.749  1.00  0.00     0.031 A 
ATOM     34  C   UNL A   1      39.007  29.216  29.180  1.00  0.00     0.074 A 
ATOM     35  C   UNL A   1      38.052  30.615  30.984  1.00  0.00     0.049 A 
ATOM     36  N   UNL A   1      40.126  28.817  29.729  1.00  0.00    -0.248 NA
ATOM     37  C   UNL A   1      38.784  28.690  27.825  1.00  0.00     0.031 C 
ATOM     38  C   UNL A   1      37.051  31.450  31.654  1.00  0.00     0.029 A 
ATOM     39  N   UNL A   1      39.066  30.515  31.902  1.00  0.00    -0.354 N 
ATOM     40  C   UNL A   1      40.733  27.986  28.793  1.00  0.00     0.074 A 
ATOM     41  C   UNL A   1      39.825  27.888  27.670  1.00  0.00     0.031 C 
ATOM     42  C   UNL A   1      37.512  31.803  32.864  1.00  0.00     0.029 A 
ATOM     43  C   UNL A   1      38.816  31.186  33.077  1.00  0.00     0.049 A 
ATOM     44  H   UNL A   1      39.895  30.011  31.736  1.00  0.00     0.167 HD
ATOM     45  C   UNL A   1      41.946  27.380  28.856  1.00  0.00     0.034 A 
ATOM     46  C   UNL A   1      39.550  31.281  34.203  1.00  0.00     0.034 A 
ATOM     47  C   UNL A   1      42.840  27.500  29.983  1.00  0.00     0.049 A 
ATOM     48  C   UNL A   1      40.886  30.586  34.258  1.00  0.00     0.074 A 
ATOM     49  C   UNL A   1      44.109  26.970  30.137  1.00  0.00     0.029 A 
ATOM     50  N   UNL A   1      42.556  28.193  31.154  1.00  0.00    -0.354 N 
ATOM     51  N   UNL A   1      41.467  29.839  33.346  1.00  0.00    -0.248 NA
ATOM     52  C   UNL A   1      41.671  30.759  35.487  1.00  0.00     0.031 C 
ATOM     53  C   UNL A   1      44.565  27.287  31.421  1.00  0.00     0.029 A 
ATOM     54  C   UNL A   1      43.614  28.081  32.044  1.00  0.00     0.049 A 
ATOM     55  H   UNL A   1      41.726  28.692  31.326  1.00  0.00     0.167 HD
ATOM     56  C   UNL A   1      42.699  29.476  33.883  1.00  0.00     0.074 A 
ATOM     57  C   UNL A   1      42.782  30.103  35.188  1.00  0.00     0.031 C 
ATOM     58  C   UNL A   1      43.676  28.700  33.347  1.00  0.00     0.034 A 
BRANCH  45  59
ATOM     59  C   UNL A   1      42.354  26.519  27.683  1.00  0.00     0.023 A 
ATOM     60  C   UNL A   1      42.067  25.143  27.642  1.00  0.00     0.031 A 
ATOM     61  C   UNL A   1      43.066  27.073  26.605  1.00  0.00     0.131 A 
ATOM     62  C   UNL A   1      42.561  24.354  26.592  1.00  0.00     0.055 A 
ATOM     63  C   UNL A   1      43.480  26.297  25.518  1.00  0.00     0.041 A 
ATOM     64  F   UNL A   1      43.388  28.376  26.594  1.00  0.00    -0.206 F 
ATOM     65  C   UNL A   1      43.243  24.926  25.516  1.00  0.00     0.022 A 
BRANCH  62  66
ATOM     66  S   UNL A   1      42.431  22.550  26.730  1.00  0.00     0.124 S 
ATOM     67  O   UNL A   1      43.576  22.111  25.936  1.00  0.00    -0.237 OA
ATOM     68  O   UNL A   1      42.530  22.336  28.169  1.00  0.00    -0.237 OA
ATOM     69  O   UNL A   1      41.125  22.254  26.143  1.00  0.00    -0.744 OA
ENDBRANCH  62  66
ENDBRANCH  45  59
BRANCH  46  70
ATOM     70  C   UNL A   1      39.040  32.054  35.371  1.00  0.00     0.023 A 
ATOM     71  C   UNL A   1      38.453  31.404  36.468  1.00  0.00     0.031 A 
ATOM     72  C   UNL A   1      39.105  33.458  35.395  1.00  0.00     0.131 A 
ATOM     73  C   UNL A   1      37.914  32.158  37.521  1.00  0.00     0.055 A 
ATOM     74  C   UNL A   1      38.615  34.202  36.468  1.00  0.00     0.041 A 
ATOM     75  F   UNL A   1      39.665  34.129  34.374  1.00  0.00    -0.206 F 
ATOM     76  C   UNL A   1      38.002  33.552  37.536  1.00  0.00     0.022 A 
BRANCH  73  77
ATOM     77  S   UNL A   1      37.021  31.292  38.842  1.00  0.00     0.124 S 
ATOM     78  O   UNL A   1      36.870  29.958  38.272  1.00  0.00    -0.237 OA
ATOM     79  O   UNL A   1      37.949  31.411  39.962  1.00  0.00    -0.237 OA
ATOM     80  O   UNL A   1      35.784  32.059  38.975  1.00  0.00    -0.744 OA
ENDBRANCH  73  77
ENDBRANCH  46  70
BRANCH  58  81
ATOM     81  C   UNL A   1      44.934  28.527  34.162  1.00  0.00     0.023 A 
ATOM     82  C   UNL A   1      46.014  29.420  34.057  1.00  0.00     0.031 A 
ATOM     83  C   UNL A   1      45.058  27.440  35.045  1.00  0.00     0.131 A 
ATOM     84  C   UNL A   1      47.193  29.179  34.778  1.00  0.00     0.055 A 
ATOM     85  C   UNL A   1      46.209  27.239  35.808  1.00  0.00     0.041 A 
ATOM     86  F   UNL A   1      44.058  26.553  35.183  1.00  0.00    -0.206 F 
ATOM     87  C   UNL A   1      47.291  28.103  35.665  1.00  0.00     0.022 A 
BRANCH  84  88
ATOM     88  S   UNL A   1      48.635  30.234  34.467  1.00  0.00     0.124 S 
ATOM     89  O   UNL A   1      48.464  30.573  33.058  1.00  0.00    -0.237 OA
ATOM     90  O   UNL A   1      48.433  31.325  35.414  1.00  0.00    -0.237 OA
ATOM     91  O   UNL A   1      49.769  29.360  34.761  1.00  0.00    -0.744 OA
ENDBRANCH  84  88
ENDBRANCH  58  81
ENDBRANCH  32  33
ENDBRANCH  24  27
ENDBRANCH  22  23
ENDBRANCH   1  22
TORSDOF 16
ENDMDL
MODEL 3
REMARK VINA RESULT:     -11.6      6.307     11.792
REMARK SMILES Cc1cc(C(=O)NC2CC2)sc1/C=C/C(=O)NCCCNC(=O)c1ccc(-c2c3nc(c(-c4cc(S(=O)(=O)[O-])ccc4F)c4ccc([nH]4)c(-c4cc(S(=O)(=O)[O-])ccc4F)c4nc(c(-c5cc(S(=O)(=O)[O-])ccc5F)c5ccc2[nH]5)C=C4)C=C3)cc1
REMARK SMILES IDX 19 1 18 2 17 3 15 4 16 5 14 7 13 8 12 9 1 10 2 11 3 12 4 13
REMARK SMILES IDX 11 14 5 15 6 16 7 17 8 19 9 20 10 21 20 22 21 23 22 24 23 26
REMARK SMILES IDX 24 27 25 28 86 29 26 30 85 31 27 32 28 33 29 34 79 35 30 36
REMARK SMILES IDX 84 37 78 38 80 39 31 40 83 41 77 42 76 43 32 45 64 46 44 47
REMARK SMILES IDX 63 48 45 49 48 50 62 51 81 52 46 53 47 54 61 56 82 57 49 58
REMARK SMILES IDX 33 59 34 60 42 61 35 62 41 63 43 64 40 65 36 66 37 67 38 68
REMARK SMILES IDX 39 69 65 70 66 71 74 72 67 73 73 74 75 75 72 76 68 77 69 78
REMARK SMILES IDX 70 79 71 80 50 81 51 82 59 83 52 84 58 85 60 86 57 87 53 88
REMARK SMILES IDX 54 89 55 90 56 91
REMARK H PARENT 17 6 7 18 21 25 80 44 48 55
REMARK Flexibility Score: inf
ROOT
ATOM      1  C   UNL A   1      37.797  19.413  25.063  1.00  0.00     0.042 C 
ENDROOT
BRANCH   1   2
ATOM      2  C   UNL A   1      36.571  20.312  24.934  1.00  0.00     0.118 C 
BRANCH   2   3
ATOM      3  N   UNL A   1      35.347  19.539  25.041  1.00  0.00    -0.352 N 
ATOM      4  C   UNL A   1      34.057  19.901  24.816  1.00  0.00     0.244 C 
ATOM      5  O   UNL A   1      33.162  19.062  24.890  1.00  0.00    -0.270 OA
ATOM      6  H   UNL A   1      35.471  18.603  25.321  1.00  0.00     0.163 HD
BRANCH   4   7
ATOM      7  C   UNL A   1      33.729  21.271  24.375  1.00  0.00     0.072 C 
ATOM      8  C   UNL A   1      33.281  22.243  25.184  1.00  0.00     0.025 C 
BRANCH   8   9
ATOM      9  C   UNL A   1      32.935  23.553  24.736  1.00  0.00     0.031 A 
ATOM     10  C   UNL A   1      30.834  24.051  26.151  1.00  0.00     0.046 C 
ATOM     11  C   UNL A   1      31.826  24.326  25.063  1.00  0.00    -0.032 A 
ATOM     12  C   UNL A   1      31.708  25.444  24.165  1.00  0.00     0.029 A 
ATOM     13  C   UNL A   1      32.737  25.531  23.239  1.00  0.00     0.093 A 
ATOM     14  S   UNL A   1      33.946  24.440  23.673  1.00  0.00    -0.130 S 
BRANCH  13  15
ATOM     15  C   UNL A   1      32.832  26.521  22.183  1.00  0.00     0.261 C 
ATOM     16  O   UNL A   1      33.562  26.312  21.204  1.00  0.00    -0.268 OA
ATOM     17  N   UNL A   1      32.202  27.746  22.124  1.00  0.00    -0.349 N 
ATOM     18  H   UNL A   1      32.391  28.165  21.253  1.00  0.00     0.164 HD
BRANCH  17  19
ATOM     19  C   UNL A   1      31.370  28.615  22.889  1.00  0.00     0.082 C 
ATOM     20  C   UNL A   1      30.125  29.208  22.289  1.00  0.00     0.027 C 
ATOM     21  C   UNL A   1      30.060  28.440  23.581  1.00  0.00     0.027 C 
ENDBRANCH  17  19
ENDBRANCH  13  15
ENDBRANCH   8   9
ENDBRANCH   4   7
ENDBRANCH   2   3
ENDBRANCH   1   2
BRANCH   1  22
ATOM     22  C   UNL A   1      38.996  20.136  25.667  1.00  0.00     0.118 C 
BRANCH  22  23
ATOM     23  N   UNL A   1      40.087  19.214  25.947  1.00  0.00    -0.352 N 
ATOM     24  C   UNL A   1      41.417  19.466  26.161  1.00  0.00     0.251 C 
ATOM     25  H   UNL A   1      39.830  18.265  25.988  1.00  0.00     0.163 HD
ATOM     26  O   UNL A   1      42.218  18.540  26.095  1.00  0.00    -0.269 OA
BRANCH  24  27
ATOM     27  C   UNL A   1      41.882  20.839  26.462  1.00  0.00     0.039 A 
ATOM     28  C   UNL A   1      41.938  21.773  25.426  1.00  0.00     0.014 A 
ATOM     29  C   UNL A   1      42.307  21.191  27.747  1.00  0.00     0.014 A 
ATOM     30  C   UNL A   1      42.380  23.072  25.686  1.00  0.00     0.010 A 
ATOM     31  C   UNL A   1      42.673  22.506  28.021  1.00  0.00     0.010 A 
ATOM     32  C   UNL A   1      42.726  23.456  26.992  1.00  0.00    -0.014 A 
BRANCH  32  33
ATOM     33  C   UNL A   1      43.165  24.843  27.293  1.00  0.00     0.031 A 
ATOM     34  C   UNL A   1      42.217  25.803  27.958  1.00  0.00     0.074 A 
ATOM     35  C   UNL A   1      44.392  25.248  26.915  1.00  0.00     0.049 A 
ATOM     36  N   UNL A   1      42.380  27.072  28.234  1.00  0.00    -0.248 NA
ATOM     37  C   UNL A   1      40.898  25.273  28.335  1.00  0.00     0.031 C 
ATOM     38  C   UNL A   1      45.381  24.415  26.228  1.00  0.00     0.029 A 
ATOM     39  N   UNL A   1      45.015  26.462  27.045  1.00  0.00    -0.354 N 
ATOM     40  C   UNL A   1      41.183  27.494  28.803  1.00  0.00     0.074 A 
ATOM     41  C   UNL A   1      40.283  26.361  28.772  1.00  0.00     0.031 C 
ATOM     42  C   UNL A   1      46.494  25.135  26.019  1.00  0.00     0.029 A 
ATOM     43  C   UNL A   1      46.284  26.492  26.512  1.00  0.00     0.049 A 
ATOM     44  H   UNL A   1      44.596  27.239  27.480  1.00  0.00     0.167 HD
ATOM     45  C   UNL A   1      40.873  28.708  29.325  1.00  0.00     0.034 A 
ATOM     46  C   UNL A   1      47.171  27.502  26.421  1.00  0.00     0.034 A 
ATOM     47  C   UNL A   1      41.790  29.822  29.354  1.00  0.00     0.049 A 
ATOM     48  C   UNL A   1      46.799  28.847  26.990  1.00  0.00     0.074 A 
ATOM     49  C   UNL A   1      41.602  31.081  29.897  1.00  0.00     0.029 A 
ATOM     50  N   UNL A   1      43.070  29.814  28.810  1.00  0.00    -0.354 N 
ATOM     51  N   UNL A   1      45.678  29.219  27.567  1.00  0.00    -0.248 NA
ATOM     52  C   UNL A   1      47.816  29.903  26.911  1.00  0.00     0.031 C 
ATOM     53  C   UNL A   1      42.738  31.851  29.625  1.00  0.00     0.029 A 
ATOM     54  C   UNL A   1      43.669  31.053  28.981  1.00  0.00     0.049 A 
ATOM     55  H   UNL A   1      43.489  29.041  28.369  1.00  0.00     0.167 HD
ATOM     56  C   UNL A   1      45.868  30.545  27.943  1.00  0.00     0.074 A 
ATOM     57  C   UNL A   1      47.216  30.899  27.545  1.00  0.00     0.031 C 
ATOM     58  C   UNL A   1      45.010  31.394  28.566  1.00  0.00     0.034 A 
BRANCH  45  59
ATOM     59  C   UNL A   1      39.479  28.890  29.879  1.00  0.00     0.023 A 
ATOM     60  C   UNL A   1      38.446  29.453  29.108  1.00  0.00     0.031 A 
ATOM     61  C   UNL A   1      39.184  28.526  31.205  1.00  0.00     0.131 A 
ATOM     62  C   UNL A   1      37.196  29.712  29.691  1.00  0.00     0.055 A 
ATOM     63  C   UNL A   1      37.912  28.706  31.754  1.00  0.00     0.041 A 
ATOM     64  F   UNL A   1      40.133  28.002  31.997  1.00  0.00    -0.206 F 
ATOM     65  C   UNL A   1      36.914  29.318  31.001  1.00  0.00     0.022 A 
BRANCH  62  66
ATOM     66  S   UNL A   1      35.997  30.706  28.763  1.00  0.00     0.124 S 
ATOM     67  O   UNL A   1      35.330  31.440  29.836  1.00  0.00    -0.237 OA
ATOM     68  O   UNL A   1      36.854  31.496  27.886  1.00  0.00    -0.237 OA
ATOM     69  O   UNL A   1      35.168  29.707  28.092  1.00  0.00    -0.744 OA
ENDBRANCH  62  66
ENDBRANCH  45  59
BRANCH  46  70
ATOM     70  C   UNL A   1      48.489  27.289  25.759  1.00  0.00     0.023 A 
ATOM     71  C   UNL A   1      48.651  27.505  24.382  1.00  0.00     0.031 A 
ATOM     72  C   UNL A   1      49.602  26.836  26.491  1.00  0.00     0.131 A 
ATOM     73  C   UNL A   1      49.883  27.225  23.770  1.00  0.00     0.055 A 
ATOM     74  C   UNL A   1      50.839  26.610  25.888  1.00  0.00     0.041 A 
ATOM     75  F   UNL A   1      49.503  26.622  27.813  1.00  0.00    -0.206 F 
ATOM     76  C   UNL A   1      50.981  26.792  24.515  1.00  0.00     0.022 A 
BRANCH  73  77
ATOM     77  S   UNL A   1      50.007  27.362  21.965  1.00  0.00     0.124 S 
ATOM     78  O   UNL A   1      51.331  26.806  21.716  1.00  0.00    -0.237 OA
ATOM     79  O   UNL A   1      48.876  26.551  21.523  1.00  0.00    -0.237 OA
ATOM     80  O   UNL A   1      49.874  28.797  21.724  1.00  0.00    -0.744 OA
ENDBRANCH  73  77
ENDBRANCH  46  70
BRANCH  58  81
ATOM     81  C   UNL A   1      45.529  32.774  28.888  1.00  0.00     0.023 A 
ATOM     82  C   UNL A   1      45.344  33.858  28.014  1.00  0.00     0.031 A 
ATOM     83  C   UNL A   1      46.232  33.001  30.085  1.00  0.00     0.131 A 
ATOM     84  C   UNL A   1      45.908  35.106  28.319  1.00  0.00     0.055 A 
ATOM     85  C   UNL A   1      46.735  34.259  30.414  1.00  0.00     0.041 A 
ATOM     86  F   UNL A   1      46.440  32.000  30.957  1.00  0.00    -0.206 F 
ATOM     87  C   UNL A   1      46.588  35.318  29.522  1.00  0.00     0.022 A 
BRANCH  84  88
ATOM     88  S   UNL A   1      45.825  36.425  27.078  1.00  0.00     0.124 S 
ATOM     89  O   UNL A   1      46.675  37.453  27.671  1.00  0.00    -0.237 OA
ATOM     90  O   UNL A   1      46.356  35.768  25.888  1.00  0.00    -0.237 OA
ATOM     91  O   UNL A   1      44.402  36.754  27.019  1.00  0.00    -0.744 OA
ENDBRANCH  84  88
ENDBRANCH  58  81
ENDBRANCH  32  33
ENDBRANCH  24  27
ENDBRANCH  22  23
ENDBRANCH   1  22
TORSDOF 16
ENDMDL
