MODEL 1
REMARK VINA RESULT:     -10.1      0.000      0.000
REMARK SMILES CC(C)[C@@H](C[NH+](C)C)C(=O)NCCCNC(=O)c1ccc(-c2c3nc(c(-c4cc(S(=O)(=O)[O-])ccc4F)c4ccc([nH]4)c(-c4cc(S(=O)(=O)[O-])ccc4F)c4nc(c(-c5cc(S(=O)(=O)[O-])ccc5F)c5ccc2[nH]5)C=C4)C=C3)cc1
REMARK SMILES IDX 13 1 12 2 11 3 9 4 10 5 4 7 2 8 1 9 3 10 5 11 6 12 7 13 8 14
REMARK SMILES IDX 14 16 15 17 16 18 17 20 18 21 19 22 80 23 20 24 79 25 21 26
REMARK SMILES IDX 22 27 23 28 73 29 24 30 78 31 72 32 74 33 25 34 77 35 71 36
REMARK SMILES IDX 70 37 26 39 58 40 38 41 57 42 39 43 42 44 56 45 75 46 40 47
REMARK SMILES IDX 41 48 55 50 76 51 43 52 27 53 28 54 36 55 29 56 35 57 37 58
REMARK SMILES IDX 34 59 30 60 31 61 32 62 33 63 59 64 60 65 68 66 61 67 67 68
REMARK SMILES IDX 69 69 66 70 62 71 63 72 64 73 65 74 44 75 45 76 53 77 46 78
REMARK SMILES IDX 52 79 54 80 51 81 47 82 48 83 49 84 50 85
REMARK H PARENT 11 6 6 15 15 19 74 38 42 49
REMARK Flexibility Score: inf
ROOT
ATOM      1  C   UNL A   1      31.690  31.652  26.613  1.00  0.00     0.042 C 
ENDROOT
BRANCH   1   2
ATOM      2  C   UNL A   1      31.918  30.194  26.290  1.00  0.00     0.117 C 
BRANCH   2   3
ATOM      3  N   UNL A   1      32.858  29.950  25.220  1.00  0.00    -0.356 N 
ATOM      4  C   UNL A   1      32.732  29.080  24.180  1.00  0.00     0.229 C 
ATOM      5  O   UNL A   1      33.556  29.164  23.263  1.00  0.00    -0.275 OA
ATOM      6  H   UNL A   1      33.690  30.475  25.247  1.00  0.00     0.163 HD
BRANCH   4   7
ATOM      7  C   UNL A   1      31.653  27.985  24.147  1.00  0.00     0.136 C 
BRANCH   7   8
ATOM      8  C   UNL A   1      30.264  28.515  23.698  1.00  0.00     0.001 C 
ATOM      9  C   UNL A   1      30.351  29.296  22.381  1.00  0.00     0.008 C 
ATOM     10  C   UNL A   1      29.253  27.370  23.500  1.00  0.00     0.008 C 
ENDBRANCH   7   8
BRANCH   7  11
ATOM     11  C   UNL A   1      32.181  26.630  23.574  1.00  0.00     0.275 C 
BRANCH  11  12
ATOM     12  N   UNL A   1      33.413  26.010  24.099  1.00  0.00    -0.339 N 
ATOM     13  C   UNL A   1      33.229  25.495  25.457  1.00  0.00     0.332 C 
ATOM     14  C   UNL A   1      33.973  24.951  23.259  1.00  0.00     0.332 C 
ATOM     15  H   UNL A   1      34.089  26.774  24.101  1.00  0.00     0.347 HD
ENDBRANCH  11  12
ENDBRANCH   7  11
ENDBRANCH   4   7
ENDBRANCH   2   3
ENDBRANCH   1   2
BRANCH   1  16
ATOM     16  C   UNL A   1      32.876  32.319  27.275  1.00  0.00     0.118 C 
BRANCH  16  17
ATOM     17  N   UNL A   1      32.638  33.728  27.576  1.00  0.00    -0.352 N 
ATOM     18  C   UNL A   1      33.168  34.537  28.553  1.00  0.00     0.251 C 
ATOM     19  H   UNL A   1      31.990  34.170  26.982  1.00  0.00     0.163 HD
ATOM     20  O   UNL A   1      32.677  35.648  28.746  1.00  0.00    -0.269 OA
BRANCH  18  21
ATOM     21  C   UNL A   1      34.295  34.063  29.385  1.00  0.00     0.039 A 
ATOM     22  C   UNL A   1      34.041  33.217  30.468  1.00  0.00     0.014 A 
ATOM     23  C   UNL A   1      35.604  34.442  29.092  1.00  0.00     0.014 A 
ATOM     24  C   UNL A   1      35.111  32.683  31.193  1.00  0.00     0.010 A 
ATOM     25  C   UNL A   1      36.665  33.808  29.723  1.00  0.00     0.010 A 
ATOM     26  C   UNL A   1      36.434  32.933  30.793  1.00  0.00    -0.014 A 
BRANCH  26  27
ATOM     27  C   UNL A   1      37.597  32.334  31.497  1.00  0.00     0.031 A 
ATOM     28  C   UNL A   1      38.349  31.198  30.851  1.00  0.00     0.074 A 
ATOM     29  C   UNL A   1      37.930  32.755  32.733  1.00  0.00     0.049 A 
ATOM     30  N   UNL A   1      39.308  30.454  31.340  1.00  0.00    -0.248 NA
ATOM     31  C   UNL A   1      37.937  30.825  29.488  1.00  0.00     0.031 C 
ATOM     32  C   UNL A   1      37.255  33.823  33.476  1.00  0.00     0.029 A 
ATOM     33  N   UNL A   1      38.917  32.335  33.589  1.00  0.00    -0.354 N 
ATOM     34  C   UNL A   1      39.603  29.522  30.350  1.00  0.00     0.074 A 
ATOM     35  C   UNL A   1      38.663  29.739  29.273  1.00  0.00     0.031 C 
ATOM     36  C   UNL A   1      37.872  33.998  34.655  1.00  0.00     0.029 A 
ATOM     37  C   UNL A   1      38.947  33.020  34.782  1.00  0.00     0.049 A 
ATOM     38  H   UNL A   1      39.546  31.610  33.369  1.00  0.00     0.167 HD
ATOM     39  C   UNL A   1      40.592  28.596  30.322  1.00  0.00     0.034 A 
ATOM     40  C   UNL A   1      39.743  32.865  35.859  1.00  0.00     0.034 A 
ATOM     41  C   UNL A   1      41.532  28.404  31.397  1.00  0.00     0.049 A 
ATOM     42  C   UNL A   1      40.804  31.791  35.826  1.00  0.00     0.074 A 
ATOM     43  C   UNL A   1      42.591  27.517  31.469  1.00  0.00     0.029 A 
ATOM     44  N   UNL A   1      41.527  29.114  32.592  1.00  0.00    -0.354 N 
ATOM     45  N   UNL A   1      41.091  30.940  34.867  1.00  0.00    -0.248 NA
ATOM     46  C   UNL A   1      41.655  31.665  37.017  1.00  0.00     0.031 C 
ATOM     47  C   UNL A   1      43.184  27.644  32.729  1.00  0.00     0.029 A 
ATOM     48  C   UNL A   1      42.550  28.667  33.414  1.00  0.00     0.049 A 
ATOM     49  H   UNL A   1      40.891  29.829  32.821  1.00  0.00     0.167 HD
ATOM     50  C   UNL A   1      42.186  30.210  35.325  1.00  0.00     0.074 A 
ATOM     51  C   UNL A   1      42.512  30.729  36.637  1.00  0.00     0.031 C 
ATOM     52  C   UNL A   1      42.863  29.203  34.717  1.00  0.00     0.034 A 
BRANCH  39  53
ATOM     53  C   UNL A   1      40.692  27.724  29.094  1.00  0.00     0.023 A 
ATOM     54  C   UNL A   1      41.629  27.990  28.079  1.00  0.00     0.031 A 
ATOM     55  C   UNL A   1      39.825  26.631  28.916  1.00  0.00     0.131 A 
ATOM     56  C   UNL A   1      41.624  27.229  26.902  1.00  0.00     0.055 A 
ATOM     57  C   UNL A   1      39.885  25.821  27.781  1.00  0.00     0.041 A 
ATOM     58  F   UNL A   1      38.893  26.340  29.837  1.00  0.00    -0.206 F 
ATOM     59  C   UNL A   1      40.778  26.127  26.756  1.00  0.00     0.022 A 
BRANCH  56  60
ATOM     60  S   UNL A   1      42.634  27.792  25.504  1.00  0.00     0.124 S 
ATOM     61  O   UNL A   1      43.901  28.099  26.163  1.00  0.00    -0.237 OA
ATOM     62  O   UNL A   1      42.635  26.629  24.625  1.00  0.00    -0.237 OA
ATOM     63  O   UNL A   1      41.904  28.955  25.001  1.00  0.00    -0.744 OA
ENDBRANCH  56  60
ENDBRANCH  39  53
BRANCH  40  64
ATOM     64  C   UNL A   1      39.581  33.733  37.063  1.00  0.00     0.023 A 
ATOM     65  C   UNL A   1      40.419  34.842  37.267  1.00  0.00     0.031 A 
ATOM     66  C   UNL A   1      38.640  33.430  38.063  1.00  0.00     0.131 A 
ATOM     67  C   UNL A   1      40.349  35.563  38.468  1.00  0.00     0.055 A 
ATOM     68  C   UNL A   1      38.528  34.192  39.227  1.00  0.00     0.041 A 
ATOM     69  F   UNL A   1      37.811  32.383  37.923  1.00  0.00    -0.206 F 
ATOM     70  C   UNL A   1      39.399  35.255  39.444  1.00  0.00     0.022 A 
BRANCH  67  71
ATOM     71  S   UNL A   1      41.604  36.833  38.790  1.00  0.00     0.124 S 
ATOM     72  O   UNL A   1      42.199  37.000  37.469  1.00  0.00    -0.237 OA
ATOM     73  O   UNL A   1      40.792  37.944  39.274  1.00  0.00    -0.237 OA
ATOM     74  O   UNL A   1      42.468  36.212  39.792  1.00  0.00    -0.744 OA
ENDBRANCH  67  71
ENDBRANCH  40  64
BRANCH  52  75
ATOM     75  C   UNL A   1      44.066  28.648  35.441  1.00  0.00     0.023 A 
ATOM     76  C   UNL A   1      43.957  27.599  36.369  1.00  0.00     0.031 A 
ATOM     77  C   UNL A   1      45.343  29.184  35.195  1.00  0.00     0.131 A 
ATOM     78  C   UNL A   1      45.094  27.159  37.062  1.00  0.00     0.055 A 
ATOM     79  C   UNL A   1      46.481  28.697  35.837  1.00  0.00     0.041 A 
ATOM     80  F   UNL A   1      45.505  30.189  34.318  1.00  0.00    -0.206 F 
ATOM     81  C   UNL A   1      46.358  27.687  36.788  1.00  0.00     0.022 A 
BRANCH  78  82
ATOM     82  S   UNL A   1      44.887  25.950  38.397  1.00  0.00     0.124 S 
ATOM     83  O   UNL A   1      46.270  25.662  38.763  1.00  0.00    -0.237 OA
ATOM     84  O   UNL A   1      44.112  26.700  39.380  1.00  0.00    -0.237 OA
ATOM     85  O   UNL A   1      44.171  24.848  37.756  1.00  0.00    -0.744 OA
ENDBRANCH  78  82
ENDBRANCH  52  75
ENDBRANCH  26  27
ENDBRANCH  18  21
ENDBRANCH  16  17
ENDBRANCH   1  16
TORSDOF 16
ENDMDL
MODEL 2
REMARK VINA RESULT:     -10.1      2.022      8.272
REMARK SMILES CC(C)[C@@H](C[NH+](C)C)C(=O)NCCCNC(=O)c1ccc(-c2c3nc(c(-c4cc(S(=O)(=O)[O-])ccc4F)c4ccc([nH]4)c(-c4cc(S(=O)(=O)[O-])ccc4F)c4nc(c(-c5cc(S(=O)(=O)[O-])ccc5F)c5ccc2[nH]5)C=C4)C=C3)cc1
REMARK SMILES IDX 13 1 12 2 11 3 9 4 10 5 4 7 2 8 1 9 3 10 5 11 6 12 7 13 8 14
REMARK SMILES IDX 14 16 15 17 16 18 17 20 18 21 19 22 80 23 20 24 79 25 21 26
REMARK SMILES IDX 22 27 23 28 73 29 24 30 78 31 72 32 74 33 25 34 77 35 71 36
REMARK SMILES IDX 70 37 26 39 58 40 38 41 57 42 39 43 42 44 56 45 75 46 40 47
REMARK SMILES IDX 41 48 55 50 76 51 43 52 27 53 28 54 36 55 29 56 35 57 37 58
REMARK SMILES IDX 34 59 30 60 31 61 32 62 33 63 59 64 60 65 68 66 61 67 67 68
REMARK SMILES IDX 69 69 66 70 62 71 63 72 64 73 65 74 44 75 45 76 53 77 46 78
REMARK SMILES IDX 52 79 54 80 51 81 47 82 48 83 49 84 50 85
REMARK H PARENT 11 6 6 15 15 19 74 38 42 49
REMARK Flexibility Score: inf
ROOT
ATOM      1  C   UNL A   1      31.847  30.401  25.490  1.00  0.00     0.042 C 
ENDROOT
BRANCH   1   2
ATOM      2  C   UNL A   1      32.993  29.434  25.314  1.00  0.00     0.117 C 
BRANCH   2   3
ATOM      3  N   UNL A   1      33.493  29.324  23.963  1.00  0.00    -0.356 N 
ATOM      4  C   UNL A   1      33.280  28.316  23.073  1.00  0.00     0.229 C 
ATOM      5  O   UNL A   1      33.628  28.506  21.902  1.00  0.00    -0.275 OA
ATOM      6  H   UNL A   1      34.055  30.068  23.648  1.00  0.00     0.163 HD
BRANCH   4   7
ATOM      7  C   UNL A   1      32.684  26.961  23.489  1.00  0.00     0.136 C 
BRANCH   7   8
ATOM      8  C   UNL A   1      31.407  26.588  22.688  1.00  0.00     0.001 C 
ATOM      9  C   UNL A   1      30.818  25.249  23.149  1.00  0.00     0.008 C 
ATOM     10  C   UNL A   1      30.310  27.659  22.832  1.00  0.00     0.008 C 
ENDBRANCH   7   8
BRANCH   7  11
ATOM     11  C   UNL A   1      33.776  25.873  23.748  1.00  0.00     0.275 C 
BRANCH  11  12
ATOM     12  N   UNL A   1      33.939  25.259  25.080  1.00  0.00    -0.339 N 
ATOM     13  C   UNL A   1      33.002  25.819  26.056  1.00  0.00     0.332 C 
ATOM     14  C   UNL A   1      33.836  23.800  25.101  1.00  0.00     0.332 C 
ATOM     15  H   UNL A   1      34.898  25.492  25.339  1.00  0.00     0.347 HD
ENDBRANCH  11  12
ENDBRANCH   7  11
ENDBRANCH   4   7
ENDBRANCH   2   3
ENDBRANCH   1   2
BRANCH   1  16
ATOM     16  C   UNL A   1      31.727  30.950  26.895  1.00  0.00     0.118 C 
BRANCH  16  17
ATOM     17  N   UNL A   1      31.886  32.401  26.950  1.00  0.00    -0.352 N 
ATOM     18  C   UNL A   1      32.874  33.173  27.515  1.00  0.00     0.251 C 
ATOM     19  H   UNL A   1      31.168  32.910  26.510  1.00  0.00     0.163 HD
ATOM     20  O   UNL A   1      32.707  34.387  27.612  1.00  0.00    -0.269 OA
BRANCH  18  21
ATOM     21  C   UNL A   1      34.110  32.545  28.031  1.00  0.00     0.039 A 
ATOM     22  C   UNL A   1      35.258  33.323  28.198  1.00  0.00     0.014 A 
ATOM     23  C   UNL A   1      34.134  31.191  28.364  1.00  0.00     0.014 A 
ATOM     24  C   UNL A   1      36.396  32.759  28.783  1.00  0.00     0.010 A 
ATOM     25  C   UNL A   1      35.212  30.671  29.066  1.00  0.00     0.010 A 
ATOM     26  C   UNL A   1      36.364  31.442  29.270  1.00  0.00    -0.014 A 
BRANCH  26  27
ATOM     27  C   UNL A   1      37.530  30.826  29.955  1.00  0.00     0.031 A 
ATOM     28  C   UNL A   1      37.866  31.244  31.364  1.00  0.00     0.074 A 
ATOM     29  C   UNL A   1      38.321  29.957  29.295  1.00  0.00     0.049 A 
ATOM     30  N   UNL A   1      38.902  30.928  32.097  1.00  0.00    -0.248 NA
ATOM     31  C   UNL A   1      36.930  32.173  32.018  1.00  0.00     0.031 C 
ATOM     32  C   UNL A   1      38.117  29.503  27.917  1.00  0.00     0.029 A 
ATOM     33  N   UNL A   1      39.459  29.301  29.691  1.00  0.00    -0.354 N 
ATOM     34  C   UNL A   1      38.747  31.627  33.290  1.00  0.00     0.074 A 
ATOM     35  C   UNL A   1      37.567  32.450  33.145  1.00  0.00     0.031 C 
ATOM     36  C   UNL A   1      39.073  28.616  27.599  1.00  0.00     0.029 A 
ATOM     37  C   UNL A   1      39.992  28.480  28.723  1.00  0.00     0.049 A 
ATOM     38  H   UNL A   1      39.857  29.408  30.585  1.00  0.00     0.167 HD
ATOM     39  C   UNL A   1      39.495  31.561  34.418  1.00  0.00     0.034 A 
ATOM     40  C   UNL A   1      41.103  27.716  28.741  1.00  0.00     0.034 A 
ATOM     41  C   UNL A   1      40.660  30.723  34.552  1.00  0.00     0.049 A 
ATOM     42  C   UNL A   1      41.950  27.699  29.991  1.00  0.00     0.074 A 
ATOM     43  C   UNL A   1      41.479  30.554  35.654  1.00  0.00     0.029 A 
ATOM     44  N   UNL A   1      41.171  29.910  33.549  1.00  0.00    -0.354 N 
ATOM     45  N   UNL A   1      41.770  28.342  31.122  1.00  0.00    -0.248 NA
ATOM     46  C   UNL A   1      43.146  26.845  29.968  1.00  0.00     0.031 C 
ATOM     47  C   UNL A   1      42.520  29.692  35.297  1.00  0.00     0.029 A 
ATOM     48  C   UNL A   1      42.307  29.256  34.000  1.00  0.00     0.049 A 
ATOM     49  H   UNL A   1      40.784  29.812  32.649  1.00  0.00     0.167 HD
ATOM     50  C   UNL A   1      42.806  27.932  31.959  1.00  0.00     0.074 A 
ATOM     51  C   UNL A   1      43.596  26.981  31.206  1.00  0.00     0.031 C 
ATOM     52  C   UNL A   1      43.079  28.305  33.235  1.00  0.00     0.034 A 
BRANCH  39  53
ATOM     53  C   UNL A   1      39.075  32.427  35.582  1.00  0.00     0.023 A 
ATOM     54  C   UNL A   1      39.528  33.752  35.712  1.00  0.00     0.031 A 
ATOM     55  C   UNL A   1      38.237  31.918  36.589  1.00  0.00     0.131 A 
ATOM     56  C   UNL A   1      39.210  34.494  36.858  1.00  0.00     0.055 A 
ATOM     57  C   UNL A   1      37.849  32.692  37.685  1.00  0.00     0.041 A 
ATOM     58  F   UNL A   1      37.791  30.654  36.534  1.00  0.00    -0.206 F 
ATOM     59  C   UNL A   1      38.349  33.984  37.833  1.00  0.00     0.022 A 
BRANCH  56  60
ATOM     60  S   UNL A   1      40.058  36.074  37.128  1.00  0.00     0.124 S 
ATOM     61  O   UNL A   1      39.281  36.639  38.229  1.00  0.00    -0.237 OA
ATOM     62  O   UNL A   1      41.415  35.654  37.455  1.00  0.00    -0.237 OA
ATOM     63  O   UNL A   1      39.908  36.766  35.849  1.00  0.00    -0.744 OA
ENDBRANCH  56  60
ENDBRANCH  39  53
BRANCH  40  64
ATOM     64  C   UNL A   1      41.493  26.904  27.550  1.00  0.00     0.023 A 
ATOM     65  C   UNL A   1      41.252  25.521  27.515  1.00  0.00     0.031 A 
ATOM     66  C   UNL A   1      42.176  27.479  26.463  1.00  0.00     0.131 A 
ATOM     67  C   UNL A   1      41.750  24.749  26.454  1.00  0.00     0.055 A 
ATOM     68  C   UNL A   1      42.610  26.716  25.377  1.00  0.00     0.041 A 
ATOM     69  F   UNL A   1      42.433  28.797  26.441  1.00  0.00    -0.206 F 
ATOM     70  C   UNL A   1      42.414  25.339  25.377  1.00  0.00     0.022 A 
BRANCH  67  71
ATOM     71  S   UNL A   1      41.624  22.942  26.564  1.00  0.00     0.124 S 
ATOM     72  O   UNL A   1      40.179  22.751  26.624  1.00  0.00    -0.237 OA
ATOM     73  O   UNL A   1      42.278  22.518  25.331  1.00  0.00    -0.237 OA
ATOM     74  O   UNL A   1      42.348  22.626  27.793  1.00  0.00    -0.744 OA
ENDBRANCH  67  71
ENDBRANCH  40  64
BRANCH  52  75
ATOM     75  C   UNL A   1      44.243  27.627  33.916  1.00  0.00     0.023 A 
ATOM     76  C   UNL A   1      44.082  26.451  34.668  1.00  0.00     0.031 A 
ATOM     77  C   UNL A   1      45.535  28.173  33.810  1.00  0.00     0.131 A 
ATOM     78  C   UNL A   1      45.182  25.892  35.333  1.00  0.00     0.055 A 
ATOM     79  C   UNL A   1      46.638  27.575  34.418  1.00  0.00     0.041 A 
ATOM     80  F   UNL A   1      45.746  29.297  33.105  1.00  0.00    -0.206 F 
ATOM     81  C   UNL A   1      46.463  26.435  35.197  1.00  0.00     0.022 A 
BRANCH  78  82
ATOM     82  S   UNL A   1      44.904  24.497  36.458  1.00  0.00     0.124 S 
ATOM     83  O   UNL A   1      43.745  24.949  37.220  1.00  0.00    -0.237 OA
ATOM     84  O   UNL A   1      44.666  23.393  35.533  1.00  0.00    -0.237 OA
ATOM     85  O   UNL A   1      46.151  24.412  37.215  1.00  0.00    -0.744 OA
ENDBRANCH  78  82
ENDBRANCH  52  75
ENDBRANCH  26  27
ENDBRANCH  18  21
ENDBRANCH  16  17
ENDBRANCH   1  16
TORSDOF 16
ENDMDL
MODEL 3
REMARK VINA RESULT:     -10.0      6.224      9.580
REMARK SMILES CC(C)[C@@H](C[NH+](C)C)C(=O)NCCCNC(=O)c1ccc(-c2c3nc(c(-c4cc(S(=O)(=O)[O-])ccc4F)c4ccc([nH]4)c(-c4cc(S(=O)(=O)[O-])ccc4F)c4nc(c(-c5cc(S(=O)(=O)[O-])ccc5F)c5ccc2[nH]5)C=C4)C=C3)cc1
REMARK SMILES IDX 13 1 12 2 11 3 9 4 10 5 4 7 2 8 1 9 3 10 5 11 6 12 7 13 8 14
REMARK SMILES IDX 14 16 15 17 16 18 17 20 18 21 19 22 80 23 20 24 79 25 21 26
REMARK SMILES IDX 22 27 23 28 73 29 24 30 78 31 72 32 74 33 25 34 77 35 71 36
REMARK SMILES IDX 70 37 26 39 58 40 38 41 57 42 39 43 42 44 56 45 75 46 40 47
REMARK SMILES IDX 41 48 55 50 76 51 43 52 27 53 28 54 36 55 29 56 35 57 37 58
REMARK SMILES IDX 34 59 30 60 31 61 32 62 33 63 59 64 60 65 68 66 61 67 67 68
REMARK SMILES IDX 69 69 66 70 62 71 63 72 64 73 65 74 44 75 45 76 53 77 46 78
REMARK SMILES IDX 52 79 54 80 51 81 47 82 48 83 49 84 50 85
REMARK H PARENT 11 6 6 15 15 19 74 38 42 49
REMARK Flexibility Score: inf
ROOT
ATOM      1  C   UNL A   1      37.162  19.910  24.977  1.00  0.00     0.042 C 
ENDROOT
BRANCH   1   2
ATOM      2  C   UNL A   1      35.910  20.757  24.977  1.00  0.00     0.117 C 
BRANCH   2   3
ATOM      3  N   UNL A   1      34.679  20.019  25.146  1.00  0.00    -0.356 N 
ATOM      4  C   UNL A   1      33.406  20.468  24.972  1.00  0.00     0.229 C 
ATOM      5  O   UNL A   1      32.499  19.628  24.971  1.00  0.00    -0.275 OA
ATOM      6  H   UNL A   1      34.773  19.079  25.421  1.00  0.00     0.163 HD
BRANCH   4   7
ATOM      7  C   UNL A   1      33.070  21.963  24.836  1.00  0.00     0.136 C 
BRANCH   7   8
ATOM      8  C   UNL A   1      33.525  22.801  26.061  1.00  0.00     0.001 C 
ATOM      9  C   UNL A   1      34.259  24.078  25.636  1.00  0.00     0.008 C 
ATOM     10  C   UNL A   1      32.332  23.216  26.943  1.00  0.00     0.008 C 
ENDBRANCH   7   8
BRANCH   7  11
ATOM     11  C   UNL A   1      33.318  22.511  23.393  1.00  0.00     0.275 C 
BRANCH  11  12
ATOM     12  N   UNL A   1      32.281  23.286  22.684  1.00  0.00    -0.339 N 
ATOM     13  C   UNL A   1      31.045  23.382  23.462  1.00  0.00     0.332 C 
ATOM     14  C   UNL A   1      32.692  24.629  22.273  1.00  0.00     0.332 C 
ATOM     15  H   UNL A   1      32.119  22.752  21.831  1.00  0.00     0.347 HD
ENDBRANCH  11  12
ENDBRANCH   7  11
ENDBRANCH   4   7
ENDBRANCH   2   3
ENDBRANCH   1   2
BRANCH   1  16
ATOM     16  C   UNL A   1      38.418  20.686  25.308  1.00  0.00     0.118 C 
BRANCH  16  17
ATOM     17  N   UNL A   1      39.440  19.862  25.947  1.00  0.00    -0.352 N 
ATOM     18  C   UNL A   1      40.576  20.217  26.635  1.00  0.00     0.251 C 
ATOM     19  H   UNL A   1      39.290  18.892  25.874  1.00  0.00     0.163 HD
ATOM     20  O   UNL A   1      41.401  19.351  26.923  1.00  0.00    -0.269 OA
BRANCH  18  21
ATOM     21  C   UNL A   1      40.822  21.630  26.993  1.00  0.00     0.039 A 
ATOM     22  C   UNL A   1      41.573  21.930  28.133  1.00  0.00     0.014 A 
ATOM     23  C   UNL A   1      40.323  22.663  26.200  1.00  0.00     0.014 A 
ATOM     24  C   UNL A   1      41.896  23.261  28.417  1.00  0.00     0.010 A 
ATOM     25  C   UNL A   1      40.755  23.965  26.406  1.00  0.00     0.010 A 
ATOM     26  C   UNL A   1      41.534  24.284  27.527  1.00  0.00    -0.014 A 
BRANCH  26  27
ATOM     27  C   UNL A   1      41.912  25.703  27.759  1.00  0.00     0.031 A 
ATOM     28  C   UNL A   1      43.252  26.199  27.280  1.00  0.00     0.074 A 
ATOM     29  C   UNL A   1      41.093  26.516  28.455  1.00  0.00     0.049 A 
ATOM     30  N   UNL A   1      43.830  27.355  27.485  1.00  0.00    -0.248 NA
ATOM     31  C   UNL A   1      44.067  25.253  26.501  1.00  0.00     0.031 C 
ATOM     32  C   UNL A   1      39.786  26.139  29.000  1.00  0.00     0.029 A 
ATOM     33  N   UNL A   1      41.239  27.827  28.831  1.00  0.00    -0.354 N 
ATOM     34  C   UNL A   1      45.075  27.268  26.871  1.00  0.00     0.074 A 
ATOM     35  C   UNL A   1      45.202  25.920  26.366  1.00  0.00     0.031 C 
ATOM     36  C   UNL A   1      39.236  27.204  29.603  1.00  0.00     0.029 A 
ATOM     37  C   UNL A   1      40.170  28.323  29.543  1.00  0.00     0.049 A 
ATOM     38  H   UNL A   1      42.034  28.364  28.611  1.00  0.00     0.167 HD
ATOM     39  C   UNL A   1      46.011  28.234  26.708  1.00  0.00     0.034 A 
ATOM     40  C   UNL A   1      39.975  29.537  30.094  1.00  0.00     0.034 A 
ATOM     41  C   UNL A   1      45.862  29.579  27.203  1.00  0.00     0.049 A 
ATOM     42  C   UNL A   1      41.056  30.582  29.944  1.00  0.00     0.074 A 
ATOM     43  C   UNL A   1      46.730  30.648  27.073  1.00  0.00     0.029 A 
ATOM     44  N   UNL A   1      44.768  30.042  27.924  1.00  0.00    -0.354 N 
ATOM     45  N   UNL A   1      42.215  30.492  29.332  1.00  0.00    -0.248 NA
ATOM     46  C   UNL A   1      40.797  31.894  30.552  1.00  0.00     0.031 C 
ATOM     47  C   UNL A   1      46.194  31.735  27.770  1.00  0.00     0.029 A 
ATOM     48  C   UNL A   1      44.952  31.372  28.265  1.00  0.00     0.049 A 
ATOM     49  H   UNL A   1      43.978  29.504  28.158  1.00  0.00     0.167 HD
ATOM     50  C   UNL A   1      42.800  31.752  29.443  1.00  0.00     0.074 A 
ATOM     51  C   UNL A   1      41.862  32.582  30.170  1.00  0.00     0.031 C 
ATOM     52  C   UNL A   1      44.001  32.186  28.985  1.00  0.00     0.034 A 
BRANCH  39  53
ATOM     53  C   UNL A   1      47.275  27.858  25.972  1.00  0.00     0.023 A 
ATOM     54  C   UNL A   1      47.394  28.032  24.581  1.00  0.00     0.031 A 
ATOM     55  C   UNL A   1      48.365  27.294  26.658  1.00  0.00     0.131 A 
ATOM     56  C   UNL A   1      48.536  27.573  23.911  1.00  0.00     0.055 A 
ATOM     57  C   UNL A   1      49.537  26.920  25.997  1.00  0.00     0.041 A 
ATOM     58  F   UNL A   1      48.304  27.080  27.981  1.00  0.00    -0.206 F 
ATOM     59  C   UNL A   1      49.623  27.044  24.612  1.00  0.00     0.022 A 
BRANCH  56  60
ATOM     60  S   UNL A   1      48.519  27.538  22.098  1.00  0.00     0.124 S 
ATOM     61  O   UNL A   1      49.654  28.401  21.777  1.00  0.00    -0.237 OA
ATOM     62  O   UNL A   1      48.693  26.120  21.806  1.00  0.00    -0.237 OA
ATOM     63  O   UNL A   1      47.210  28.091  21.757  1.00  0.00    -0.744 OA
ENDBRANCH  56  60
ENDBRANCH  39  53
BRANCH  40  64
ATOM     64  C   UNL A   1      38.720  29.848  30.841  1.00  0.00     0.023 A 
ATOM     65  C   UNL A   1      37.718  30.643  30.261  1.00  0.00     0.031 A 
ATOM     66  C   UNL A   1      38.533  29.421  32.168  1.00  0.00     0.131 A 
ATOM     67  C   UNL A   1      36.611  31.042  31.024  1.00  0.00     0.055 A 
ATOM     68  C   UNL A   1      37.396  29.766  32.901  1.00  0.00     0.041 A 
ATOM     69  F   UNL A   1      39.457  28.658  32.774  1.00  0.00    -0.206 F 
ATOM     70  C   UNL A   1      36.435  30.597  32.336  1.00  0.00     0.022 A 
BRANCH  67  71
ATOM     71  S   UNL A   1      35.464  32.257  30.315  1.00  0.00     0.124 S 
ATOM     72  O   UNL A   1      36.333  33.414  30.139  1.00  0.00    -0.237 OA
ATOM     73  O   UNL A   1      35.031  31.587  29.094  1.00  0.00    -0.237 OA
ATOM     74  O   UNL A   1      34.437  32.397  31.346  1.00  0.00    -0.744 OA
ENDBRANCH  67  71
ENDBRANCH  40  64
BRANCH  52  75
ATOM     75  C   UNL A   1      44.334  33.642  29.199  1.00  0.00     0.023 A 
ATOM     76  C   UNL A   1      43.838  34.650  28.354  1.00  0.00     0.031 A 
ATOM     77  C   UNL A   1      45.165  34.024  30.267  1.00  0.00     0.131 A 
ATOM     78  C   UNL A   1      44.225  35.983  28.556  1.00  0.00     0.055 A 
ATOM     79  C   UNL A   1      45.493  35.359  30.504  1.00  0.00     0.041 A 
ATOM     80  F   UNL A   1      45.669  33.102  31.105  1.00  0.00    -0.206 F 
ATOM     81  C   UNL A   1      45.033  36.346  29.637  1.00  0.00     0.022 A 
BRANCH  78  82
ATOM     82  S   UNL A   1      43.735  37.227  27.332  1.00  0.00     0.124 S 
ATOM     83  O   UNL A   1      43.145  38.264  28.172  1.00  0.00    -0.237 OA
ATOM     84  O   UNL A   1      45.008  37.565  26.704  1.00  0.00    -0.237 OA
ATOM     85  O   UNL A   1      42.793  36.512  26.473  1.00  0.00    -0.744 OA
ENDBRANCH  78  82
ENDBRANCH  52  75
ENDBRANCH  26  27
ENDBRANCH  18  21
ENDBRANCH  16  17
ENDBRANCH   1  16
TORSDOF 16
ENDMDL
