MODEL 1
REMARK VINA RESULT:     -12.5      0.000      0.000
REMARK SMILES CC[NH+]1CCC2(CC1)OC[C@H](C(=O)NCCCNC(=O)c1ccc(-c3c4nc(c(-c5cc(S(=O)(=O)[O-])ccc5F)c5ccc([nH]5)c(-c5cc(S(=O)(=O)[O-])ccc5F)c5nc(c(-c6cc(S(=O)(=O)[O-])ccc6F)c6ccc3[nH]6)C=C5)C=C4)cc1)N2C(=O)c1ccccc1
REMARK SMILES IDX 16 1 15 2 14 3 12 4 13 5 11 7 3 8 4 9 8 10 5 12 7 13 6 14
REMARK SMILES IDX 9 15 84 16 10 17 2 18 1 19 85 20 86 21 87 22 88 23 92 24
REMARK SMILES IDX 89 25 91 26 90 27 17 28 18 29 19 30 20 32 21 33 22 34 83 35
REMARK SMILES IDX 23 36 82 37 24 38 25 39 26 40 76 41 27 42 81 43 75 44 77 45
REMARK SMILES IDX 28 46 80 47 74 48 73 49 29 51 61 52 41 53 60 54 42 55 45 56
REMARK SMILES IDX 59 57 78 58 43 59 44 60 58 62 79 63 46 64 30 65 31 66 39 67
REMARK SMILES IDX 32 68 38 69 40 70 37 71 33 72 34 73 35 74 36 75 62 76 63 77
REMARK SMILES IDX 71 78 64 79 70 80 72 81 69 82 65 83 66 84 67 85 68 86 47 87
REMARK SMILES IDX 48 88 56 89 49 90 55 91 57 92 54 93 50 94 51 95 52 96 53 97
REMARK H PARENT 14 6 3 11 18 31 77 50 45 61
REMARK Flexibility Score: inf
ROOT
ATOM      1  C   UNL A   1      31.633  31.836  26.548  1.00  0.00     0.042 C 
ENDROOT
BRANCH   1   2
ATOM      2  C   UNL A   1      31.736  30.332  26.321  1.00  0.00     0.117 C 
BRANCH   2   3
ATOM      3  N   UNL A   1      32.279  30.021  25.013  1.00  0.00    -0.354 N 
ATOM      4  C   UNL A   1      32.077  28.939  24.211  1.00  0.00     0.245 C 
ATOM      5  O   UNL A   1      32.829  28.831  23.238  1.00  0.00    -0.273 OA
ATOM      6  H   UNL A   1      32.890  30.701  24.646  1.00  0.00     0.163 HD
BRANCH   4   7
ATOM      7  C   UNL A   1      30.910  27.969  24.476  1.00  0.00     0.203 C 
ATOM      8  N   UNL A   1      32.472  23.196  22.992  1.00  0.00    -0.335 N 
ATOM      9  C   UNL A   1      33.279  24.410  22.964  1.00  0.00     0.267 C 
ATOM     10  C   UNL A   1      31.121  23.337  23.528  1.00  0.00     0.267 C 
ATOM     11  H   UNL A   1      32.934  22.637  23.709  1.00  0.00     0.348 HD
ATOM     12  C   UNL A   1      32.546  25.666  22.559  1.00  0.00     0.120 C 
ATOM     13  C   UNL A   1      30.380  24.636  23.250  1.00  0.00     0.120 C 
ATOM     14  C   UNL A   1      31.238  25.897  23.322  1.00  0.00     0.155 C 
ATOM     15  O   UNL A   1      30.517  26.851  22.464  1.00  0.00    -0.352 OA
ATOM     16  N   UNL A   1      31.330  26.586  24.632  1.00  0.00    -0.295 N 
ATOM     17  C   UNL A   1      30.019  27.923  23.267  1.00  0.00     0.198 C 
BRANCH   8  18
ATOM     18  C   UNL A   1      32.563  22.387  21.782  1.00  0.00     0.258 C 
ATOM     19  C   UNL A   1      31.939  21.011  22.009  1.00  0.00     0.071 C 
ENDBRANCH   8  18
BRANCH  16  20
ATOM     20  C   UNL A   1      31.665  26.229  25.933  1.00  0.00     0.256 C 
ATOM     21  O   UNL A   1      31.243  26.860  26.905  1.00  0.00    -0.269 OA
BRANCH  20  22
ATOM     22  C   UNL A   1      32.452  25.043  26.273  1.00  0.00     0.040 A 
ATOM     23  C   UNL A   1      31.843  23.985  26.960  1.00  0.00     0.014 A 
ATOM     24  C   UNL A   1      33.832  25.034  26.066  1.00  0.00     0.014 A 
ATOM     25  C   UNL A   1      32.592  22.851  27.290  1.00  0.00     0.001 A 
ATOM     26  C   UNL A   1      34.571  23.887  26.363  1.00  0.00     0.001 A 
ATOM     27  C   UNL A   1      33.946  22.789  26.955  1.00  0.00     0.000 A 
ENDBRANCH  20  22
ENDBRANCH  16  20
ENDBRANCH   4   7
ENDBRANCH   2   3
ENDBRANCH   1   2
BRANCH   1  28
ATOM     28  C   UNL A   1      32.856  32.449  27.225  1.00  0.00     0.118 C 
BRANCH  28  29
ATOM     29  N   UNL A   1      32.644  33.838  27.612  1.00  0.00    -0.352 N 
ATOM     30  C   UNL A   1      33.201  34.570  28.631  1.00  0.00     0.251 C 
ATOM     31  H   UNL A   1      31.998  34.329  27.054  1.00  0.00     0.163 HD
ATOM     32  O   UNL A   1      32.715  35.659  28.917  1.00  0.00    -0.269 OA
BRANCH  30  33
ATOM     33  C   UNL A   1      34.359  34.046  29.388  1.00  0.00     0.039 A 
ATOM     34  C   UNL A   1      34.125  33.214  30.486  1.00  0.00     0.014 A 
ATOM     35  C   UNL A   1      35.668  34.391  29.041  1.00  0.00     0.014 A 
ATOM     36  C   UNL A   1      35.205  32.681  31.194  1.00  0.00     0.010 A 
ATOM     37  C   UNL A   1      36.742  33.791  29.693  1.00  0.00     0.010 A 
ATOM     38  C   UNL A   1      36.524  32.933  30.781  1.00  0.00    -0.014 A 
BRANCH  38  39
ATOM     39  C   UNL A   1      37.681  32.315  31.483  1.00  0.00     0.031 A 
ATOM     40  C   UNL A   1      38.440  31.184  30.841  1.00  0.00     0.074 A 
ATOM     41  C   UNL A   1      38.015  32.739  32.718  1.00  0.00     0.049 A 
ATOM     42  N   UNL A   1      39.436  30.480  31.316  1.00  0.00    -0.248 NA
ATOM     43  C   UNL A   1      38.001  30.770  29.499  1.00  0.00     0.031 C 
ATOM     44  C   UNL A   1      37.330  33.800  33.460  1.00  0.00     0.029 A 
ATOM     45  N   UNL A   1      39.010  32.331  33.570  1.00  0.00    -0.354 N 
ATOM     46  C   UNL A   1      39.735  29.537  30.339  1.00  0.00     0.074 A 
ATOM     47  C   UNL A   1      38.771  29.717  29.274  1.00  0.00     0.031 C 
ATOM     48  C   UNL A   1      37.944  33.979  34.640  1.00  0.00     0.029 A 
ATOM     49  C   UNL A   1      39.030  33.014  34.766  1.00  0.00     0.049 A 
ATOM     50  H   UNL A   1      39.650  31.616  33.348  1.00  0.00     0.167 HD
ATOM     51  C   UNL A   1      40.736  28.620  30.320  1.00  0.00     0.034 A 
ATOM     52  C   UNL A   1      39.825  32.870  35.845  1.00  0.00     0.034 A 
ATOM     53  C   UNL A   1      41.693  28.460  31.388  1.00  0.00     0.049 A 
ATOM     54  C   UNL A   1      40.910  31.824  35.814  1.00  0.00     0.074 A 
ATOM     55  C   UNL A   1      42.776  27.599  31.452  1.00  0.00     0.029 A 
ATOM     56  N   UNL A   1      41.678  29.164  32.586  1.00  0.00    -0.354 N 
ATOM     57  N   UNL A   1      41.213  30.974  34.860  1.00  0.00    -0.248 NA
ATOM     58  C   UNL A   1      41.769  31.727  37.000  1.00  0.00     0.031 C 
ATOM     59  C   UNL A   1      43.366  27.727  32.715  1.00  0.00     0.029 A 
ATOM     60  C   UNL A   1      42.711  28.733  33.407  1.00  0.00     0.049 A 
ATOM     61  H   UNL A   1      41.030  29.867  32.819  1.00  0.00     0.167 HD
ATOM     62  C   UNL A   1      42.321  30.266  35.320  1.00  0.00     0.074 A 
ATOM     63  C   UNL A   1      42.640  30.802  36.627  1.00  0.00     0.031 C 
ATOM     64  C   UNL A   1      43.014  29.267  34.715  1.00  0.00     0.034 A 
BRANCH  51  65
ATOM     65  C   UNL A   1      40.824  27.708  29.118  1.00  0.00     0.023 A 
ATOM     66  C   UNL A   1      41.763  27.921  28.093  1.00  0.00     0.031 A 
ATOM     67  C   UNL A   1      39.943  26.620  28.983  1.00  0.00     0.131 A 
ATOM     68  C   UNL A   1      41.748  27.111  26.948  1.00  0.00     0.055 A 
ATOM     69  C   UNL A   1      39.990  25.765  27.881  1.00  0.00     0.041 A 
ATOM     70  F   UNL A   1      39.009  26.377  29.916  1.00  0.00    -0.206 F 
ATOM     71  C   UNL A   1      40.886  26.017  26.846  1.00  0.00     0.022 A 
BRANCH  68  72
ATOM     72  S   UNL A   1      42.764  27.601  25.526  1.00  0.00     0.124 S 
ATOM     73  O   UNL A   1      42.712  26.399  24.698  1.00  0.00    -0.237 OA
ATOM     74  O   UNL A   1      42.047  28.763  25.012  1.00  0.00    -0.237 OA
ATOM     75  O   UNL A   1      44.069  27.885  26.119  1.00  0.00    -0.744 OA
ENDBRANCH  68  72
ENDBRANCH  51  65
BRANCH  52  76
ATOM     76  C   UNL A   1      39.623  33.725  37.052  1.00  0.00     0.023 A 
ATOM     77  C   UNL A   1      38.955  33.233  38.184  1.00  0.00     0.031 A 
ATOM     78  C   UNL A   1      40.055  35.063  37.074  1.00  0.00     0.131 A 
ATOM     79  C   UNL A   1      38.690  34.086  39.267  1.00  0.00     0.055 A 
ATOM     80  C   UNL A   1      39.845  35.890  38.178  1.00  0.00     0.041 A 
ATOM     81  F   UNL A   1      40.701  35.585  36.018  1.00  0.00    -0.206 F 
ATOM     82  C   UNL A   1      39.145  35.407  39.279  1.00  0.00     0.022 A 
BRANCH  79  83
ATOM     83  S   UNL A   1      37.656  33.471  40.625  1.00  0.00     0.124 S 
ATOM     84  O   UNL A   1      36.527  32.898  39.902  1.00  0.00    -0.237 OA
ATOM     85  O   UNL A   1      38.549  32.522  41.281  1.00  0.00    -0.237 OA
ATOM     86  O   UNL A   1      37.357  34.676  41.396  1.00  0.00    -0.744 OA
ENDBRANCH  79  83
ENDBRANCH  52  76
BRANCH  64  87
ATOM     87  C   UNL A   1      44.222  28.729  35.446  1.00  0.00     0.023 A 
ATOM     88  C   UNL A   1      44.121  27.685  36.383  1.00  0.00     0.031 A 
ATOM     89  C   UNL A   1      45.494  29.283  35.213  1.00  0.00     0.131 A 
ATOM     90  C   UNL A   1      45.255  27.276  37.101  1.00  0.00     0.055 A 
ATOM     91  C   UNL A   1      46.631  28.823  35.877  1.00  0.00     0.041 A 
ATOM     92  F   UNL A   1      45.651  30.285  34.333  1.00  0.00    -0.206 F 
ATOM     93  C   UNL A   1      46.513  27.825  36.839  1.00  0.00     0.022 A 
BRANCH  90  94
ATOM     94  S   UNL A   1      45.047  26.095  38.462  1.00  0.00     0.124 S 
ATOM     95  O   UNL A   1      46.302  26.247  39.189  1.00  0.00    -0.237 OA
ATOM     96  O   UNL A   1      43.855  26.600  39.134  1.00  0.00    -0.237 OA
ATOM     97  O   UNL A   1      44.877  24.813  37.780  1.00  0.00    -0.744 OA
ENDBRANCH  90  94
ENDBRANCH  64  87
ENDBRANCH  38  39
ENDBRANCH  30  33
ENDBRANCH  28  29
ENDBRANCH   1  28
TORSDOF 16
ENDMDL
MODEL 2
REMARK VINA RESULT:     -12.5      5.519     10.529
REMARK SMILES CC[NH+]1CCC2(CC1)OC[C@H](C(=O)NCCCNC(=O)c1ccc(-c3c4nc(c(-c5cc(S(=O)(=O)[O-])ccc5F)c5ccc([nH]5)c(-c5cc(S(=O)(=O)[O-])ccc5F)c5nc(c(-c6cc(S(=O)(=O)[O-])ccc6F)c6ccc3[nH]6)C=C5)C=C4)cc1)N2C(=O)c1ccccc1
REMARK SMILES IDX 16 1 15 2 14 3 12 4 13 5 11 7 3 8 4 9 8 10 5 12 7 13 6 14
REMARK SMILES IDX 9 15 84 16 10 17 2 18 1 19 85 20 86 21 87 22 88 23 92 24
REMARK SMILES IDX 89 25 91 26 90 27 17 28 18 29 19 30 20 32 21 33 22 34 83 35
REMARK SMILES IDX 23 36 82 37 24 38 25 39 26 40 76 41 27 42 81 43 75 44 77 45
REMARK SMILES IDX 28 46 80 47 74 48 73 49 29 51 61 52 41 53 60 54 42 55 45 56
REMARK SMILES IDX 59 57 78 58 43 59 44 60 58 62 79 63 46 64 30 65 31 66 39 67
REMARK SMILES IDX 32 68 38 69 40 70 37 71 33 72 34 73 35 74 36 75 62 76 63 77
REMARK SMILES IDX 71 78 64 79 70 80 72 81 69 82 65 83 66 84 67 85 68 86 47 87
REMARK SMILES IDX 48 88 56 89 49 90 55 91 57 92 54 93 50 94 51 95 52 96 53 97
REMARK H PARENT 14 6 3 11 18 31 77 50 45 61
REMARK Flexibility Score: inf
ROOT
ATOM      1  C   UNL A   1      34.767  21.849  26.791  1.00  0.00     0.042 C 
ENDROOT
BRANCH   1   2
ATOM      2  C   UNL A   1      33.570  21.109  26.204  1.00  0.00     0.117 C 
BRANCH   2   3
ATOM      3  N   UNL A   1      32.336  21.850  26.389  1.00  0.00    -0.354 N 
ATOM      4  C   UNL A   1      31.914  23.012  25.817  1.00  0.00     0.245 C 
ATOM      5  O   UNL A   1      30.910  23.531  26.313  1.00  0.00    -0.273 OA
ATOM      6  H   UNL A   1      31.704  21.449  27.028  1.00  0.00     0.163 HD
BRANCH   4   7
ATOM      7  C   UNL A   1      32.617  23.576  24.568  1.00  0.00     0.203 C 
ATOM      8  N   UNL A   1      30.290  28.114  23.377  1.00  0.00    -0.335 N 
ATOM      9  C   UNL A   1      29.977  27.263  24.518  1.00  0.00     0.267 C 
ATOM     10  C   UNL A   1      31.386  27.664  22.524  1.00  0.00     0.267 C 
ATOM     11  H   UNL A   1      30.684  28.945  23.818  1.00  0.00     0.348 HD
ATOM     12  C   UNL A   1      30.027  25.777  24.252  1.00  0.00     0.120 C 
ATOM     13  C   UNL A   1      31.555  26.166  22.318  1.00  0.00     0.120 C 
ATOM     14  C   UNL A   1      31.311  25.312  23.560  1.00  0.00     0.155 C 
ATOM     15  O   UNL A   1      30.934  24.001  23.007  1.00  0.00    -0.352 OA
ATOM     16  N   UNL A   1      32.478  25.016  24.425  1.00  0.00    -0.295 N 
ATOM     17  C   UNL A   1      31.941  23.044  23.336  1.00  0.00     0.198 C 
BRANCH   8  18
ATOM     18  C   UNL A   1      29.121  28.603  22.654  1.00  0.00     0.258 C 
ATOM     19  C   UNL A   1      29.430  29.936  21.974  1.00  0.00     0.071 C 
ENDBRANCH   8  18
BRANCH  16  20
ATOM     20  C   UNL A   1      33.463  25.755  25.072  1.00  0.00     0.256 C 
ATOM     21  O   UNL A   1      34.654  25.444  25.005  1.00  0.00    -0.269 OA
BRANCH  20  22
ATOM     22  C   UNL A   1      33.199  26.999  25.797  1.00  0.00     0.040 A 
ATOM     23  C   UNL A   1      32.301  26.993  26.873  1.00  0.00     0.014 A 
ATOM     24  C   UNL A   1      33.703  28.210  25.320  1.00  0.00     0.014 A 
ATOM     25  C   UNL A   1      32.043  28.179  27.567  1.00  0.00     0.001 A 
ATOM     26  C   UNL A   1      33.473  29.387  26.035  1.00  0.00     0.001 A 
ATOM     27  C   UNL A   1      32.661  29.366  27.170  1.00  0.00     0.000 A 
ENDBRANCH  20  22
ENDBRANCH  16  20
ENDBRANCH   4   7
ENDBRANCH   2   3
ENDBRANCH   1   2
BRANCH   1  28
ATOM     28  C   UNL A   1      35.864  22.161  25.777  1.00  0.00     0.118 C 
BRANCH  28  29
ATOM     29  N   UNL A   1      36.855  21.098  25.680  1.00  0.00    -0.352 N 
ATOM     30  C   UNL A   1      38.225  21.152  25.756  1.00  0.00     0.251 C 
ATOM     31  H   UNL A   1      36.483  20.197  25.538  1.00  0.00     0.163 HD
ATOM     32  O   UNL A   1      38.879  20.168  25.426  1.00  0.00    -0.269 OA
BRANCH  30  33
ATOM     33  C   UNL A   1      38.905  22.384  26.213  1.00  0.00     0.039 A 
ATOM     34  C   UNL A   1      40.028  22.266  27.036  1.00  0.00     0.014 A 
ATOM     35  C   UNL A   1      38.429  23.649  25.860  1.00  0.00     0.014 A 
ATOM     36  C   UNL A   1      40.707  23.415  27.450  1.00  0.00     0.010 A 
ATOM     37  C   UNL A   1      39.155  24.786  26.202  1.00  0.00     0.010 A 
ATOM     38  C   UNL A   1      40.299  24.684  27.007  1.00  0.00    -0.014 A 
BRANCH  38  39
ATOM     39  C   UNL A   1      41.054  25.909  27.383  1.00  0.00     0.031 A 
ATOM     40  C   UNL A   1      40.399  26.977  28.219  1.00  0.00     0.074 A 
ATOM     41  C   UNL A   1      42.312  26.082  26.930  1.00  0.00     0.049 A 
ATOM     42  N   UNL A   1      40.871  28.135  28.600  1.00  0.00    -0.248 NA
ATOM     43  C   UNL A   1      39.020  26.718  28.660  1.00  0.00     0.031 C 
ATOM     44  C   UNL A   1      43.039  25.136  26.079  1.00  0.00     0.029 A 
ATOM     45  N   UNL A   1      43.202  27.110  27.114  1.00  0.00    -0.354 N 
ATOM     46  C   UNL A   1      39.847  28.748  29.314  1.00  0.00     0.074 A 
ATOM     47  C   UNL A   1      38.707  27.858  29.255  1.00  0.00     0.031 C 
ATOM     48  C   UNL A   1      44.271  25.614  25.843  1.00  0.00     0.029 A 
ATOM     49  C   UNL A   1      44.407  26.921  26.477  1.00  0.00     0.049 A 
ATOM     50  H   UNL A   1      42.996  27.909  27.652  1.00  0.00     0.167 HD
ATOM     51  C   UNL A   1      39.863  29.932  29.978  1.00  0.00     0.034 A 
ATOM     52  C   UNL A   1      45.493  27.715  26.401  1.00  0.00     0.034 A 
ATOM     53  C   UNL A   1      41.012  30.803  30.032  1.00  0.00     0.049 A 
ATOM     54  C   UNL A   1      45.476  29.041  27.120  1.00  0.00     0.074 A 
ATOM     55  C   UNL A   1      41.154  31.999  30.715  1.00  0.00     0.029 A 
ATOM     56  N   UNL A   1      42.213  30.582  29.369  1.00  0.00    -0.354 N 
ATOM     57  N   UNL A   1      44.516  29.582  27.835  1.00  0.00    -0.248 NA
ATOM     58  C   UNL A   1      46.694  29.856  27.033  1.00  0.00     0.031 C 
ATOM     59  C   UNL A   1      42.407  32.537  30.403  1.00  0.00     0.029 A 
ATOM     60  C   UNL A   1      43.087  31.636  29.599  1.00  0.00     0.049 A 
ATOM     61  H   UNL A   1      42.415  29.793  28.816  1.00  0.00     0.167 HD
ATOM     62  C   UNL A   1      45.030  30.785  28.311  1.00  0.00     0.074 A 
ATOM     63  C   UNL A   1      46.388  30.879  27.816  1.00  0.00     0.031 C 
ATOM     64  C   UNL A   1      44.436  31.725  29.091  1.00  0.00     0.034 A 
BRANCH  51  65
ATOM     65  C   UNL A   1      38.590  30.359  30.672  1.00  0.00     0.023 A 
ATOM     66  C   UNL A   1      37.562  31.033  29.987  1.00  0.00     0.031 A 
ATOM     67  C   UNL A   1      38.407  30.108  32.044  1.00  0.00     0.131 A 
ATOM     68  C   UNL A   1      36.440  31.500  30.688  1.00  0.00     0.055 A 
ATOM     69  C   UNL A   1      37.248  30.499  32.717  1.00  0.00     0.041 A 
ATOM     70  F   UNL A   1      39.360  29.490  32.759  1.00  0.00    -0.206 F 
ATOM     71  C   UNL A   1      36.262  31.213  32.043  1.00  0.00     0.022 A 
BRANCH  68  72
ATOM     72  S   UNL A   1      35.291  32.618  29.838  1.00  0.00     0.124 S 
ATOM     73  O   UNL A   1      34.750  31.748  28.796  1.00  0.00    -0.237 OA
ATOM     74  O   UNL A   1      34.367  32.990  30.904  1.00  0.00    -0.237 OA
ATOM     75  O   UNL A   1      36.153  33.694  29.356  1.00  0.00    -0.744 OA
ENDBRANCH  68  72
ENDBRANCH  51  65
BRANCH  52  76
ATOM     76  C   UNL A   1      46.685  27.293  25.607  1.00  0.00     0.023 A 
ATOM     77  C   UNL A   1      46.909  27.794  24.315  1.00  0.00     0.031 A 
ATOM     78  C   UNL A   1      47.594  26.347  26.112  1.00  0.00     0.131 A 
ATOM     79  C   UNL A   1      47.982  27.306  23.551  1.00  0.00     0.055 A 
ATOM     80  C   UNL A   1      48.695  25.912  25.373  1.00  0.00     0.041 A 
ATOM     81  F   UNL A   1      47.429  25.836  27.344  1.00  0.00    -0.206 F 
ATOM     82  C   UNL A   1      48.886  26.381  24.077  1.00  0.00     0.022 A 
BRANCH  79  83
ATOM     83  S   UNL A   1      48.124  27.830  21.820  1.00  0.00     0.124 S 
ATOM     84  O   UNL A   1      49.268  28.733  21.876  1.00  0.00    -0.237 OA
ATOM     85  O   UNL A   1      48.341  26.560  21.135  1.00  0.00    -0.237 OA
ATOM     86  O   UNL A   1      46.837  28.468  21.551  1.00  0.00    -0.744 OA
ENDBRANCH  79  83
ENDBRANCH  52  76
BRANCH  64  87
ATOM     87  C   UNL A   1      45.277  32.912  29.498  1.00  0.00     0.023 A 
ATOM     88  C   UNL A   1      45.300  34.101  28.747  1.00  0.00     0.031 A 
ATOM     89  C   UNL A   1      46.084  32.845  30.649  1.00  0.00     0.131 A 
ATOM     90  C   UNL A   1      46.162  35.145  29.116  1.00  0.00     0.055 A 
ATOM     91  C   UNL A   1      46.885  33.913  31.051  1.00  0.00     0.041 A 
ATOM     92  F   UNL A   1      46.107  31.734  31.403  1.00  0.00    -0.206 F 
ATOM     93  C   UNL A   1      46.940  35.067  30.274  1.00  0.00     0.022 A 
BRANCH  90  94
ATOM     94  S   UNL A   1      46.339  36.564  28.000  1.00  0.00     0.124 S 
ATOM     95  O   UNL A   1      47.555  37.195  28.503  1.00  0.00    -0.237 OA
ATOM     96  O   UNL A   1      46.447  35.924  26.694  1.00  0.00    -0.237 OA
ATOM     97  O   UNL A   1      45.111  37.326  28.216  1.00  0.00    -0.744 OA
ENDBRANCH  90  94
ENDBRANCH  64  87
ENDBRANCH  38  39
ENDBRANCH  30  33
ENDBRANCH  28  29
ENDBRANCH   1  28
TORSDOF 16
ENDMDL
MODEL 3
REMARK VINA RESULT:     -12.4      2.256      3.262
REMARK SMILES CC[NH+]1CCC2(CC1)OC[C@H](C(=O)NCCCNC(=O)c1ccc(-c3c4nc(c(-c5cc(S(=O)(=O)[O-])ccc5F)c5ccc([nH]5)c(-c5cc(S(=O)(=O)[O-])ccc5F)c5nc(c(-c6cc(S(=O)(=O)[O-])ccc6F)c6ccc3[nH]6)C=C5)C=C4)cc1)N2C(=O)c1ccccc1
REMARK SMILES IDX 16 1 15 2 14 3 12 4 13 5 11 7 3 8 4 9 8 10 5 12 7 13 6 14
REMARK SMILES IDX 9 15 84 16 10 17 2 18 1 19 85 20 86 21 87 22 88 23 92 24
REMARK SMILES IDX 89 25 91 26 90 27 17 28 18 29 19 30 20 32 21 33 22 34 83 35
REMARK SMILES IDX 23 36 82 37 24 38 25 39 26 40 76 41 27 42 81 43 75 44 77 45
REMARK SMILES IDX 28 46 80 47 74 48 73 49 29 51 61 52 41 53 60 54 42 55 45 56
REMARK SMILES IDX 59 57 78 58 43 59 44 60 58 62 79 63 46 64 30 65 31 66 39 67
REMARK SMILES IDX 32 68 38 69 40 70 37 71 33 72 34 73 35 74 36 75 62 76 63 77
REMARK SMILES IDX 71 78 64 79 70 80 72 81 69 82 65 83 66 84 67 85 68 86 47 87
REMARK SMILES IDX 48 88 56 89 49 90 55 91 57 92 54 93 50 94 51 95 52 96 53 97
REMARK H PARENT 14 6 3 11 18 31 77 50 45 61
REMARK Flexibility Score: inf
ROOT
ATOM      1  C   UNL A   1      32.314  28.953  23.916  1.00  0.00     0.042 C 
ENDROOT
BRANCH   1   2
ATOM      2  C   UNL A   1      30.915  28.377  24.103  1.00  0.00     0.117 C 
BRANCH   2   3
ATOM      3  N   UNL A   1      30.765  27.101  23.428  1.00  0.00    -0.354 N 
ATOM      4  C   UNL A   1      31.179  25.857  23.797  1.00  0.00     0.245 C 
ATOM      5  O   UNL A   1      31.104  24.978  22.935  1.00  0.00    -0.273 OA
ATOM      6  H   UNL A   1      30.288  27.141  22.567  1.00  0.00     0.163 HD
BRANCH   4   7
ATOM      7  C   UNL A   1      31.627  25.573  25.244  1.00  0.00     0.203 C 
ATOM      8  N   UNL A   1      33.461  20.669  25.380  1.00  0.00    -0.335 N 
ATOM      9  C   UNL A   1      32.977  21.371  24.197  1.00  0.00     0.267 C 
ATOM     10  C   UNL A   1      33.467  21.436  26.623  1.00  0.00     0.267 C 
ATOM     11  H   UNL A   1      34.456  20.561  25.185  1.00  0.00     0.348 HD
ATOM     12  C   UNL A   1      31.778  22.263  24.419  1.00  0.00     0.120 C 
ATOM     13  C   UNL A   1      32.345  22.438  26.843  1.00  0.00     0.120 C 
ATOM     14  C   UNL A   1      31.928  23.224  25.602  1.00  0.00     0.155 C 
ATOM     15  O   UNL A   1      30.538  23.612  25.892  1.00  0.00    -0.352 OA
ATOM     16  N   UNL A   1      32.616  24.512  25.346  1.00  0.00    -0.295 N 
ATOM     17  C   UNL A   1      30.463  25.032  26.025  1.00  0.00     0.198 C 
BRANCH   8  18
ATOM     18  C   UNL A   1      32.964  19.304  25.512  1.00  0.00     0.258 C 
ATOM     19  C   UNL A   1      32.702  18.693  24.136  1.00  0.00     0.071 C 
ENDBRANCH   8  18
BRANCH  16  20
ATOM     20  C   UNL A   1      33.933  24.942  25.231  1.00  0.00     0.256 C 
ATOM     21  O   UNL A   1      34.259  26.104  25.485  1.00  0.00    -0.269 OA
BRANCH  20  22
ATOM     22  C   UNL A   1      35.050  24.055  24.898  1.00  0.00     0.040 A 
ATOM     23  C   UNL A   1      35.978  23.714  25.891  1.00  0.00     0.014 A 
ATOM     24  C   UNL A   1      35.286  23.692  23.572  1.00  0.00     0.014 A 
ATOM     25  C   UNL A   1      37.048  22.870  25.577  1.00  0.00     0.001 A 
ATOM     26  C   UNL A   1      36.334  22.820  23.267  1.00  0.00     0.001 A 
ATOM     27  C   UNL A   1      37.201  22.394  24.274  1.00  0.00     0.000 A 
ENDBRANCH  20  22
ENDBRANCH  16  20
ENDBRANCH   4   7
ENDBRANCH   2   3
ENDBRANCH   1   2
BRANCH   1  28
ATOM     28  C   UNL A   1      33.007  29.340  25.221  1.00  0.00     0.118 C 
BRANCH  28  29
ATOM     29  N   UNL A   1      32.520  30.603  25.759  1.00  0.00    -0.352 N 
ATOM     30  C   UNL A   1      32.944  31.326  26.846  1.00  0.00     0.251 C 
ATOM     31  H   UNL A   1      31.767  31.001  25.265  1.00  0.00     0.163 HD
ATOM     32  O   UNL A   1      32.250  32.252  27.255  1.00  0.00    -0.269 OA
BRANCH  30  33
ATOM     33  C   UNL A   1      34.212  30.986  27.529  1.00  0.00     0.039 A 
ATOM     34  C   UNL A   1      35.154  31.996  27.741  1.00  0.00     0.014 A 
ATOM     35  C   UNL A   1      34.489  29.677  27.933  1.00  0.00     0.014 A 
ATOM     36  C   UNL A   1      36.343  31.704  28.415  1.00  0.00     0.010 A 
ATOM     37  C   UNL A   1      35.634  29.407  28.678  1.00  0.00     0.010 A 
ATOM     38  C   UNL A   1      36.578  30.415  28.923  1.00  0.00    -0.014 A 
BRANCH  38  39
ATOM     39  C   UNL A   1      37.807  30.109  29.703  1.00  0.00     0.031 A 
ATOM     40  C   UNL A   1      38.853  29.185  29.137  1.00  0.00     0.074 A 
ATOM     41  C   UNL A   1      37.956  30.622  30.940  1.00  0.00     0.049 A 
ATOM     42  N   UNL A   1      39.959  28.753  29.685  1.00  0.00    -0.248 NA
ATOM     43  C   UNL A   1      38.606  28.655  27.787  1.00  0.00     0.031 C 
ATOM     44  C   UNL A   1      36.992  31.497  31.612  1.00  0.00     0.029 A 
ATOM     45  N   UNL A   1      38.968  30.483  31.856  1.00  0.00    -0.354 N 
ATOM     46  C   UNL A   1      40.535  27.894  28.755  1.00  0.00     0.074 A 
ATOM     47  C   UNL A   1      39.619  27.817  27.635  1.00  0.00     0.031 C 
ATOM     48  C   UNL A   1      37.474  31.840  32.817  1.00  0.00     0.029 A 
ATOM     49  C   UNL A   1      38.752  31.170  33.029  1.00  0.00     0.049 A 
ATOM     50  H   UNL A   1      39.773  29.940  31.690  1.00  0.00     0.167 HD
ATOM     51  C   UNL A   1      41.727  27.248  28.817  1.00  0.00     0.034 A 
ATOM     52  C   UNL A   1      39.494  31.242  34.152  1.00  0.00     0.034 A 
ATOM     53  C   UNL A   1      42.630  27.343  29.938  1.00  0.00     0.049 A 
ATOM     54  C   UNL A   1      40.800  30.490  34.211  1.00  0.00     0.074 A 
ATOM     55  C   UNL A   1      43.883  26.772  30.085  1.00  0.00     0.029 A 
ATOM     56  N   UNL A   1      42.376  28.043  31.111  1.00  0.00    -0.354 N 
ATOM     57  N   UNL A   1      41.355  29.723  33.301  1.00  0.00    -0.248 NA
ATOM     58  C   UNL A   1      41.585  30.626  35.443  1.00  0.00     0.031 C 
ATOM     59  C   UNL A   1      44.349  27.061  31.372  1.00  0.00     0.029 A 
ATOM     60  C   UNL A   1      43.432  27.889  31.998  1.00  0.00     0.049 A 
ATOM     61  H   UNL A   1      41.564  28.571  31.288  1.00  0.00     0.167 HD
ATOM     62  C   UNL A   1      42.571  29.314  33.840  1.00  0.00     0.074 A 
ATOM     63  C   UNL A   1      42.674  29.933  35.145  1.00  0.00     0.031 C 
ATOM     64  C   UNL A   1      43.519  28.504  33.303  1.00  0.00     0.034 A 
BRANCH  51  65
ATOM     65  C   UNL A   1      42.103  26.364  27.650  1.00  0.00     0.023 A 
ATOM     66  C   UNL A   1      41.782  24.994  27.624  1.00  0.00     0.031 A 
ATOM     67  C   UNL A   1      42.810  26.890  26.555  1.00  0.00     0.131 A 
ATOM     68  C   UNL A   1      42.234  24.187  26.570  1.00  0.00     0.055 A 
ATOM     69  C   UNL A   1      43.182  26.099  25.467  1.00  0.00     0.041 A 
ATOM     70  F   UNL A   1      43.166  28.185  26.529  1.00  0.00    -0.206 F 
ATOM     71  C   UNL A   1      42.908  24.735  25.476  1.00  0.00     0.022 A 
BRANCH  68  72
ATOM     72  S   UNL A   1      42.063  22.387  26.722  1.00  0.00     0.124 S 
ATOM     73  O   UNL A   1      40.741  22.166  26.139  1.00  0.00    -0.237 OA
ATOM     74  O   UNL A   1      43.194  21.896  25.943  1.00  0.00    -0.237 OA
ATOM     75  O   UNL A   1      42.147  22.154  28.162  1.00  0.00    -0.744 OA
ENDBRANCH  68  72
ENDBRANCH  51  65
BRANCH  52  76
ATOM     76  C   UNL A   1      39.021  32.042  35.321  1.00  0.00     0.023 A 
ATOM     77  C   UNL A   1      38.442  31.420  36.438  1.00  0.00     0.031 A 
ATOM     78  C   UNL A   1      39.099  33.446  35.317  1.00  0.00     0.131 A 
ATOM     79  C   UNL A   1      37.916  32.201  37.480  1.00  0.00     0.055 A 
ATOM     80  C   UNL A   1      38.630  34.215  36.383  1.00  0.00     0.041 A 
ATOM     81  F   UNL A   1      39.644  34.094  34.274  1.00  0.00    -0.206 F 
ATOM     82  C   UNL A   1      38.020  33.594  37.467  1.00  0.00     0.022 A 
BRANCH  79  83
ATOM     83  S   UNL A   1      37.004  31.372  38.811  1.00  0.00     0.124 S 
ATOM     84  O   UNL A   1      36.823  30.034  38.258  1.00  0.00    -0.237 OA
ATOM     85  O   UNL A   1      37.931  31.484  39.931  1.00  0.00    -0.237 OA
ATOM     86  O   UNL A   1      35.783  32.167  38.933  1.00  0.00    -0.744 OA
ENDBRANCH  79  83
ENDBRANCH  52  76
BRANCH  64  87
ATOM     87  C   UNL A   1      44.777  28.287  34.113  1.00  0.00     0.023 A 
ATOM     88  C   UNL A   1      44.902  27.223  35.024  1.00  0.00     0.031 A 
ATOM     89  C   UNL A   1      45.862  29.173  33.983  1.00  0.00     0.131 A 
ATOM     90  C   UNL A   1      46.054  27.111  35.817  1.00  0.00     0.055 A 
ATOM     91  C   UNL A   1      47.034  29.015  34.722  1.00  0.00     0.041 A 
ATOM     92  F   UNL A   1      45.799  30.210  33.133  1.00  0.00    -0.206 F 
ATOM     93  C   UNL A   1      47.129  27.989  35.657  1.00  0.00     0.022 A 
BRANCH  90  94
ATOM     94  S   UNL A   1      46.085  25.871  37.140  1.00  0.00     0.124 S 
ATOM     95  O   UNL A   1      47.443  26.012  37.655  1.00  0.00    -0.237 OA
ATOM     96  O   UNL A   1      45.018  26.329  38.023  1.00  0.00    -0.237 OA
ATOM     97  O   UNL A   1      45.814  24.617  36.441  1.00  0.00    -0.744 OA
ENDBRANCH  90  94
ENDBRANCH  64  87
ENDBRANCH  38  39
ENDBRANCH  30  33
ENDBRANCH  28  29
ENDBRANCH   1  28
TORSDOF 16
ENDMDL
