MODEL 1
REMARK VINA RESULT:     -13.6      0.000      0.000
REMARK SMILES Cc1cc(C)c2nc(NS(=O)(=O)c3cc(C(=O)NCCCNC(=O)c4ccc(-c5c6nc(c(-c7cc(S(=O)(=O)[O-])ccc7F)c7ccc([nH]7)c(-c7cc(S(=O)(=O)[O-])ccc7F)c7nc(c(-c8cc(S(=O)(=O)[O-])ccc8F)c8ccc5[nH]8)C=C7)C=C6)cc4)ccc3Cl)sc2c1
REMARK SMILES IDX 20 1 19 2 18 3 16 4 17 5 15 7 13 8 14 9 90 10 89 11 91 12
REMARK SMILES IDX 88 13 10 14 11 15 12 16 9 17 8 19 1 20 2 21 3 22 94 23 4 24
REMARK SMILES IDX 93 25 5 26 6 27 92 28 7 29 21 30 22 31 23 32 24 34 25 35
REMARK SMILES IDX 26 36 87 37 27 38 86 39 28 40 29 41 30 42 80 43 31 44 85 45
REMARK SMILES IDX 79 46 81 47 32 48 84 49 78 50 77 51 33 53 65 54 45 55 64 56
REMARK SMILES IDX 46 57 49 58 63 59 82 60 47 61 48 62 62 64 83 65 50 66 34 67
REMARK SMILES IDX 35 68 43 69 36 70 42 71 44 72 41 73 37 74 38 75 39 76 40 77
REMARK SMILES IDX 66 78 67 79 75 80 68 81 74 82 76 83 73 84 69 85 70 86 71 87
REMARK SMILES IDX 72 88 51 89 52 90 60 91 53 92 59 93 61 94 58 95 54 96 55 97
REMARK SMILES IDX 56 98 57 99
REMARK H PARENT 18 6 9 18 22 33 81 52 49 63
REMARK Flexibility Score: inf
ROOT
ATOM      1  C   UNL A   1      35.215  29.032  27.316  1.00  0.00     0.042 C 
ENDROOT
BRANCH   1   2
ATOM      2  C   UNL A   1      33.901  29.143  26.532  1.00  0.00     0.118 C 
BRANCH   2   3
ATOM      3  N   UNL A   1      32.743  28.951  27.384  1.00  0.00    -0.352 N 
ATOM      4  C   UNL A   1      31.696  28.070  27.359  1.00  0.00     0.251 C 
ATOM      5  O   UNL A   1      30.904  28.117  28.300  1.00  0.00    -0.269 OA
ATOM      6  H   UNL A   1      32.701  29.587  28.135  1.00  0.00     0.163 HD
BRANCH   4   7
ATOM      7  C   UNL A   1      31.453  27.066  26.278  1.00  0.00     0.041 A 
ATOM      8  C   UNL A   1      31.409  24.682  25.700  1.00  0.00     0.107 A 
ATOM      9  C   UNL A   1      31.758  25.726  26.582  1.00  0.00     0.037 A 
ATOM     10  C   UNL A   1      30.893  24.972  24.441  1.00  0.00     0.061 A 
ATOM     11  C   UNL A   1      30.600  26.301  24.127  1.00  0.00     0.023 A 
ATOM     12  Cl  UNL A   1      30.487  23.782  23.261  1.00  0.00    -0.083 Cl
ATOM     13  C   UNL A   1      30.830  27.326  25.056  1.00  0.00     0.015 A 
BRANCH   8  14
ATOM     14  S   UNL A   1      31.384  23.032  26.350  1.00  0.00     0.265 S 
ATOM     15  O   UNL A   1      29.991  22.583  26.373  1.00  0.00    -0.201 OA
ATOM     16  O   UNL A   1      32.149  23.045  27.569  1.00  0.00    -0.201 OA
BRANCH  14  17
ATOM     17  N   UNL A   1      32.179  22.041  25.273  1.00  0.00    -0.255 N 
ATOM     18  H   UNL A   1      31.648  21.361  24.798  1.00  0.00     0.182 HD
BRANCH  17  19
ATOM     19  C   UNL A   1      33.559  22.107  24.994  1.00  0.00     0.197 A 
ATOM     20  C   UNL A   1      39.537  22.397  26.271  1.00  0.00     0.044 C 
ATOM     21  C   UNL A   1      38.178  21.993  25.777  1.00  0.00    -0.049 A 
ATOM     22  C   UNL A   1      37.902  20.663  25.445  1.00  0.00     0.009 A 
ATOM     23  C   UNL A   1      37.194  22.972  25.591  1.00  0.00     0.024 A 
ATOM     24  C   UNL A   1      36.615  20.248  25.041  1.00  0.00    -0.024 A 
ATOM     25  C   UNL A   1      35.916  22.555  25.198  1.00  0.00     0.057 A 
ATOM     26  C   UNL A   1      36.373  18.823  24.638  1.00  0.00     0.047 C 
ATOM     27  C   UNL A   1      35.580  21.212  25.035  1.00  0.00     0.087 A 
ATOM     28  S   UNL A   1      34.537  23.489  24.782  1.00  0.00    -0.096 S 
ATOM     29  N   UNL A   1      34.212  20.971  24.930  1.00  0.00    -0.219 NA
ENDBRANCH  17  19
ENDBRANCH  14  17
ENDBRANCH   8  14
ENDBRANCH   4   7
ENDBRANCH   2   3
ENDBRANCH   1   2
BRANCH   1  30
ATOM     30  C   UNL A   1      35.661  30.376  27.876  1.00  0.00     0.118 C 
BRANCH  30  31
ATOM     31  N   UNL A   1      35.705  30.365  29.339  1.00  0.00    -0.352 N 
ATOM     32  C   UNL A   1      36.559  29.684  30.185  1.00  0.00     0.251 C 
ATOM     33  H   UNL A   1      35.027  30.923  29.785  1.00  0.00     0.163 HD
ATOM     34  O   UNL A   1      36.242  29.520  31.359  1.00  0.00    -0.269 OA
BRANCH  32  35
ATOM     35  C   UNL A   1      37.820  29.138  29.655  1.00  0.00     0.039 A 
ATOM     36  C   UNL A   1      38.453  29.725  28.558  1.00  0.00     0.014 A 
ATOM     37  C   UNL A   1      38.391  28.041  30.293  1.00  0.00     0.014 A 
ATOM     38  C   UNL A   1      39.710  29.260  28.175  1.00  0.00     0.010 A 
ATOM     39  C   UNL A   1      39.692  27.696  30.023  1.00  0.00     0.010 A 
ATOM     40  C   UNL A   1      40.343  28.263  28.933  1.00  0.00    -0.014 A 
BRANCH  40  41
ATOM     41  C   UNL A   1      41.719  27.864  28.646  1.00  0.00     0.031 A 
ATOM     42  C   UNL A   1      41.876  26.611  27.859  1.00  0.00     0.074 A 
ATOM     43  C   UNL A   1      42.793  28.644  28.888  1.00  0.00     0.049 A 
ATOM     44  N   UNL A   1      42.344  25.482  28.273  1.00  0.00    -0.248 NA
ATOM     45  C   UNL A   1      41.347  26.566  26.489  1.00  0.00     0.031 C 
ATOM     46  C   UNL A   1      42.831  30.017  29.405  1.00  0.00     0.029 A 
ATOM     47  N   UNL A   1      44.101  28.397  28.602  1.00  0.00    -0.354 N 
ATOM     48  C   UNL A   1      42.380  24.643  27.165  1.00  0.00     0.074 A 
ATOM     49  C   UNL A   1      41.593  25.298  26.153  1.00  0.00     0.031 C 
ATOM     50  C   UNL A   1      44.046  30.557  29.170  1.00  0.00     0.029 A 
ATOM     51  C   UNL A   1      44.921  29.517  28.663  1.00  0.00     0.049 A 
ATOM     52  H   UNL A   1      44.436  27.501  28.373  1.00  0.00     0.167 HD
ATOM     53  C   UNL A   1      43.233  23.579  27.111  1.00  0.00     0.034 A 
ATOM     54  C   UNL A   1      46.232  29.591  28.318  1.00  0.00     0.034 A 
ATOM     55  C   UNL A   1      43.775  23.279  28.418  1.00  0.00     0.049 A 
ATOM     56  C   UNL A   1      46.774  28.217  28.466  1.00  0.00     0.074 A 
ATOM     57  C   UNL A   1      43.222  22.958  29.644  1.00  0.00     0.029 A 
ATOM     58  N   UNL A   1      45.061  23.687  28.695  1.00  0.00    -0.354 N 
ATOM     59  N   UNL A   1      46.823  27.590  29.612  1.00  0.00    -0.248 NA
ATOM     60  C   UNL A   1      46.818  27.360  27.292  1.00  0.00     0.031 C 
ATOM     61  C   UNL A   1      43.999  23.685  30.595  1.00  0.00     0.029 A 
ATOM     62  C   UNL A   1      45.023  24.337  29.904  1.00  0.00     0.049 A 
ATOM     63  H   UNL A   1      45.857  23.541  28.133  1.00  0.00     0.167 HD
ATOM     64  C   UNL A   1      46.462  26.284  29.321  1.00  0.00     0.074 A 
ATOM     65  C   UNL A   1      46.580  26.177  27.867  1.00  0.00     0.031 C 
ATOM     66  C   UNL A   1      45.836  25.492  30.242  1.00  0.00     0.034 A 
BRANCH  53  67
ATOM     67  C   UNL A   1      43.840  23.005  25.852  1.00  0.00     0.023 A 
ATOM     68  C   UNL A   1      43.691  21.621  25.625  1.00  0.00     0.031 A 
ATOM     69  C   UNL A   1      44.773  23.665  25.022  1.00  0.00     0.131 A 
ATOM     70  C   UNL A   1      44.496  20.949  24.690  1.00  0.00     0.055 A 
ATOM     71  C   UNL A   1      45.523  23.004  24.045  1.00  0.00     0.041 A 
ATOM     72  F   UNL A   1      45.083  24.958  25.172  1.00  0.00    -0.206 F 
ATOM     73  C   UNL A   1      45.410  21.632  23.895  1.00  0.00     0.022 A 
BRANCH  70  74
ATOM     74  S   UNL A   1      44.445  19.138  24.650  1.00  0.00     0.124 S 
ATOM     75  O   UNL A   1      43.121  18.868  25.202  1.00  0.00    -0.237 OA
ATOM     76  O   UNL A   1      44.620  18.863  23.227  1.00  0.00    -0.237 OA
ATOM     77  O   UNL A   1      45.567  18.749  25.501  1.00  0.00    -0.744 OA
ENDBRANCH  70  74
ENDBRANCH  53  67
BRANCH  54  78
ATOM     78  C   UNL A   1      46.924  30.709  27.623  1.00  0.00     0.023 A 
ATOM     79  C   UNL A   1      46.216  31.750  26.989  1.00  0.00     0.031 A 
ATOM     80  C   UNL A   1      48.317  30.900  27.781  1.00  0.00     0.131 A 
ATOM     81  C   UNL A   1      46.892  32.915  26.556  1.00  0.00     0.055 A 
ATOM     82  C   UNL A   1      48.982  32.047  27.342  1.00  0.00     0.041 A 
ATOM     83  F   UNL A   1      49.072  30.015  28.451  1.00  0.00    -0.206 F 
ATOM     84  C   UNL A   1      48.268  33.068  26.737  1.00  0.00     0.022 A 
BRANCH  81  85
ATOM     85  S   UNL A   1      45.959  34.317  25.865  1.00  0.00     0.124 S 
ATOM     86  O   UNL A   1      45.295  34.855  27.047  1.00  0.00    -0.237 OA
ATOM     87  O   UNL A   1      47.011  35.142  25.281  1.00  0.00    -0.237 OA
ATOM     88  O   UNL A   1      45.069  33.684  24.890  1.00  0.00    -0.744 OA
ENDBRANCH  81  85
ENDBRANCH  54  78
BRANCH  66  89
ATOM     89  C   UNL A   1      45.783  25.952  31.685  1.00  0.00     0.023 A 
ATOM     90  C   UNL A   1      44.633  26.472  32.324  1.00  0.00     0.031 A 
ATOM     91  C   UNL A   1      46.910  25.691  32.484  1.00  0.00     0.131 A 
ATOM     92  C   UNL A   1      44.646  26.710  33.714  1.00  0.00     0.055 A 
ATOM     93  C   UNL A   1      46.912  25.910  33.861  1.00  0.00     0.041 A 
ATOM     94  F   UNL A   1      48.020  25.165  31.941  1.00  0.00    -0.206 F 
ATOM     95  C   UNL A   1      45.779  26.422  34.482  1.00  0.00     0.022 A 
BRANCH  92  96
ATOM     96  S   UNL A   1      43.169  27.371  34.557  1.00  0.00     0.124 S 
ATOM     97  O   UNL A   1      43.727  28.315  35.518  1.00  0.00    -0.237 OA
ATOM     98  O   UNL A   1      42.402  27.953  33.458  1.00  0.00    -0.237 OA
ATOM     99  O   UNL A   1      42.556  26.184  35.157  1.00  0.00    -0.744 OA
ENDBRANCH  92  96
ENDBRANCH  66  89
ENDBRANCH  40  41
ENDBRANCH  32  35
ENDBRANCH  30  31
ENDBRANCH   1  30
TORSDOF 16
ENDMDL
MODEL 2
REMARK VINA RESULT:     -13.3      9.450     16.676
REMARK SMILES Cc1cc(C)c2nc(NS(=O)(=O)c3cc(C(=O)NCCCNC(=O)c4ccc(-c5c6nc(c(-c7cc(S(=O)(=O)[O-])ccc7F)c7ccc([nH]7)c(-c7cc(S(=O)(=O)[O-])ccc7F)c7nc(c(-c8cc(S(=O)(=O)[O-])ccc8F)c8ccc5[nH]8)C=C7)C=C6)cc4)ccc3Cl)sc2c1
REMARK SMILES IDX 20 1 19 2 18 3 16 4 17 5 15 7 13 8 14 9 90 10 89 11 91 12
REMARK SMILES IDX 88 13 10 14 11 15 12 16 9 17 8 19 1 20 2 21 3 22 94 23 4 24
REMARK SMILES IDX 93 25 5 26 6 27 92 28 7 29 21 30 22 31 23 32 24 34 25 35
REMARK SMILES IDX 26 36 87 37 27 38 86 39 28 40 29 41 30 42 80 43 31 44 85 45
REMARK SMILES IDX 79 46 81 47 32 48 84 49 78 50 77 51 33 53 65 54 45 55 64 56
REMARK SMILES IDX 46 57 49 58 63 59 82 60 47 61 48 62 62 64 83 65 50 66 34 67
REMARK SMILES IDX 35 68 43 69 36 70 42 71 44 72 41 73 37 74 38 75 39 76 40 77
REMARK SMILES IDX 66 78 67 79 75 80 68 81 74 82 76 83 73 84 69 85 70 86 71 87
REMARK SMILES IDX 72 88 51 89 52 90 60 91 53 92 59 93 61 94 58 95 54 96 55 97
REMARK SMILES IDX 56 98 57 99
REMARK H PARENT 18 6 9 18 22 33 81 52 49 63
REMARK Flexibility Score: inf
ROOT
ATOM      1  C   UNL A   1      42.979  39.417  27.307  1.00  0.00     0.042 C 
ENDROOT
BRANCH   1   2
ATOM      2  C   UNL A   1      42.942  40.431  26.156  1.00  0.00     0.118 C 
BRANCH   2   3
ATOM      3  N   UNL A   1      43.512  41.709  26.539  1.00  0.00    -0.352 N 
ATOM      4  C   UNL A   1      44.454  42.524  25.972  1.00  0.00     0.251 C 
ATOM      5  O   UNL A   1      44.656  43.608  26.517  1.00  0.00    -0.269 OA
ATOM      6  H   UNL A   1      43.147  42.062  27.383  1.00  0.00     0.163 HD
BRANCH   4   7
ATOM      7  C   UNL A   1      45.244  42.189  24.747  1.00  0.00     0.041 A 
ATOM      8  C   UNL A   1      45.755  42.816  22.431  1.00  0.00     0.107 A 
ATOM      9  C   UNL A   1      44.956  42.932  23.588  1.00  0.00     0.037 A 
ATOM     10  C   UNL A   1      46.752  41.849  22.364  1.00  0.00     0.061 A 
ATOM     11  C   UNL A   1      47.034  41.097  23.506  1.00  0.00     0.023 A 
ATOM     12  Cl  UNL A   1      47.748  41.577  20.982  1.00  0.00    -0.083 Cl
ATOM     13  C   UNL A   1      46.322  41.303  24.696  1.00  0.00     0.015 A 
BRANCH   8  14
ATOM     14  S   UNL A   1      45.633  44.102  21.216  1.00  0.00     0.265 S 
ATOM     15  O   UNL A   1      46.985  44.603  20.960  1.00  0.00    -0.201 OA
ATOM     16  O   UNL A   1      44.609  45.011  21.662  1.00  0.00    -0.201 OA
BRANCH  14  17
ATOM     17  N   UNL A   1      45.107  43.419  19.792  1.00  0.00    -0.255 N 
ATOM     18  H   UNL A   1      45.157  42.438  19.708  1.00  0.00     0.182 HD
BRANCH  17  19
ATOM     19  C   UNL A   1      44.595  44.144  18.697  1.00  0.00     0.197 A 
ATOM     20  C   UNL A   1      41.239  48.406  15.864  1.00  0.00     0.044 C 
ATOM     21  C   UNL A   1      42.359  47.553  16.387  1.00  0.00    -0.049 A 
ATOM     22  C   UNL A   1      43.668  48.044  16.444  1.00  0.00     0.009 A 
ATOM     23  C   UNL A   1      42.099  46.230  16.766  1.00  0.00     0.024 A 
ATOM     24  C   UNL A   1      44.724  47.286  16.992  1.00  0.00    -0.024 A 
ATOM     25  C   UNL A   1      43.148  45.484  17.316  1.00  0.00     0.057 A 
ATOM     26  C   UNL A   1      46.124  47.826  16.983  1.00  0.00     0.047 C 
ATOM     27  C   UNL A   1      44.415  46.021  17.542  1.00  0.00     0.087 A 
ATOM     28  S   UNL A   1      43.197  43.830  17.773  1.00  0.00    -0.096 S 
ATOM     29  N   UNL A   1      45.234  45.237  18.353  1.00  0.00    -0.219 NA
ENDBRANCH  17  19
ENDBRANCH  14  17
ENDBRANCH   8  14
ENDBRANCH   4   7
ENDBRANCH   2   3
ENDBRANCH   1   2
BRANCH   1  30
ATOM     30  C   UNL A   1      42.956  37.981  26.803  1.00  0.00     0.118 C 
BRANCH  30  31
ATOM     31  N   UNL A   1      44.295  37.388  26.801  1.00  0.00    -0.352 N 
ATOM     32  C   UNL A   1      44.890  36.566  27.739  1.00  0.00     0.251 C 
ATOM     33  H   UNL A   1      44.851  37.605  26.019  1.00  0.00     0.163 HD
ATOM     34  O   UNL A   1      46.111  36.446  27.747  1.00  0.00    -0.269 OA
BRANCH  32  35
ATOM     35  C   UNL A   1      44.053  35.877  28.735  1.00  0.00     0.039 A 
ATOM     36  C   UNL A   1      43.662  36.518  29.913  1.00  0.00     0.014 A 
ATOM     37  C   UNL A   1      43.625  34.582  28.464  1.00  0.00     0.014 A 
ATOM     38  C   UNL A   1      42.761  35.879  30.762  1.00  0.00     0.010 A 
ATOM     39  C   UNL A   1      42.614  34.027  29.210  1.00  0.00     0.010 A 
ATOM     40  C   UNL A   1      42.212  34.642  30.389  1.00  0.00    -0.014 A 
BRANCH  40  41
ATOM     41  C   UNL A   1      41.153  34.022  31.184  1.00  0.00     0.031 A 
ATOM     42  C   UNL A   1      41.432  33.892  32.639  1.00  0.00     0.074 A 
ATOM     43  C   UNL A   1      39.919  33.750  30.709  1.00  0.00     0.049 A 
ATOM     44  N   UNL A   1      41.643  32.804  33.300  1.00  0.00    -0.248 NA
ATOM     45  C   UNL A   1      41.614  35.114  33.436  1.00  0.00     0.031 C 
ATOM     46  C   UNL A   1      39.360  34.049  29.386  1.00  0.00     0.029 A 
ATOM     47  N   UNL A   1      38.850  33.238  31.376  1.00  0.00    -0.354 N 
ATOM     48  C   UNL A   1      41.765  33.174  34.635  1.00  0.00     0.074 A 
ATOM     49  C   UNL A   1      41.920  34.605  34.632  1.00  0.00     0.031 C 
ATOM     50  C   UNL A   1      38.015  33.940  29.427  1.00  0.00     0.029 A 
ATOM     51  C   UNL A   1      37.637  33.386  30.713  1.00  0.00     0.049 A 
ATOM     52  H   UNL A   1      38.929  32.799  32.253  1.00  0.00     0.167 HD
ATOM     53  C   UNL A   1      41.514  32.286  35.640  1.00  0.00     0.034 A 
ATOM     54  C   UNL A   1      36.403  33.078  31.186  1.00  0.00     0.034 A 
ATOM     55  C   UNL A   1      41.467  30.930  35.138  1.00  0.00     0.049 A 
ATOM     56  C   UNL A   1      36.608  32.026  32.214  1.00  0.00     0.074 A 
ATOM     57  C   UNL A   1      42.355  30.122  34.451  1.00  0.00     0.029 A 
ATOM     58  N   UNL A   1      40.233  30.347  34.961  1.00  0.00    -0.354 N 
ATOM     59  N   UNL A   1      37.102  30.848  31.940  1.00  0.00    -0.248 NA
ATOM     60  C   UNL A   1      36.716  32.432  33.607  1.00  0.00     0.031 C 
ATOM     61  C   UNL A   1      41.553  29.440  33.488  1.00  0.00     0.029 A 
ATOM     62  C   UNL A   1      40.222  29.809  33.698  1.00  0.00     0.049 A 
ATOM     63  H   UNL A   1      39.497  30.321  35.615  1.00  0.00     0.167 HD
ATOM     64  C   UNL A   1      37.956  30.564  32.994  1.00  0.00     0.074 A 
ATOM     65  C   UNL A   1      37.594  31.521  34.039  1.00  0.00     0.031 C 
ATOM     66  C   UNL A   1      39.060  29.775  32.828  1.00  0.00     0.034 A 
BRANCH  53  67
ATOM     67  C   UNL A   1      40.990  32.640  37.013  1.00  0.00     0.023 A 
ATOM     68  C   UNL A   1      39.661  32.285  37.318  1.00  0.00     0.031 A 
ATOM     69  C   UNL A   1      41.610  33.532  37.917  1.00  0.00     0.131 A 
ATOM     70  C   UNL A   1      38.987  32.864  38.407  1.00  0.00     0.055 A 
ATOM     71  C   UNL A   1      40.957  34.053  39.038  1.00  0.00     0.041 A 
ATOM     72  F   UNL A   1      42.838  34.025  37.717  1.00  0.00    -0.206 F 
ATOM     73  C   UNL A   1      39.628  33.745  39.272  1.00  0.00     0.022 A 
BRANCH  70  74
ATOM     74  S   UNL A   1      37.206  32.574  38.574  1.00  0.00     0.124 S 
ATOM     75  O   UNL A   1      36.677  33.329  37.442  1.00  0.00    -0.237 OA
ATOM     76  O   UNL A   1      37.127  31.120  38.474  1.00  0.00    -0.237 OA
ATOM     77  O   UNL A   1      36.895  33.125  39.891  1.00  0.00    -0.744 OA
ENDBRANCH  70  74
ENDBRANCH  53  67
BRANCH  54  78
ATOM     78  C   UNL A   1      35.140  33.837  30.984  1.00  0.00     0.023 A 
ATOM     79  C   UNL A   1      34.678  34.785  31.919  1.00  0.00     0.031 A 
ATOM     80  C   UNL A   1      34.482  33.814  29.732  1.00  0.00     0.131 A 
ATOM     81  C   UNL A   1      33.618  35.660  31.586  1.00  0.00     0.055 A 
ATOM     82  C   UNL A   1      33.427  34.672  29.411  1.00  0.00     0.041 A 
ATOM     83  F   UNL A   1      34.899  33.015  28.737  1.00  0.00    -0.206 F 
ATOM     84  C   UNL A   1      32.997  35.611  30.335  1.00  0.00     0.022 A 
BRANCH  81  85
ATOM     85  S   UNL A   1      33.114  36.977  32.738  1.00  0.00     0.124 S 
ATOM     86  O   UNL A   1      34.065  36.808  33.830  1.00  0.00    -0.237 OA
ATOM     87  O   UNL A   1      33.262  38.182  31.930  1.00  0.00    -0.237 OA
ATOM     88  O   UNL A   1      31.730  36.629  33.064  1.00  0.00    -0.744 OA
ENDBRANCH  81  85
ENDBRANCH  54  78
BRANCH  66  89
ATOM     89  C   UNL A   1      39.200  28.976  31.548  1.00  0.00     0.023 A 
ATOM     90  C   UNL A   1      39.985  29.364  30.438  1.00  0.00     0.031 A 
ATOM     91  C   UNL A   1      38.643  27.686  31.533  1.00  0.00     0.131 A 
ATOM     92  C   UNL A   1      40.184  28.469  29.366  1.00  0.00     0.055 A 
ATOM     93  C   UNL A   1      38.856  26.796  30.480  1.00  0.00     0.041 A 
ATOM     94  F   UNL A   1      37.916  27.247  32.574  1.00  0.00    -0.206 F 
ATOM     95  C   UNL A   1      39.628  27.185  29.391  1.00  0.00     0.022 A 
BRANCH  92  96
ATOM     96  S   UNL A   1      41.201  28.949  27.930  1.00  0.00     0.124 S 
ATOM     97  O   UNL A   1      40.210  29.213  26.892  1.00  0.00    -0.237 OA
ATOM     98  O   UNL A   1      41.936  30.109  28.426  1.00  0.00    -0.237 OA
ATOM     99  O   UNL A   1      42.032  27.767  27.688  1.00  0.00    -0.744 OA
ENDBRANCH  92  96
ENDBRANCH  66  89
ENDBRANCH  40  41
ENDBRANCH  32  35
ENDBRANCH  30  31
ENDBRANCH   1  30
TORSDOF 16
ENDMDL
MODEL 3
REMARK VINA RESULT:     -13.2      4.536     10.098
REMARK SMILES Cc1cc(C)c2nc(NS(=O)(=O)c3cc(C(=O)NCCCNC(=O)c4ccc(-c5c6nc(c(-c7cc(S(=O)(=O)[O-])ccc7F)c7ccc([nH]7)c(-c7cc(S(=O)(=O)[O-])ccc7F)c7nc(c(-c8cc(S(=O)(=O)[O-])ccc8F)c8ccc5[nH]8)C=C7)C=C6)cc4)ccc3Cl)sc2c1
REMARK SMILES IDX 20 1 19 2 18 3 16 4 17 5 15 7 13 8 14 9 90 10 89 11 91 12
REMARK SMILES IDX 88 13 10 14 11 15 12 16 9 17 8 19 1 20 2 21 3 22 94 23 4 24
REMARK SMILES IDX 93 25 5 26 6 27 92 28 7 29 21 30 22 31 23 32 24 34 25 35
REMARK SMILES IDX 26 36 87 37 27 38 86 39 28 40 29 41 30 42 80 43 31 44 85 45
REMARK SMILES IDX 79 46 81 47 32 48 84 49 78 50 77 51 33 53 65 54 45 55 64 56
REMARK SMILES IDX 46 57 49 58 63 59 82 60 47 61 48 62 62 64 83 65 50 66 34 67
REMARK SMILES IDX 35 68 43 69 36 70 42 71 44 72 41 73 37 74 38 75 39 76 40 77
REMARK SMILES IDX 66 78 67 79 75 80 68 81 74 82 76 83 73 84 69 85 70 86 71 87
REMARK SMILES IDX 72 88 51 89 52 90 60 91 53 92 59 93 61 94 58 95 54 96 55 97
REMARK SMILES IDX 56 98 57 99
REMARK H PARENT 18 6 9 18 22 33 81 52 49 63
REMARK Flexibility Score: inf
ROOT
ATOM      1  C   UNL A   1      34.570  35.171  28.343  1.00  0.00     0.042 C 
ENDROOT
BRANCH   1   2
ATOM      2  C   UNL A   1      33.364  34.976  29.272  1.00  0.00     0.118 C 
BRANCH   2   3
ATOM      3  N   UNL A   1      33.513  35.709  30.515  1.00  0.00    -0.352 N 
ATOM      4  C   UNL A   1      34.218  35.473  31.664  1.00  0.00     0.251 C 
ATOM      5  O   UNL A   1      34.200  36.357  32.521  1.00  0.00    -0.269 OA
ATOM      6  H   UNL A   1      32.999  36.549  30.536  1.00  0.00     0.163 HD
BRANCH   4   7
ATOM      7  C   UNL A   1      35.000  34.230  31.944  1.00  0.00     0.041 A 
ATOM      8  C   UNL A   1      36.971  33.284  33.057  1.00  0.00     0.107 A 
ATOM      9  C   UNL A   1      36.236  34.396  32.595  1.00  0.00     0.037 A 
ATOM     10  C   UNL A   1      36.560  31.993  32.741  1.00  0.00     0.061 A 
ATOM     11  C   UNL A   1      35.341  31.821  32.083  1.00  0.00     0.023 A 
ATOM     12  Cl  UNL A   1      37.410  30.565  33.200  1.00  0.00    -0.083 Cl
ATOM     13  C   UNL A   1      34.548  32.926  31.737  1.00  0.00     0.015 A 
BRANCH   8  14
ATOM     14  S   UNL A   1      38.239  33.581  34.261  1.00  0.00     0.265 S 
ATOM     15  O   UNL A   1      39.016  32.347  34.403  1.00  0.00    -0.201 OA
ATOM     16  O   UNL A   1      37.600  34.156  35.416  1.00  0.00    -0.201 OA
BRANCH  14  17
ATOM     17  N   UNL A   1      39.280  34.724  33.644  1.00  0.00    -0.255 N 
ATOM     18  H   UNL A   1      39.201  35.646  33.983  1.00  0.00     0.182 HD
BRANCH  17  19
ATOM     19  C   UNL A   1      40.267  34.466  32.672  1.00  0.00     0.197 A 
ATOM     20  C   UNL A   1      43.719  35.580  27.743  1.00  0.00     0.044 C 
ATOM     21  C   UNL A   1      43.223  35.291  29.130  1.00  0.00    -0.049 A 
ATOM     22  C   UNL A   1      44.016  35.571  30.249  1.00  0.00     0.009 A 
ATOM     23  C   UNL A   1      41.974  34.681  29.303  1.00  0.00     0.024 A 
ATOM     24  C   UNL A   1      43.546  35.370  31.564  1.00  0.00    -0.024 A 
ATOM     25  C   UNL A   1      41.509  34.490  30.610  1.00  0.00     0.057 A 
ATOM     26  C   UNL A   1      44.448  35.627  32.735  1.00  0.00     0.047 C 
ATOM     27  C   UNL A   1      42.214  34.926  31.731  1.00  0.00     0.087 A 
ATOM     28  S   UNL A   1      40.097  33.685  31.165  1.00  0.00    -0.096 S 
ATOM     29  N   UNL A   1      41.476  34.916  32.912  1.00  0.00    -0.219 NA
ENDBRANCH  17  19
ENDBRANCH  14  17
ENDBRANCH   8  14
ENDBRANCH   4   7
ENDBRANCH   2   3
ENDBRANCH   1   2
BRANCH   1  30
ATOM     30  C   UNL A   1      35.311  33.866  28.087  1.00  0.00     0.118 C 
BRANCH  30  31
ATOM     31  N   UNL A   1      34.420  32.708  28.197  1.00  0.00    -0.352 N 
ATOM     32  C   UNL A   1      34.717  31.363  28.103  1.00  0.00     0.251 C 
ATOM     33  H   UNL A   1      33.473  32.920  28.363  1.00  0.00     0.163 HD
ATOM     34  O   UNL A   1      33.816  30.561  27.879  1.00  0.00    -0.269 OA
BRANCH  32  35
ATOM     35  C   UNL A   1      36.115  30.918  28.237  1.00  0.00     0.039 A 
ATOM     36  C   UNL A   1      37.056  31.699  28.911  1.00  0.00     0.014 A 
ATOM     37  C   UNL A   1      36.475  29.683  27.709  1.00  0.00     0.014 A 
ATOM     38  C   UNL A   1      38.330  31.180  29.132  1.00  0.00     0.010 A 
ATOM     39  C   UNL A   1      37.668  29.108  28.070  1.00  0.00     0.010 A 
ATOM     40  C   UNL A   1      38.624  29.866  28.736  1.00  0.00    -0.014 A 
BRANCH  40  41
ATOM     41  C   UNL A   1      39.899  29.244  29.089  1.00  0.00     0.031 A 
ATOM     42  C   UNL A   1      40.138  29.045  30.543  1.00  0.00     0.074 A 
ATOM     43  C   UNL A   1      40.742  28.697  28.188  1.00  0.00     0.049 A 
ATOM     44  N   UNL A   1      40.997  29.659  31.285  1.00  0.00    -0.248 NA
ATOM     45  C   UNL A   1      39.244  28.148  31.290  1.00  0.00     0.031 C 
ATOM     46  C   UNL A   1      40.566  28.548  26.740  1.00  0.00     0.029 A 
ATOM     47  N   UNL A   1      41.913  28.042  28.415  1.00  0.00    -0.354 N 
ATOM     48  C   UNL A   1      40.915  29.075  32.545  1.00  0.00     0.074 A 
ATOM     49  C   UNL A   1      39.708  28.290  32.535  1.00  0.00     0.031 C 
ATOM     50  C   UNL A   1      41.456  27.651  26.264  1.00  0.00     0.029 A 
ATOM     51  C   UNL A   1      42.378  27.309  27.329  1.00  0.00     0.049 A 
ATOM     52  H   UNL A   1      42.391  28.085  29.274  1.00  0.00     0.167 HD
ATOM     53  C   UNL A   1      41.964  29.124  33.416  1.00  0.00     0.034 A 
ATOM     54  C   UNL A   1      43.447  26.473  27.303  1.00  0.00     0.034 A 
ATOM     55  C   UNL A   1      42.943  30.104  33.000  1.00  0.00     0.049 A 
ATOM     56  C   UNL A   1      44.358  26.939  28.379  1.00  0.00     0.074 A 
ATOM     57  C   UNL A   1      42.903  31.463  32.746  1.00  0.00     0.029 A 
ATOM     58  N   UNL A   1      44.091  29.653  32.387  1.00  0.00    -0.354 N 
ATOM     59  N   UNL A   1      44.926  28.117  28.372  1.00  0.00    -0.248 NA
ATOM     60  C   UNL A   1      44.269  26.305  29.685  1.00  0.00     0.031 C 
ATOM     61  C   UNL A   1      43.709  31.639  31.582  1.00  0.00     0.029 A 
ATOM     62  C   UNL A   1      44.253  30.397  31.244  1.00  0.00     0.049 A 
ATOM     63  H   UNL A   1      44.683  28.934  32.707  1.00  0.00     0.167 HD
ATOM     64  C   UNL A   1      44.860  28.552  29.687  1.00  0.00     0.074 A 
ATOM     65  C   UNL A   1      44.548  27.354  30.465  1.00  0.00     0.031 C 
ATOM     66  C   UNL A   1      44.787  29.882  29.996  1.00  0.00     0.034 A 
BRANCH  53  67
ATOM     67  C   UNL A   1      42.284  28.081  34.462  1.00  0.00     0.023 A 
ATOM     68  C   UNL A   1      43.055  26.970  34.065  1.00  0.00     0.031 A 
ATOM     69  C   UNL A   1      41.658  27.973  35.725  1.00  0.00     0.131 A 
ATOM     70  C   UNL A   1      43.108  25.806  34.851  1.00  0.00     0.055 A 
ATOM     71  C   UNL A   1      41.770  26.839  36.534  1.00  0.00     0.041 A 
ATOM     72  F   UNL A   1      40.829  28.910  36.201  1.00  0.00    -0.206 F 
ATOM     73  C   UNL A   1      42.473  25.734  36.086  1.00  0.00     0.022 A 
BRANCH  70  74
ATOM     74  S   UNL A   1      43.885  24.326  34.150  1.00  0.00     0.124 S 
ATOM     75  O   UNL A   1      42.820  23.338  34.292  1.00  0.00    -0.237 OA
ATOM     76  O   UNL A   1      44.186  24.759  32.790  1.00  0.00    -0.237 OA
ATOM     77  O   UNL A   1      45.049  24.116  35.008  1.00  0.00    -0.744 OA
ENDBRANCH  70  74
ENDBRANCH  53  67
BRANCH  54  78
ATOM     78  C   UNL A   1      43.562  25.171  26.594  1.00  0.00     0.023 A 
ATOM     79  C   UNL A   1      42.760  24.062  26.930  1.00  0.00     0.031 A 
ATOM     80  C   UNL A   1      44.307  25.070  25.396  1.00  0.00     0.131 A 
ATOM     81  C   UNL A   1      42.718  22.928  26.086  1.00  0.00     0.055 A 
ATOM     82  C   UNL A   1      44.271  23.944  24.570  1.00  0.00     0.041 A 
ATOM     83  F   UNL A   1      45.032  26.102  24.933  1.00  0.00    -0.206 F 
ATOM     84  C   UNL A   1      43.464  22.869  24.906  1.00  0.00     0.022 A 
BRANCH  81  85
ATOM     85  S   UNL A   1      41.578  21.555  26.445  1.00  0.00     0.124 S 
ATOM     86  O   UNL A   1      41.742  21.389  27.884  1.00  0.00    -0.237 OA
ATOM     87  O   UNL A   1      40.294  22.081  25.995  1.00  0.00    -0.237 OA
ATOM     88  O   UNL A   1      42.105  20.457  25.632  1.00  0.00    -0.744 OA
ENDBRANCH  81  85
ENDBRANCH  54  78
BRANCH  66  89
ATOM     89  C   UNL A   1      45.059  30.901  28.909  1.00  0.00     0.023 A 
ATOM     90  C   UNL A   1      46.343  31.357  28.534  1.00  0.00     0.031 A 
ATOM     91  C   UNL A   1      43.970  31.294  28.111  1.00  0.00     0.131 A 
ATOM     92  C   UNL A   1      46.497  32.177  27.397  1.00  0.00     0.055 A 
ATOM     93  C   UNL A   1      44.128  32.090  26.977  1.00  0.00     0.041 A 
ATOM     94  F   UNL A   1      42.729  30.865  28.396  1.00  0.00    -0.206 F 
ATOM     95  C   UNL A   1      45.394  32.536  26.615  1.00  0.00     0.022 A 
BRANCH  92  96
ATOM     96  S   UNL A   1      48.148  32.768  26.894  1.00  0.00     0.124 S 
ATOM     97  O   UNL A   1      48.655  33.412  28.101  1.00  0.00    -0.237 OA
ATOM     98  O   UNL A   1      48.824  31.538  26.491  1.00  0.00    -0.237 OA
ATOM     99  O   UNL A   1      47.862  33.687  25.790  1.00  0.00    -0.744 OA
ENDBRANCH  92  96
ENDBRANCH  66  89
ENDBRANCH  40  41
ENDBRANCH  32  35
ENDBRANCH  30  31
ENDBRANCH   1  30
TORSDOF 16
ENDMDL
