MODEL 1
REMARK VINA RESULT:     -11.0      0.000      0.000
REMARK SMILES CC[C@H]1CN(C(=O)N(CC(=O)NCCCNC(=O)c2ccc(-c3c4nc(c(-c5cc(S(=O)(=O)[O-])ccc5F)c5ccc([nH]5)c(-c5cc(S(=O)(=O)[O-])ccc5F)c5nc(c(-c6cc(S(=O)(=O)[O-])ccc6F)c6ccc3[nH]6)C=C5)C=C4)cc2)C(C)(C)C)CC[N@@H+]1C
REMARK SMILES IDX 13 1 12 2 10 3 11 4 9 6 8 7 6 8 7 9 5 10 3 11 4 12 88 13
REMARK SMILES IDX 87 14 89 15 86 17 2 18 1 19 82 20 83 21 84 22 85 23 14 24
REMARK SMILES IDX 15 25 16 26 17 27 18 29 19 30 20 31 81 32 21 33 80 34 22 35
REMARK SMILES IDX 23 36 24 37 74 38 25 39 79 40 73 41 75 42 26 43 78 44 72 45
REMARK SMILES IDX 71 46 27 48 59 49 39 50 58 51 40 52 43 53 57 54 76 55 41 56
REMARK SMILES IDX 42 57 56 59 77 60 44 61 28 62 29 63 37 64 30 65 36 66 38 67
REMARK SMILES IDX 35 68 31 69 32 70 33 71 34 72 60 73 61 74 69 75 62 76 68 77
REMARK SMILES IDX 70 78 67 79 63 80 64 81 65 82 66 83 45 84 46 85 54 86 47 87
REMARK SMILES IDX 53 88 55 89 52 90 48 91 49 92 50 93 51 94
REMARK H PARENT 12 5 88 16 16 28 75 47 43 58
REMARK Flexibility Score: inf
ROOT
ATOM      1  C   UNL A   1      34.584  20.665  25.395  1.00  0.00     0.117 C 
ENDROOT
BRANCH   1   2
ATOM      2  N   UNL A   1      34.225  21.274  26.659  1.00  0.00    -0.354 N 
ATOM      3  C   UNL A   1      33.146  22.055  26.941  1.00  0.00     0.239 C 
ATOM      4  O   UNL A   1      32.897  22.304  28.123  1.00  0.00    -0.273 OA
ATOM      5  H   UNL A   1      34.840  21.102  27.409  1.00  0.00     0.163 HD
BRANCH   3   6
ATOM      6  C   UNL A   1      32.198  22.490  25.818  1.00  0.00     0.221 C 
BRANCH   6   7
ATOM      7  N   UNL A   1      32.656  23.515  24.858  1.00  0.00    -0.311 N 
BRANCH   7   8
ATOM      8  C   UNL A   1      33.419  24.619  25.234  1.00  0.00     0.321 C 
ATOM      9  O   UNL A   1      34.605  24.495  25.549  1.00  0.00    -0.248 OA
BRANCH   8  10
ATOM     10  N   UNL A   1      32.853  25.889  25.271  1.00  0.00    -0.313 N 
ATOM     11  C   UNL A   1      30.965  27.555  25.393  1.00  0.00     0.203 C 
ATOM     12  C   UNL A   1      31.582  26.223  25.908  1.00  0.00     0.186 C 
ATOM     13  N   UNL A   1      31.891  28.714  25.455  1.00  0.00    -0.332 N 
ATOM     14  C   UNL A   1      33.234  28.375  24.928  1.00  0.00     0.284 C 
ATOM     15  C   UNL A   1      32.006  29.225  26.823  1.00  0.00     0.333 C 
ATOM     16  H   UNL A   1      31.491  29.441  24.862  1.00  0.00     0.348 HD
ATOM     17  C   UNL A   1      33.814  27.002  25.315  1.00  0.00     0.183 C 
BRANCH  11  18
ATOM     18  C   UNL A   1      30.232  27.429  24.027  1.00  0.00     0.063 C 
ATOM     19  C   UNL A   1      29.836  28.698  23.287  1.00  0.00     0.010 C 
ENDBRANCH  11  18
ENDBRANCH   8  10
ENDBRANCH   7   8
BRANCH   7  20
ATOM     20  C   UNL A   1      32.133  23.461  23.431  1.00  0.00     0.037 C 
ATOM     21  C   UNL A   1      32.911  24.406  22.488  1.00  0.00     0.034 C 
ATOM     22  C   UNL A   1      32.221  22.011  22.895  1.00  0.00     0.034 C 
ATOM     23  C   UNL A   1      30.640  23.854  23.286  1.00  0.00     0.034 C 
ENDBRANCH   7  20
ENDBRANCH   6   7
ENDBRANCH   3   6
ENDBRANCH   1   2
BRANCH   1  24
ATOM     24  C   UNL A   1      35.713  21.380  24.679  1.00  0.00     0.042 C 
BRANCH  24  25
ATOM     25  C   UNL A   1      36.812  21.860  25.613  1.00  0.00     0.118 C 
BRANCH  25  26
ATOM     26  N   UNL A   1      37.826  20.839  25.833  1.00  0.00    -0.352 N 
ATOM     27  C   UNL A   1      39.158  20.989  26.122  1.00  0.00     0.251 C 
ATOM     28  H   UNL A   1      37.512  19.908  25.764  1.00  0.00     0.163 HD
ATOM     29  O   UNL A   1      39.907  20.016  26.036  1.00  0.00    -0.269 OA
BRANCH  27  30
ATOM     30  C   UNL A   1      39.690  22.311  26.514  1.00  0.00     0.039 A 
ATOM     31  C   UNL A   1      40.789  22.373  27.372  1.00  0.00     0.014 A 
ATOM     32  C   UNL A   1      39.095  23.489  26.049  1.00  0.00     0.014 A 
ATOM     33  C   UNL A   1      41.324  23.614  27.721  1.00  0.00     0.010 A 
ATOM     34  C   UNL A   1      39.677  24.721  26.334  1.00  0.00     0.010 A 
ATOM     35  C   UNL A   1      40.792  24.797  27.182  1.00  0.00    -0.014 A 
BRANCH  35  36
ATOM     36  C   UNL A   1      41.375  26.123  27.514  1.00  0.00     0.031 A 
ATOM     37  C   UNL A   1      42.773  26.462  27.072  1.00  0.00     0.074 A 
ATOM     38  C   UNL A   1      40.665  26.996  28.255  1.00  0.00     0.049 A 
ATOM     39  N   UNL A   1      43.481  27.535  27.313  1.00  0.00    -0.248 NA
ATOM     40  C   UNL A   1      43.478  25.445  26.275  1.00  0.00     0.031 C 
ATOM     41  C   UNL A   1      39.318  26.762  28.778  1.00  0.00     0.029 A 
ATOM     42  N   UNL A   1      40.979  28.255  28.703  1.00  0.00    -0.354 N 
ATOM     43  C   UNL A   1      44.714  27.320  26.708  1.00  0.00     0.074 A 
ATOM     44  C   UNL A   1      44.679  25.987  26.146  1.00  0.00     0.031 C 
ATOM     45  C   UNL A   1      38.913  27.847  29.455  1.00  0.00     0.029 A 
ATOM     46  C   UNL A   1      39.985  28.839  29.454  1.00  0.00     0.049 A 
ATOM     47  H   UNL A   1      41.835  28.698  28.506  1.00  0.00     0.167 HD
ATOM     48  C   UNL A   1      45.770  28.167  26.608  1.00  0.00     0.034 A 
ATOM     49  C   UNL A   1      39.946  30.032  30.079  1.00  0.00     0.034 A 
ATOM     50  C   UNL A   1      45.785  29.497  27.166  1.00  0.00     0.049 A 
ATOM     51  C   UNL A   1      41.137  30.949  29.970  1.00  0.00     0.074 A 
ATOM     52  C   UNL A   1      46.781  30.454  27.087  1.00  0.00     0.029 A 
ATOM     53  N   UNL A   1      44.755  30.058  27.912  1.00  0.00    -0.354 N 
ATOM     54  N   UNL A   1      42.280  30.749  29.353  1.00  0.00    -0.248 NA
ATOM     55  C   UNL A   1      41.029  32.258  30.627  1.00  0.00     0.031 C 
ATOM     56  C   UNL A   1      46.383  31.567  27.837  1.00  0.00     0.029 A 
ATOM     57  C   UNL A   1      45.105  31.337  28.321  1.00  0.00     0.049 A 
ATOM     58  H   UNL A   1      43.902  29.613  28.121  1.00  0.00     0.167 HD
ATOM     59  C   UNL A   1      43.013  31.921  29.525  1.00  0.00     0.074 A 
ATOM     60  C   UNL A   1      42.177  32.825  30.288  1.00  0.00     0.031 C 
ATOM     61  C   UNL A   1      44.263  32.223  29.090  1.00  0.00     0.034 A 
BRANCH  48  62
ATOM     62  C   UNL A   1      46.997  27.664  25.884  1.00  0.00     0.023 A 
ATOM     63  C   UNL A   1      47.237  27.977  24.534  1.00  0.00     0.031 A 
ATOM     64  C   UNL A   1      47.927  26.841  26.543  1.00  0.00     0.131 A 
ATOM     65  C   UNL A   1      48.334  27.411  23.868  1.00  0.00     0.055 A 
ATOM     66  C   UNL A   1      49.063  26.348  25.896  1.00  0.00     0.041 A 
ATOM     67  F   UNL A   1      47.743  26.491  27.826  1.00  0.00    -0.206 F 
ATOM     68  C   UNL A   1      49.263  26.619  24.545  1.00  0.00     0.022 A 
BRANCH  65  69
ATOM     69  S   UNL A   1      48.450  27.610  22.068  1.00  0.00     0.124 S 
ATOM     70  O   UNL A   1      48.645  26.230  21.631  1.00  0.00    -0.237 OA
ATOM     71  O   UNL A   1      47.164  28.211  21.733  1.00  0.00    -0.237 OA
ATOM     72  O   UNL A   1      49.611  28.481  21.894  1.00  0.00    -0.744 OA
ENDBRANCH  65  69
ENDBRANCH  48  62
BRANCH  49  73
ATOM     73  C   UNL A   1      38.748  30.429  30.873  1.00  0.00     0.023 A 
ATOM     74  C   UNL A   1      37.750  31.246  30.321  1.00  0.00     0.031 A 
ATOM     75  C   UNL A   1      38.606  30.031  32.215  1.00  0.00     0.131 A 
ATOM     76  C   UNL A   1      36.679  31.679  31.119  1.00  0.00     0.055 A 
ATOM     77  C   UNL A   1      37.511  30.418  32.988  1.00  0.00     0.041 A 
ATOM     78  F   UNL A   1      39.529  29.244  32.791  1.00  0.00    -0.206 F 
ATOM     79  C   UNL A   1      36.546  31.260  32.445  1.00  0.00     0.022 A 
BRANCH  76  80
ATOM     80  S   UNL A   1      35.506  32.874  30.421  1.00  0.00     0.124 S 
ATOM     81  O   UNL A   1      34.638  32.012  29.629  1.00  0.00    -0.237 OA
ATOM     82  O   UNL A   1      34.913  33.453  31.622  1.00  0.00    -0.237 OA
ATOM     83  O   UNL A   1      36.359  33.779  29.652  1.00  0.00    -0.744 OA
ENDBRANCH  76  80
ENDBRANCH  49  73
BRANCH  61  84
ATOM     84  C   UNL A   1      44.775  33.610  29.390  1.00  0.00     0.023 A 
ATOM     85  C   UNL A   1      44.653  34.662  28.465  1.00  0.00     0.031 A 
ATOM     86  C   UNL A   1      45.404  33.879  30.619  1.00  0.00     0.131 A 
ATOM     87  C   UNL A   1      45.203  35.919  28.760  1.00  0.00     0.055 A 
ATOM     88  C   UNL A   1      45.896  35.146  30.931  1.00  0.00     0.041 A 
ATOM     89  F   UNL A   1      45.549  32.911  31.539  1.00  0.00    -0.206 F 
ATOM     90  C   UNL A   1      45.808  36.172  29.993  1.00  0.00     0.022 A 
BRANCH  87  91
ATOM     91  S   UNL A   1      45.197  37.197  27.473  1.00  0.00     0.124 S 
ATOM     92  O   UNL A   1      45.706  38.358  28.195  1.00  0.00    -0.237 OA
ATOM     93  O   UNL A   1      46.089  36.630  26.467  1.00  0.00    -0.237 OA
ATOM     94  O   UNL A   1      43.791  37.279  27.078  1.00  0.00    -0.744 OA
ENDBRANCH  87  91
ENDBRANCH  61  84
ENDBRANCH  35  36
ENDBRANCH  27  30
ENDBRANCH  25  26
ENDBRANCH  24  25
ENDBRANCH   1  24
TORSDOF 18
ENDMDL
MODEL 2
REMARK VINA RESULT:     -11.0      5.386      8.542
REMARK SMILES CC[C@H]1CN(C(=O)N(CC(=O)NCCCNC(=O)c2ccc(-c3c4nc(c(-c5cc(S(=O)(=O)[O-])ccc5F)c5ccc([nH]5)c(-c5cc(S(=O)(=O)[O-])ccc5F)c5nc(c(-c6cc(S(=O)(=O)[O-])ccc6F)c6ccc3[nH]6)C=C5)C=C4)cc2)C(C)(C)C)CC[N@@H+]1C
REMARK SMILES IDX 13 1 12 2 10 3 11 4 9 6 8 7 6 8 7 9 5 10 3 11 4 12 88 13
REMARK SMILES IDX 87 14 89 15 86 17 2 18 1 19 82 20 83 21 84 22 85 23 14 24
REMARK SMILES IDX 15 25 16 26 17 27 18 29 19 30 20 31 81 32 21 33 80 34 22 35
REMARK SMILES IDX 23 36 24 37 74 38 25 39 79 40 73 41 75 42 26 43 78 44 72 45
REMARK SMILES IDX 71 46 27 48 59 49 39 50 58 51 40 52 43 53 57 54 76 55 41 56
REMARK SMILES IDX 42 57 56 59 77 60 44 61 28 62 29 63 37 64 30 65 36 66 38 67
REMARK SMILES IDX 35 68 31 69 32 70 33 71 34 72 60 73 61 74 69 75 62 76 68 77
REMARK SMILES IDX 70 78 67 79 63 80 64 81 65 82 66 83 45 84 46 85 54 86 47 87
REMARK SMILES IDX 53 88 55 89 52 90 48 91 49 92 50 93 51 94
REMARK H PARENT 12 5 88 16 16 28 75 47 43 58
REMARK Flexibility Score: inf
ROOT
ATOM      1  C   UNL A   1      31.817  30.168  26.106  1.00  0.00     0.117 C 
ENDROOT
BRANCH   1   2
ATOM      2  N   UNL A   1      32.610  30.079  24.898  1.00  0.00    -0.354 N 
ATOM      3  C   UNL A   1      33.058  28.959  24.266  1.00  0.00     0.239 C 
ATOM      4  O   UNL A   1      33.536  29.077  23.136  1.00  0.00    -0.273 OA
ATOM      5  H   UNL A   1      32.856  30.936  24.482  1.00  0.00     0.163 HD
BRANCH   3   6
ATOM      6  C   UNL A   1      32.841  27.580  24.900  1.00  0.00     0.221 C 
BRANCH   6   7
ATOM      7  N   UNL A   1      32.521  26.437  24.022  1.00  0.00    -0.311 N 
BRANCH   7   8
ATOM      8  C   UNL A   1      33.497  25.621  23.452  1.00  0.00     0.321 C 
ATOM      9  O   UNL A   1      34.012  25.908  22.369  1.00  0.00    -0.248 OA
BRANCH   8  10
ATOM     10  N   UNL A   1      33.906  24.457  24.092  1.00  0.00    -0.313 N 
ATOM     11  C   UNL A   1      34.419  21.994  24.265  1.00  0.00     0.203 C 
ATOM     12  C   UNL A   1      34.512  23.304  23.431  1.00  0.00     0.186 C 
ATOM     13  N   UNL A   1      34.935  22.122  25.651  1.00  0.00    -0.332 N 
ATOM     14  C   UNL A   1      34.437  23.349  26.314  1.00  0.00     0.284 C 
ATOM     15  C   UNL A   1      36.400  22.102  25.673  1.00  0.00     0.333 C 
ATOM     16  H   UNL A   1      34.586  21.316  26.170  1.00  0.00     0.348 HD
ATOM     17  C   UNL A   1      34.393  24.636  25.469  1.00  0.00     0.183 C 
BRANCH  11  18
ATOM     18  C   UNL A   1      33.033  21.291  24.190  1.00  0.00     0.063 C 
ATOM     19  C   UNL A   1      32.236  21.376  22.898  1.00  0.00     0.010 C 
ENDBRANCH  11  18
ENDBRANCH   8  10
ENDBRANCH   7   8
BRANCH   7  20
ATOM     20  C   UNL A   1      31.079  26.241  23.578  1.00  0.00     0.037 C 
ATOM     21  C   UNL A   1      30.752  24.757  23.293  1.00  0.00     0.034 C 
ATOM     22  C   UNL A   1      30.118  26.780  24.667  1.00  0.00     0.034 C 
ATOM     23  C   UNL A   1      30.700  27.013  22.289  1.00  0.00     0.034 C 
ENDBRANCH   7  20
ENDBRANCH   6   7
ENDBRANCH   3   6
ENDBRANCH   1   2
BRANCH   1  24
ATOM     24  C   UNL A   1      31.612  31.590  26.592  1.00  0.00     0.042 C 
BRANCH  24  25
ATOM     25  C   UNL A   1      32.912  32.315  26.898  1.00  0.00     0.118 C 
BRANCH  25  26
ATOM     26  N   UNL A   1      32.680  33.644  27.446  1.00  0.00    -0.352 N 
ATOM     27  C   UNL A   1      33.237  34.235  28.551  1.00  0.00     0.251 C 
ATOM     28  H   UNL A   1      32.031  34.197  26.953  1.00  0.00     0.163 HD
ATOM     29  O   UNL A   1      32.741  35.271  28.994  1.00  0.00    -0.269 OA
BRANCH  27  30
ATOM     30  C   UNL A   1      34.409  33.623  29.210  1.00  0.00     0.039 A 
ATOM     31  C   UNL A   1      35.673  34.174  28.995  1.00  0.00     0.014 A 
ATOM     32  C   UNL A   1      34.264  32.497  30.028  1.00  0.00     0.014 A 
ATOM     33  C   UNL A   1      36.784  33.628  29.640  1.00  0.00     0.010 A 
ATOM     34  C   UNL A   1      35.358  32.004  30.732  1.00  0.00     0.010 A 
ATOM     35  C   UNL A   1      36.632  32.558  30.538  1.00  0.00    -0.014 A 
BRANCH  35  36
ATOM     36  C   UNL A   1      37.799  31.992  31.262  1.00  0.00     0.031 A 
ATOM     37  C   UNL A   1      38.613  30.892  30.636  1.00  0.00     0.074 A 
ATOM     38  C   UNL A   1      38.093  32.433  32.501  1.00  0.00     0.049 A 
ATOM     39  N   UNL A   1      39.624  30.225  31.129  1.00  0.00    -0.248 NA
ATOM     40  C   UNL A   1      38.215  30.466  29.284  1.00  0.00     0.031 C 
ATOM     41  C   UNL A   1      37.350  33.464  33.229  1.00  0.00     0.029 A 
ATOM     42  N   UNL A   1      39.089  32.066  33.371  1.00  0.00    -0.354 N 
ATOM     43  C   UNL A   1      39.979  29.298  30.155  1.00  0.00     0.074 A 
ATOM     44  C   UNL A   1      39.030  29.445  29.072  1.00  0.00     0.031 C 
ATOM     45  C   UNL A   1      37.928  33.663  34.424  1.00  0.00     0.029 A 
ATOM     46  C   UNL A   1      39.055  32.745  34.568  1.00  0.00     0.049 A 
ATOM     47  H   UNL A   1      39.763  31.382  33.160  1.00  0.00     0.167 HD
ATOM     48  C   UNL A   1      41.016  28.422  30.154  1.00  0.00     0.034 A 
ATOM     49  C   UNL A   1      39.836  32.634  35.660  1.00  0.00     0.034 A 
ATOM     50  C   UNL A   1      41.958  28.296  31.239  1.00  0.00     0.049 A 
ATOM     51  C   UNL A   1      40.971  31.641  35.644  1.00  0.00     0.074 A 
ATOM     52  C   UNL A   1      43.069  27.475  31.325  1.00  0.00     0.029 A 
ATOM     53  N   UNL A   1      41.898  29.007  32.431  1.00  0.00    -0.354 N 
ATOM     54  N   UNL A   1      41.322  30.803  34.695  1.00  0.00    -0.248 NA
ATOM     55  C   UNL A   1      41.824  31.590  36.838  1.00  0.00     0.031 C 
ATOM     56  C   UNL A   1      43.643  27.643  32.591  1.00  0.00     0.029 A 
ATOM     57  C   UNL A   1      42.936  28.625  33.267  1.00  0.00     0.049 A 
ATOM     58  H   UNL A   1      41.218  29.684  32.651  1.00  0.00     0.167 HD
ATOM     59  C   UNL A   1      42.455  30.147  35.170  1.00  0.00     0.074 A 
ATOM     60  C   UNL A   1      42.736  30.699  36.479  1.00  0.00     0.031 C 
ATOM     61  C   UNL A   1      43.198  29.178  34.575  1.00  0.00     0.034 A 
BRANCH  48  62
ATOM     62  C   UNL A   1      41.164  27.524  28.948  1.00  0.00     0.023 A 
ATOM     63  C   UNL A   1      42.143  27.763  27.966  1.00  0.00     0.031 A 
ATOM     64  C   UNL A   1      40.302  26.430  28.763  1.00  0.00     0.131 A 
ATOM     65  C   UNL A   1      42.187  26.967  26.812  1.00  0.00     0.055 A 
ATOM     66  C   UNL A   1      40.405  25.591  27.651  1.00  0.00     0.041 A 
ATOM     67  F   UNL A   1      39.334  26.162  29.654  1.00  0.00    -0.206 F 
ATOM     68  C   UNL A   1      41.341  25.867  26.659  1.00  0.00     0.022 A 
BRANCH  65  69
ATOM     69  S   UNL A   1      43.270  27.478  25.450  1.00  0.00     0.124 S 
ATOM     70  O   UNL A   1      43.754  26.189  24.959  1.00  0.00    -0.237 OA
ATOM     71  O   UNL A   1      42.355  28.194  24.569  1.00  0.00    -0.237 OA
ATOM     72  O   UNL A   1      44.280  28.305  26.107  1.00  0.00    -0.744 OA
ENDBRANCH  65  69
ENDBRANCH  48  62
BRANCH  49  73
ATOM     73  C   UNL A   1      39.573  33.470  36.866  1.00  0.00     0.023 A 
ATOM     74  C   UNL A   1      38.896  32.947  37.978  1.00  0.00     0.031 A 
ATOM     75  C   UNL A   1      39.958  34.823  36.905  1.00  0.00     0.131 A 
ATOM     76  C   UNL A   1      38.581  33.782  39.063  1.00  0.00     0.055 A 
ATOM     77  C   UNL A   1      39.692  35.635  38.008  1.00  0.00     0.041 A 
ATOM     78  F   UNL A   1      40.614  35.372  35.870  1.00  0.00    -0.206 F 
ATOM     79  C   UNL A   1      38.986  35.119  39.090  1.00  0.00     0.022 A 
BRANCH  76  80
ATOM     80  S   UNL A   1      37.554  33.115  40.401  1.00  0.00     0.124 S 
ATOM     81  O   UNL A   1      36.324  32.780  39.693  1.00  0.00    -0.237 OA
ATOM     82  O   UNL A   1      38.356  31.988  40.865  1.00  0.00    -0.237 OA
ATOM     83  O   UNL A   1      37.452  34.232  41.339  1.00  0.00    -0.744 OA
ENDBRANCH  76  80
ENDBRANCH  49  73
BRANCH  61  84
ATOM     84  C   UNL A   1      44.415  28.694  35.324  1.00  0.00     0.023 A 
ATOM     85  C   UNL A   1      44.325  27.716  36.331  1.00  0.00     0.031 A 
ATOM     86  C   UNL A   1      45.682  29.226  35.030  1.00  0.00     0.131 A 
ATOM     87  C   UNL A   1      45.473  27.343  37.047  1.00  0.00     0.055 A 
ATOM     88  C   UNL A   1      46.830  28.808  35.704  1.00  0.00     0.041 A 
ATOM     89  F   UNL A   1      45.826  30.163  34.079  1.00  0.00    -0.206 F 
ATOM     90  C   UNL A   1      46.727  27.871  36.728  1.00  0.00     0.022 A 
BRANCH  87  91
ATOM     91  S   UNL A   1      45.292  26.224  38.463  1.00  0.00     0.124 S 
ATOM     92  O   UNL A   1      44.201  25.358  38.028  1.00  0.00    -0.237 OA
ATOM     93  O   UNL A   1      46.609  25.601  38.537  1.00  0.00    -0.237 OA
ATOM     94  O   UNL A   1      44.968  27.122  39.570  1.00  0.00    -0.744 OA
ENDBRANCH  87  91
ENDBRANCH  61  84
ENDBRANCH  35  36
ENDBRANCH  27  30
ENDBRANCH  25  26
ENDBRANCH  24  25
ENDBRANCH   1  24
TORSDOF 18
ENDMDL
MODEL 3
REMARK VINA RESULT:     -10.9      5.025     10.471
REMARK SMILES CC[C@H]1CN(C(=O)N(CC(=O)NCCCNC(=O)c2ccc(-c3c4nc(c(-c5cc(S(=O)(=O)[O-])ccc5F)c5ccc([nH]5)c(-c5cc(S(=O)(=O)[O-])ccc5F)c5nc(c(-c6cc(S(=O)(=O)[O-])ccc6F)c6ccc3[nH]6)C=C5)C=C4)cc2)C(C)(C)C)CC[N@@H+]1C
REMARK SMILES IDX 13 1 12 2 10 3 11 4 9 6 8 7 6 8 7 9 5 10 3 11 4 12 88 13
REMARK SMILES IDX 87 14 89 15 86 17 2 18 1 19 82 20 83 21 84 22 85 23 14 24
REMARK SMILES IDX 15 25 16 26 17 27 18 29 19 30 20 31 81 32 21 33 80 34 22 35
REMARK SMILES IDX 23 36 24 37 74 38 25 39 79 40 73 41 75 42 26 43 78 44 72 45
REMARK SMILES IDX 71 46 27 48 59 49 39 50 58 51 40 52 43 53 57 54 76 55 41 56
REMARK SMILES IDX 42 57 56 59 77 60 44 61 28 62 29 63 37 64 30 65 36 66 38 67
REMARK SMILES IDX 35 68 31 69 32 70 33 71 34 72 60 73 61 74 69 75 62 76 68 77
REMARK SMILES IDX 70 78 67 79 63 80 64 81 65 82 66 83 45 84 46 85 54 86 47 87
REMARK SMILES IDX 53 88 55 89 52 90 48 91 49 92 50 93 51 94
REMARK H PARENT 12 5 88 16 16 28 75 47 43 58
REMARK Flexibility Score: inf
ROOT
ATOM      1  C   UNL A   1      31.685  29.779  25.576  1.00  0.00     0.117 C 
ENDROOT
BRANCH   1   2
ATOM      2  N   UNL A   1      32.769  29.665  24.623  1.00  0.00    -0.354 N 
ATOM      3  C   UNL A   1      33.448  28.546  24.251  1.00  0.00     0.239 C 
ATOM      4  O   UNL A   1      34.193  28.612  23.271  1.00  0.00    -0.273 OA
ATOM      5  H   UNL A   1      33.050  30.503  24.190  1.00  0.00     0.163 HD
BRANCH   3   6
ATOM      6  C   UNL A   1      33.178  27.212  24.958  1.00  0.00     0.221 C 
BRANCH   6   7
ATOM      7  N   UNL A   1      32.660  26.080  24.165  1.00  0.00    -0.311 N 
BRANCH   7   8
ATOM      8  C   UNL A   1      33.488  25.146  23.545  1.00  0.00     0.321 C 
ATOM      9  O   UNL A   1      33.948  25.353  22.419  1.00  0.00    -0.248 OA
BRANCH   8  10
ATOM     10  N   UNL A   1      33.808  23.952  24.182  1.00  0.00    -0.313 N 
ATOM     11  C   UNL A   1      33.660  21.473  24.614  1.00  0.00     0.203 C 
ATOM     12  C   UNL A   1      33.722  22.627  23.573  1.00  0.00     0.186 C 
ATOM     13  N   UNL A   1      34.750  21.506  25.621  1.00  0.00    -0.332 N 
ATOM     14  C   UNL A   1      34.949  22.867  26.173  1.00  0.00     0.284 C 
ATOM     15  C   UNL A   1      36.006  21.009  25.055  1.00  0.00     0.333 C 
ATOM     16  H   UNL A   1      34.465  20.893  26.384  1.00  0.00     0.348 HD
ATOM     17  C   UNL A   1      34.883  24.044  25.181  1.00  0.00     0.183 C 
BRANCH  11  18
ATOM     18  C   UNL A   1      32.253  21.260  25.243  1.00  0.00     0.063 C 
ATOM     19  C   UNL A   1      31.581  22.427  25.951  1.00  0.00     0.010 C 
ENDBRANCH  11  18
ENDBRANCH   8  10
ENDBRANCH   7   8
BRANCH   7  20
ATOM     20  C   UNL A   1      31.169  26.022  23.865  1.00  0.00     0.037 C 
ATOM     21  C   UNL A   1      30.310  26.232  25.133  1.00  0.00     0.034 C 
ATOM     22  C   UNL A   1      30.805  27.098  22.812  1.00  0.00     0.034 C 
ATOM     23  C   UNL A   1      30.696  24.680  23.251  1.00  0.00     0.034 C 
ENDBRANCH   7  20
ENDBRANCH   6   7
ENDBRANCH   3   6
ENDBRANCH   1   2
BRANCH   1  24
ATOM     24  C   UNL A   1      31.528  31.175  26.150  1.00  0.00     0.042 C 
BRANCH  24  25
ATOM     25  C   UNL A   1      32.693  31.599  27.029  1.00  0.00     0.118 C 
BRANCH  25  26
ATOM     26  N   UNL A   1      32.701  33.035  27.269  1.00  0.00    -0.352 N 
ATOM     27  C   UNL A   1      33.479  33.765  28.131  1.00  0.00     0.251 C 
ATOM     28  H   UNL A   1      32.057  33.557  26.738  1.00  0.00     0.163 HD
ATOM     29  O   UNL A   1      33.178  34.935  28.371  1.00  0.00    -0.269 OA
BRANCH  27  30
ATOM     30  C   UNL A   1      34.654  33.146  28.778  1.00  0.00     0.039 A 
ATOM     31  C   UNL A   1      34.462  32.331  29.896  1.00  0.00     0.014 A 
ATOM     32  C   UNL A   1      35.945  33.380  28.294  1.00  0.00     0.014 A 
ATOM     33  C   UNL A   1      35.559  31.711  30.495  1.00  0.00     0.010 A 
ATOM     34  C   UNL A   1      37.027  32.698  28.842  1.00  0.00     0.010 A 
ATOM     35  C   UNL A   1      36.847  31.864  29.956  1.00  0.00    -0.014 A 
BRANCH  35  36
ATOM     36  C   UNL A   1      38.019  31.179  30.559  1.00  0.00     0.031 A 
ATOM     37  C   UNL A   1      38.498  31.572  31.930  1.00  0.00     0.074 A 
ATOM     38  C   UNL A   1      38.680  30.240  29.851  1.00  0.00     0.049 A 
ATOM     39  N   UNL A   1      39.535  31.141  32.602  1.00  0.00    -0.248 NA
ATOM     40  C   UNL A   1      37.723  32.612  32.626  1.00  0.00     0.031 C 
ATOM     41  C   UNL A   1      38.336  29.807  28.496  1.00  0.00     0.029 A 
ATOM     42  N   UNL A   1      39.782  29.487  30.170  1.00  0.00    -0.354 N 
ATOM     43  C   UNL A   1      39.542  31.859  33.792  1.00  0.00     0.074 A 
ATOM     44  C   UNL A   1      38.445  32.801  33.720  1.00  0.00     0.031 C 
ATOM     45  C   UNL A   1      39.193  28.850  28.108  1.00  0.00     0.029 A 
ATOM     46  C   UNL A   1      40.175  28.631  29.167  1.00  0.00     0.049 A 
ATOM     47  H   UNL A   1      40.247  29.553  31.034  1.00  0.00     0.167 HD
ATOM     48  C   UNL A   1      40.371  31.727  34.858  1.00  0.00     0.034 A 
ATOM     49  C   UNL A   1      41.215  27.776  29.103  1.00  0.00     0.034 A 
ATOM     50  C   UNL A   1      41.453  30.776  34.917  1.00  0.00     0.049 A 
ATOM     51  C   UNL A   1      42.134  27.660  30.292  1.00  0.00     0.074 A 
ATOM     52  C   UNL A   1      42.327  30.528  35.962  1.00  0.00     0.029 A 
ATOM     53  N   UNL A   1      41.816  29.919  33.886  1.00  0.00    -0.354 N 
ATOM     54  N   UNL A   1      42.099  28.314  31.431  1.00  0.00    -0.248 NA
ATOM     55  C   UNL A   1      43.223  26.680  30.195  1.00  0.00     0.031 C 
ATOM     56  C   UNL A   1      43.254  29.568  35.541  1.00  0.00     0.029 A 
ATOM     57  C   UNL A   1      42.915  29.160  34.261  1.00  0.00     0.049 A 
ATOM     58  H   UNL A   1      41.360  29.858  33.016  1.00  0.00     0.167 HD
ATOM     59  C   UNL A   1      43.144  27.801  32.195  1.00  0.00     0.074 A 
ATOM     60  C   UNL A   1      43.778  26.774  31.394  1.00  0.00     0.031 C 
ATOM     61  C   UNL A   1      43.542  28.146  33.446  1.00  0.00     0.034 A 
BRANCH  48  62
ATOM     62  C   UNL A   1      40.143  32.651  36.032  1.00  0.00     0.023 A 
ATOM     63  C   UNL A   1      39.297  32.295  37.098  1.00  0.00     0.031 A 
ATOM     64  C   UNL A   1      40.760  33.914  36.077  1.00  0.00     0.131 A 
ATOM     65  C   UNL A   1      39.032  33.217  38.121  1.00  0.00     0.055 A 
ATOM     66  C   UNL A   1      40.557  34.795  37.142  1.00  0.00     0.041 A 
ATOM     67  F   UNL A   1      41.562  34.319  35.080  1.00  0.00    -0.206 F 
ATOM     68  C   UNL A   1      39.676  34.455  38.164  1.00  0.00     0.022 A 
BRANCH  65  69
ATOM     69  S   UNL A   1      37.726  32.829  39.319  1.00  0.00     0.124 S 
ATOM     70  O   UNL A   1      36.545  32.778  38.460  1.00  0.00    -0.237 OA
ATOM     71  O   UNL A   1      38.171  31.554  39.869  1.00  0.00    -0.237 OA
ATOM     72  O   UNL A   1      37.765  33.957  40.246  1.00  0.00    -0.744 OA
ENDBRANCH  65  69
ENDBRANCH  48  62
BRANCH  49  73
ATOM     73  C   UNL A   1      41.454  26.969  27.873  1.00  0.00     0.023 A 
ATOM     74  C   UNL A   1      41.124  25.606  27.823  1.00  0.00     0.031 A 
ATOM     75  C   UNL A   1      42.059  27.542  26.739  1.00  0.00     0.131 A 
ATOM     76  C   UNL A   1      41.443  24.849  26.684  1.00  0.00     0.055 A 
ATOM     77  C   UNL A   1      42.324  26.799  25.589  1.00  0.00     0.041 A 
ATOM     78  F   UNL A   1      42.390  28.844  26.732  1.00  0.00    -0.206 F 
ATOM     79  C   UNL A   1      42.029  25.440  25.562  1.00  0.00     0.022 A 
BRANCH  76  80
ATOM     80  S   UNL A   1      41.161  23.058  26.726  1.00  0.00     0.124 S 
ATOM     81  O   UNL A   1      42.016  22.597  25.639  1.00  0.00    -0.237 OA
ATOM     82  O   UNL A   1      41.596  22.714  28.076  1.00  0.00    -0.237 OA
ATOM     83  O   UNL A   1      39.724  22.934  26.487  1.00  0.00    -0.744 OA
ENDBRANCH  76  80
ENDBRANCH  49  73
BRANCH  61  84
ATOM     84  C   UNL A   1      44.690  27.365  34.038  1.00  0.00     0.023 A 
ATOM     85  C   UNL A   1      44.483  26.175  34.758  1.00  0.00     0.031 A 
ATOM     86  C   UNL A   1      46.009  27.826  33.887  1.00  0.00     0.131 A 
ATOM     87  C   UNL A   1      45.574  25.517  35.348  1.00  0.00     0.055 A 
ATOM     88  C   UNL A   1      47.096  27.136  34.424  1.00  0.00     0.041 A 
ATOM     89  F   UNL A   1      46.264  28.958  33.210  1.00  0.00    -0.206 F 
ATOM     90  C   UNL A   1      46.880  25.981  35.171  1.00  0.00     0.022 A 
BRANCH  87  91
ATOM     91  S   UNL A   1      45.254  24.094  36.426  1.00  0.00     0.124 S 
ATOM     92  O   UNL A   1      44.101  23.476  35.780  1.00  0.00    -0.237 OA
ATOM     93  O   UNL A   1      46.507  23.351  36.341  1.00  0.00    -0.237 OA
ATOM     94  O   UNL A   1      44.983  24.704  37.728  1.00  0.00    -0.744 OA
ENDBRANCH  87  91
ENDBRANCH  61  84
ENDBRANCH  35  36
ENDBRANCH  27  30
ENDBRANCH  25  26
ENDBRANCH  24  25
ENDBRANCH   1  24
TORSDOF 18
ENDMDL
