MODEL 1
REMARK VINA RESULT:     -11.4      0.000      0.000
REMARK SMILES COc1ccccc1S(=O)(=O)[C@@H](C)[C@H](C)C(=O)NCCCNC(=O)c1ccc(-c2c3nc(c(-c4cc(S(=O)(=O)[O-])ccc4F)c4ccc([nH]4)c(-c4cc(S(=O)(=O)[O-])ccc4F)c4nc(c(-c5cc(S(=O)(=O)[O-])ccc5F)c5ccc2[nH]5)C=C4)C=C3)cc1
REMARK SMILES IDX 19 1 18 2 16 3 17 4 14 6 15 7 12 8 13 9 9 10 10 11 11 12
REMARK SMILES IDX 8 13 3 14 4 15 5 16 7 17 6 18 2 19 1 20 20 21 21 22 22 23
REMARK SMILES IDX 23 24 24 26 25 27 26 28 87 29 27 30 86 31 28 32 29 33 30 34
REMARK SMILES IDX 80 35 31 36 85 37 79 38 81 39 32 40 84 41 78 42 77 43 33 45
REMARK SMILES IDX 65 46 45 47 64 48 46 49 49 50 63 51 82 52 47 53 48 54 62 56
REMARK SMILES IDX 83 57 50 58 34 59 35 60 43 61 36 62 42 63 44 64 41 65 37 66
REMARK SMILES IDX 38 67 39 68 40 69 66 70 67 71 75 72 68 73 74 74 76 75 73 76
REMARK SMILES IDX 69 77 70 78 71 79 72 80 51 81 52 82 60 83 53 84 59 85 61 86
REMARK SMILES IDX 58 87 54 88 55 89 56 90 57 91
REMARK H PARENT 18 5 22 25 81 44 49 55
REMARK Flexibility Score: inf
ROOT
ATOM      1  C   UNL A   1      31.413  30.055  25.877  1.00  0.00     0.117 C 
ENDROOT
BRANCH   1   2
ATOM      2  N   UNL A   1      31.547  29.854  24.443  1.00  0.00    -0.356 N 
ATOM      3  C   UNL A   1      31.158  28.817  23.646  1.00  0.00     0.224 C 
ATOM      4  O   UNL A   1      31.454  28.858  22.453  1.00  0.00    -0.275 OA
ATOM      5  H   UNL A   1      31.994  30.590  23.966  1.00  0.00     0.163 HD
BRANCH   3   6
ATOM      6  C   UNL A   1      30.397  27.629  24.231  1.00  0.00     0.093 C 
ATOM      7  C   UNL A   1      29.049  27.530  23.504  1.00  0.00     0.019 C 
BRANCH   6   8
ATOM      8  C   UNL A   1      31.335  26.393  24.294  1.00  0.00     0.122 C 
ATOM      9  C   UNL A   1      30.829  25.023  23.835  1.00  0.00     0.026 C 
BRANCH   8  10
ATOM     10  S   UNL A   1      32.279  26.287  25.808  1.00  0.00     0.185 S 
ATOM     11  O   UNL A   1      31.342  26.444  26.906  1.00  0.00    -0.223 OA
ATOM     12  O   UNL A   1      33.377  27.234  25.683  1.00  0.00    -0.223 OA
BRANCH  10  13
ATOM     13  C   UNL A   1      33.064  24.719  26.080  1.00  0.00     0.109 A 
ATOM     14  C   UNL A   1      32.561  23.674  26.846  1.00  0.00     0.137 A 
ATOM     15  C   UNL A   1      33.344  22.529  27.054  1.00  0.00     0.048 A 
ATOM     16  C   UNL A   1      34.576  22.383  26.417  1.00  0.00     0.004 A 
ATOM     17  C   UNL A   1      34.302  24.560  25.429  1.00  0.00     0.024 A 
ATOM     18  C   UNL A   1      35.045  23.390  25.583  1.00  0.00     0.002 A 
BRANCH  14  19
ATOM     19  O   UNL A   1      31.337  23.749  27.432  1.00  0.00    -0.495 OA
ATOM     20  C   UNL A   1      30.353  22.968  26.747  1.00  0.00     0.278 C 
ENDBRANCH  14  19
ENDBRANCH  10  13
ENDBRANCH   8  10
ENDBRANCH   6   8
ENDBRANCH   3   6
ENDBRANCH   1   2
BRANCH   1  21
ATOM     21  C   UNL A   1      31.328  31.523  26.260  1.00  0.00     0.042 C 
BRANCH  21  22
ATOM     22  C   UNL A   1      32.486  31.977  27.129  1.00  0.00     0.118 C 
BRANCH  22  23
ATOM     23  N   UNL A   1      32.489  33.420  27.316  1.00  0.00    -0.352 N 
ATOM     24  C   UNL A   1      33.216  34.179  28.202  1.00  0.00     0.251 C 
ATOM     25  H   UNL A   1      31.886  33.924  26.724  1.00  0.00     0.163 HD
ATOM     26  O   UNL A   1      32.903  35.345  28.402  1.00  0.00    -0.269 OA
BRANCH  24  27
ATOM     27  C   UNL A   1      34.353  33.565  28.919  1.00  0.00     0.039 A 
ATOM     28  C   UNL A   1      34.102  32.720  30.000  1.00  0.00     0.014 A 
ATOM     29  C   UNL A   1      35.666  33.810  28.507  1.00  0.00     0.014 A 
ATOM     30  C   UNL A   1      35.168  32.070  30.625  1.00  0.00     0.010 A 
ATOM     31  C   UNL A   1      36.710  33.078  29.055  1.00  0.00     0.010 A 
ATOM     32  C   UNL A   1      36.475  32.210  30.131  1.00  0.00    -0.014 A 
BRANCH  32  33
ATOM     33  C   UNL A   1      37.622  31.491  30.741  1.00  0.00     0.031 A 
ATOM     34  C   UNL A   1      38.045  31.827  32.147  1.00  0.00     0.074 A 
ATOM     35  C   UNL A   1      38.310  30.585  30.019  1.00  0.00     0.049 A 
ATOM     36  N   UNL A   1      39.075  31.394  32.828  1.00  0.00    -0.248 NA
ATOM     37  C   UNL A   1      37.217  32.806  32.871  1.00  0.00     0.031 C 
ATOM     38  C   UNL A   1      38.008  30.197  28.639  1.00  0.00     0.029 A 
ATOM     39  N   UNL A   1      39.408  29.828  30.341  1.00  0.00    -0.354 N 
ATOM     40  C   UNL A   1      39.020  32.048  34.053  1.00  0.00     0.074 A 
ATOM     41  C   UNL A   1      37.905  32.967  33.991  1.00  0.00     0.031 C 
ATOM     42  C   UNL A   1      38.877  29.251  28.248  1.00  0.00     0.029 A 
ATOM     43  C   UNL A   1      39.833  29.005  29.323  1.00  0.00     0.049 A 
ATOM     44  H   UNL A   1      39.850  29.868  31.220  1.00  0.00     0.167 HD
ATOM     45  C   UNL A   1      39.807  31.876  35.143  1.00  0.00     0.034 A 
ATOM     46  C   UNL A   1      40.882  28.162  29.260  1.00  0.00     0.034 A 
ATOM     47  C   UNL A   1      40.909  30.948  35.192  1.00  0.00     0.049 A 
ATOM     48  C   UNL A   1      41.780  28.032  30.467  1.00  0.00     0.074 A 
ATOM     49  C   UNL A   1      41.759  30.675  36.249  1.00  0.00     0.029 A 
ATOM     50  N   UNL A   1      41.316  30.142  34.136  1.00  0.00    -0.354 N 
ATOM     51  N   UNL A   1      41.697  28.640  31.629  1.00  0.00    -0.248 NA
ATOM     52  C   UNL A   1      42.908  27.097  30.358  1.00  0.00     0.031 C 
ATOM     53  C   UNL A   1      42.719  29.758  35.813  1.00  0.00     0.029 A 
ATOM     54  C   UNL A   1      42.418  29.391  34.512  1.00  0.00     0.049 A 
ATOM     55  H   UNL A   1      40.885  30.109  33.252  1.00  0.00     0.167 HD
ATOM     56  C   UNL A   1      42.733  28.120  32.402  1.00  0.00     0.074 A 
ATOM     57  C   UNL A   1      43.417  27.147  31.579  1.00  0.00     0.031 C 
ATOM     58  C   UNL A   1      43.083  28.416  33.680  1.00  0.00     0.034 A 
BRANCH  45  59
ATOM     59  C   UNL A   1      39.505  32.715  36.360  1.00  0.00     0.023 A 
ATOM     60  C   UNL A   1      38.678  32.240  37.393  1.00  0.00     0.031 A 
ATOM     61  C   UNL A   1      40.039  34.009  36.489  1.00  0.00     0.131 A 
ATOM     62  C   UNL A   1      38.352  33.076  38.472  1.00  0.00     0.055 A 
ATOM     63  C   UNL A   1      39.781  34.804  37.607  1.00  0.00     0.041 A 
ATOM     64  F   UNL A   1      40.816  34.527  35.524  1.00  0.00    -0.206 F 
ATOM     65  C   UNL A   1      38.921  34.343  38.601  1.00  0.00     0.022 A 
BRANCH  62  66
ATOM     66  S   UNL A   1      37.069  32.530  39.631  1.00  0.00     0.124 S 
ATOM     67  O   UNL A   1      35.857  32.710  38.834  1.00  0.00    -0.237 OA
ATOM     68  O   UNL A   1      37.455  31.150  39.905  1.00  0.00    -0.237 OA
ATOM     69  O   UNL A   1      37.210  33.454  40.755  1.00  0.00    -0.744 OA
ENDBRANCH  62  66
ENDBRANCH  45  59
BRANCH  46  70
ATOM     70  C   UNL A   1      41.161  27.376  28.022  1.00  0.00     0.023 A 
ATOM     71  C   UNL A   1      40.975  25.985  27.996  1.00  0.00     0.031 A 
ATOM     72  C   UNL A   1      41.692  27.988  26.872  1.00  0.00     0.131 A 
ATOM     73  C   UNL A   1      41.383  25.243  26.877  1.00  0.00     0.055 A 
ATOM     74  C   UNL A   1      42.032  27.253  25.734  1.00  0.00     0.041 A 
ATOM     75  F   UNL A   1      41.892  29.315  26.837  1.00  0.00    -0.206 F 
ATOM     76  C   UNL A   1      41.896  25.869  25.740  1.00  0.00     0.022 A 
BRANCH  73  77
ATOM     77  S   UNL A   1      41.357  23.432  26.984  1.00  0.00     0.124 S 
ATOM     78  O   UNL A   1      41.578  23.053  25.593  1.00  0.00    -0.237 OA
ATOM     79  O   UNL A   1      42.457  23.168  27.905  1.00  0.00    -0.237 OA
ATOM     80  O   UNL A   1      40.024  23.143  27.506  1.00  0.00    -0.744 OA
ENDBRANCH  73  77
ENDBRANCH  46  70
BRANCH  58  81
ATOM     81  C   UNL A   1      44.214  27.621  34.287  1.00  0.00     0.023 A 
ATOM     82  C   UNL A   1      44.008  26.363  34.879  1.00  0.00     0.031 A 
ATOM     83  C   UNL A   1      45.522  28.138  34.270  1.00  0.00     0.131 A 
ATOM     84  C   UNL A   1      45.083  25.690  35.478  1.00  0.00     0.055 A 
ATOM     85  C   UNL A   1      46.599  27.433  34.807  1.00  0.00     0.041 A 
ATOM     86  F   UNL A   1      45.776  29.336  33.720  1.00  0.00    -0.206 F 
ATOM     87  C   UNL A   1      46.381  26.207  35.428  1.00  0.00     0.022 A 
BRANCH  84  88
ATOM     88  S   UNL A   1      44.749  24.170  36.409  1.00  0.00     0.124 S 
ATOM     89  O   UNL A   1      43.585  23.636  35.708  1.00  0.00    -0.237 OA
ATOM     90  O   UNL A   1      45.991  23.422  36.241  1.00  0.00    -0.237 OA
ATOM     91  O   UNL A   1      44.491  24.647  37.766  1.00  0.00    -0.744 OA
ENDBRANCH  84  88
ENDBRANCH  58  81
ENDBRANCH  32  33
ENDBRANCH  24  27
ENDBRANCH  22  23
ENDBRANCH  21  22
ENDBRANCH   1  21
TORSDOF 17
ENDMDL
MODEL 2
REMARK VINA RESULT:     -11.3      5.885     11.164
REMARK SMILES COc1ccccc1S(=O)(=O)[C@@H](C)[C@H](C)C(=O)NCCCNC(=O)c1ccc(-c2c3nc(c(-c4cc(S(=O)(=O)[O-])ccc4F)c4ccc([nH]4)c(-c4cc(S(=O)(=O)[O-])ccc4F)c4nc(c(-c5cc(S(=O)(=O)[O-])ccc5F)c5ccc2[nH]5)C=C4)C=C3)cc1
REMARK SMILES IDX 19 1 18 2 16 3 17 4 14 6 15 7 12 8 13 9 9 10 10 11 11 12
REMARK SMILES IDX 8 13 3 14 4 15 5 16 7 17 6 18 2 19 1 20 20 21 21 22 22 23
REMARK SMILES IDX 23 24 24 26 25 27 26 28 87 29 27 30 86 31 28 32 29 33 30 34
REMARK SMILES IDX 80 35 31 36 85 37 79 38 81 39 32 40 84 41 78 42 77 43 33 45
REMARK SMILES IDX 65 46 45 47 64 48 46 49 49 50 63 51 82 52 47 53 48 54 62 56
REMARK SMILES IDX 83 57 50 58 34 59 35 60 43 61 36 62 42 63 44 64 41 65 37 66
REMARK SMILES IDX 38 67 39 68 40 69 66 70 67 71 75 72 68 73 74 74 76 75 73 76
REMARK SMILES IDX 69 77 70 78 71 79 72 80 51 81 52 82 60 83 53 84 59 85 61 86
REMARK SMILES IDX 58 87 54 88 55 89 56 90 57 91
REMARK H PARENT 18 5 22 25 81 44 49 55
REMARK Flexibility Score: inf
ROOT
ATOM      1  C   UNL A   1      36.927  20.343  24.997  1.00  0.00     0.117 C 
ENDROOT
BRANCH   1   2
ATOM      2  N   UNL A   1      36.963  21.419  24.017  1.00  0.00    -0.356 N 
ATOM      3  C   UNL A   1      36.569  22.722  24.107  1.00  0.00     0.224 C 
ATOM      4  O   UNL A   1      36.642  23.422  23.098  1.00  0.00    -0.275 OA
ATOM      5  H   UNL A   1      37.333  21.163  23.142  1.00  0.00     0.163 HD
BRANCH   3   6
ATOM      6  C   UNL A   1      36.031  23.284  25.421  1.00  0.00     0.093 C 
ATOM      7  C   UNL A   1      37.155  24.094  26.081  1.00  0.00     0.019 C 
BRANCH   6   8
ATOM      8  C   UNL A   1      34.645  23.939  25.175  1.00  0.00     0.122 C 
ATOM      9  C   UNL A   1      34.443  25.431  25.455  1.00  0.00     0.026 C 
BRANCH   8  10
ATOM     10  S   UNL A   1      33.273  22.955  25.761  1.00  0.00     0.185 S 
ATOM     11  O   UNL A   1      32.072  23.757  25.596  1.00  0.00    -0.223 OA
ATOM     12  O   UNL A   1      33.628  22.493  27.094  1.00  0.00    -0.223 OA
BRANCH  10  13
ATOM     13  C   UNL A   1      32.979  21.472  24.832  1.00  0.00     0.109 A 
ATOM     14  C   UNL A   1      32.422  21.399  23.560  1.00  0.00     0.137 A 
ATOM     15  C   UNL A   1      32.156  20.145  22.992  1.00  0.00     0.048 A 
ATOM     16  C   UNL A   1      32.537  18.972  23.643  1.00  0.00     0.004 A 
ATOM     17  C   UNL A   1      33.374  20.286  25.478  1.00  0.00     0.024 A 
ATOM     18  C   UNL A   1      33.170  19.044  24.878  1.00  0.00     0.002 A 
BRANCH  14  19
ATOM     19  O   UNL A   1      32.095  22.520  22.865  1.00  0.00    -0.495 OA
ATOM     20  C   UNL A   1      33.200  23.047  22.124  1.00  0.00     0.278 C 
ENDBRANCH  14  19
ENDBRANCH  10  13
ENDBRANCH   8  10
ENDBRANCH   6   8
ENDBRANCH   3   6
ENDBRANCH   1   2
BRANCH   1  21
ATOM     21  C   UNL A   1      38.208  19.527  25.020  1.00  0.00     0.042 C 
BRANCH  21  22
ATOM     22  C   UNL A   1      39.293  20.150  25.877  1.00  0.00     0.118 C 
BRANCH  22  23
ATOM     23  N   UNL A   1      40.414  19.244  26.076  1.00  0.00    -0.352 N 
ATOM     24  C   UNL A   1      41.748  19.534  26.239  1.00  0.00     0.251 C 
ATOM     25  H   UNL A   1      40.185  18.286  26.097  1.00  0.00     0.163 HD
ATOM     26  O   UNL A   1      42.581  18.644  26.130  1.00  0.00    -0.269 OA
BRANCH  24  27
ATOM     27  C   UNL A   1      42.156  20.927  26.519  1.00  0.00     0.039 A 
ATOM     28  C   UNL A   1      42.401  21.794  25.454  1.00  0.00     0.014 A 
ATOM     29  C   UNL A   1      42.277  21.377  27.836  1.00  0.00     0.014 A 
ATOM     30  C   UNL A   1      42.702  23.132  25.714  1.00  0.00     0.010 A 
ATOM     31  C   UNL A   1      42.466  22.729  28.089  1.00  0.00     0.010 A 
ATOM     32  C   UNL A   1      42.695  23.620  27.031  1.00  0.00    -0.014 A 
BRANCH  32  33
ATOM     33  C   UNL A   1      42.960  25.049  27.335  1.00  0.00     0.031 A 
ATOM     34  C   UNL A   1      44.327  25.623  27.068  1.00  0.00     0.074 A 
ATOM     35  C   UNL A   1      41.999  25.807  27.898  1.00  0.00     0.049 A 
ATOM     36  N   UNL A   1      44.796  26.810  27.353  1.00  0.00    -0.248 NA
ATOM     37  C   UNL A   1      45.305  24.731  26.424  1.00  0.00     0.031 C 
ATOM     38  C   UNL A   1      40.646  25.352  28.226  1.00  0.00     0.029 A 
ATOM     39  N   UNL A   1      42.011  27.119  28.298  1.00  0.00    -0.354 N 
ATOM     40  C   UNL A   1      46.120  26.805  26.928  1.00  0.00     0.074 A 
ATOM     41  C   UNL A   1      46.402  25.473  26.442  1.00  0.00     0.031 C 
ATOM     42  C   UNL A   1      39.950  26.377  28.743  1.00  0.00     0.029 A 
ATOM     43  C   UNL A   1      40.820  27.545  28.840  1.00  0.00     0.049 A 
ATOM     44  H   UNL A   1      42.798  27.703  28.205  1.00  0.00     0.167 HD
ATOM     45  C   UNL A   1      47.010  27.826  26.914  1.00  0.00     0.034 A 
ATOM     46  C   UNL A   1      40.475  28.736  29.368  1.00  0.00     0.034 A 
ATOM     47  C   UNL A   1      46.711  29.153  27.394  1.00  0.00     0.049 A 
ATOM     48  C   UNL A   1      41.505  29.841  29.395  1.00  0.00     0.074 A 
ATOM     49  C   UNL A   1      47.528  30.269  27.407  1.00  0.00     0.029 A 
ATOM     50  N   UNL A   1      45.497  29.542  27.947  1.00  0.00    -0.354 N 
ATOM     51  N   UNL A   1      42.745  29.827  28.963  1.00  0.00    -0.248 NA
ATOM     52  C   UNL A   1      41.085  31.125  29.972  1.00  0.00     0.031 C 
ATOM     53  C   UNL A   1      46.835  31.311  28.028  1.00  0.00     0.029 A 
ATOM     54  C   UNL A   1      45.555  30.873  28.325  1.00  0.00     0.049 A 
ATOM     55  H   UNL A   1      44.713  28.958  28.054  1.00  0.00     0.167 HD
ATOM     56  C   UNL A   1      43.234  31.114  29.173  1.00  0.00     0.074 A 
ATOM     57  C   UNL A   1      42.154  31.878  29.759  1.00  0.00     0.031 C 
ATOM     58  C   UNL A   1      44.463  31.623  28.900  1.00  0.00     0.034 A 
BRANCH  45  59
ATOM     59  C   UNL A   1      48.390  27.542  26.371  1.00  0.00     0.023 A 
ATOM     60  C   UNL A   1      48.697  27.729  25.012  1.00  0.00     0.031 A 
ATOM     61  C   UNL A   1      49.408  27.067  27.216  1.00  0.00     0.131 A 
ATOM     62  C   UNL A   1      49.965  27.377  24.525  1.00  0.00     0.055 A 
ATOM     63  C   UNL A   1      50.694  26.801  26.742  1.00  0.00     0.041 A 
ATOM     64  F   UNL A   1      49.168  26.846  28.518  1.00  0.00    -0.206 F 
ATOM     65  C   UNL A   1      50.975  26.943  25.385  1.00  0.00     0.022 A 
BRANCH  62  66
ATOM     66  S   UNL A   1      50.230  27.369  22.732  1.00  0.00     0.124 S 
ATOM     67  O   UNL A   1      49.123  26.531  22.274  1.00  0.00    -0.237 OA
ATOM     68  O   UNL A   1      50.141  28.785  22.391  1.00  0.00    -0.237 OA
ATOM     69  O   UNL A   1      51.556  26.773  22.585  1.00  0.00    -0.744 OA
ENDBRANCH  62  66
ENDBRANCH  45  59
BRANCH  46  70
ATOM     70  C   UNL A   1      39.108  28.963  29.923  1.00  0.00     0.023 A 
ATOM     71  C   UNL A   1      38.136  29.655  29.183  1.00  0.00     0.031 A 
ATOM     72  C   UNL A   1      38.775  28.562  31.230  1.00  0.00     0.131 A 
ATOM     73  C   UNL A   1      36.910  29.989  29.776  1.00  0.00     0.055 A 
ATOM     74  C   UNL A   1      37.526  28.837  31.791  1.00  0.00     0.041 A 
ATOM     75  F   UNL A   1      39.663  27.896  31.985  1.00  0.00    -0.206 F 
ATOM     76  C   UNL A   1      36.592  29.572  31.069  1.00  0.00     0.022 A 
BRANCH  73  77
ATOM     77  S   UNL A   1      35.788  31.095  28.876  1.00  0.00     0.124 S 
ATOM     78  O   UNL A   1      36.728  31.966  28.181  1.00  0.00    -0.237 OA
ATOM     79  O   UNL A   1      35.043  30.156  28.043  1.00  0.00    -0.237 OA
ATOM     80  O   UNL A   1      35.014  31.732  29.940  1.00  0.00    -0.744 OA
ENDBRANCH  73  77
ENDBRANCH  46  70
BRANCH  58  81
ATOM     81  C   UNL A   1      44.676  33.093  29.165  1.00  0.00     0.023 A 
ATOM     82  C   UNL A   1      44.234  34.085  28.272  1.00  0.00     0.031 A 
ATOM     83  C   UNL A   1      45.334  33.505  30.339  1.00  0.00     0.131 A 
ATOM     84  C   UNL A   1      44.506  35.435  28.539  1.00  0.00     0.055 A 
ATOM     85  C   UNL A   1      45.542  34.853  30.631  1.00  0.00     0.041 A 
ATOM     86  F   UNL A   1      45.779  32.601  31.226  1.00  0.00    -0.206 F 
ATOM     87  C   UNL A   1      45.139  35.827  29.722  1.00  0.00     0.022 A 
BRANCH  84  88
ATOM     88  S   UNL A   1      44.106  36.670  27.273  1.00  0.00     0.124 S 
ATOM     89  O   UNL A   1      43.304  35.892  26.333  1.00  0.00    -0.237 OA
ATOM     90  O   UNL A   1      43.385  37.680  28.040  1.00  0.00    -0.237 OA
ATOM     91  O   UNL A   1      45.415  37.087  26.774  1.00  0.00    -0.744 OA
ENDBRANCH  84  88
ENDBRANCH  58  81
ENDBRANCH  32  33
ENDBRANCH  24  27
ENDBRANCH  22  23
ENDBRANCH  21  22
ENDBRANCH   1  21
TORSDOF 17
ENDMDL
MODEL 3
REMARK VINA RESULT:     -11.1      5.682     11.155
REMARK SMILES COc1ccccc1S(=O)(=O)[C@@H](C)[C@H](C)C(=O)NCCCNC(=O)c1ccc(-c2c3nc(c(-c4cc(S(=O)(=O)[O-])ccc4F)c4ccc([nH]4)c(-c4cc(S(=O)(=O)[O-])ccc4F)c4nc(c(-c5cc(S(=O)(=O)[O-])ccc5F)c5ccc2[nH]5)C=C4)C=C3)cc1
REMARK SMILES IDX 19 1 18 2 16 3 17 4 14 6 15 7 12 8 13 9 9 10 10 11 11 12
REMARK SMILES IDX 8 13 3 14 4 15 5 16 7 17 6 18 2 19 1 20 20 21 21 22 22 23
REMARK SMILES IDX 23 24 24 26 25 27 26 28 87 29 27 30 86 31 28 32 29 33 30 34
REMARK SMILES IDX 80 35 31 36 85 37 79 38 81 39 32 40 84 41 78 42 77 43 33 45
REMARK SMILES IDX 65 46 45 47 64 48 46 49 49 50 63 51 82 52 47 53 48 54 62 56
REMARK SMILES IDX 83 57 50 58 34 59 35 60 43 61 36 62 42 63 44 64 41 65 37 66
REMARK SMILES IDX 38 67 39 68 40 69 66 70 67 71 75 72 68 73 74 74 76 75 73 76
REMARK SMILES IDX 69 77 70 78 71 79 72 80 51 81 52 82 60 83 53 84 59 85 61 86
REMARK SMILES IDX 58 87 54 88 55 89 56 90 57 91
REMARK H PARENT 18 5 22 25 81 44 49 55
REMARK Flexibility Score: inf
ROOT
ATOM      1  C   UNL A   1      36.308  20.606  25.030  1.00  0.00     0.117 C 
ENDROOT
BRANCH   1   2
ATOM      2  N   UNL A   1      35.077  19.831  25.054  1.00  0.00    -0.356 N 
ATOM      3  C   UNL A   1      33.816  20.144  24.638  1.00  0.00     0.224 C 
ATOM      4  O   UNL A   1      32.919  19.325  24.835  1.00  0.00    -0.275 OA
ATOM      5  H   UNL A   1      35.169  18.928  25.436  1.00  0.00     0.163 HD
BRANCH   3   6
ATOM      6  C   UNL A   1      33.529  21.485  23.967  1.00  0.00     0.093 C 
ATOM      7  C   UNL A   1      32.203  21.355  23.205  1.00  0.00     0.019 C 
BRANCH   6   8
ATOM      8  C   UNL A   1      33.721  22.631  24.998  1.00  0.00     0.122 C 
ATOM      9  C   UNL A   1      32.635  22.915  26.038  1.00  0.00     0.026 C 
BRANCH   8  10
ATOM     10  S   UNL A   1      34.376  24.133  24.285  1.00  0.00     0.185 S 
ATOM     11  O   UNL A   1      35.237  23.740  23.182  1.00  0.00    -0.223 OA
ATOM     12  O   UNL A   1      34.948  24.901  25.381  1.00  0.00    -0.223 OA
BRANCH  10  13
ATOM     13  C   UNL A   1      33.156  25.204  23.570  1.00  0.00     0.109 A 
ATOM     14  C   UNL A   1      32.321  26.073  24.263  1.00  0.00     0.137 A 
ATOM     15  C   UNL A   1      31.332  26.785  23.568  1.00  0.00     0.048 A 
ATOM     16  C   UNL A   1      31.245  26.711  22.179  1.00  0.00     0.004 A 
ATOM     17  C   UNL A   1      33.072  25.144  22.166  1.00  0.00     0.024 A 
ATOM     18  C   UNL A   1      32.132  25.908  21.474  1.00  0.00     0.002 A 
BRANCH  14  19
ATOM     19  O   UNL A   1      32.417  26.223  25.611  1.00  0.00    -0.495 OA
ATOM     20  C   UNL A   1      31.507  27.205  26.118  1.00  0.00     0.278 C 
ENDBRANCH  14  19
ENDBRANCH  10  13
ENDBRANCH   8  10
ENDBRANCH   6   8
ENDBRANCH   3   6
ENDBRANCH   1   2
BRANCH   1  21
ATOM     21  C   UNL A   1      37.551  19.734  24.982  1.00  0.00     0.042 C 
BRANCH  21  22
ATOM     22  C   UNL A   1      38.739  20.356  25.690  1.00  0.00     0.118 C 
BRANCH  22  23
ATOM     23  N   UNL A   1      39.797  19.386  25.929  1.00  0.00    -0.352 N 
ATOM     24  C   UNL A   1      41.139  19.596  26.141  1.00  0.00     0.251 C 
ATOM     25  H   UNL A   1      39.511  18.443  25.942  1.00  0.00     0.163 HD
ATOM     26  O   UNL A   1      41.920  18.658  26.064  1.00  0.00    -0.269 OA
BRANCH  24  27
ATOM     27  C   UNL A   1      41.618  20.963  26.437  1.00  0.00     0.039 A 
ATOM     28  C   UNL A   1      41.952  21.812  25.381  1.00  0.00     0.014 A 
ATOM     29  C   UNL A   1      41.719  21.408  27.757  1.00  0.00     0.014 A 
ATOM     30  C   UNL A   1      42.322  23.131  25.652  1.00  0.00     0.010 A 
ATOM     31  C   UNL A   1      41.979  22.746  28.017  1.00  0.00     0.010 A 
ATOM     32  C   UNL A   1      42.298  23.620  26.968  1.00  0.00    -0.014 A 
BRANCH  32  33
ATOM     33  C   UNL A   1      42.636  25.032  27.282  1.00  0.00     0.031 A 
ATOM     34  C   UNL A   1      44.013  25.552  26.965  1.00  0.00     0.074 A 
ATOM     35  C   UNL A   1      41.732  25.820  27.896  1.00  0.00     0.049 A 
ATOM     36  N   UNL A   1      44.545  26.714  27.248  1.00  0.00    -0.248 NA
ATOM     37  C   UNL A   1      44.925  24.631  26.267  1.00  0.00     0.031 C 
ATOM     38  C   UNL A   1      40.376  25.417  28.275  1.00  0.00     0.029 A 
ATOM     39  N   UNL A   1      41.817  27.124  28.315  1.00  0.00    -0.354 N 
ATOM     40  C   UNL A   1      45.848  26.660  26.767  1.00  0.00     0.074 A 
ATOM     41  C   UNL A   1      46.052  25.325  26.250  1.00  0.00     0.031 C 
ATOM     42  C   UNL A   1      39.747  26.462  28.836  1.00  0.00     0.029 A 
ATOM     43  C   UNL A   1      40.668  27.591  28.913  1.00  0.00     0.049 A 
ATOM     44  H   UNL A   1      42.624  27.675  28.197  1.00  0.00     0.167 HD
ATOM     45  C   UNL A   1      46.780  27.643  26.730  1.00  0.00     0.034 A 
ATOM     46  C   UNL A   1      40.397  28.786  29.472  1.00  0.00     0.034 A 
ATOM     47  C   UNL A   1      46.557  28.973  27.242  1.00  0.00     0.049 A 
ATOM     48  C   UNL A   1      41.474  29.846  29.472  1.00  0.00     0.074 A 
ATOM     49  C   UNL A   1      47.421  30.054  27.237  1.00  0.00     0.029 A 
ATOM     50  N   UNL A   1      45.386  29.403  27.852  1.00  0.00    -0.354 N 
ATOM     51  N   UNL A   1      42.693  29.787  28.988  1.00  0.00    -0.248 NA
ATOM     52  C   UNL A   1      41.134  31.137  30.086  1.00  0.00     0.031 C 
ATOM     53  C   UNL A   1      46.800  31.114  27.903  1.00  0.00     0.029 A 
ATOM     54  C   UNL A   1      45.516  30.725  28.247  1.00  0.00     0.049 A 
ATOM     55  H   UNL A   1      44.582  28.851  27.984  1.00  0.00     0.167 HD
ATOM     56  C   UNL A   1      43.245  31.049  29.196  1.00  0.00     0.074 A 
ATOM     57  C   UNL A   1      42.223  31.847  29.839  1.00  0.00     0.031 C 
ATOM     58  C   UNL A   1      44.482  31.509  28.879  1.00  0.00     0.034 A 
BRANCH  45  59
ATOM     59  C   UNL A   1      48.122  27.310  26.126  1.00  0.00     0.023 A 
ATOM     60  C   UNL A   1      48.393  27.545  24.766  1.00  0.00     0.031 A 
ATOM     61  C   UNL A   1      49.139  26.740  26.910  1.00  0.00     0.131 A 
ATOM     62  C   UNL A   1      49.622  27.149  24.218  1.00  0.00     0.055 A 
ATOM     63  C   UNL A   1      50.392  26.427  26.378  1.00  0.00     0.041 A 
ATOM     64  F   UNL A   1      48.931  26.471  28.209  1.00  0.00    -0.206 F 
ATOM     65  C   UNL A   1      50.634  26.619  25.020  1.00  0.00     0.022 A 
BRANCH  62  66
ATOM     66  S   UNL A   1      49.826  27.212  22.418  1.00  0.00     0.124 S 
ATOM     67  O   UNL A   1      49.586  28.627  22.144  1.00  0.00    -0.237 OA
ATOM     68  O   UNL A   1      51.197  26.749  22.237  1.00  0.00    -0.237 OA
ATOM     69  O   UNL A   1      48.790  26.305  21.925  1.00  0.00    -0.744 OA
ENDBRANCH  62  66
ENDBRANCH  45  59
BRANCH  46  70
ATOM     70  C   UNL A   1      39.066  29.060  30.088  1.00  0.00     0.023 A 
ATOM     71  C   UNL A   1      38.110  29.842  29.419  1.00  0.00     0.031 A 
ATOM     72  C   UNL A   1      38.755  28.614  31.386  1.00  0.00     0.131 A 
ATOM     73  C   UNL A   1      36.926  30.214  30.072  1.00  0.00     0.055 A 
ATOM     74  C   UNL A   1      37.544  28.930  32.006  1.00  0.00     0.041 A 
ATOM     75  F   UNL A   1      39.629  27.863  32.075  1.00  0.00    -0.206 F 
ATOM     76  C   UNL A   1      36.630  29.751  31.356  1.00  0.00     0.022 A 
BRANCH  73  77
ATOM     77  S   UNL A   1      35.839  31.424  29.269  1.00  0.00     0.124 S 
ATOM     78  O   UNL A   1      36.807  32.356  28.700  1.00  0.00    -0.237 OA
ATOM     79  O   UNL A   1      35.111  30.591  28.318  1.00  0.00    -0.237 OA
ATOM     80  O   UNL A   1      35.042  31.950  30.375  1.00  0.00    -0.744 OA
ENDBRANCH  73  77
ENDBRANCH  46  70
BRANCH  58  81
ATOM     81  C   UNL A   1      44.769  32.965  29.157  1.00  0.00     0.023 A 
ATOM     82  C   UNL A   1      44.614  33.957  28.173  1.00  0.00     0.031 A 
ATOM     83  C   UNL A   1      45.204  33.362  30.435  1.00  0.00     0.131 A 
ATOM     84  C   UNL A   1      44.947  35.288  28.467  1.00  0.00     0.055 A 
ATOM     85  C   UNL A   1      45.468  34.697  30.740  1.00  0.00     0.041 A 
ATOM     86  F   UNL A   1      45.371  32.456  31.411  1.00  0.00    -0.206 F 
ATOM     87  C   UNL A   1      45.353  35.668  29.750  1.00  0.00     0.022 A 
BRANCH  84  88
ATOM     88  S   UNL A   1      44.931  36.506  27.124  1.00  0.00     0.124 S 
ATOM     89  O   UNL A   1      45.332  37.727  27.816  1.00  0.00    -0.237 OA
ATOM     90  O   UNL A   1      45.907  35.953  26.190  1.00  0.00    -0.237 OA
ATOM     91  O   UNL A   1      43.546  36.485  26.657  1.00  0.00    -0.744 OA
ENDBRANCH  84  88
ENDBRANCH  58  81
ENDBRANCH  32  33
ENDBRANCH  24  27
ENDBRANCH  22  23
ENDBRANCH  21  22
ENDBRANCH   1  21
TORSDOF 17
ENDMDL
