MODEL 1
REMARK VINA RESULT:     -12.7      0.000      0.000
REMARK SMILES Cc1c(Br)c(C)c2c(c1Br)O[C@H](C(F)(F)F)C(C(=O)NCCCNC(=O)c1ccc(-c3c4nc(c(-c5cc(S(=O)(=O)[O-])ccc5F)c5ccc([nH]5)c(-c5cc(S(=O)(=O)[O-])ccc5F)c5nc(c(-c6cc(S(=O)(=O)[O-])ccc6F)c6ccc3[nH]6)C=C5)C=C4)cc1)=C2
REMARK SMILES IDX 23 1 22 2 21 3 20 4 18 5 19 6 17 8 1 9 2 10 3 11 9 12 4 13
REMARK SMILES IDX 5 14 8 15 10 16 6 17 7 18 11 19 90 20 12 21 13 22 14 23
REMARK SMILES IDX 15 24 16 25 24 26 25 27 26 29 27 30 28 31 89 32 29 33 88 34
REMARK SMILES IDX 30 35 31 36 32 37 82 38 33 39 87 40 81 41 83 42 34 43 86 44
REMARK SMILES IDX 80 45 79 46 35 48 67 49 47 50 66 51 48 52 51 53 65 54 84 55
REMARK SMILES IDX 49 56 50 57 64 59 85 60 52 61 36 62 37 63 45 64 38 65 44 66
REMARK SMILES IDX 46 67 43 68 39 69 40 70 41 71 42 72 68 73 69 74 77 75 70 76
REMARK SMILES IDX 76 77 78 78 75 79 71 80 72 81 73 82 74 83 53 84 54 85 62 86
REMARK SMILES IDX 55 87 61 88 63 89 60 90 56 91 57 92 58 93 59 94
REMARK H PARENT 20 7 24 28 83 47 51 58
REMARK Flexibility Score: inf
ROOT
ATOM      1  C   UNL A   1      33.479  29.017  24.688  1.00  0.00     0.118 C 
ENDROOT
BRANCH   1   2
ATOM      2  C   UNL A   1      32.767  28.532  23.430  1.00  0.00     0.042 C 
BRANCH   2   3
ATOM      3  C   UNL A   1      32.210  27.125  23.595  1.00  0.00     0.118 C 
BRANCH   3   4
ATOM      4  N   UNL A   1      31.771  26.873  24.960  1.00  0.00    -0.352 N 
ATOM      5  C   UNL A   1      31.786  25.844  25.835  1.00  0.00     0.251 C 
ATOM      6  O   UNL A   1      31.271  26.078  26.934  1.00  0.00    -0.270 OA
ATOM      7  H   UNL A   1      31.348  27.671  25.353  1.00  0.00     0.163 HD
BRANCH   5   8
ATOM      8  C   UNL A   1      32.377  24.499  25.573  1.00  0.00     0.067 C 
ATOM      9  C   UNL A   1      36.135  19.200  24.747  1.00  0.00     0.047 C 
ATOM     10  C   UNL A   1      35.551  20.563  25.032  1.00  0.00    -0.019 A 
ATOM     11  C   UNL A   1      36.354  21.687  25.351  1.00  0.00     0.025 A 
ATOM     12  C   UNL A   1      34.151  20.727  25.036  1.00  0.00     0.064 A 
ATOM     13  Br  UNL A   1      38.257  21.465  25.482  1.00  0.00    -0.050 Br
ATOM     14  C   UNL A   1      35.781  22.963  25.604  1.00  0.00    -0.026 A 
ATOM     15  C   UNL A   1      33.576  21.980  25.289  1.00  0.00     0.142 A 
ATOM     16  Br  UNL A   1      32.980  19.247  24.699  1.00  0.00    -0.046 Br
ATOM     17  C   UNL A   1      36.618  24.183  25.921  1.00  0.00     0.046 C 
ATOM     18  C   UNL A   1      34.372  23.096  25.570  1.00  0.00     0.022 A 
ATOM     19  O   UNL A   1      32.207  22.056  25.303  1.00  0.00    -0.474 OA
ATOM     20  C   UNL A   1      33.686  24.364  25.857  1.00  0.00     0.026 C 
ATOM     21  C   UNL A   1      31.623  23.345  24.996  1.00  0.00     0.314 C 
BRANCH  21  22
ATOM     22  C   UNL A   1      31.401  23.473  23.477  1.00  0.00     0.429 C 
ATOM     23  F   UNL A   1      31.294  22.250  22.902  1.00  0.00    -0.167 F 
ATOM     24  F   UNL A   1      30.263  24.142  23.172  1.00  0.00    -0.167 F 
ATOM     25  F   UNL A   1      32.411  24.126  22.857  1.00  0.00    -0.167 F 
ENDBRANCH  21  22
ENDBRANCH   5   8
ENDBRANCH   3   4
ENDBRANCH   2   3
ENDBRANCH   1   2
BRANCH   1  26
ATOM     26  N   UNL A   1      32.792  30.155  25.291  1.00  0.00    -0.352 N 
ATOM     27  C   UNL A   1      32.976  30.745  26.517  1.00  0.00     0.251 C 
ATOM     28  H   UNL A   1      32.090  30.561  24.734  1.00  0.00     0.163 HD
ATOM     29  O   UNL A   1      32.099  31.480  26.970  1.00  0.00    -0.269 OA
BRANCH  27  30
ATOM     30  C   UNL A   1      34.211  30.491  27.283  1.00  0.00     0.039 A 
ATOM     31  C   UNL A   1      35.057  31.555  27.602  1.00  0.00     0.014 A 
ATOM     32  C   UNL A   1      34.545  29.189  27.665  1.00  0.00     0.014 A 
ATOM     33  C   UNL A   1      36.204  31.317  28.362  1.00  0.00     0.010 A 
ATOM     34  C   UNL A   1      35.628  28.969  28.505  1.00  0.00     0.010 A 
ATOM     35  C   UNL A   1      36.479  30.028  28.848  1.00  0.00    -0.014 A 
BRANCH  35  36
ATOM     36  C   UNL A   1      37.676  29.754  29.679  1.00  0.00     0.031 A 
ATOM     37  C   UNL A   1      38.795  28.916  29.123  1.00  0.00     0.074 A 
ATOM     38  C   UNL A   1      37.739  30.228  30.939  1.00  0.00     0.049 A 
ATOM     39  N   UNL A   1      39.898  28.521  29.701  1.00  0.00    -0.248 NA
ATOM     40  C   UNL A   1      38.635  28.434  27.742  1.00  0.00     0.031 C 
ATOM     41  C   UNL A   1      36.702  31.029  31.592  1.00  0.00     0.029 A 
ATOM     42  N   UNL A   1      38.722  30.118  31.888  1.00  0.00    -0.354 N 
ATOM     43  C   UNL A   1      40.563  27.748  28.756  1.00  0.00     0.074 A 
ATOM     44  C   UNL A   1      39.696  27.655  27.602  1.00  0.00     0.031 C 
ATOM     45  C   UNL A   1      37.132  31.392  32.811  1.00  0.00     0.029 A 
ATOM     46  C   UNL A   1      38.452  30.813  33.043  1.00  0.00     0.049 A 
ATOM     47  H   UNL A   1      39.543  29.593  31.756  1.00  0.00     0.167 HD
ATOM     48  C   UNL A   1      41.800  27.203  28.825  1.00  0.00     0.034 A 
ATOM     49  C   UNL A   1      39.191  30.973  34.158  1.00  0.00     0.034 A 
ATOM     50  C   UNL A   1      42.660  27.319  29.973  1.00  0.00     0.049 A 
ATOM     51  C   UNL A   1      40.536  30.304  34.241  1.00  0.00     0.074 A 
ATOM     52  C   UNL A   1      43.942  26.829  30.144  1.00  0.00     0.029 A 
ATOM     53  N   UNL A   1      42.324  27.977  31.147  1.00  0.00    -0.354 N 
ATOM     54  N   UNL A   1      41.150  29.578  33.337  1.00  0.00    -0.248 NA
ATOM     55  C   UNL A   1      41.282  30.468  35.495  1.00  0.00     0.031 C 
ATOM     56  C   UNL A   1      44.361  27.147  31.440  1.00  0.00     0.029 A 
ATOM     57  C   UNL A   1      43.362  27.884  32.058  1.00  0.00     0.049 A 
ATOM     58  H   UNL A   1      41.471  28.443  31.310  1.00  0.00     0.167 HD
ATOM     59  C   UNL A   1      42.364  29.209  33.908  1.00  0.00     0.074 A 
ATOM     60  C   UNL A   1      42.396  29.796  35.233  1.00  0.00     0.031 C 
ATOM     61  C   UNL A   1      43.362  28.459  33.381  1.00  0.00     0.034 A 
BRANCH  48  62
ATOM     62  C   UNL A   1      42.283  26.442  27.617  1.00  0.00     0.023 A 
ATOM     63  C   UNL A   1      42.205  25.039  27.565  1.00  0.00     0.031 A 
ATOM     64  C   UNL A   1      42.860  27.113  26.525  1.00  0.00     0.131 A 
ATOM     65  C   UNL A   1      42.767  24.346  26.483  1.00  0.00     0.055 A 
ATOM     66  C   UNL A   1      43.346  26.421  25.413  1.00  0.00     0.041 A 
ATOM     67  F   UNL A   1      42.978  28.450  26.528  1.00  0.00    -0.206 F 
ATOM     68  C   UNL A   1      43.314  25.028  25.394  1.00  0.00     0.022 A 
BRANCH  65  69
ATOM     69  S   UNL A   1      42.885  22.540  26.583  1.00  0.00     0.124 S 
ATOM     70  O   UNL A   1      42.432  22.293  27.950  1.00  0.00    -0.237 OA
ATOM     71  O   UNL A   1      41.986  22.104  25.523  1.00  0.00    -0.237 OA
ATOM     72  O   UNL A   1      44.304  22.277  26.346  1.00  0.00    -0.744 OA
ENDBRANCH  65  69
ENDBRANCH  48  62
BRANCH  49  73
ATOM     73  C   UNL A   1      38.684  31.827  35.265  1.00  0.00     0.023 A 
ATOM     74  C   UNL A   1      38.146  31.245  36.423  1.00  0.00     0.031 A 
ATOM     75  C   UNL A   1      38.758  33.229  35.198  1.00  0.00     0.131 A 
ATOM     76  C   UNL A   1      37.689  32.062  37.467  1.00  0.00     0.055 A 
ATOM     77  C   UNL A   1      38.330  34.038  36.253  1.00  0.00     0.041 A 
ATOM     78  F   UNL A   1      39.279  33.830  34.117  1.00  0.00    -0.206 F 
ATOM     79  C   UNL A   1      37.789  33.455  37.395  1.00  0.00     0.022 A 
BRANCH  76  80
ATOM     80  S   UNL A   1      36.955  31.279  38.929  1.00  0.00     0.124 S 
ATOM     81  O   UNL A   1      36.804  29.900  38.481  1.00  0.00    -0.237 OA
ATOM     82  O   UNL A   1      37.973  31.517  39.946  1.00  0.00    -0.237 OA
ATOM     83  O   UNL A   1      35.707  32.016  39.118  1.00  0.00    -0.744 OA
ENDBRANCH  76  80
ENDBRANCH  49  73
BRANCH  61  84
ATOM     84  C   UNL A   1      44.581  28.232  34.232  1.00  0.00     0.023 A 
ATOM     85  C   UNL A   1      44.688  27.103  35.060  1.00  0.00     0.031 A 
ATOM     86  C   UNL A   1      45.674  29.112  34.153  1.00  0.00     0.131 A 
ATOM     87  C   UNL A   1      45.863  26.890  35.794  1.00  0.00     0.055 A 
ATOM     88  C   UNL A   1      46.856  28.874  34.854  1.00  0.00     0.041 A 
ATOM     89  F   UNL A   1      45.618  30.201  33.369  1.00  0.00    -0.206 F 
ATOM     90  C   UNL A   1      46.954  27.758  35.682  1.00  0.00     0.022 A 
BRANCH  87  91
ATOM     91  S   UNL A   1      45.951  25.461  36.906  1.00  0.00     0.124 S 
ATOM     92  O   UNL A   1      45.898  24.345  35.965  1.00  0.00    -0.237 OA
ATOM     93  O   UNL A   1      47.228  25.662  37.583  1.00  0.00    -0.237 OA
ATOM     94  O   UNL A   1      44.771  25.614  37.755  1.00  0.00    -0.744 OA
ENDBRANCH  87  91
ENDBRANCH  61  84
ENDBRANCH  35  36
ENDBRANCH  27  30
ENDBRANCH   1  26
TORSDOF 14
ENDMDL
MODEL 2
REMARK VINA RESULT:     -12.5      5.193     10.068
REMARK SMILES Cc1c(Br)c(C)c2c(c1Br)O[C@H](C(F)(F)F)C(C(=O)NCCCNC(=O)c1ccc(-c3c4nc(c(-c5cc(S(=O)(=O)[O-])ccc5F)c5ccc([nH]5)c(-c5cc(S(=O)(=O)[O-])ccc5F)c5nc(c(-c6cc(S(=O)(=O)[O-])ccc6F)c6ccc3[nH]6)C=C5)C=C4)cc1)=C2
REMARK SMILES IDX 23 1 22 2 21 3 20 4 18 5 19 6 17 8 1 9 2 10 3 11 9 12 4 13
REMARK SMILES IDX 5 14 8 15 10 16 6 17 7 18 11 19 90 20 12 21 13 22 14 23
REMARK SMILES IDX 15 24 16 25 24 26 25 27 26 29 27 30 28 31 89 32 29 33 88 34
REMARK SMILES IDX 30 35 31 36 32 37 82 38 33 39 87 40 81 41 83 42 34 43 86 44
REMARK SMILES IDX 80 45 79 46 35 48 67 49 47 50 66 51 48 52 51 53 65 54 84 55
REMARK SMILES IDX 49 56 50 57 64 59 85 60 52 61 36 62 37 63 45 64 38 65 44 66
REMARK SMILES IDX 46 67 43 68 39 69 40 70 41 71 42 72 68 73 69 74 77 75 70 76
REMARK SMILES IDX 76 77 78 78 75 79 71 80 72 81 73 82 74 83 53 84 54 85 62 86
REMARK SMILES IDX 55 87 61 88 63 89 60 90 56 91 57 92 58 93 59 94
REMARK H PARENT 20 7 24 28 83 47 51 58
REMARK Flexibility Score: inf
ROOT
ATOM      1  C   UNL A   1      35.561  22.374  26.365  1.00  0.00     0.118 C 
ENDROOT
BRANCH   1   2
ATOM      2  C   UNL A   1      34.116  21.910  26.217  1.00  0.00     0.042 C 
BRANCH   2   3
ATOM      3  C   UNL A   1      33.243  22.963  25.550  1.00  0.00     0.118 C 
BRANCH   3   4
ATOM      4  N   UNL A   1      33.684  23.251  24.193  1.00  0.00    -0.352 N 
ATOM      5  C   UNL A   1      33.567  24.261  23.303  1.00  0.00     0.251 C 
ATOM      6  O   UNL A   1      34.118  24.069  22.212  1.00  0.00    -0.270 OA
ATOM      7  H   UNL A   1      34.213  22.507  23.822  1.00  0.00     0.163 HD
BRANCH   5   8
ATOM      8  C   UNL A   1      32.857  25.549  23.550  1.00  0.00     0.067 C 
ATOM      9  C   UNL A   1      30.730  31.420  25.523  1.00  0.00     0.047 C 
ATOM     10  C   UNL A   1      31.471  30.128  25.273  1.00  0.00    -0.019 A 
ATOM     11  C   UNL A   1      32.611  29.744  26.023  1.00  0.00     0.025 A 
ATOM     12  C   UNL A   1      31.055  29.286  24.223  1.00  0.00     0.064 A 
ATOM     13  Br  UNL A   1      33.281  30.932  27.375  1.00  0.00    -0.050 Br
ATOM     14  C   UNL A   1      33.285  28.517  25.776  1.00  0.00    -0.026 A 
ATOM     15  C   UNL A   1      31.716  28.076  23.968  1.00  0.00     0.142 A 
ATOM     16  Br  UNL A   1      29.576  29.761  23.100  1.00  0.00    -0.046 Br
ATOM     17  C   UNL A   1      34.488  28.072  26.579  1.00  0.00     0.046 C 
ATOM     18  C   UNL A   1      32.820  27.683  24.732  1.00  0.00     0.022 A 
ATOM     19  O   UNL A   1      31.271  27.323  22.912  1.00  0.00    -0.474 OA
ATOM     20  C   UNL A   1      33.474  26.415  24.376  1.00  0.00     0.026 C 
ATOM     21  C   UNL A   1      31.522  25.899  22.975  1.00  0.00     0.314 C 
BRANCH  21  22
ATOM     22  C   UNL A   1      30.356  25.191  23.693  1.00  0.00     0.429 C 
ATOM     23  F   UNL A   1      30.086  23.998  23.110  1.00  0.00    -0.167 F 
ATOM     24  F   UNL A   1      30.629  24.931  24.994  1.00  0.00    -0.167 F 
ATOM     25  F   UNL A   1      29.216  25.920  23.675  1.00  0.00    -0.167 F 
ENDBRANCH  21  22
ENDBRANCH   5   8
ENDBRANCH   3   4
ENDBRANCH   2   3
ENDBRANCH   1   2
BRANCH   1  26
ATOM     26  N   UNL A   1      36.504  21.321  25.999  1.00  0.00    -0.352 N 
ATOM     27  C   UNL A   1      37.851  21.397  25.742  1.00  0.00     0.251 C 
ATOM     28  H   UNL A   1      36.116  20.421  25.923  1.00  0.00     0.163 HD
ATOM     29  O   UNL A   1      38.404  20.473  25.146  1.00  0.00    -0.269 OA
BRANCH  27  30
ATOM     30  C   UNL A   1      38.621  22.580  26.172  1.00  0.00     0.039 A 
ATOM     31  C   UNL A   1      39.783  22.410  26.929  1.00  0.00     0.014 A 
ATOM     32  C   UNL A   1      38.177  23.864  25.846  1.00  0.00     0.014 A 
ATOM     33  C   UNL A   1      40.531  23.528  27.300  1.00  0.00     0.010 A 
ATOM     34  C   UNL A   1      38.973  24.965  26.127  1.00  0.00     0.010 A 
ATOM     35  C   UNL A   1      40.150  24.812  26.871  1.00  0.00    -0.014 A 
BRANCH  35  36
ATOM     36  C   UNL A   1      40.942  26.013  27.229  1.00  0.00     0.031 A 
ATOM     37  C   UNL A   1      40.347  27.057  28.134  1.00  0.00     0.074 A 
ATOM     38  C   UNL A   1      42.176  26.179  26.714  1.00  0.00     0.049 A 
ATOM     39  N   UNL A   1      40.851  28.198  28.525  1.00  0.00    -0.248 NA
ATOM     40  C   UNL A   1      38.990  26.795  28.641  1.00  0.00     0.031 C 
ATOM     41  C   UNL A   1      42.844  25.246  25.805  1.00  0.00     0.029 A 
ATOM     42  N   UNL A   1      43.093  27.182  26.893  1.00  0.00    -0.354 N 
ATOM     43  C   UNL A   1      39.878  28.786  29.324  1.00  0.00     0.074 A 
ATOM     44  C   UNL A   1      38.720  27.919  29.285  1.00  0.00     0.031 C 
ATOM     45  C   UNL A   1      44.087  25.688  25.558  1.00  0.00     0.029 A 
ATOM     46  C   UNL A   1      44.288  26.956  26.253  1.00  0.00     0.049 A 
ATOM     47  H   UNL A   1      42.913  27.987  27.430  1.00  0.00     0.167 HD
ATOM     48  C   UNL A   1      39.955  29.921  30.058  1.00  0.00     0.034 A 
ATOM     49  C   UNL A   1      45.421  27.686  26.237  1.00  0.00     0.034 A 
ATOM     50  C   UNL A   1      41.120  30.764  30.102  1.00  0.00     0.049 A 
ATOM     51  C   UNL A   1      45.465  28.978  27.007  1.00  0.00     0.074 A 
ATOM     52  C   UNL A   1      41.320  31.923  30.830  1.00  0.00     0.029 A 
ATOM     53  N   UNL A   1      42.288  30.534  29.388  1.00  0.00    -0.354 N 
ATOM     54  N   UNL A   1      44.535  29.519  27.758  1.00  0.00    -0.248 NA
ATOM     55  C   UNL A   1      46.704  29.761  26.918  1.00  0.00     0.031 C 
ATOM     56  C   UNL A   1      42.590  32.421  30.517  1.00  0.00     0.029 A 
ATOM     57  C   UNL A   1      43.204  31.542  29.637  1.00  0.00     0.049 A 
ATOM     58  H   UNL A   1      42.444  29.765  28.792  1.00  0.00     0.167 HD
ATOM     59  C   UNL A   1      45.083  30.701  28.246  1.00  0.00     0.074 A 
ATOM     60  C   UNL A   1      46.425  30.792  27.706  1.00  0.00     0.031 C 
ATOM     61  C   UNL A   1      44.527  31.623  29.070  1.00  0.00     0.034 A 
BRANCH  48  62
ATOM     62  C   UNL A   1      38.743  30.297  30.870  1.00  0.00     0.023 A 
ATOM     63  C   UNL A   1      37.775  31.181  30.361  1.00  0.00     0.031 A 
ATOM     64  C   UNL A   1      38.567  29.804  32.174  1.00  0.00     0.131 A 
ATOM     65  C   UNL A   1      36.719  31.608  31.177  1.00  0.00     0.055 A 
ATOM     66  C   UNL A   1      37.468  30.171  32.954  1.00  0.00     0.041 A 
ATOM     67  F   UNL A   1      39.469  28.972  32.719  1.00  0.00    -0.206 F 
ATOM     68  C   UNL A   1      36.543  31.089  32.463  1.00  0.00     0.022 A 
BRANCH  65  69
ATOM     69  S   UNL A   1      35.652  32.946  30.580  1.00  0.00     0.124 S 
ATOM     70  O   UNL A   1      34.353  32.546  31.115  1.00  0.00    -0.237 OA
ATOM     71  O   UNL A   1      36.256  34.127  31.184  1.00  0.00    -0.237 OA
ATOM     72  O   UNL A   1      35.775  32.857  29.126  1.00  0.00    -0.744 OA
ENDBRANCH  65  69
ENDBRANCH  48  62
BRANCH  49  73
ATOM     73  C   UNL A   1      46.609  27.190  25.493  1.00  0.00     0.023 A 
ATOM     74  C   UNL A   1      46.870  27.639  24.190  1.00  0.00     0.031 A 
ATOM     75  C   UNL A   1      47.515  26.289  26.080  1.00  0.00     0.131 A 
ATOM     76  C   UNL A   1      48.005  27.178  23.506  1.00  0.00     0.055 A 
ATOM     77  C   UNL A   1      48.660  25.857  25.407  1.00  0.00     0.041 A 
ATOM     78  F   UNL A   1      47.315  25.844  27.330  1.00  0.00    -0.206 F 
ATOM     79  C   UNL A   1      48.908  26.300  24.112  1.00  0.00     0.022 A 
BRANCH  76  80
ATOM     80  S   UNL A   1      48.287  27.741  21.806  1.00  0.00     0.124 S 
ATOM     81  O   UNL A   1      47.045  28.451  21.520  1.00  0.00    -0.237 OA
ATOM     82  O   UNL A   1      49.481  28.566  21.952  1.00  0.00    -0.237 OA
ATOM     83  O   UNL A   1      48.482  26.497  21.064  1.00  0.00    -0.744 OA
ENDBRANCH  76  80
ENDBRANCH  49  73
BRANCH  61  84
ATOM     84  C   UNL A   1      45.369  32.810  29.448  1.00  0.00     0.023 A 
ATOM     85  C   UNL A   1      45.352  33.986  28.680  1.00  0.00     0.031 A 
ATOM     86  C   UNL A   1      46.133  32.790  30.627  1.00  0.00     0.131 A 
ATOM     87  C   UNL A   1      46.102  35.096  29.094  1.00  0.00     0.055 A 
ATOM     88  C   UNL A   1      46.845  33.911  31.056  1.00  0.00     0.041 A 
ATOM     89  F   UNL A   1      46.174  31.690  31.395  1.00  0.00    -0.206 F 
ATOM     90  C   UNL A   1      46.832  35.072  30.286  1.00  0.00     0.022 A 
BRANCH  87  91
ATOM     91  S   UNL A   1      46.114  36.579  28.051  1.00  0.00     0.124 S 
ATOM     92  O   UNL A   1      44.824  36.481  27.375  1.00  0.00    -0.237 OA
ATOM     93  O   UNL A   1      46.239  37.654  29.030  1.00  0.00    -0.237 OA
ATOM     94  O   UNL A   1      47.282  36.385  27.194  1.00  0.00    -0.744 OA
ENDBRANCH  87  91
ENDBRANCH  61  84
ENDBRANCH  35  36
ENDBRANCH  27  30
ENDBRANCH   1  26
TORSDOF 14
ENDMDL
MODEL 3
REMARK VINA RESULT:     -12.5      5.158     10.101
REMARK SMILES Cc1c(Br)c(C)c2c(c1Br)O[C@H](C(F)(F)F)C(C(=O)NCCCNC(=O)c1ccc(-c3c4nc(c(-c5cc(S(=O)(=O)[O-])ccc5F)c5ccc([nH]5)c(-c5cc(S(=O)(=O)[O-])ccc5F)c5nc(c(-c6cc(S(=O)(=O)[O-])ccc6F)c6ccc3[nH]6)C=C5)C=C4)cc1)=C2
REMARK SMILES IDX 23 1 22 2 21 3 20 4 18 5 19 6 17 8 1 9 2 10 3 11 9 12 4 13
REMARK SMILES IDX 5 14 8 15 10 16 6 17 7 18 11 19 90 20 12 21 13 22 14 23
REMARK SMILES IDX 15 24 16 25 24 26 25 27 26 29 27 30 28 31 89 32 29 33 88 34
REMARK SMILES IDX 30 35 31 36 32 37 82 38 33 39 87 40 81 41 83 42 34 43 86 44
REMARK SMILES IDX 80 45 79 46 35 48 67 49 47 50 66 51 48 52 51 53 65 54 84 55
REMARK SMILES IDX 49 56 50 57 64 59 85 60 52 61 36 62 37 63 45 64 38 65 44 66
REMARK SMILES IDX 46 67 43 68 39 69 40 70 41 71 42 72 68 73 69 74 77 75 70 76
REMARK SMILES IDX 76 77 78 78 75 79 71 80 72 81 73 82 74 83 53 84 54 85 62 86
REMARK SMILES IDX 55 87 61 88 63 89 60 90 56 91 57 92 58 93 59 94
REMARK H PARENT 20 7 24 28 83 47 51 58
REMARK Flexibility Score: inf
ROOT
ATOM      1  C   UNL A   1      35.553  22.151  26.335  1.00  0.00     0.118 C 
ENDROOT
BRANCH   1   2
ATOM      2  C   UNL A   1      34.402  21.588  27.161  1.00  0.00     0.042 C 
BRANCH   2   3
ATOM      3  C   UNL A   1      33.385  22.658  27.529  1.00  0.00     0.118 C 
BRANCH   3   4
ATOM      4  N   UNL A   1      32.050  22.324  27.053  1.00  0.00    -0.352 N 
ATOM      5  C   UNL A   1      31.142  22.842  26.197  1.00  0.00     0.251 C 
ATOM      6  O   UNL A   1      30.086  22.206  26.101  1.00  0.00    -0.270 OA
ATOM      7  H   UNL A   1      31.719  21.495  27.468  1.00  0.00     0.163 HD
BRANCH   5   8
ATOM      8  C   UNL A   1      31.334  24.075  25.380  1.00  0.00     0.067 C 
ATOM      9  C   UNL A   1      30.843  29.629  21.946  1.00  0.00     0.047 C 
ATOM     10  C   UNL A   1      30.633  28.393  22.788  1.00  0.00    -0.019 A 
ATOM     11  C   UNL A   1      29.348  27.955  23.195  1.00  0.00     0.025 A 
ATOM     12  C   UNL A   1      31.754  27.666  23.236  1.00  0.00     0.064 A 
ATOM     13  Br  UNL A   1      27.811  28.999  22.710  1.00  0.00    -0.050 Br
ATOM     14  C   UNL A   1      29.176  26.782  23.978  1.00  0.00    -0.026 A 
ATOM     15  C   UNL A   1      31.595  26.509  24.012  1.00  0.00     0.142 A 
ATOM     16  Br  UNL A   1      33.536  28.228  22.807  1.00  0.00    -0.046 Br
ATOM     17  C   UNL A   1      27.813  26.279  24.404  1.00  0.00     0.046 C 
ATOM     18  C   UNL A   1      30.323  26.060  24.385  1.00  0.00     0.022 A 
ATOM     19  O   UNL A   1      32.732  25.870  24.435  1.00  0.00    -0.474 OA
ATOM     20  C   UNL A   1      30.249  24.857  25.228  1.00  0.00     0.026 C 
ATOM     21  C   UNL A   1      32.618  24.454  24.715  1.00  0.00     0.314 C 
BRANCH  21  22
ATOM     22  C   UNL A   1      32.893  23.641  23.436  1.00  0.00     0.429 C 
ATOM     23  F   UNL A   1      31.757  23.053  22.987  1.00  0.00    -0.167 F 
ATOM     24  F   UNL A   1      33.356  24.409  22.421  1.00  0.00    -0.167 F 
ATOM     25  F   UNL A   1      33.808  22.662  23.628  1.00  0.00    -0.167 F 
ENDBRANCH  21  22
ENDBRANCH   5   8
ENDBRANCH   3   4
ENDBRANCH   2   3
ENDBRANCH   1   2
BRANCH   1  26
ATOM     26  N   UNL A   1      36.516  21.114  25.977  1.00  0.00    -0.352 N 
ATOM     27  C   UNL A   1      37.860  21.214  25.714  1.00  0.00     0.251 C 
ATOM     28  H   UNL A   1      36.146  20.205  25.913  1.00  0.00     0.163 HD
ATOM     29  O   UNL A   1      38.430  20.295  25.126  1.00  0.00    -0.269 OA
BRANCH  27  30
ATOM     30  C   UNL A   1      38.608  22.418  26.127  1.00  0.00     0.039 A 
ATOM     31  C   UNL A   1      39.779  22.280  26.875  1.00  0.00     0.014 A 
ATOM     32  C   UNL A   1      38.133  23.688  25.792  1.00  0.00     0.014 A 
ATOM     33  C   UNL A   1      40.506  23.418  27.229  1.00  0.00     0.010 A 
ATOM     34  C   UNL A   1      38.908  24.809  26.056  1.00  0.00     0.010 A 
ATOM     35  C   UNL A   1      40.093  24.688  26.793  1.00  0.00    -0.014 A 
BRANCH  35  36
ATOM     36  C   UNL A   1      40.862  25.909  27.133  1.00  0.00     0.031 A 
ATOM     37  C   UNL A   1      40.251  26.949  28.032  1.00  0.00     0.074 A 
ATOM     38  C   UNL A   1      42.088  26.097  26.606  1.00  0.00     0.049 A 
ATOM     39  N   UNL A   1      40.734  28.104  28.409  1.00  0.00    -0.248 NA
ATOM     40  C   UNL A   1      38.904  26.664  28.552  1.00  0.00     0.031 C 
ATOM     41  C   UNL A   1      42.769  25.170  25.701  1.00  0.00     0.029 A 
ATOM     42  N   UNL A   1      42.984  27.121  26.769  1.00  0.00    -0.354 N 
ATOM     43  C   UNL A   1      39.754  28.679  29.209  1.00  0.00     0.074 A 
ATOM     44  C   UNL A   1      38.615  27.788  29.188  1.00  0.00     0.031 C 
ATOM     45  C   UNL A   1      44.001  25.636  25.441  1.00  0.00     0.029 A 
ATOM     46  C   UNL A   1      44.179  26.915  26.122  1.00  0.00     0.049 A 
ATOM     47  H   UNL A   1      42.791  27.928  27.300  1.00  0.00     0.167 HD
ATOM     48  C   UNL A   1      39.812  29.823  29.932  1.00  0.00     0.034 A 
ATOM     49  C   UNL A   1      45.296  27.669  26.090  1.00  0.00     0.034 A 
ATOM     50  C   UNL A   1      40.959  30.691  29.959  1.00  0.00     0.049 A 
ATOM     51  C   UNL A   1      45.317  28.969  26.847  1.00  0.00     0.074 A 
ATOM     52  C   UNL A   1      41.139  31.861  30.674  1.00  0.00     0.029 A 
ATOM     53  N   UNL A   1      42.126  30.479  29.238  1.00  0.00    -0.354 N 
ATOM     54  N   UNL A   1      44.382  29.498  27.601  1.00  0.00    -0.248 NA
ATOM     55  C   UNL A   1      46.539  29.778  26.742  1.00  0.00     0.031 C 
ATOM     56  C   UNL A   1      42.395  32.383  30.347  1.00  0.00     0.029 A 
ATOM     57  C   UNL A   1      43.021  31.510  29.470  1.00  0.00     0.049 A 
ATOM     58  H   UNL A   1      42.294  29.709  28.648  1.00  0.00     0.167 HD
ATOM     59  C   UNL A   1      44.908  30.695  28.073  1.00  0.00     0.074 A 
ATOM     60  C   UNL A   1      46.243  30.810  27.522  1.00  0.00     0.031 C 
ATOM     61  C   UNL A   1      44.339  31.613  28.892  1.00  0.00     0.034 A 
BRANCH  48  62
ATOM     62  C   UNL A   1      38.598  30.181  30.750  1.00  0.00     0.023 A 
ATOM     63  C   UNL A   1      37.554  30.948  30.202  1.00  0.00     0.031 A 
ATOM     64  C   UNL A   1      38.494  29.789  32.096  1.00  0.00     0.131 A 
ATOM     65  C   UNL A   1      36.492  31.367  31.014  1.00  0.00     0.055 A 
ATOM     66  C   UNL A   1      37.393  30.143  32.878  1.00  0.00     0.041 A 
ATOM     67  F   UNL A   1      39.469  29.072  32.677  1.00  0.00    -0.206 F 
ATOM     68  C   UNL A   1      36.390  30.949  32.343  1.00  0.00     0.022 A 
BRANCH  65  69
ATOM     69  S   UNL A   1      35.315  32.571  30.343  1.00  0.00     0.124 S 
ATOM     70  O   UNL A   1      34.388  32.727  31.460  1.00  0.00    -0.237 OA
ATOM     71  O   UNL A   1      36.166  33.719  30.053  1.00  0.00    -0.237 OA
ATOM     72  O   UNL A   1      34.762  31.892  29.172  1.00  0.00    -0.744 OA
ENDBRANCH  65  69
ENDBRANCH  48  62
BRANCH  49  73
ATOM     73  C   UNL A   1      46.489  27.192  25.342  1.00  0.00     0.023 A 
ATOM     74  C   UNL A   1      46.812  27.744  24.093  1.00  0.00     0.031 A 
ATOM     75  C   UNL A   1      47.338  26.205  25.873  1.00  0.00     0.131 A 
ATOM     76  C   UNL A   1      47.951  27.297  23.407  1.00  0.00     0.055 A 
ATOM     77  C   UNL A   1      48.487  25.786  25.200  1.00  0.00     0.041 A 
ATOM     78  F   UNL A   1      47.077  25.660  27.072  1.00  0.00    -0.206 F 
ATOM     79  C   UNL A   1      48.798  26.332  23.958  1.00  0.00     0.022 A 
BRANCH  76  80
ATOM     80  S   UNL A   1      48.314  27.997  21.774  1.00  0.00     0.124 S 
ATOM     81  O   UNL A   1      47.236  28.967  21.622  1.00  0.00    -0.237 OA
ATOM     82  O   UNL A   1      49.652  28.546  21.967  1.00  0.00    -0.237 OA
ATOM     83  O   UNL A   1      48.244  26.839  20.885  1.00  0.00    -0.744 OA
ENDBRANCH  76  80
ENDBRANCH  49  73
BRANCH  61  84
ATOM     84  C   UNL A   1      45.157  32.822  29.252  1.00  0.00     0.023 A 
ATOM     85  C   UNL A   1      45.066  34.009  28.507  1.00  0.00     0.031 A 
ATOM     86  C   UNL A   1      45.975  32.809  30.395  1.00  0.00     0.131 A 
ATOM     87  C   UNL A   1      45.797  35.136  28.907  1.00  0.00     0.055 A 
ATOM     88  C   UNL A   1      46.668  33.946  30.811  1.00  0.00     0.041 A 
ATOM     89  F   UNL A   1      46.087  31.698  31.142  1.00  0.00    -0.206 F 
ATOM     90  C   UNL A   1      46.582  35.118  30.064  1.00  0.00     0.022 A 
BRANCH  87  91
ATOM     91  S   UNL A   1      45.713  36.635  27.891  1.00  0.00     0.124 S 
ATOM     92  O   UNL A   1      46.615  36.304  26.791  1.00  0.00    -0.237 OA
ATOM     93  O   UNL A   1      44.296  36.710  27.551  1.00  0.00    -0.237 OA
ATOM     94  O   UNL A   1      46.188  37.686  28.789  1.00  0.00    -0.744 OA
ENDBRANCH  87  91
ENDBRANCH  61  84
ENDBRANCH  35  36
ENDBRANCH  27  30
ENDBRANCH   1  26
TORSDOF 14
ENDMDL
