MODEL 1
REMARK VINA RESULT:     -12.3      0.000      0.000
REMARK SMILES O=C(/C=C/c1ccc(O)cc1)NC[C@@H]1CC[C@H](C(=O)NCCCNC(=O)c2ccc(-c3c4nc(c(-c5cc(S(=O)(=O)[O-])ccc5F)c5ccc([nH]5)c(-c5cc(S(=O)(=O)[O-])ccc5F)c5nc(c(-c6cc(S(=O)(=O)[O-])ccc6F)c6ccc3[nH]6)C=C5)C=C4)cc2)O1
REMARK SMILES IDX 21 1 20 2 18 3 19 4 17 6 14 7 15 8 90 9 16 10 13 11 12 12
REMARK SMILES IDX 1 13 2 14 3 16 4 17 5 18 6 19 11 20 7 21 10 22 8 23 9 24
REMARK SMILES IDX 22 26 23 27 24 28 25 29 26 31 27 32 28 33 89 34 29 35 88 36
REMARK SMILES IDX 30 37 31 38 32 39 82 40 33 41 87 42 81 43 83 44 34 45 86 46
REMARK SMILES IDX 80 47 79 48 35 50 67 51 47 52 66 53 48 54 51 55 65 56 84 57
REMARK SMILES IDX 49 58 50 59 64 61 85 62 52 63 36 64 37 65 45 66 38 67 44 68
REMARK SMILES IDX 46 69 43 70 39 71 40 72 41 73 42 74 68 75 69 76 77 77 70 78
REMARK SMILES IDX 76 79 78 80 75 81 71 82 72 83 73 84 74 85 53 86 54 87 62 88
REMARK SMILES IDX 55 89 61 90 63 91 60 92 56 93 57 94 58 95 59 96
REMARK H PARENT 20 5 12 15 9 25 24 30 83 49 51 60
REMARK Flexibility Score: inf
ROOT
ATOM      1  C   UNL A   1      32.300  26.667  26.283  1.00  0.00     0.117 C 
ENDROOT
BRANCH   1   2
ATOM      2  N   UNL A   1      31.362  25.665  26.736  1.00  0.00    -0.354 N 
ATOM      3  C   UNL A   1      31.481  24.307  26.722  1.00  0.00     0.249 C 
ATOM      4  O   UNL A   1      30.564  23.647  27.223  1.00  0.00    -0.272 OA
ATOM      5  H   UNL A   1      30.518  26.011  27.105  1.00  0.00     0.163 HD
BRANCH   3   6
ATOM      6  C   UNL A   1      32.686  23.597  26.057  1.00  0.00     0.207 C 
ATOM      7  C   UNL A   1      33.284  23.059  23.850  1.00  0.00     0.138 C 
ATOM      8  C   UNL A   1      32.518  21.864  24.399  1.00  0.00     0.037 C 
ATOM      9  O   UNL A   1      33.112  24.129  24.800  1.00  0.00    -0.363 OA
ATOM     10  C   UNL A   1      32.485  22.099  25.891  1.00  0.00     0.045 C 
BRANCH   7  11
ATOM     11  C   UNL A   1      32.882  23.562  22.444  1.00  0.00     0.148 C 
BRANCH  11  12
ATOM     12  N   UNL A   1      31.983  24.704  22.430  1.00  0.00    -0.350 N 
ATOM     13  O   UNL A   1      33.459  26.152  21.442  1.00  0.00    -0.270 OA
ATOM     14  C   UNL A   1      32.349  25.921  21.909  1.00  0.00     0.244 C 
ATOM     15  H   UNL A   1      31.079  24.601  22.806  1.00  0.00     0.163 HD
BRANCH  14  16
ATOM     16  C   UNL A   1      31.342  27.016  21.979  1.00  0.00     0.072 C 
ATOM     17  C   UNL A   1      30.530  27.272  23.016  1.00  0.00     0.014 C 
BRANCH  17  18
ATOM     18  C   UNL A   1      29.558  28.371  23.057  1.00  0.00    -0.025 A 
ATOM     19  C   UNL A   1      28.174  28.159  23.005  1.00  0.00     0.012 A 
ATOM     20  C   UNL A   1      30.040  29.674  23.249  1.00  0.00     0.012 A 
ATOM     21  C   UNL A   1      27.286  29.234  23.141  1.00  0.00     0.047 A 
ATOM     22  C   UNL A   1      29.156  30.744  23.386  1.00  0.00     0.047 A 
ATOM     23  C   UNL A   1      27.788  30.516  23.335  1.00  0.00     0.115 A 
BRANCH  23  24
ATOM     24  O   UNL A   1      26.968  31.590  23.501  1.00  0.00    -0.508 OA
ATOM     25  H   UNL A   1      26.064  31.530  23.262  1.00  0.00     0.293 HD
ENDBRANCH  23  24
ENDBRANCH  17  18
ENDBRANCH  14  16
ENDBRANCH  11  12
ENDBRANCH   7  11
ENDBRANCH   3   6
ENDBRANCH   1   2
BRANCH   1  26
ATOM     26  C   UNL A   1      31.684  28.058  26.233  1.00  0.00     0.042 C 
BRANCH  26  27
ATOM     27  C   UNL A   1      32.635  29.102  25.676  1.00  0.00     0.118 C 
BRANCH  27  28
ATOM     28  N   UNL A   1      32.271  30.455  26.080  1.00  0.00    -0.352 N 
ATOM     29  C   UNL A   1      32.853  31.309  26.979  1.00  0.00     0.251 C 
ATOM     30  H   UNL A   1      31.476  30.817  25.628  1.00  0.00     0.163 HD
ATOM     31  O   UNL A   1      32.297  32.373  27.251  1.00  0.00    -0.269 OA
BRANCH  29  32
ATOM     32  C   UNL A   1      34.108  30.943  27.663  1.00  0.00     0.039 A 
ATOM     33  C   UNL A   1      35.017  31.960  27.969  1.00  0.00     0.014 A 
ATOM     34  C   UNL A   1      34.398  29.622  28.008  1.00  0.00     0.014 A 
ATOM     35  C   UNL A   1      36.185  31.659  28.666  1.00  0.00     0.010 A 
ATOM     36  C   UNL A   1      35.506  29.340  28.798  1.00  0.00     0.010 A 
ATOM     37  C   UNL A   1      36.421  30.351  29.117  1.00  0.00    -0.014 A 
BRANCH  37  38
ATOM     38  C   UNL A   1      37.644  30.018  29.890  1.00  0.00     0.031 A 
ATOM     39  C   UNL A   1      38.685  29.115  29.286  1.00  0.00     0.074 A 
ATOM     40  C   UNL A   1      37.792  30.497  31.141  1.00  0.00     0.049 A 
ATOM     41  N   UNL A   1      39.794  28.662  29.812  1.00  0.00    -0.248 NA
ATOM     42  C   UNL A   1      38.429  28.629  27.921  1.00  0.00     0.031 C 
ATOM     43  C   UNL A   1      36.826  31.348  31.841  1.00  0.00     0.029 A 
ATOM     44  N   UNL A   1      38.809  30.339  32.047  1.00  0.00    -0.354 N 
ATOM     45  C   UNL A   1      40.356  27.829  28.850  1.00  0.00     0.074 A 
ATOM     46  C   UNL A   1      39.429  27.781  27.742  1.00  0.00     0.031 C 
ATOM     47  C   UNL A   1      37.315  31.668  33.049  1.00  0.00     0.029 A 
ATOM     48  C   UNL A   1      38.601  31.002  33.234  1.00  0.00     0.049 A 
ATOM     49  H   UNL A   1      39.613  29.800  31.866  1.00  0.00     0.167 HD
ATOM     50  C   UNL A   1      41.550  27.189  28.877  1.00  0.00     0.034 A 
ATOM     51  C   UNL A   1      39.358  31.060  34.347  1.00  0.00     0.034 A 
ATOM     52  C   UNL A   1      42.467  27.264  29.988  1.00  0.00     0.049 A 
ATOM     53  C   UNL A   1      40.669  30.316  34.364  1.00  0.00     0.074 A 
ATOM     54  C   UNL A   1      43.725  26.702  30.107  1.00  0.00     0.029 A 
ATOM     55  N   UNL A   1      42.220  27.939  31.178  1.00  0.00    -0.354 N 
ATOM     56  N   UNL A   1      41.214  29.576  33.424  1.00  0.00    -0.248 NA
ATOM     57  C   UNL A   1      41.474  30.425  35.586  1.00  0.00     0.031 C 
ATOM     58  C   UNL A   1      44.203  26.970  31.394  1.00  0.00     0.029 A 
ATOM     59  C   UNL A   1      43.285  27.776  32.048  1.00  0.00     0.049 A 
ATOM     60  H   UNL A   1      41.405  28.458  31.374  1.00  0.00     0.167 HD
ATOM     61  C   UNL A   1      42.440  29.158  33.933  1.00  0.00     0.074 A 
ATOM     62  C   UNL A   1      42.561  29.747  35.252  1.00  0.00     0.031 C 
ATOM     63  C   UNL A   1      43.383  28.361  33.366  1.00  0.00     0.034 A 
BRANCH  50  64
ATOM     64  C   UNL A   1      41.912  26.339  27.682  1.00  0.00     0.023 A 
ATOM     65  C   UNL A   1      41.565  24.977  27.608  1.00  0.00     0.031 A 
ATOM     66  C   UNL A   1      42.644  26.887  26.613  1.00  0.00     0.131 A 
ATOM     67  C   UNL A   1      42.018  24.195  26.535  1.00  0.00     0.055 A 
ATOM     68  C   UNL A   1      43.014  26.122  25.504  1.00  0.00     0.041 A 
ATOM     69  F   UNL A   1      43.026  28.174  26.634  1.00  0.00    -0.206 F 
ATOM     70  C   UNL A   1      42.716  24.763  25.469  1.00  0.00     0.022 A 
BRANCH  67  71
ATOM     71  S   UNL A   1      41.817  22.394  26.633  1.00  0.00     0.124 S 
ATOM     72  O   UNL A   1      42.415  22.101  27.933  1.00  0.00    -0.237 OA
ATOM     73  O   UNL A   1      40.370  22.233  26.544  1.00  0.00    -0.237 OA
ATOM     74  O   UNL A   1      42.572  21.902  25.482  1.00  0.00    -0.744 OA
ENDBRANCH  67  71
ENDBRANCH  50  64
BRANCH  51  75
ATOM     75  C   UNL A   1      38.902  31.837  35.536  1.00  0.00     0.023 A 
ATOM     76  C   UNL A   1      38.289  31.200  36.626  1.00  0.00     0.031 A 
ATOM     77  C   UNL A   1      39.030  33.238  35.581  1.00  0.00     0.131 A 
ATOM     78  C   UNL A   1      37.781  31.963  37.690  1.00  0.00     0.055 A 
ATOM     79  C   UNL A   1      38.577  33.987  36.667  1.00  0.00     0.041 A 
ATOM     80  F   UNL A   1      39.610  33.900  34.567  1.00  0.00    -0.206 F 
ATOM     81  C   UNL A   1      37.935  33.350  37.725  1.00  0.00     0.022 A 
BRANCH  78  82
ATOM     82  S   UNL A   1      36.828  31.121  38.983  1.00  0.00     0.124 S 
ATOM     83  O   UNL A   1      35.626  31.945  39.049  1.00  0.00    -0.237 OA
ATOM     84  O   UNL A   1      36.662  29.787  38.417  1.00  0.00    -0.237 OA
ATOM     85  O   UNL A   1      37.702  31.197  40.153  1.00  0.00    -0.744 OA
ENDBRANCH  78  82
ENDBRANCH  51  75
BRANCH  63  86
ATOM     86  C   UNL A   1      44.643  28.119  34.161  1.00  0.00     0.023 A 
ATOM     87  C   UNL A   1      45.789  28.915  33.993  1.00  0.00     0.031 A 
ATOM     88  C   UNL A   1      44.703  27.063  35.089  1.00  0.00     0.131 A 
ATOM     89  C   UNL A   1      46.966  28.602  34.688  1.00  0.00     0.055 A 
ATOM     90  C   UNL A   1      45.854  26.803  35.833  1.00  0.00     0.041 A 
ATOM     91  F   UNL A   1      43.641  26.267  35.289  1.00  0.00    -0.206 F 
ATOM     92  C   UNL A   1      47.000  27.564  35.622  1.00  0.00     0.022 A 
BRANCH  89  93
ATOM     93  S   UNL A   1      48.486  29.497  34.269  1.00  0.00     0.124 S 
ATOM     94  O   UNL A   1      49.091  29.697  35.582  1.00  0.00    -0.237 OA
ATOM     95  O   UNL A   1      49.171  28.557  33.389  1.00  0.00    -0.237 OA
ATOM     96  O   UNL A   1      47.999  30.713  33.619  1.00  0.00    -0.744 OA
ENDBRANCH  89  93
ENDBRANCH  63  86
ENDBRANCH  37  38
ENDBRANCH  29  32
ENDBRANCH  27  28
ENDBRANCH  26  27
ENDBRANCH   1  26
TORSDOF 18
ENDMDL
MODEL 2
REMARK VINA RESULT:     -12.3      4.744      6.850
REMARK SMILES O=C(/C=C/c1ccc(O)cc1)NC[C@@H]1CC[C@H](C(=O)NCCCNC(=O)c2ccc(-c3c4nc(c(-c5cc(S(=O)(=O)[O-])ccc5F)c5ccc([nH]5)c(-c5cc(S(=O)(=O)[O-])ccc5F)c5nc(c(-c6cc(S(=O)(=O)[O-])ccc6F)c6ccc3[nH]6)C=C5)C=C4)cc2)O1
REMARK SMILES IDX 21 1 20 2 18 3 19 4 17 6 14 7 15 8 90 9 16 10 13 11 12 12
REMARK SMILES IDX 1 13 2 14 3 16 4 17 5 18 6 19 11 20 7 21 10 22 8 23 9 24
REMARK SMILES IDX 22 26 23 27 24 28 25 29 26 31 27 32 28 33 89 34 29 35 88 36
REMARK SMILES IDX 30 37 31 38 32 39 82 40 33 41 87 42 81 43 83 44 34 45 86 46
REMARK SMILES IDX 80 47 79 48 35 50 67 51 47 52 66 53 48 54 51 55 65 56 84 57
REMARK SMILES IDX 49 58 50 59 64 61 85 62 52 63 36 64 37 65 45 66 38 67 44 68
REMARK SMILES IDX 46 69 43 70 39 71 40 72 41 73 42 74 68 75 69 76 77 77 70 78
REMARK SMILES IDX 76 79 78 80 75 81 71 82 72 83 73 84 74 85 53 86 54 87 62 88
REMARK SMILES IDX 55 89 61 90 63 91 60 92 56 93 57 94 58 95 59 96
REMARK H PARENT 20 5 12 15 9 25 24 30 83 49 51 60
REMARK Flexibility Score: inf
ROOT
ATOM      1  C   UNL A   1      34.569  20.561  25.489  1.00  0.00     0.117 C 
ENDROOT
BRANCH   1   2
ATOM      2  N   UNL A   1      34.182  21.169  26.742  1.00  0.00    -0.354 N 
ATOM      3  C   UNL A   1      33.182  22.062  26.993  1.00  0.00     0.249 C 
ATOM      4  O   UNL A   1      32.998  22.401  28.167  1.00  0.00    -0.272 OA
ATOM      5  H   UNL A   1      34.714  20.901  27.525  1.00  0.00     0.163 HD
BRANCH   3   6
ATOM      6  C   UNL A   1      32.337  22.685  25.854  1.00  0.00     0.207 C 
ATOM      7  C   UNL A   1      31.553  24.843  25.358  1.00  0.00     0.138 C 
ATOM      8  C   UNL A   1      30.468  24.162  26.179  1.00  0.00     0.037 C 
ATOM      9  O   UNL A   1      32.718  23.997  25.435  1.00  0.00    -0.363 OA
ATOM     10  C   UNL A   1      30.846  22.699  26.151  1.00  0.00     0.045 C 
BRANCH   7  11
ATOM     11  C   UNL A   1      31.945  26.281  25.772  1.00  0.00     0.148 C 
BRANCH  11  12
ATOM     12  N   UNL A   1      31.303  27.339  25.010  1.00  0.00    -0.350 N 
ATOM     13  O   UNL A   1      33.006  27.607  23.499  1.00  0.00    -0.270 OA
ATOM     14  C   UNL A   1      31.893  27.914  23.910  1.00  0.00     0.244 C 
ATOM     15  H   UNL A   1      30.414  27.655  25.292  1.00  0.00     0.163 HD
BRANCH  14  16
ATOM     16  C   UNL A   1      31.139  29.007  23.234  1.00  0.00     0.072 C 
ATOM     17  C   UNL A   1      29.883  29.385  23.515  1.00  0.00     0.014 C 
BRANCH  17  18
ATOM     18  C   UNL A   1      29.174  30.479  22.838  1.00  0.00    -0.025 A 
ATOM     19  C   UNL A   1      29.032  31.753  23.403  1.00  0.00     0.012 A 
ATOM     20  C   UNL A   1      28.703  30.255  21.536  1.00  0.00     0.012 A 
ATOM     21  C   UNL A   1      28.427  32.786  22.678  1.00  0.00     0.047 A 
ATOM     22  C   UNL A   1      28.103  31.285  20.812  1.00  0.00     0.047 A 
ATOM     23  C   UNL A   1      27.973  32.543  21.386  1.00  0.00     0.115 A 
BRANCH  23  24
ATOM     24  O   UNL A   1      27.404  33.520  20.629  1.00  0.00    -0.508 OA
ATOM     25  H   UNL A   1      27.922  33.992  20.007  1.00  0.00     0.293 HD
ENDBRANCH  23  24
ENDBRANCH  17  18
ENDBRANCH  14  16
ENDBRANCH  11  12
ENDBRANCH   7  11
ENDBRANCH   3   6
ENDBRANCH   1   2
BRANCH   1  26
ATOM     26  C   UNL A   1      35.600  21.390  24.736  1.00  0.00     0.042 C 
BRANCH  26  27
ATOM     27  C   UNL A   1      36.712  21.900  25.634  1.00  0.00     0.118 C 
BRANCH  27  28
ATOM     28  N   UNL A   1      37.779  20.921  25.807  1.00  0.00    -0.352 N 
ATOM     29  C   UNL A   1      39.086  21.078  26.185  1.00  0.00     0.251 C 
ATOM     30  H   UNL A   1      37.516  19.991  25.622  1.00  0.00     0.163 HD
ATOM     31  O   UNL A   1      39.847  20.111  26.147  1.00  0.00    -0.269 OA
BRANCH  29  32
ATOM     32  C   UNL A   1      39.601  22.401  26.587  1.00  0.00     0.039 A 
ATOM     33  C   UNL A   1      40.636  22.452  27.525  1.00  0.00     0.014 A 
ATOM     34  C   UNL A   1      39.085  23.583  26.053  1.00  0.00     0.014 A 
ATOM     35  C   UNL A   1      41.186  23.681  27.884  1.00  0.00     0.010 A 
ATOM     36  C   UNL A   1      39.706  24.795  26.326  1.00  0.00     0.010 A 
ATOM     37  C   UNL A   1      40.749  24.860  27.260  1.00  0.00    -0.014 A 
BRANCH  37  38
ATOM     38  C   UNL A   1      41.347  26.174  27.604  1.00  0.00     0.031 A 
ATOM     39  C   UNL A   1      42.735  26.510  27.129  1.00  0.00     0.074 A 
ATOM     40  C   UNL A   1      40.656  27.039  28.372  1.00  0.00     0.049 A 
ATOM     41  N   UNL A   1      43.455  27.577  27.364  1.00  0.00    -0.248 NA
ATOM     42  C   UNL A   1      43.418  25.496  26.309  1.00  0.00     0.031 C 
ATOM     43  C   UNL A   1      39.318  26.801  28.921  1.00  0.00     0.029 A 
ATOM     44  N   UNL A   1      40.978  28.293  28.823  1.00  0.00    -0.354 N 
ATOM     45  C   UNL A   1      44.675  27.354  26.735  1.00  0.00     0.074 A 
ATOM     46  C   UNL A   1      44.624  26.022  26.176  1.00  0.00     0.031 C 
ATOM     47  C   UNL A   1      38.921  27.887  29.601  1.00  0.00     0.029 A 
ATOM     48  C   UNL A   1      39.993  28.878  29.585  1.00  0.00     0.049 A 
ATOM     49  H   UNL A   1      41.835  28.734  28.622  1.00  0.00     0.167 HD
ATOM     50  C   UNL A   1      45.729  28.197  26.610  1.00  0.00     0.034 A 
ATOM     51  C   UNL A   1      39.961  30.073  30.205  1.00  0.00     0.034 A 
ATOM     52  C   UNL A   1      45.752  29.528  27.163  1.00  0.00     0.049 A 
ATOM     53  C   UNL A   1      41.158  30.982  30.075  1.00  0.00     0.074 A 
ATOM     54  C   UNL A   1      46.741  30.489  27.058  1.00  0.00     0.029 A 
ATOM     55  N   UNL A   1      44.740  30.085  27.937  1.00  0.00    -0.354 N 
ATOM     56  N   UNL A   1      42.285  30.780  29.430  1.00  0.00    -0.248 NA
ATOM     57  C   UNL A   1      41.073  32.284  30.746  1.00  0.00     0.031 C 
ATOM     58  C   UNL A   1      46.363  31.593  27.829  1.00  0.00     0.029 A 
ATOM     59  C   UNL A   1      45.097  31.360  28.343  1.00  0.00     0.049 A 
ATOM     60  H   UNL A   1      43.892  29.637  28.163  1.00  0.00     0.167 HD
ATOM     61  C   UNL A   1      43.030  31.945  29.594  1.00  0.00     0.074 A 
ATOM     62  C   UNL A   1      42.213  32.849  30.378  1.00  0.00     0.031 C 
ATOM     63  C   UNL A   1      44.274  32.244  29.138  1.00  0.00     0.034 A 
BRANCH  50  64
ATOM     64  C   UNL A   1      46.944  27.689  25.868  1.00  0.00     0.023 A 
ATOM     65  C   UNL A   1      47.190  28.032  24.526  1.00  0.00     0.031 A 
ATOM     66  C   UNL A   1      47.853  26.821  26.500  1.00  0.00     0.131 A 
ATOM     67  C   UNL A   1      48.265  27.449  23.838  1.00  0.00     0.055 A 
ATOM     68  C   UNL A   1      48.973  26.315  25.834  1.00  0.00     0.041 A 
ATOM     69  F   UNL A   1      47.661  26.437  27.771  1.00  0.00    -0.206 F 
ATOM     70  C   UNL A   1      49.174  26.615  24.490  1.00  0.00     0.022 A 
BRANCH  67  71
ATOM     71  S   UNL A   1      48.365  27.673  22.040  1.00  0.00     0.124 S 
ATOM     72  O   UNL A   1      48.649  26.312  21.590  1.00  0.00    -0.237 OA
ATOM     73  O   UNL A   1      47.042  28.192  21.713  1.00  0.00    -0.237 OA
ATOM     74  O   UNL A   1      49.466  28.619  21.873  1.00  0.00    -0.744 OA
ENDBRANCH  67  71
ENDBRANCH  50  64
BRANCH  51  75
ATOM     75  C   UNL A   1      38.772  30.482  31.007  1.00  0.00     0.023 A 
ATOM     76  C   UNL A   1      37.678  31.123  30.405  1.00  0.00     0.031 A 
ATOM     77  C   UNL A   1      38.730  30.278  32.399  1.00  0.00     0.131 A 
ATOM     78  C   UNL A   1      36.614  31.585  31.195  1.00  0.00     0.055 A 
ATOM     79  C   UNL A   1      37.642  30.685  33.173  1.00  0.00     0.041 A 
ATOM     80  F   UNL A   1      39.747  29.668  33.027  1.00  0.00    -0.206 F 
ATOM     81  C   UNL A   1      36.581  31.357  32.572  1.00  0.00     0.022 A 
BRANCH  78  82
ATOM     82  S   UNL A   1      35.315  32.576  30.407  1.00  0.00     0.124 S 
ATOM     83  O   UNL A   1      34.348  32.713  31.491  1.00  0.00    -0.237 OA
ATOM     84  O   UNL A   1      36.041  33.786  30.037  1.00  0.00    -0.237 OA
ATOM     85  O   UNL A   1      34.883  31.741  29.287  1.00  0.00    -0.744 OA
ENDBRANCH  78  82
ENDBRANCH  51  75
BRANCH  63  86
ATOM     86  C   UNL A   1      44.803  33.623  29.447  1.00  0.00     0.023 A 
ATOM     87  C   UNL A   1      44.573  34.714  28.591  1.00  0.00     0.031 A 
ATOM     88  C   UNL A   1      45.566  33.845  30.609  1.00  0.00     0.131 A 
ATOM     89  C   UNL A   1      45.155  35.958  28.872  1.00  0.00     0.055 A 
ATOM     90  C   UNL A   1      46.080  35.104  30.921  1.00  0.00     0.041 A 
ATOM     91  F   UNL A   1      45.822  32.840  31.461  1.00  0.00    -0.206 F 
ATOM     92  C   UNL A   1      45.890  36.166  30.041  1.00  0.00     0.022 A 
BRANCH  89  93
ATOM     93  S   UNL A   1      45.037  37.272  27.628  1.00  0.00     0.124 S 
ATOM     94  O   UNL A   1      46.156  36.956  26.746  1.00  0.00    -0.237 OA
ATOM     95  O   UNL A   1      43.706  37.056  27.070  1.00  0.00    -0.237 OA
ATOM     96  O   UNL A   1      45.190  38.498  28.410  1.00  0.00    -0.744 OA
ENDBRANCH  89  93
ENDBRANCH  63  86
ENDBRANCH  37  38
ENDBRANCH  29  32
ENDBRANCH  27  28
ENDBRANCH  26  27
ENDBRANCH   1  26
TORSDOF 18
ENDMDL
MODEL 3
REMARK VINA RESULT:     -12.3      2.042      7.739
REMARK SMILES O=C(/C=C/c1ccc(O)cc1)NC[C@@H]1CC[C@H](C(=O)NCCCNC(=O)c2ccc(-c3c4nc(c(-c5cc(S(=O)(=O)[O-])ccc5F)c5ccc([nH]5)c(-c5cc(S(=O)(=O)[O-])ccc5F)c5nc(c(-c6cc(S(=O)(=O)[O-])ccc6F)c6ccc3[nH]6)C=C5)C=C4)cc2)O1
REMARK SMILES IDX 21 1 20 2 18 3 19 4 17 6 14 7 15 8 90 9 16 10 13 11 12 12
REMARK SMILES IDX 1 13 2 14 3 16 4 17 5 18 6 19 11 20 7 21 10 22 8 23 9 24
REMARK SMILES IDX 22 26 23 27 24 28 25 29 26 31 27 32 28 33 89 34 29 35 88 36
REMARK SMILES IDX 30 37 31 38 32 39 82 40 33 41 87 42 81 43 83 44 34 45 86 46
REMARK SMILES IDX 80 47 79 48 35 50 67 51 47 52 66 53 48 54 51 55 65 56 84 57
REMARK SMILES IDX 49 58 50 59 64 61 85 62 52 63 36 64 37 65 45 66 38 67 44 68
REMARK SMILES IDX 46 69 43 70 39 71 40 72 41 73 42 74 68 75 69 76 77 77 70 78
REMARK SMILES IDX 76 79 78 80 75 81 71 82 72 83 73 84 74 85 53 86 54 87 62 88
REMARK SMILES IDX 55 89 61 90 63 91 60 92 56 93 57 94 58 95 59 96
REMARK H PARENT 20 5 12 15 9 25 24 30 83 49 51 60
REMARK Flexibility Score: inf
ROOT
ATOM      1  C   UNL A   1      32.446  26.674  26.422  1.00  0.00     0.117 C 
ENDROOT
BRANCH   1   2
ATOM      2  N   UNL A   1      31.432  25.711  26.786  1.00  0.00    -0.354 N 
ATOM      3  C   UNL A   1      31.470  24.350  26.707  1.00  0.00     0.249 C 
ATOM      4  O   UNL A   1      30.495  23.725  27.137  1.00  0.00    -0.272 OA
ATOM      5  H   UNL A   1      30.596  26.090  27.140  1.00  0.00     0.163 HD
BRANCH   3   6
ATOM      6  C   UNL A   1      32.657  23.601  26.053  1.00  0.00     0.207 C 
ATOM      7  C   UNL A   1      33.264  23.055  23.850  1.00  0.00     0.138 C 
ATOM      8  C   UNL A   1      32.447  21.886  24.381  1.00  0.00     0.037 C 
ATOM      9  O   UNL A   1      33.119  24.124  24.806  1.00  0.00    -0.363 OA
ATOM     10  C   UNL A   1      32.403  22.112  25.874  1.00  0.00     0.045 C 
BRANCH   7  11
ATOM     11  C   UNL A   1      32.900  23.583  22.442  1.00  0.00     0.148 C 
BRANCH  11  12
ATOM     12  N   UNL A   1      31.969  24.698  22.422  1.00  0.00    -0.350 N 
ATOM     13  O   UNL A   1      33.438  26.212  21.526  1.00  0.00    -0.270 OA
ATOM     14  C   UNL A   1      32.319  25.938  21.944  1.00  0.00     0.244 C 
ATOM     15  H   UNL A   1      31.055  24.560  22.761  1.00  0.00     0.163 HD
BRANCH  14  16
ATOM     16  C   UNL A   1      31.278  27.002  22.003  1.00  0.00     0.072 C 
ATOM     17  C   UNL A   1      30.634  27.411  23.106  1.00  0.00     0.014 C 
BRANCH  17  18
ATOM     18  C   UNL A   1      29.622  28.476  23.130  1.00  0.00    -0.025 A 
ATOM     19  C   UNL A   1      28.251  28.219  23.005  1.00  0.00     0.012 A 
ATOM     20  C   UNL A   1      30.049  29.788  23.380  1.00  0.00     0.012 A 
ATOM     21  C   UNL A   1      27.321  29.258  23.126  1.00  0.00     0.047 A 
ATOM     22  C   UNL A   1      29.123  30.823  23.503  1.00  0.00     0.047 A 
ATOM     23  C   UNL A   1      27.767  30.551  23.380  1.00  0.00     0.115 A 
BRANCH  23  24
ATOM     24  O   UNL A   1      26.903  31.591  23.534  1.00  0.00    -0.508 OA
ATOM     25  H   UNL A   1      27.130  32.309  24.092  1.00  0.00     0.293 HD
ENDBRANCH  23  24
ENDBRANCH  17  18
ENDBRANCH  14  16
ENDBRANCH  11  12
ENDBRANCH   7  11
ENDBRANCH   3   6
ENDBRANCH   1   2
BRANCH   1  26
ATOM     26  C   UNL A   1      31.954  28.109  26.543  1.00  0.00     0.042 C 
BRANCH  26  27
ATOM     27  C   UNL A   1      32.812  29.091  25.765  1.00  0.00     0.118 C 
BRANCH  27  28
ATOM     28  N   UNL A   1      32.549  30.476  26.141  1.00  0.00    -0.352 N 
ATOM     29  C   UNL A   1      33.212  31.313  26.999  1.00  0.00     0.251 C 
ATOM     30  H   UNL A   1      31.764  30.877  25.703  1.00  0.00     0.163 HD
ATOM     31  O   UNL A   1      32.734  32.418  27.257  1.00  0.00    -0.269 OA
BRANCH  29  32
ATOM     32  C   UNL A   1      34.462  30.884  27.656  1.00  0.00     0.039 A 
ATOM     33  C   UNL A   1      35.421  31.855  27.953  1.00  0.00     0.014 A 
ATOM     34  C   UNL A   1      34.697  29.547  27.984  1.00  0.00     0.014 A 
ATOM     35  C   UNL A   1      36.587  31.494  28.625  1.00  0.00     0.010 A 
ATOM     36  C   UNL A   1      35.805  29.207  28.750  1.00  0.00     0.010 A 
ATOM     37  C   UNL A   1      36.772  30.173  29.061  1.00  0.00    -0.014 A 
BRANCH  37  38
ATOM     38  C   UNL A   1      37.992  29.777  29.808  1.00  0.00     0.031 A 
ATOM     39  C   UNL A   1      38.232  30.327  31.188  1.00  0.00     0.074 A 
ATOM     40  C   UNL A   1      38.891  28.960  29.228  1.00  0.00     0.049 A 
ATOM     41  N   UNL A   1      39.256  30.149  31.983  1.00  0.00    -0.248 NA
ATOM     42  C   UNL A   1      37.201  31.225  31.733  1.00  0.00     0.031 C 
ATOM     43  C   UNL A   1      38.779  28.399  27.878  1.00  0.00     0.029 A 
ATOM     44  N   UNL A   1      40.077  28.455  29.696  1.00  0.00    -0.354 N 
ATOM     45  C   UNL A   1      38.997  30.921  33.111  1.00  0.00     0.074 A 
ATOM     46  C   UNL A   1      37.760  31.628  32.862  1.00  0.00     0.031 C 
ATOM     47  C   UNL A   1      39.831  27.600  27.644  1.00  0.00     0.029 A 
ATOM     48  C   UNL A   1      40.720  27.631  28.801  1.00  0.00     0.049 A 
ATOM     49  H   UNL A   1      40.436  28.663  30.589  1.00  0.00     0.167 HD
ATOM     50  C   UNL A   1      39.711  31.009  34.259  1.00  0.00     0.034 A 
ATOM     51  C   UNL A   1      41.897  26.982  28.900  1.00  0.00     0.034 A 
ATOM     52  C   UNL A   1      40.935  30.283  34.491  1.00  0.00     0.049 A 
ATOM     53  C   UNL A   1      42.687  27.118  30.178  1.00  0.00     0.074 A 
ATOM     54  C   UNL A   1      41.716  30.252  35.632  1.00  0.00     0.029 A 
ATOM     55  N   UNL A   1      41.562  29.464  33.559  1.00  0.00    -0.354 N 
ATOM     56  N   UNL A   1      42.402  27.809  31.258  1.00  0.00    -0.248 NA
ATOM     57  C   UNL A   1      43.951  26.375  30.254  1.00  0.00     0.031 C 
ATOM     58  C   UNL A   1      42.852  29.481  35.364  1.00  0.00     0.029 A 
ATOM     59  C   UNL A   1      42.737  28.954  34.087  1.00  0.00     0.049 A 
ATOM     60  H   UNL A   1      41.220  29.274  32.655  1.00  0.00     0.167 HD
ATOM     61  C   UNL A   1      43.439  27.559  32.153  1.00  0.00     0.074 A 
ATOM     62  C   UNL A   1      44.340  26.636  31.492  1.00  0.00     0.031 C 
ATOM     63  C   UNL A   1      43.631  28.045  33.407  1.00  0.00     0.034 A 
BRANCH  50  64
ATOM     64  C   UNL A   1      39.193  31.939  35.332  1.00  0.00     0.023 A 
ATOM     65  C   UNL A   1      39.647  33.265  35.446  1.00  0.00     0.031 A 
ATOM     66  C   UNL A   1      38.255  31.485  36.277  1.00  0.00     0.131 A 
ATOM     67  C   UNL A   1      39.230  34.061  36.523  1.00  0.00     0.055 A 
ATOM     68  C   UNL A   1      37.774  32.312  37.295  1.00  0.00     0.041 A 
ATOM     69  F   UNL A   1      37.800  30.222  36.237  1.00  0.00    -0.206 F 
ATOM     70  C   UNL A   1      38.275  33.603  37.433  1.00  0.00     0.022 A 
BRANCH  67  71
ATOM     71  S   UNL A   1      40.070  35.644  36.807  1.00  0.00     0.124 S 
ATOM     72  O   UNL A   1      39.509  36.047  38.095  1.00  0.00    -0.237 OA
ATOM     73  O   UNL A   1      41.476  35.257  36.816  1.00  0.00    -0.237 OA
ATOM     74  O   UNL A   1      39.653  36.462  35.670  1.00  0.00    -0.744 OA
ENDBRANCH  67  71
ENDBRANCH  50  64
BRANCH  51  75
ATOM     75  C   UNL A   1      42.406  26.155  27.768  1.00  0.00     0.023 A 
ATOM     76  C   UNL A   1      42.055  24.802  27.645  1.00  0.00     0.031 A 
ATOM     77  C   UNL A   1      43.289  26.694  26.815  1.00  0.00     0.131 A 
ATOM     78  C   UNL A   1      42.623  24.019  26.627  1.00  0.00     0.055 A 
ATOM     79  C   UNL A   1      43.806  25.928  25.769  1.00  0.00     0.041 A 
ATOM     80  F   UNL A   1      43.657  27.984  26.882  1.00  0.00    -0.206 F 
ATOM     81  C   UNL A   1      43.484  24.577  25.679  1.00  0.00     0.022 A 
BRANCH  78  82
ATOM     82  S   UNL A   1      42.295  22.236  26.618  1.00  0.00     0.124 S 
ATOM     83  O   UNL A   1      40.934  22.187  26.097  1.00  0.00    -0.237 OA
ATOM     84  O   UNL A   1      43.341  21.740  25.731  1.00  0.00    -0.237 OA
ATOM     85  O   UNL A   1      42.439  21.857  28.024  1.00  0.00    -0.744 OA
ENDBRANCH  78  82
ENDBRANCH  51  75
BRANCH  63  86
ATOM     86  C   UNL A   1      44.845  27.548  34.154  1.00  0.00     0.023 A 
ATOM     87  C   UNL A   1      44.799  26.397  34.960  1.00  0.00     0.031 A 
ATOM     88  C   UNL A   1      46.062  28.249  34.073  1.00  0.00     0.131 A 
ATOM     89  C   UNL A   1      45.926  26.020  35.706  1.00  0.00     0.055 A 
ATOM     90  C   UNL A   1      47.202  27.826  34.758  1.00  0.00     0.041 A 
ATOM     91  F   UNL A   1      46.164  29.357  33.322  1.00  0.00    -0.206 F 
ATOM     92  C   UNL A   1      47.133  26.715  35.594  1.00  0.00     0.022 A 
BRANCH  89  93
ATOM     93  S   UNL A   1      45.759  24.678  36.913  1.00  0.00     0.124 S 
ATOM     94  O   UNL A   1      47.116  24.140  36.957  1.00  0.00    -0.237 OA
ATOM     95  O   UNL A   1      45.315  25.386  38.109  1.00  0.00    -0.237 OA
ATOM     96  O   UNL A   1      44.762  23.796  36.308  1.00  0.00    -0.744 OA
ENDBRANCH  89  93
ENDBRANCH  63  86
ENDBRANCH  37  38
ENDBRANCH  29  32
ENDBRANCH  27  28
ENDBRANCH  26  27
ENDBRANCH   1  26
TORSDOF 18
ENDMDL
