MODEL 1
REMARK VINA RESULT:     -11.5      0.000      0.000
REMARK SMILES CCCCOc1ccc(-c2nc(C)c(C(=O)NCCCNC(=O)c3ccc(-c4c5nc(c(-c6cc(S(=O)(=O)[O-])ccc6F)c6ccc([nH]6)c(-c6cc(S(=O)(=O)[O-])ccc6F)c6nc(c(-c7cc(S(=O)(=O)[O-])ccc7F)c7ccc4[nH]7)C=C6)C=C5)cc3)s2)cc1
REMARK SMILES IDX 18 1 17 2 15 3 16 4 14 6 10 7 11 8 87 9 12 10 13 11 9 12
REMARK SMILES IDX 6 13 7 14 89 15 8 16 88 17 5 18 4 19 3 20 2 21 1 22 19 23
REMARK SMILES IDX 20 24 21 25 22 26 23 28 24 29 25 30 86 31 26 32 85 33 27 34
REMARK SMILES IDX 28 35 29 36 79 37 30 38 84 39 78 40 80 41 31 42 83 43 77 44
REMARK SMILES IDX 76 45 32 47 64 48 44 49 63 50 45 51 48 52 62 53 81 54 46 55
REMARK SMILES IDX 47 56 61 58 82 59 49 60 33 61 34 62 42 63 35 64 41 65 43 66
REMARK SMILES IDX 40 67 36 68 37 69 38 70 39 71 65 72 66 73 74 74 67 75 73 76
REMARK SMILES IDX 75 77 72 78 68 79 69 80 70 81 71 82 50 83 51 84 59 85 52 86
REMARK SMILES IDX 58 87 60 88 57 89 53 90 54 91 55 92 56 93
REMARK H PARENT 17 5 21 27 80 46 48 57
REMARK Flexibility Score: inf
ROOT
ATOM      1  C   UNL A   1      36.749  20.634  24.994  1.00  0.00     0.118 C 
ENDROOT
BRANCH   1   2
ATOM      2  N   UNL A   1      35.538  19.848  24.999  1.00  0.00    -0.351 N 
ATOM      3  C   UNL A   1      34.211  20.163  25.108  1.00  0.00     0.263 C 
ATOM      4  O   UNL A   1      33.474  19.169  25.051  1.00  0.00    -0.268 OA
ATOM      5  H   UNL A   1      35.702  18.882  24.906  1.00  0.00     0.163 HD
BRANCH   3   6
ATOM      6  C   UNL A   1      33.683  21.516  25.230  1.00  0.00     0.115 A 
ATOM      7  C   UNL A   1      32.596  23.599  24.509  1.00  0.00     0.124 A 
ATOM      8  N   UNL A   1      32.780  23.602  25.808  1.00  0.00    -0.241 NA
ATOM      9  S   UNL A   1      33.309  22.278  23.705  1.00  0.00    -0.108 S 
ATOM     10  C   UNL A   1      33.309  22.393  26.245  1.00  0.00     0.062 A 
ATOM     11  C   UNL A   1      33.288  22.251  27.723  1.00  0.00     0.068 C 
BRANCH   7  12
ATOM     12  C   UNL A   1      31.789  24.603  23.808  1.00  0.00     0.011 A 
ATOM     13  C   UNL A   1      30.560  26.840  22.671  1.00  0.00     0.119 A 
ATOM     14  C   UNL A   1      31.649  26.259  22.027  1.00  0.00     0.047 A 
ATOM     15  C   UNL A   1      29.999  26.246  23.795  1.00  0.00     0.047 A 
ATOM     16  C   UNL A   1      32.265  25.146  22.602  1.00  0.00     0.015 A 
ATOM     17  C   UNL A   1      30.628  25.148  24.380  1.00  0.00     0.015 A 
BRANCH  13  18
ATOM     18  O   UNL A   1      30.016  28.013  22.237  1.00  0.00    -0.494 OA
BRANCH  18  19
ATOM     19  C   UNL A   1      29.967  28.995  23.287  1.00  0.00     0.229 C 
BRANCH  19  20
ATOM     20  C   UNL A   1      31.358  29.361  23.825  1.00  0.00     0.041 C 
BRANCH  20  21
ATOM     21  C   UNL A   1      31.583  29.232  25.339  1.00  0.00     0.000 C 
ATOM     22  C   UNL A   1      31.824  30.545  26.064  1.00  0.00     0.004 C 
ENDBRANCH  20  21
ENDBRANCH  19  20
ENDBRANCH  18  19
ENDBRANCH  13  18
ENDBRANCH   7  12
ENDBRANCH   3   6
ENDBRANCH   1   2
BRANCH   1  23
ATOM     23  C   UNL A   1      37.975  19.726  25.050  1.00  0.00     0.042 C 
BRANCH  23  24
ATOM     24  C   UNL A   1      39.138  20.319  25.839  1.00  0.00     0.118 C 
BRANCH  24  25
ATOM     25  N   UNL A   1      40.217  19.359  26.002  1.00  0.00    -0.352 N 
ATOM     26  C   UNL A   1      41.570  19.564  26.117  1.00  0.00     0.251 C 
ATOM     27  H   UNL A   1      39.934  18.416  26.035  1.00  0.00     0.163 HD
ATOM     28  O   UNL A   1      42.327  18.610  25.960  1.00  0.00    -0.269 OA
BRANCH  26  29
ATOM     29  C   UNL A   1      42.117  20.909  26.413  1.00  0.00     0.039 A 
ATOM     30  C   UNL A   1      42.352  21.789  25.352  1.00  0.00     0.014 A 
ATOM     31  C   UNL A   1      42.448  21.292  27.717  1.00  0.00     0.014 A 
ATOM     32  C   UNL A   1      42.870  23.063  25.604  1.00  0.00     0.010 A 
ATOM     33  C   UNL A   1      42.889  22.589  27.975  1.00  0.00     0.010 A 
ATOM     34  C   UNL A   1      43.112  23.487  26.920  1.00  0.00    -0.014 A 
BRANCH  34  35
ATOM     35  C   UNL A   1      43.607  24.857  27.212  1.00  0.00     0.031 A 
ATOM     36  C   UNL A   1      42.667  25.902  27.751  1.00  0.00     0.074 A 
ATOM     37  C   UNL A   1      44.887  25.176  26.932  1.00  0.00     0.049 A 
ATOM     38  N   UNL A   1      42.884  27.172  27.984  1.00  0.00    -0.248 NA
ATOM     39  C   UNL A   1      41.293  25.467  28.036  1.00  0.00     0.031 C 
ATOM     40  C   UNL A   1      45.882  24.256  26.375  1.00  0.00     0.029 A 
ATOM     41  N   UNL A   1      45.569  26.358  27.065  1.00  0.00    -0.354 N 
ATOM     42  C   UNL A   1      41.672  27.690  28.428  1.00  0.00     0.074 A 
ATOM     43  C   UNL A   1      40.711  26.608  28.374  1.00  0.00     0.031 C 
ATOM     44  C   UNL A   1      47.049  24.903  26.234  1.00  0.00     0.029 A 
ATOM     45  C   UNL A   1      46.877  26.293  26.642  1.00  0.00     0.049 A 
ATOM     46  H   UNL A   1      45.161  27.177  27.429  1.00  0.00     0.167 HD
ATOM     47  C   UNL A   1      41.392  28.944  28.861  1.00  0.00     0.034 A 
ATOM     48  C   UNL A   1      47.825  27.249  26.574  1.00  0.00     0.034 A 
ATOM     49  C   UNL A   1      42.368  30.006  28.919  1.00  0.00     0.049 A 
ATOM     50  C   UNL A   1      47.483  28.644  27.033  1.00  0.00     0.074 A 
ATOM     51  C   UNL A   1      42.211  31.298  29.393  1.00  0.00     0.029 A 
ATOM     52  N   UNL A   1      43.683  29.904  28.480  1.00  0.00    -0.354 N 
ATOM     53  N   UNL A   1      46.344  29.105  27.497  1.00  0.00    -0.248 NA
ATOM     54  C   UNL A   1      48.557  29.643  26.969  1.00  0.00     0.031 C 
ATOM     55  C   UNL A   1      43.406  31.994  29.177  1.00  0.00     0.029 A 
ATOM     56  C   UNL A   1      44.335  31.117  28.641  1.00  0.00     0.049 A 
ATOM     57  H   UNL A   1      44.091  29.089  28.109  1.00  0.00     0.167 HD
ATOM     58  C   UNL A   1      46.575  30.442  27.806  1.00  0.00     0.074 A 
ATOM     59  C   UNL A   1      47.965  30.707  27.492  1.00  0.00     0.031 C 
ATOM     60  C   UNL A   1      45.718  31.369  28.307  1.00  0.00     0.034 A 
BRANCH  47  61
ATOM     61  C   UNL A   1      39.969  29.238  29.276  1.00  0.00     0.023 A 
ATOM     62  C   UNL A   1      39.591  29.301  30.630  1.00  0.00     0.031 A 
ATOM     63  C   UNL A   1      38.969  29.435  28.306  1.00  0.00     0.131 A 
ATOM     64  C   UNL A   1      38.242  29.473  30.975  1.00  0.00     0.055 A 
ATOM     65  C   UNL A   1      37.642  29.689  28.658  1.00  0.00     0.041 A 
ATOM     66  F   UNL A   1      39.262  29.368  26.999  1.00  0.00    -0.206 F 
ATOM     67  C   UNL A   1      37.268  29.693  29.999  1.00  0.00     0.022 A 
BRANCH  64  68
ATOM     68  S   UNL A   1      37.758  29.255  32.709  1.00  0.00     0.124 S 
ATOM     69  O   UNL A   1      36.443  29.890  32.730  1.00  0.00    -0.237 OA
ATOM     70  O   UNL A   1      37.770  27.804  32.860  1.00  0.00    -0.237 OA
ATOM     71  O   UNL A   1      38.799  29.967  33.448  1.00  0.00    -0.744 OA
ENDBRANCH  64  68
ENDBRANCH  47  61
BRANCH  48  72
ATOM     72  C   UNL A   1      49.179  26.931  26.038  1.00  0.00     0.023 A 
ATOM     73  C   UNL A   1      49.563  27.345  24.752  1.00  0.00     0.031 A 
ATOM     74  C   UNL A   1      50.098  26.177  26.790  1.00  0.00     0.131 A 
ATOM     75  C   UNL A   1      50.813  26.964  24.240  1.00  0.00     0.055 A 
ATOM     76  C   UNL A   1      51.361  25.846  26.296  1.00  0.00     0.041 A 
ATOM     77  F   UNL A   1      49.784  25.761  28.027  1.00  0.00    -0.206 F 
ATOM     78  C   UNL A   1      51.720  26.230  25.007  1.00  0.00     0.022 A 
BRANCH  75  79
ATOM     79  S   UNL A   1      51.205  27.373  22.517  1.00  0.00     0.124 S 
ATOM     80  O   UNL A   1      52.531  26.783  22.367  1.00  0.00    -0.237 OA
ATOM     81  O   UNL A   1      50.123  26.713  21.795  1.00  0.00    -0.237 OA
ATOM     82  O   UNL A   1      51.167  28.834  22.496  1.00  0.00    -0.744 OA
ENDBRANCH  75  79
ENDBRANCH  48  72
BRANCH  60  83
ATOM     83  C   UNL A   1      46.280  32.742  28.580  1.00  0.00     0.023 A 
ATOM     84  C   UNL A   1      46.212  33.772  27.625  1.00  0.00     0.031 A 
ATOM     85  C   UNL A   1      46.904  33.020  29.810  1.00  0.00     0.131 A 
ATOM     86  C   UNL A   1      46.808  35.014  27.894  1.00  0.00     0.055 A 
ATOM     87  C   UNL A   1      47.441  34.275  30.095  1.00  0.00     0.041 A 
ATOM     88  F   UNL A   1      47.000  32.072  30.756  1.00  0.00    -0.206 F 
ATOM     89  C   UNL A   1      47.406  35.278  29.129  1.00  0.00     0.022 A 
BRANCH  86  90
ATOM     90  S   UNL A   1      46.872  36.254  26.572  1.00  0.00     0.124 S 
ATOM     91  O   UNL A   1      46.434  35.483  25.413  1.00  0.00    -0.237 OA
ATOM     92  O   UNL A   1      45.939  37.270  27.051  1.00  0.00    -0.237 OA
ATOM     93  O   UNL A   1      48.275  36.663  26.552  1.00  0.00    -0.744 OA
ENDBRANCH  86  90
ENDBRANCH  60  83
ENDBRANCH  34  35
ENDBRANCH  26  29
ENDBRANCH  24  25
ENDBRANCH  23  24
ENDBRANCH   1  23
TORSDOF 18
ENDMDL
MODEL 2
REMARK VINA RESULT:     -11.4      2.204      2.975
REMARK SMILES CCCCOc1ccc(-c2nc(C)c(C(=O)NCCCNC(=O)c3ccc(-c4c5nc(c(-c6cc(S(=O)(=O)[O-])ccc6F)c6ccc([nH]6)c(-c6cc(S(=O)(=O)[O-])ccc6F)c6nc(c(-c7cc(S(=O)(=O)[O-])ccc7F)c7ccc4[nH]7)C=C6)C=C5)cc3)s2)cc1
REMARK SMILES IDX 18 1 17 2 15 3 16 4 14 6 10 7 11 8 87 9 12 10 13 11 9 12
REMARK SMILES IDX 6 13 7 14 89 15 8 16 88 17 5 18 4 19 3 20 2 21 1 22 19 23
REMARK SMILES IDX 20 24 21 25 22 26 23 28 24 29 25 30 86 31 26 32 85 33 27 34
REMARK SMILES IDX 28 35 29 36 79 37 30 38 84 39 78 40 80 41 31 42 83 43 77 44
REMARK SMILES IDX 76 45 32 47 64 48 44 49 63 50 45 51 48 52 62 53 81 54 46 55
REMARK SMILES IDX 47 56 61 58 82 59 49 60 33 61 34 62 42 63 35 64 41 65 43 66
REMARK SMILES IDX 40 67 36 68 37 69 38 70 39 71 65 72 66 73 74 74 67 75 73 76
REMARK SMILES IDX 75 77 72 78 68 79 69 80 70 81 71 82 50 83 51 84 59 85 52 86
REMARK SMILES IDX 58 87 60 88 57 89 53 90 54 91 55 92 56 93
REMARK H PARENT 17 5 21 27 80 46 48 57
REMARK Flexibility Score: inf
ROOT
ATOM      1  C   UNL A   1      34.371  21.677  27.163  1.00  0.00     0.118 C 
ENDROOT
BRANCH   1   2
ATOM      2  N   UNL A   1      33.581  21.091  26.107  1.00  0.00    -0.351 N 
ATOM      3  C   UNL A   1      32.473  21.504  25.417  1.00  0.00     0.263 C 
ATOM      4  O   UNL A   1      32.109  20.689  24.559  1.00  0.00    -0.268 OA
ATOM      5  H   UNL A   1      33.908  20.206  25.822  1.00  0.00     0.163 HD
BRANCH   3   6
ATOM      6  C   UNL A   1      31.799  22.781  25.614  1.00  0.00     0.115 A 
ATOM      7  C   UNL A   1      31.158  25.104  25.132  1.00  0.00     0.124 A 
ATOM      8  N   UNL A   1      30.435  24.623  26.114  1.00  0.00    -0.241 NA
ATOM      9  S   UNL A   1      32.415  24.076  24.619  1.00  0.00    -0.108 S 
ATOM     10  C   UNL A   1      30.720  23.281  26.339  1.00  0.00     0.062 A 
ATOM     11  C   UNL A   1      29.750  22.627  27.253  1.00  0.00     0.068 C 
BRANCH   7  12
ATOM     12  C   UNL A   1      30.875  26.386  24.477  1.00  0.00     0.011 A 
ATOM     13  C   UNL A   1      30.772  28.765  23.017  1.00  0.00     0.119 A 
ATOM     14  C   UNL A   1      30.353  27.580  22.420  1.00  0.00     0.047 A 
ATOM     15  C   UNL A   1      31.113  28.801  24.363  1.00  0.00     0.047 A 
ATOM     16  C   UNL A   1      30.413  26.391  23.150  1.00  0.00     0.015 A 
ATOM     17  C   UNL A   1      31.194  27.611  25.085  1.00  0.00     0.015 A 
BRANCH  13  18
ATOM     18  O   UNL A   1      30.877  29.925  22.306  1.00  0.00    -0.494 OA
BRANCH  18  19
ATOM     19  C   UNL A   1      29.609  30.327  21.759  1.00  0.00     0.229 C 
BRANCH  19  20
ATOM     20  C   UNL A   1      28.864  31.326  22.657  1.00  0.00     0.041 C 
BRANCH  20  21
ATOM     21  C   UNL A   1      27.655  30.798  23.445  1.00  0.00     0.000 C 
ATOM     22  C   UNL A   1      27.261  29.366  23.126  1.00  0.00     0.004 C 
ENDBRANCH  20  21
ENDBRANCH  19  20
ENDBRANCH  18  19
ENDBRANCH  13  18
ENDBRANCH   7  12
ENDBRANCH   3   6
ENDBRANCH   1   2
BRANCH   1  23
ATOM     23  C   UNL A   1      35.301  22.750  26.601  1.00  0.00     0.042 C 
BRANCH  23  24
ATOM     24  C   UNL A   1      35.989  22.341  25.302  1.00  0.00     0.118 C 
BRANCH  24  25
ATOM     25  N   UNL A   1      36.885  21.213  25.505  1.00  0.00    -0.352 N 
ATOM     26  C   UNL A   1      38.236  21.193  25.748  1.00  0.00     0.251 C 
ATOM     27  H   UNL A   1      36.456  20.328  25.460  1.00  0.00     0.163 HD
ATOM     28  O   UNL A   1      38.846  20.136  25.604  1.00  0.00    -0.269 OA
BRANCH  26  29
ATOM     29  C   UNL A   1      38.956  22.419  26.165  1.00  0.00     0.039 A 
ATOM     30  C   UNL A   1      40.045  22.297  27.032  1.00  0.00     0.014 A 
ATOM     31  C   UNL A   1      38.536  23.688  25.755  1.00  0.00     0.014 A 
ATOM     32  C   UNL A   1      40.741  23.439  27.444  1.00  0.00     0.010 A 
ATOM     33  C   UNL A   1      39.276  24.816  26.101  1.00  0.00     0.010 A 
ATOM     34  C   UNL A   1      40.383  24.705  26.956  1.00  0.00    -0.014 A 
BRANCH  34  35
ATOM     35  C   UNL A   1      41.145  25.924  27.336  1.00  0.00     0.031 A 
ATOM     36  C   UNL A   1      40.491  26.996  28.166  1.00  0.00     0.074 A 
ATOM     37  C   UNL A   1      42.402  26.091  26.879  1.00  0.00     0.049 A 
ATOM     38  N   UNL A   1      40.956  28.166  28.524  1.00  0.00    -0.248 NA
ATOM     39  C   UNL A   1      39.122  26.727  28.629  1.00  0.00     0.031 C 
ATOM     40  C   UNL A   1      43.128  25.136  26.038  1.00  0.00     0.029 A 
ATOM     41  N   UNL A   1      43.289  27.125  27.046  1.00  0.00    -0.354 N 
ATOM     42  C   UNL A   1      39.933  28.779  29.240  1.00  0.00     0.074 A 
ATOM     43  C   UNL A   1      38.804  27.873  29.213  1.00  0.00     0.031 C 
ATOM     44  C   UNL A   1      44.353  25.619  25.780  1.00  0.00     0.029 A 
ATOM     45  C   UNL A   1      44.486  26.936  26.394  1.00  0.00     0.049 A 
ATOM     46  H   UNL A   1      43.088  27.925  27.582  1.00  0.00     0.167 HD
ATOM     47  C   UNL A   1      39.941  29.976  29.878  1.00  0.00     0.034 A 
ATOM     48  C   UNL A   1      45.562  27.741  26.287  1.00  0.00     0.034 A 
ATOM     49  C   UNL A   1      41.082  30.860  29.904  1.00  0.00     0.049 A 
ATOM     50  C   UNL A   1      45.539  29.079  26.981  1.00  0.00     0.074 A 
ATOM     51  C   UNL A   1      41.223  32.068  30.566  1.00  0.00     0.029 A 
ATOM     52  N   UNL A   1      42.277  30.637  29.230  1.00  0.00    -0.354 N 
ATOM     53  N   UNL A   1      44.580  29.623  27.696  1.00  0.00    -0.248 NA
ATOM     54  C   UNL A   1      46.746  29.907  26.862  1.00  0.00     0.031 C 
ATOM     55  C   UNL A   1      42.472  32.606  30.237  1.00  0.00     0.029 A 
ATOM     56  C   UNL A   1      43.145  31.700  29.433  1.00  0.00     0.049 A 
ATOM     57  H   UNL A   1      42.478  29.841  28.688  1.00  0.00     0.167 HD
ATOM     58  C   UNL A   1      45.082  30.845  28.134  1.00  0.00     0.074 A 
ATOM     59  C   UNL A   1      46.432  30.949  27.617  1.00  0.00     0.031 C 
ATOM     60  C   UNL A   1      44.483  31.795  28.897  1.00  0.00     0.034 A 
BRANCH  47  61
ATOM     61  C   UNL A   1      38.670  30.406  30.573  1.00  0.00     0.023 A 
ATOM     62  C   UNL A   1      37.643  31.081  29.887  1.00  0.00     0.031 A 
ATOM     63  C   UNL A   1      38.489  30.160  31.946  1.00  0.00     0.131 A 
ATOM     64  C   UNL A   1      36.525  31.556  30.588  1.00  0.00     0.055 A 
ATOM     65  C   UNL A   1      37.334  30.561  32.620  1.00  0.00     0.041 A 
ATOM     66  F   UNL A   1      39.440  29.538  32.660  1.00  0.00    -0.206 F 
ATOM     67  C   UNL A   1      36.350  31.278  31.945  1.00  0.00     0.022 A 
BRANCH  64  68
ATOM     68  S   UNL A   1      35.375  32.668  29.732  1.00  0.00     0.124 S 
ATOM     69  O   UNL A   1      34.391  32.936  30.778  1.00  0.00    -0.237 OA
ATOM     70  O   UNL A   1      36.236  33.785  29.361  1.00  0.00    -0.237 OA
ATOM     71  O   UNL A   1      34.885  31.862  28.616  1.00  0.00    -0.744 OA
ENDBRANCH  64  68
ENDBRANCH  47  61
BRANCH  48  72
ATOM     72  C   UNL A   1      46.744  27.317  25.484  1.00  0.00     0.023 A 
ATOM     73  C   UNL A   1      46.939  27.795  24.177  1.00  0.00     0.031 A 
ATOM     74  C   UNL A   1      47.678  26.399  25.996  1.00  0.00     0.131 A 
ATOM     75  C   UNL A   1      48.014  27.319  23.412  1.00  0.00     0.055 A 
ATOM     76  C   UNL A   1      48.777  25.970  25.250  1.00  0.00     0.041 A 
ATOM     77  F   UNL A   1      47.543  25.916  27.241  1.00  0.00    -0.206 F 
ATOM     78  C   UNL A   1      48.943  26.421  23.943  1.00  0.00     0.022 A 
BRANCH  75  79
ATOM     79  S   UNL A   1      48.138  27.829  21.676  1.00  0.00     0.124 S 
ATOM     80  O   UNL A   1      49.328  28.672  21.699  1.00  0.00    -0.237 OA
ATOM     81  O   UNL A   1      48.272  26.547  20.993  1.00  0.00    -0.237 OA
ATOM     82  O   UNL A   1      46.879  28.532  21.437  1.00  0.00    -0.744 OA
ENDBRANCH  75  79
ENDBRANCH  48  72
BRANCH  60  83
ATOM     83  C   UNL A   1      45.307  33.010  29.247  1.00  0.00     0.023 A 
ATOM     84  C   UNL A   1      45.289  34.170  28.452  1.00  0.00     0.031 A 
ATOM     85  C   UNL A   1      46.132  33.001  30.386  1.00  0.00     0.131 A 
ATOM     86  C   UNL A   1      46.123  35.251  28.775  1.00  0.00     0.055 A 
ATOM     87  C   UNL A   1      46.912  34.103  30.737  1.00  0.00     0.041 A 
ATOM     88  F   UNL A   1      46.191  31.919  31.179  1.00  0.00    -0.206 F 
ATOM     89  C   UNL A   1      46.921  35.232  29.922  1.00  0.00     0.022 A 
BRANCH  86  90
ATOM     90  S   UNL A   1      46.220  36.651  27.626  1.00  0.00     0.124 S 
ATOM     91  O   UNL A   1      46.156  35.983  26.330  1.00  0.00    -0.237 OA
ATOM     92  O   UNL A   1      45.048  37.440  27.995  1.00  0.00    -0.237 OA
ATOM     93  O   UNL A   1      47.506  37.268  27.944  1.00  0.00    -0.744 OA
ENDBRANCH  86  90
ENDBRANCH  60  83
ENDBRANCH  34  35
ENDBRANCH  26  29
ENDBRANCH  24  25
ENDBRANCH  23  24
ENDBRANCH   1  23
TORSDOF 18
ENDMDL
MODEL 3
REMARK VINA RESULT:     -11.3      6.875     11.650
REMARK SMILES CCCCOc1ccc(-c2nc(C)c(C(=O)NCCCNC(=O)c3ccc(-c4c5nc(c(-c6cc(S(=O)(=O)[O-])ccc6F)c6ccc([nH]6)c(-c6cc(S(=O)(=O)[O-])ccc6F)c6nc(c(-c7cc(S(=O)(=O)[O-])ccc7F)c7ccc4[nH]7)C=C6)C=C5)cc3)s2)cc1
REMARK SMILES IDX 18 1 17 2 15 3 16 4 14 6 10 7 11 8 87 9 12 10 13 11 9 12
REMARK SMILES IDX 6 13 7 14 89 15 8 16 88 17 5 18 4 19 3 20 2 21 1 22 19 23
REMARK SMILES IDX 20 24 21 25 22 26 23 28 24 29 25 30 86 31 26 32 85 33 27 34
REMARK SMILES IDX 28 35 29 36 79 37 30 38 84 39 78 40 80 41 31 42 83 43 77 44
REMARK SMILES IDX 76 45 32 47 64 48 44 49 63 50 45 51 48 52 62 53 81 54 46 55
REMARK SMILES IDX 47 56 61 58 82 59 49 60 33 61 34 62 42 63 35 64 41 65 43 66
REMARK SMILES IDX 40 67 36 68 37 69 38 70 39 71 65 72 66 73 74 74 67 75 73 76
REMARK SMILES IDX 75 77 72 78 68 79 69 80 70 81 71 82 50 83 51 84 59 85 52 86
REMARK SMILES IDX 58 87 60 88 57 89 53 90 54 91 55 92 56 93
REMARK H PARENT 17 5 21 27 80 46 48 57
REMARK Flexibility Score: inf
ROOT
ATOM      1  C   UNL A   1      34.643  34.766  27.997  1.00  0.00     0.118 C 
ENDROOT
BRANCH   1   2
ATOM      2  N   UNL A   1      35.909  34.403  28.588  1.00  0.00    -0.351 N 
ATOM      3  C   UNL A   1      36.558  33.211  28.767  1.00  0.00     0.263 C 
ATOM      4  O   UNL A   1      37.659  33.342  29.320  1.00  0.00    -0.268 OA
ATOM      5  H   UNL A   1      36.411  35.175  28.936  1.00  0.00     0.163 HD
BRANCH   3   6
ATOM      6  C   UNL A   1      36.058  31.916  28.326  1.00  0.00     0.115 A 
ATOM      7  C   UNL A   1      34.461  30.305  27.380  1.00  0.00     0.124 A 
ATOM      8  N   UNL A   1      35.634  29.743  27.551  1.00  0.00    -0.241 NA
ATOM      9  S   UNL A   1      34.341  31.880  28.016  1.00  0.00    -0.108 S 
ATOM     10  C   UNL A   1      36.574  30.664  27.998  1.00  0.00     0.062 A 
ATOM     11  C   UNL A   1      37.964  30.143  27.953  1.00  0.00     0.068 C 
BRANCH   7  12
ATOM     12  C   UNL A   1      33.363  29.668  26.647  1.00  0.00     0.011 A 
ATOM     13  C   UNL A   1      31.554  28.517  24.855  1.00  0.00     0.119 A 
ATOM     14  C   UNL A   1      32.560  27.730  25.408  1.00  0.00     0.047 A 
ATOM     15  C   UNL A   1      31.359  29.825  25.281  1.00  0.00     0.047 A 
ATOM     16  C   UNL A   1      33.467  28.311  26.298  1.00  0.00     0.015 A 
ATOM     17  C   UNL A   1      32.277  30.409  26.152  1.00  0.00     0.015 A 
BRANCH  13  18
ATOM     18  O   UNL A   1      30.737  28.043  23.870  1.00  0.00    -0.494 OA
BRANCH  18  19
ATOM     19  C   UNL A   1      30.028  29.108  23.212  1.00  0.00     0.229 C 
BRANCH  19  20
ATOM     20  C   UNL A   1      28.553  28.769  22.952  1.00  0.00     0.041 C 
BRANCH  20  21
ATOM     21  C   UNL A   1      27.585  29.945  22.753  1.00  0.00     0.000 C 
ATOM     22  C   UNL A   1      27.935  31.200  23.536  1.00  0.00     0.004 C 
ENDBRANCH  20  21
ENDBRANCH  19  20
ENDBRANCH  18  19
ENDBRANCH  13  18
ENDBRANCH   7  12
ENDBRANCH   3   6
ENDBRANCH   1   2
BRANCH   1  23
ATOM     23  C   UNL A   1      33.922  35.792  28.868  1.00  0.00     0.042 C 
BRANCH  23  24
ATOM     24  C   UNL A   1      32.896  35.175  29.813  1.00  0.00     0.118 C 
BRANCH  24  25
ATOM     25  N   UNL A   1      32.569  36.075  30.907  1.00  0.00    -0.352 N 
ATOM     26  C   UNL A   1      32.984  36.059  32.216  1.00  0.00     0.251 C 
ATOM     27  H   UNL A   1      31.956  36.809  30.673  1.00  0.00     0.163 HD
ATOM     28  O   UNL A   1      32.370  36.735  33.038  1.00  0.00    -0.269 OA
BRANCH  26  29
ATOM     29  C   UNL A   1      34.140  35.236  32.641  1.00  0.00     0.039 A 
ATOM     30  C   UNL A   1      35.417  35.589  32.195  1.00  0.00     0.014 A 
ATOM     31  C   UNL A   1      33.973  34.093  33.429  1.00  0.00     0.014 A 
ATOM     32  C   UNL A   1      36.526  34.828  32.579  1.00  0.00     0.010 A 
ATOM     33  C   UNL A   1      35.085  33.382  33.875  1.00  0.00     0.010 A 
ATOM     34  C   UNL A   1      36.374  33.737  33.449  1.00  0.00    -0.014 A 
BRANCH  34  35
ATOM     35  C   UNL A   1      37.546  32.951  33.915  1.00  0.00     0.031 A 
ATOM     36  C   UNL A   1      38.284  33.360  35.162  1.00  0.00     0.074 A 
ATOM     37  C   UNL A   1      37.983  31.909  33.180  1.00  0.00     0.049 A 
ATOM     38  N   UNL A   1      39.377  32.860  35.680  1.00  0.00    -0.248 NA
ATOM     39  C   UNL A   1      37.735  34.501  35.907  1.00  0.00     0.031 C 
ATOM     40  C   UNL A   1      37.369  31.440  31.935  1.00  0.00     0.029 A 
ATOM     41  N   UNL A   1      39.047  31.062  33.362  1.00  0.00    -0.354 N 
ATOM     42  C   UNL A   1      39.655  33.634  36.802  1.00  0.00     0.074 A 
ATOM     43  C   UNL A   1      38.647  34.673  36.852  1.00  0.00     0.031 C 
ATOM     44  C   UNL A   1      38.054  30.380  31.478  1.00  0.00     0.029 A 
ATOM     45  C   UNL A   1      39.182  30.122  32.368  1.00  0.00     0.049 A 
ATOM     46  H   UNL A   1      39.655  31.121  34.134  1.00  0.00     0.167 HD
ATOM     47  C   UNL A   1      40.645  33.481  37.716  1.00  0.00     0.034 A 
ATOM     48  C   UNL A   1      40.119  29.171  32.181  1.00  0.00     0.034 A 
ATOM     49  C   UNL A   1      41.633  32.430  37.655  1.00  0.00     0.049 A 
ATOM     50  C   UNL A   1      41.227  29.036  33.195  1.00  0.00     0.074 A 
ATOM     51  C   UNL A   1      42.646  32.145  38.556  1.00  0.00     0.029 A 
ATOM     52  N   UNL A   1      41.741  31.498  36.630  1.00  0.00    -0.354 N 
ATOM     53  N   UNL A   1      41.447  29.747  34.278  1.00  0.00    -0.248 NA
ATOM     54  C   UNL A   1      42.206  27.966  32.967  1.00  0.00     0.031 C 
ATOM     55  C   UNL A   1      43.405  31.087  38.043  1.00  0.00     0.029 A 
ATOM     56  C   UNL A   1      42.822  30.659  36.860  1.00  0.00     0.049 A 
ATOM     57  H   UNL A   1      41.139  31.440  35.855  1.00  0.00     0.167 HD
ATOM     58  C   UNL A   1      42.575  29.189  34.874  1.00  0.00     0.074 A 
ATOM     59  C   UNL A   1      42.978  28.075  34.039  1.00  0.00     0.031 C 
ATOM     60  C   UNL A   1      43.219  29.562  36.009  1.00  0.00     0.034 A 
BRANCH  47  61
ATOM     61  C   UNL A   1      40.721  34.489  38.839  1.00  0.00     0.023 A 
ATOM     62  C   UNL A   1      39.973  34.337  40.022  1.00  0.00     0.031 A 
ATOM     63  C   UNL A   1      41.531  35.632  38.719  1.00  0.00     0.131 A 
ATOM     64  C   UNL A   1      39.989  35.345  40.997  1.00  0.00     0.055 A 
ATOM     65  C   UNL A   1      41.608  36.591  39.731  1.00  0.00     0.041 A 
ATOM     66  F   UNL A   1      42.253  35.844  37.608  1.00  0.00    -0.206 F 
ATOM     67  C   UNL A   1      40.822  36.459  40.872  1.00  0.00     0.022 A 
BRANCH  64  68
ATOM     68  S   UNL A   1      38.796  35.250  42.360  1.00  0.00     0.124 S 
ATOM     69  O   UNL A   1      37.525  35.275  41.640  1.00  0.00    -0.237 OA
ATOM     70  O   UNL A   1      39.146  33.985  42.997  1.00  0.00    -0.237 OA
ATOM     71  O   UNL A   1      39.080  36.446  43.149  1.00  0.00    -0.744 OA
ENDBRANCH  64  68
ENDBRANCH  47  61
BRANCH  48  72
ATOM     72  C   UNL A   1      40.065  28.281  30.986  1.00  0.00     0.023 A 
ATOM     73  C   UNL A   1      40.933  28.477  29.900  1.00  0.00     0.031 A 
ATOM     74  C   UNL A   1      39.120  27.244  30.895  1.00  0.00     0.131 A 
ATOM     75  C   UNL A   1      40.809  27.679  28.753  1.00  0.00     0.055 A 
ATOM     76  C   UNL A   1      39.035  26.418  29.774  1.00  0.00     0.041 A 
ATOM     77  F   UNL A   1      38.269  27.010  31.908  1.00  0.00    -0.206 F 
ATOM     78  C   UNL A   1      39.876  26.642  28.687  1.00  0.00     0.022 A 
BRANCH  75  79
ATOM     79  S   UNL A   1      41.833  28.070  27.308  1.00  0.00     0.124 S 
ATOM     80  O   UNL A   1      40.934  27.738  26.208  1.00  0.00    -0.237 OA
ATOM     81  O   UNL A   1      42.108  29.489  27.507  1.00  0.00    -0.237 OA
ATOM     82  O   UNL A   1      42.987  27.185  27.459  1.00  0.00    -0.744 OA
ENDBRANCH  75  79
ENDBRANCH  48  72
BRANCH  60  83
ATOM     83  C   UNL A   1      44.404  28.726  36.428  1.00  0.00     0.023 A 
ATOM     84  C   UNL A   1      44.270  27.653  37.327  1.00  0.00     0.031 A 
ATOM     85  C   UNL A   1      45.686  29.016  35.930  1.00  0.00     0.131 A 
ATOM     86  C   UNL A   1      45.408  26.945  37.743  1.00  0.00     0.055 A 
ATOM     87  C   UNL A   1      46.805  28.270  36.300  1.00  0.00     0.041 A 
ATOM     88  F   UNL A   1      45.872  30.032  35.072  1.00  0.00    -0.206 F 
ATOM     89  C   UNL A   1      46.672  27.235  37.222  1.00  0.00     0.022 A 
BRANCH  86  90
ATOM     90  S   UNL A   1      45.229  25.695  39.046  1.00  0.00     0.124 S 
ATOM     91  O   UNL A   1      44.696  24.558  38.303  1.00  0.00    -0.237 OA
ATOM     92  O   UNL A   1      46.598  25.554  39.534  1.00  0.00    -0.237 OA
ATOM     93  O   UNL A   1      44.297  26.313  39.988  1.00  0.00    -0.744 OA
ENDBRANCH  86  90
ENDBRANCH  60  83
ENDBRANCH  34  35
ENDBRANCH  26  29
ENDBRANCH  24  25
ENDBRANCH  23  24
ENDBRANCH   1  23
TORSDOF 18
ENDMDL
