MODEL 1
REMARK VINA RESULT:     -13.0      0.000      0.000
REMARK SMILES Cc1ccc(C(=O)NCCCNC(=O)c2ccc(-c3c4nc(c(-c5cc(S(=O)(=O)[O-])ccc5F)c5ccc([nH]5)c(-c5cc(S(=O)(=O)[O-])ccc5F)c5nc(c(-c6cc(S(=O)(=O)[O-])ccc6F)c6ccc3[nH]6)C=C5)C=C4)cc2)c2c1N[C@H](c1ccccc1F)[C@H]1CC=C[C@@H]21
REMARK SMILES IDX 11 1 10 2 9 3 8 4 6 5 7 6 5 8 1 9 2 10 3 11 79 12 4 13 78 14
REMARK SMILES IDX 80 15 93 16 81 17 89 19 92 20 90 21 91 22 82 23 83 24 87 25
REMARK SMILES IDX 84 26 86 27 88 28 85 29 12 30 13 31 14 33 15 34 16 35 77 36
REMARK SMILES IDX 17 37 76 38 18 39 19 40 20 41 70 42 21 43 75 44 69 45 71 46
REMARK SMILES IDX 22 47 74 48 68 49 67 50 23 52 55 53 35 54 54 55 36 56 39 57
REMARK SMILES IDX 53 58 72 59 37 60 38 61 52 63 73 64 40 65 24 66 25 67 33 68
REMARK SMILES IDX 26 69 32 70 34 71 31 72 27 73 28 74 29 75 30 76 56 77 57 78
REMARK SMILES IDX 65 79 58 80 64 81 66 82 63 83 59 84 60 85 61 86 62 87 41 88
REMARK SMILES IDX 42 89 50 90 43 91 49 92 51 93 48 94 44 95 45 96 46 97 47 98
REMARK H PARENT 8 7 80 18 12 32 71 51 39 62
REMARK Flexibility Score: inf
ROOT
ATOM      1  C   UNL A   1      32.763  30.068  27.008  1.00  0.00     0.118 C 
ENDROOT
BRANCH   1   2
ATOM      2  C   UNL A   1      33.368  29.378  25.784  1.00  0.00     0.042 C 
BRANCH   2   3
ATOM      3  C   UNL A   1      33.795  27.937  26.071  1.00  0.00     0.118 C 
BRANCH   3   4
ATOM      4  N   UNL A   1      32.661  27.169  26.547  1.00  0.00    -0.352 N 
ATOM      5  C   UNL A   1      31.824  26.235  25.997  1.00  0.00     0.251 C 
ATOM      6  O   UNL A   1      30.825  26.008  26.678  1.00  0.00    -0.269 OA
ATOM      7  H   UNL A   1      32.442  27.364  27.487  1.00  0.00     0.163 HD
BRANCH   5   8
ATOM      8  C   UNL A   1      32.086  25.496  24.708  1.00  0.00     0.045 A 
ATOM      9  C   UNL A   1      33.092  23.588  20.947  1.00  0.00     0.046 C 
ATOM     10  C   UNL A   1      32.654  24.163  22.269  1.00  0.00    -0.028 A 
ATOM     11  C   UNL A   1      32.192  25.483  22.279  1.00  0.00     0.006 A 
ATOM     12  C   UNL A   1      32.757  23.453  23.484  1.00  0.00     0.042 A 
ATOM     13  C   UNL A   1      31.868  26.116  23.476  1.00  0.00     0.014 A 
ATOM     14  C   UNL A   1      32.516  24.131  24.709  1.00  0.00    -0.005 A 
ATOM     15  N   UNL A   1      33.126  22.116  23.466  1.00  0.00    -0.377 N 
ATOM     16  C   UNL A   1      32.642  23.351  26.001  1.00  0.00     0.050 C 
ATOM     17  C   UNL A   1      33.585  21.414  24.653  1.00  0.00     0.117 C 
ATOM     18  H   UNL A   1      33.074  21.622  22.615  1.00  0.00     0.161 HD
ATOM     19  C   UNL A   1      32.743  21.822  25.869  1.00  0.00     0.031 C 
ATOM     20  C   UNL A   1      33.852  23.667  26.842  1.00  0.00    -0.023 C 
ATOM     21  C   UNL A   1      33.419  21.398  27.189  1.00  0.00     0.034 C 
ATOM     22  C   UNL A   1      34.266  22.586  27.516  1.00  0.00    -0.030 C 
BRANCH  17  23
ATOM     23  C   UNL A   1      33.665  19.917  24.352  1.00  0.00     0.010 A 
ATOM     24  C   UNL A   1      32.552  19.295  23.750  1.00  0.00     0.009 A 
ATOM     25  C   UNL A   1      34.788  19.115  24.594  1.00  0.00     0.128 A 
ATOM     26  C   UNL A   1      32.582  17.944  23.387  1.00  0.00     0.001 A 
ATOM     27  C   UNL A   1      34.826  17.769  24.228  1.00  0.00     0.039 A 
ATOM     28  F   UNL A   1      35.895  19.610  25.163  1.00  0.00    -0.207 F 
ATOM     29  C   UNL A   1      33.724  17.182  23.618  1.00  0.00     0.003 A 
ENDBRANCH  17  23
ENDBRANCH   5   8
ENDBRANCH   3   4
ENDBRANCH   2   3
ENDBRANCH   1   2
BRANCH   1  30
ATOM     30  N   UNL A   1      32.887  31.518  26.914  1.00  0.00    -0.352 N 
ATOM     31  C   UNL A   1      33.769  32.348  27.558  1.00  0.00     0.251 C 
ATOM     32  H   UNL A   1      32.251  31.961  26.307  1.00  0.00     0.163 HD
ATOM     33  O   UNL A   1      33.555  33.553  27.614  1.00  0.00    -0.269 OA
BRANCH  31  34
ATOM     34  C   UNL A   1      34.983  31.775  28.171  1.00  0.00     0.039 A 
ATOM     35  C   UNL A   1      34.914  30.525  28.792  1.00  0.00     0.014 A 
ATOM     36  C   UNL A   1      36.180  32.498  28.156  1.00  0.00     0.014 A 
ATOM     37  C   UNL A   1      36.063  29.984  29.370  1.00  0.00     0.010 A 
ATOM     38  C   UNL A   1      37.335  31.931  28.682  1.00  0.00     0.010 A 
ATOM     39  C   UNL A   1      37.281  30.679  29.310  1.00  0.00    -0.014 A 
BRANCH  39  40
ATOM     40  C   UNL A   1      38.504  30.137  29.945  1.00  0.00     0.031 A 
ATOM     41  C   UNL A   1      38.919  30.637  31.299  1.00  0.00     0.074 A 
ATOM     42  C   UNL A   1      39.262  29.242  29.285  1.00  0.00     0.049 A 
ATOM     43  N   UNL A   1      39.973  30.321  32.004  1.00  0.00    -0.248 NA
ATOM     44  C   UNL A   1      38.046  31.638  31.936  1.00  0.00     0.031 C 
ATOM     45  C   UNL A   1      38.977  28.724  27.947  1.00  0.00     0.029 A 
ATOM     46  N   UNL A   1      40.433  28.622  29.641  1.00  0.00    -0.354 N 
ATOM     47  C   UNL A   1      39.888  31.079  33.166  1.00  0.00     0.074 A 
ATOM     48  C   UNL A   1      38.717  31.917  33.044  1.00  0.00     0.031 C 
ATOM     49  C   UNL A   1      39.944  27.862  27.597  1.00  0.00     0.029 A 
ATOM     50  C   UNL A   1      40.933  27.787  28.671  1.00  0.00     0.049 A 
ATOM     51  H   UNL A   1      40.874  28.763  30.510  1.00  0.00     0.167 HD
ATOM     52  C   UNL A   1      40.698  31.052  34.248  1.00  0.00     0.034 A 
ATOM     53  C   UNL A   1      42.063  27.049  28.645  1.00  0.00     0.034 A 
ATOM     54  C   UNL A   1      41.852  30.201  34.362  1.00  0.00     0.049 A 
ATOM     55  C   UNL A   1      42.954  27.037  29.861  1.00  0.00     0.074 A 
ATOM     56  C   UNL A   1      42.711  30.069  35.437  1.00  0.00     0.029 A 
ATOM     57  N   UNL A   1      42.307  29.341  33.374  1.00  0.00    -0.354 N 
ATOM     58  N   UNL A   1      42.812  27.692  30.990  1.00  0.00    -0.248 NA
ATOM     59  C   UNL A   1      44.145  26.178  29.814  1.00  0.00     0.031 C 
ATOM     60  C   UNL A   1      43.712  29.165  35.084  1.00  0.00     0.029 A 
ATOM     61  C   UNL A   1      43.444  28.685  33.811  1.00  0.00     0.049 A 
ATOM     62  H   UNL A   1      41.884  29.215  32.494  1.00  0.00     0.167 HD
ATOM     63  C   UNL A   1      43.878  27.304  31.796  1.00  0.00     0.074 A 
ATOM     64  C   UNL A   1      44.648  26.344  31.032  1.00  0.00     0.031 C 
ATOM     65  C   UNL A   1      44.188  27.708  33.053  1.00  0.00     0.034 A 
BRANCH  52  66
ATOM     66  C   UNL A   1      40.357  31.930  35.422  1.00  0.00     0.023 A 
ATOM     67  C   UNL A   1      39.352  31.543  36.326  1.00  0.00     0.031 A 
ATOM     68  C   UNL A   1      40.935  33.204  35.567  1.00  0.00     0.131 A 
ATOM     69  C   UNL A   1      38.927  32.439  37.313  1.00  0.00     0.055 A 
ATOM     70  C   UNL A   1      40.534  34.079  36.577  1.00  0.00     0.041 A 
ATOM     71  F   UNL A   1      41.901  33.615  34.730  1.00  0.00    -0.206 F 
ATOM     72  C   UNL A   1      39.516  33.702  37.448  1.00  0.00     0.022 A 
BRANCH  69  73
ATOM     73  S   UNL A   1      37.562  32.021  38.431  1.00  0.00     0.124 S 
ATOM     74  O   UNL A   1      36.558  33.021  38.070  1.00  0.00    -0.237 OA
ATOM     75  O   UNL A   1      37.251  30.653  38.032  1.00  0.00    -0.237 OA
ATOM     76  O   UNL A   1      38.138  32.179  39.762  1.00  0.00    -0.744 OA
ENDBRANCH  69  73
ENDBRANCH  52  66
BRANCH  53  77
ATOM     77  C   UNL A   1      42.361  26.224  27.441  1.00  0.00     0.023 A 
ATOM     78  C   UNL A   1      41.940  24.884  27.364  1.00  0.00     0.031 A 
ATOM     79  C   UNL A   1      43.159  26.729  26.402  1.00  0.00     0.131 A 
ATOM     80  C   UNL A   1      42.368  24.079  26.300  1.00  0.00     0.055 A 
ATOM     81  C   UNL A   1      43.532  25.940  25.311  1.00  0.00     0.041 A 
ATOM     82  F   UNL A   1      43.596  27.997  26.440  1.00  0.00    -0.206 F 
ATOM     83  C   UNL A   1      43.147  24.604  25.264  1.00  0.00     0.022 A 
BRANCH  80  84
ATOM     84  S   UNL A   1      42.014  22.301  26.278  1.00  0.00     0.124 S 
ATOM     85  O   UNL A   1      42.547  21.866  27.567  1.00  0.00    -0.237 OA
ATOM     86  O   UNL A   1      40.558  22.292  26.163  1.00  0.00    -0.237 OA
ATOM     87  O   UNL A   1      42.734  21.819  25.105  1.00  0.00    -0.744 OA
ENDBRANCH  80  84
ENDBRANCH  53  77
BRANCH  65  88
ATOM     88  C   UNL A   1      45.400  27.119  33.729  1.00  0.00     0.023 A 
ATOM     89  C   UNL A   1      45.267  25.947  34.501  1.00  0.00     0.031 A 
ATOM     90  C   UNL A   1      46.625  27.805  33.762  1.00  0.00     0.131 A 
ATOM     91  C   UNL A   1      46.325  25.526  35.313  1.00  0.00     0.055 A 
ATOM     92  C   UNL A   1      47.693  27.354  34.538  1.00  0.00     0.041 A 
ATOM     93  F   UNL A   1      46.795  28.931  33.052  1.00  0.00    -0.206 F 
ATOM     94  C   UNL A   1      47.541  26.218  35.331  1.00  0.00     0.022 A 
BRANCH  91  95
ATOM     95  S   UNL A   1      46.137  24.113  36.436  1.00  0.00     0.124 S 
ATOM     96  O   UNL A   1      45.095  23.334  35.772  1.00  0.00    -0.237 OA
ATOM     97  O   UNL A   1      47.471  23.522  36.409  1.00  0.00    -0.237 OA
ATOM     98  O   UNL A   1      45.742  24.721  37.703  1.00  0.00    -0.744 OA
ENDBRANCH  91  95
ENDBRANCH  65  88
ENDBRANCH  39  40
ENDBRANCH  31  34
ENDBRANCH   1  30
TORSDOF 14
ENDMDL
MODEL 2
REMARK VINA RESULT:     -12.9      5.104     10.356
REMARK SMILES Cc1ccc(C(=O)NCCCNC(=O)c2ccc(-c3c4nc(c(-c5cc(S(=O)(=O)[O-])ccc5F)c5ccc([nH]5)c(-c5cc(S(=O)(=O)[O-])ccc5F)c5nc(c(-c6cc(S(=O)(=O)[O-])ccc6F)c6ccc3[nH]6)C=C5)C=C4)cc2)c2c1N[C@H](c1ccccc1F)[C@H]1CC=C[C@@H]21
REMARK SMILES IDX 11 1 10 2 9 3 8 4 6 5 7 6 5 8 1 9 2 10 3 11 79 12 4 13 78 14
REMARK SMILES IDX 80 15 93 16 81 17 89 19 92 20 90 21 91 22 82 23 83 24 87 25
REMARK SMILES IDX 84 26 86 27 88 28 85 29 12 30 13 31 14 33 15 34 16 35 77 36
REMARK SMILES IDX 17 37 76 38 18 39 19 40 20 41 70 42 21 43 75 44 69 45 71 46
REMARK SMILES IDX 22 47 74 48 68 49 67 50 23 52 55 53 35 54 54 55 36 56 39 57
REMARK SMILES IDX 53 58 72 59 37 60 38 61 52 63 73 64 40 65 24 66 25 67 33 68
REMARK SMILES IDX 26 69 32 70 34 71 31 72 27 73 28 74 29 75 30 76 56 77 57 78
REMARK SMILES IDX 65 79 58 80 64 81 66 82 63 83 59 84 60 85 61 86 62 87 41 88
REMARK SMILES IDX 42 89 50 90 43 91 49 92 51 93 48 94 44 95 45 96 46 97 47 98
REMARK H PARENT 8 7 80 18 12 32 71 51 39 62
REMARK Flexibility Score: inf
ROOT
ATOM      1  C   UNL A   1      37.459  21.960  25.122  1.00  0.00     0.118 C 
ENDROOT
BRANCH   1   2
ATOM      2  C   UNL A   1      36.217  22.332  25.934  1.00  0.00     0.042 C 
BRANCH   2   3
ATOM      3  C   UNL A   1      35.733  23.756  25.653  1.00  0.00     0.118 C 
BRANCH   3   4
ATOM      4  N   UNL A   1      35.346  23.882  24.261  1.00  0.00    -0.352 N 
ATOM      5  C   UNL A   1      34.155  23.971  23.591  1.00  0.00     0.251 C 
ATOM      6  O   UNL A   1      34.262  23.818  22.375  1.00  0.00    -0.269 OA
ATOM      7  H   UNL A   1      36.122  23.913  23.656  1.00  0.00     0.163 HD
BRANCH   5   8
ATOM      8  C   UNL A   1      32.824  24.272  24.236  1.00  0.00     0.045 A 
ATOM      9  C   UNL A   1      29.153  25.108  26.385  1.00  0.00     0.046 C 
ATOM     10  C   UNL A   1      30.365  24.835  25.531  1.00  0.00    -0.028 A 
ATOM     11  C   UNL A   1      30.976  23.584  25.657  1.00  0.00     0.006 A 
ATOM     12  C   UNL A   1      30.933  25.804  24.677  1.00  0.00     0.042 A 
ATOM     13  C   UNL A   1      32.158  23.296  24.979  1.00  0.00     0.014 A 
ATOM     14  C   UNL A   1      32.187  25.541  24.062  1.00  0.00    -0.005 A 
ATOM     15  N   UNL A   1      30.277  27.011  24.480  1.00  0.00    -0.377 N 
ATOM     16  C   UNL A   1      32.782  26.600  23.157  1.00  0.00     0.050 C 
ATOM     17  C   UNL A   1      30.936  28.175  23.912  1.00  0.00     0.117 C 
ATOM     18  H   UNL A   1      29.329  27.081  24.735  1.00  0.00     0.161 HD
ATOM     19  C   UNL A   1      31.850  27.755  22.753  1.00  0.00     0.031 C 
ATOM     20  C   UNL A   1      33.970  27.343  23.712  1.00  0.00    -0.023 C 
ATOM     21  C   UNL A   1      32.832  28.883  22.374  1.00  0.00     0.034 C 
ATOM     22  C   UNL A   1      34.006  28.602  23.258  1.00  0.00    -0.030 C 
BRANCH  17  23
ATOM     23  C   UNL A   1      29.886  29.242  23.597  1.00  0.00     0.010 A 
ATOM     24  C   UNL A   1      28.831  28.905  22.723  1.00  0.00     0.009 A 
ATOM     25  C   UNL A   1      29.870  30.530  24.148  1.00  0.00     0.128 A 
ATOM     26  C   UNL A   1      27.801  29.810  22.444  1.00  0.00     0.001 A 
ATOM     27  C   UNL A   1      28.841  31.434  23.878  1.00  0.00     0.039 A 
ATOM     28  F   UNL A   1      30.826  30.947  24.987  1.00  0.00    -0.207 F 
ATOM     29  C   UNL A   1      27.801  31.073  23.030  1.00  0.00     0.003 A 
ENDBRANCH  17  23
ENDBRANCH   5   8
ENDBRANCH   3   4
ENDBRANCH   2   3
ENDBRANCH   1   2
BRANCH   1  30
ATOM     30  N   UNL A   1      38.231  20.914  25.782  1.00  0.00    -0.352 N 
ATOM     31  C   UNL A   1      39.469  21.002  26.368  1.00  0.00     0.251 C 
ATOM     32  H   UNL A   1      37.808  20.027  25.811  1.00  0.00     0.163 HD
ATOM     33  O   UNL A   1      40.113  19.987  26.604  1.00  0.00    -0.269 OA
BRANCH  31  34
ATOM     34  C   UNL A   1      40.010  22.330  26.717  1.00  0.00     0.039 A 
ATOM     35  C   UNL A   1      40.960  22.438  27.735  1.00  0.00     0.014 A 
ATOM     36  C   UNL A   1      39.545  23.468  26.052  1.00  0.00     0.014 A 
ATOM     37  C   UNL A   1      41.472  23.694  28.064  1.00  0.00     0.010 A 
ATOM     38  C   UNL A   1      40.098  24.711  26.341  1.00  0.00     0.010 A 
ATOM     39  C   UNL A   1      41.051  24.836  27.362  1.00  0.00    -0.014 A 
BRANCH  39  40
ATOM     40  C   UNL A   1      41.557  26.181  27.716  1.00  0.00     0.031 A 
ATOM     41  C   UNL A   1      42.964  26.562  27.355  1.00  0.00     0.074 A 
ATOM     42  C   UNL A   1      40.773  27.033  28.403  1.00  0.00     0.049 A 
ATOM     43  N   UNL A   1      43.607  27.671  27.610  1.00  0.00    -0.248 NA
ATOM     44  C   UNL A   1      43.761  25.558  26.630  1.00  0.00     0.031 C 
ATOM     45  C   UNL A   1      39.408  26.748  28.844  1.00  0.00     0.029 A 
ATOM     46  N   UNL A   1      41.016  28.303  28.864  1.00  0.00    -0.354 N 
ATOM     47  C   UNL A   1      44.878  27.500  27.075  1.00  0.00     0.074 A 
ATOM     48  C   UNL A   1      44.938  26.159  26.538  1.00  0.00     0.031 C 
ATOM     49  C   UNL A   1      38.932  27.813  29.508  1.00  0.00     0.029 A 
ATOM     50  C   UNL A   1      39.966  28.845  29.566  1.00  0.00     0.049 A 
ATOM     51  H   UNL A   1      41.862  28.780  28.706  1.00  0.00     0.167 HD
ATOM     52  C   UNL A   1      45.889  28.394  27.010  1.00  0.00     0.034 A 
ATOM     53  C   UNL A   1      39.851  30.035  30.191  1.00  0.00     0.034 A 
ATOM     54  C   UNL A   1      45.810  29.731  27.535  1.00  0.00     0.049 A 
ATOM     55  C   UNL A   1      40.992  31.016  30.110  1.00  0.00     0.074 A 
ATOM     56  C   UNL A   1      46.766  30.727  27.478  1.00  0.00     0.029 A 
ATOM     57  N   UNL A   1      44.717  30.259  28.206  1.00  0.00    -0.354 N 
ATOM     58  N   UNL A   1      42.158  30.873  29.521  1.00  0.00    -0.248 NA
ATOM     59  C   UNL A   1      40.806  32.322  30.756  1.00  0.00     0.031 C 
ATOM     60  C   UNL A   1      46.273  31.842  28.156  1.00  0.00     0.029 A 
ATOM     61  C   UNL A   1      44.984  31.563  28.582  1.00  0.00     0.049 A 
ATOM     62  H   UNL A   1      43.878  29.778  28.388  1.00  0.00     0.167 HD
ATOM     63  C   UNL A   1      42.830  32.078  29.702  1.00  0.00     0.074 A 
ATOM     64  C   UNL A   1      41.936  32.945  30.441  1.00  0.00     0.031 C 
ATOM     65  C   UNL A   1      44.074  32.430  29.293  1.00  0.00     0.034 A 
BRANCH  52  66
ATOM     66  C   UNL A   1      47.161  27.990  26.314  1.00  0.00     0.023 A 
ATOM     67  C   UNL A   1      47.272  28.106  24.918  1.00  0.00     0.031 A 
ATOM     68  C   UNL A   1      48.208  27.369  27.020  1.00  0.00     0.131 A 
ATOM     69  C   UNL A   1      48.389  27.573  24.265  1.00  0.00     0.055 A 
ATOM     70  C   UNL A   1      49.337  26.874  26.369  1.00  0.00     0.041 A 
ATOM     71  F   UNL A   1      48.148  27.239  28.355  1.00  0.00    -0.206 F 
ATOM     72  C   UNL A   1      49.425  26.963  24.982  1.00  0.00     0.022 A 
BRANCH  69  73
ATOM     73  S   UNL A   1      48.521  27.608  22.457  1.00  0.00     0.124 S 
ATOM     74  O   UNL A   1      47.287  28.294  22.077  1.00  0.00    -0.237 OA
ATOM     75  O   UNL A   1      49.747  28.372  22.257  1.00  0.00    -0.237 OA
ATOM     76  O   UNL A   1      48.582  26.199  22.084  1.00  0.00    -0.744 OA
ENDBRANCH  69  73
ENDBRANCH  52  66
BRANCH  53  77
ATOM     77  C   UNL A   1      38.576  30.366  30.889  1.00  0.00     0.023 A 
ATOM     78  C   UNL A   1      37.552  31.065  30.224  1.00  0.00     0.031 A 
ATOM     79  C   UNL A   1      38.409  30.083  32.254  1.00  0.00     0.131 A 
ATOM     80  C   UNL A   1      36.433  31.507  30.942  1.00  0.00     0.055 A 
ATOM     81  C   UNL A   1      37.262  30.471  32.950  1.00  0.00     0.041 A 
ATOM     82  F   UNL A   1      39.366  29.431  32.931  1.00  0.00    -0.206 F 
ATOM     83  C   UNL A   1      36.274  31.200  32.296  1.00  0.00     0.022 A 
BRANCH  80  84
ATOM     84  S   UNL A   1      35.197  32.584  30.165  1.00  0.00     0.124 S 
ATOM     85  O   UNL A   1      34.253  32.806  31.257  1.00  0.00    -0.237 OA
ATOM     86  O   UNL A   1      36.008  33.739  29.788  1.00  0.00    -0.237 OA
ATOM     87  O   UNL A   1      34.695  31.786  29.052  1.00  0.00    -0.744 OA
ENDBRANCH  80  84
ENDBRANCH  53  77
BRANCH  65  88
ATOM     88  C   UNL A   1      44.576  33.818  29.599  1.00  0.00     0.023 A 
ATOM     89  C   UNL A   1      44.317  34.868  28.696  1.00  0.00     0.031 A 
ATOM     90  C   UNL A   1      45.451  34.060  30.671  1.00  0.00     0.131 A 
ATOM     91  C   UNL A   1      44.968  36.096  28.852  1.00  0.00     0.055 A 
ATOM     92  C   UNL A   1      46.062  35.301  30.849  1.00  0.00     0.041 A 
ATOM     93  F   UNL A   1      45.737  33.086  31.550  1.00  0.00    -0.206 F 
ATOM     94  C   UNL A   1      45.833  36.322  29.928  1.00  0.00     0.022 A 
BRANCH  91  95
ATOM     95  S   UNL A   1      44.778  37.418  27.624  1.00  0.00     0.124 S 
ATOM     96  O   UNL A   1      46.015  37.299  26.856  1.00  0.00    -0.237 OA
ATOM     97  O   UNL A   1      43.565  37.011  26.922  1.00  0.00    -0.237 OA
ATOM     98  O   UNL A   1      44.664  38.631  28.428  1.00  0.00    -0.744 OA
ENDBRANCH  91  95
ENDBRANCH  65  88
ENDBRANCH  39  40
ENDBRANCH  31  34
ENDBRANCH   1  30
TORSDOF 14
ENDMDL
MODEL 3
REMARK VINA RESULT:     -12.8      4.952      9.850
REMARK SMILES Cc1ccc(C(=O)NCCCNC(=O)c2ccc(-c3c4nc(c(-c5cc(S(=O)(=O)[O-])ccc5F)c5ccc([nH]5)c(-c5cc(S(=O)(=O)[O-])ccc5F)c5nc(c(-c6cc(S(=O)(=O)[O-])ccc6F)c6ccc3[nH]6)C=C5)C=C4)cc2)c2c1N[C@H](c1ccccc1F)[C@H]1CC=C[C@@H]21
REMARK SMILES IDX 11 1 10 2 9 3 8 4 6 5 7 6 5 8 1 9 2 10 3 11 79 12 4 13 78 14
REMARK SMILES IDX 80 15 93 16 81 17 89 19 92 20 90 21 91 22 82 23 83 24 87 25
REMARK SMILES IDX 84 26 86 27 88 28 85 29 12 30 13 31 14 33 15 34 16 35 77 36
REMARK SMILES IDX 17 37 76 38 18 39 19 40 20 41 70 42 21 43 75 44 69 45 71 46
REMARK SMILES IDX 22 47 74 48 68 49 67 50 23 52 55 53 35 54 54 55 36 56 39 57
REMARK SMILES IDX 53 58 72 59 37 60 38 61 52 63 73 64 40 65 24 66 25 67 33 68
REMARK SMILES IDX 26 69 32 70 34 71 31 72 27 73 28 74 29 75 30 76 56 77 57 78
REMARK SMILES IDX 65 79 58 80 64 81 66 82 63 83 59 84 60 85 61 86 62 87 41 88
REMARK SMILES IDX 42 89 50 90 43 91 49 92 51 93 48 94 44 95 45 96 46 97 47 98
REMARK H PARENT 8 7 80 18 12 32 71 51 39 62
REMARK Flexibility Score: inf
ROOT
ATOM      1  C   UNL A   1      36.787  23.567  25.619  1.00  0.00     0.118 C 
ENDROOT
BRANCH   1   2
ATOM      2  C   UNL A   1      35.384  23.245  26.137  1.00  0.00     0.042 C 
BRANCH   2   3
ATOM      3  C   UNL A   1      34.912  21.847  25.733  1.00  0.00     0.118 C 
BRANCH   3   4
ATOM      4  N   UNL A   1      34.309  21.889  24.415  1.00  0.00    -0.352 N 
ATOM      5  C   UNL A   1      33.058  22.168  23.931  1.00  0.00     0.251 C 
ATOM      6  O   UNL A   1      32.905  21.848  22.753  1.00  0.00    -0.269 OA
ATOM      7  H   UNL A   1      34.949  21.666  23.701  1.00  0.00     0.163 HD
BRANCH   5   8
ATOM      8  C   UNL A   1      31.962  22.844  24.716  1.00  0.00     0.045 A 
ATOM      9  C   UNL A   1      29.012  24.774  27.239  1.00  0.00     0.046 C 
ATOM     10  C   UNL A   1      29.957  24.117  26.267  1.00  0.00    -0.028 A 
ATOM     11  C   UNL A   1      30.350  22.802  26.536  1.00  0.00     0.006 A 
ATOM     12  C   UNL A   1      30.501  24.792  25.153  1.00  0.00     0.042 A 
ATOM     13  C   UNL A   1      31.299  22.165  25.741  1.00  0.00     0.014 A 
ATOM     14  C   UNL A   1      31.536  24.174  24.402  1.00  0.00    -0.005 A 
ATOM     15  N   UNL A   1      30.043  26.062  24.832  1.00  0.00    -0.377 N 
ATOM     16  C   UNL A   1      32.113  24.921  23.218  1.00  0.00     0.050 C 
ATOM     17  C   UNL A   1      30.767  26.953  23.941  1.00  0.00     0.117 C 
ATOM     18  H   UNL A   1      29.194  26.371  25.223  1.00  0.00     0.161 HD
ATOM     19  C   UNL A   1      31.337  26.166  22.753  1.00  0.00     0.031 C 
ATOM     20  C   UNL A   1      33.501  25.477  23.406  1.00  0.00    -0.023 C 
ATOM     21  C   UNL A   1      32.404  26.984  21.998  1.00  0.00     0.034 C 
ATOM     22  C   UNL A   1      33.666  26.609  22.710  1.00  0.00    -0.030 C 
BRANCH  17  23
ATOM     23  C   UNL A   1      29.880  28.151  23.600  1.00  0.00     0.010 A 
ATOM     24  C   UNL A   1      28.575  27.905  23.126  1.00  0.00     0.009 A 
ATOM     25  C   UNL A   1      30.256  29.491  23.762  1.00  0.00     0.128 A 
ATOM     26  C   UNL A   1      27.688  28.953  22.859  1.00  0.00     0.001 A 
ATOM     27  C   UNL A   1      29.374  30.541  23.503  1.00  0.00     0.039 A 
ATOM     28  F   UNL A   1      31.474  29.830  24.205  1.00  0.00    -0.207 F 
ATOM     29  C   UNL A   1      28.085  30.273  23.057  1.00  0.00     0.003 A 
ENDBRANCH  17  23
ENDBRANCH   5   8
ENDBRANCH   3   4
ENDBRANCH   2   3
ENDBRANCH   1   2
BRANCH   1  30
ATOM     30  N   UNL A   1      37.755  22.565  26.050  1.00  0.00    -0.352 N 
ATOM     31  C   UNL A   1      39.037  22.748  26.502  1.00  0.00     0.251 C 
ATOM     32  H   UNL A   1      37.446  21.632  26.012  1.00  0.00     0.163 HD
ATOM     33  O   UNL A   1      39.821  21.807  26.533  1.00  0.00    -0.269 OA
BRANCH  31  34
ATOM     34  C   UNL A   1      39.458  24.087  26.957  1.00  0.00     0.039 A 
ATOM     35  C   UNL A   1      39.271  24.449  28.293  1.00  0.00     0.014 A 
ATOM     36  C   UNL A   1      40.007  24.993  26.043  1.00  0.00     0.014 A 
ATOM     37  C   UNL A   1      39.671  25.715  28.722  1.00  0.00     0.010 A 
ATOM     38  C   UNL A   1      40.457  26.232  26.485  1.00  0.00     0.010 A 
ATOM     39  C   UNL A   1      40.274  26.610  27.824  1.00  0.00    -0.014 A 
BRANCH  39  40
ATOM     40  C   UNL A   1      40.676  27.969  28.250  1.00  0.00     0.031 A 
ATOM     41  C   UNL A   1      42.130  28.346  28.252  1.00  0.00     0.074 A 
ATOM     42  C   UNL A   1      39.744  28.840  28.682  1.00  0.00     0.049 A 
ATOM     43  N   UNL A   1      42.688  29.466  28.627  1.00  0.00    -0.248 NA
ATOM     44  C   UNL A   1      43.083  27.322  27.792  1.00  0.00     0.031 C 
ATOM     45  C   UNL A   1      38.310  28.562  28.765  1.00  0.00     0.029 A 
ATOM     46  N   UNL A   1      39.864  30.125  29.146  1.00  0.00    -0.354 N 
ATOM     47  C   UNL A   1      44.054  29.284  28.444  1.00  0.00     0.074 A 
ATOM     48  C   UNL A   1      44.246  27.927  27.987  1.00  0.00     0.031 C 
ATOM     49  C   UNL A   1      37.683  29.646  29.247  1.00  0.00     0.029 A 
ATOM     50  C   UNL A   1      38.670  30.685  29.535  1.00  0.00     0.049 A 
ATOM     51  H   UNL A   1      40.724  30.601  29.197  1.00  0.00     0.167 HD
ATOM     52  C   UNL A   1      45.051  30.182  28.613  1.00  0.00     0.034 A 
ATOM     53  C   UNL A   1      38.401  31.895  30.068  1.00  0.00     0.034 A 
ATOM     54  C   UNL A   1      44.843  31.535  29.054  1.00  0.00     0.049 A 
ATOM     55  C   UNL A   1      39.528  32.878  30.252  1.00  0.00     0.074 A 
ATOM     56  C   UNL A   1      45.785  32.534  29.212  1.00  0.00     0.029 A 
ATOM     57  N   UNL A   1      43.616  32.078  29.402  1.00  0.00    -0.354 N 
ATOM     58  N   UNL A   1      40.805  32.722  29.989  1.00  0.00    -0.248 NA
ATOM     59  C   UNL A   1      39.185  34.205  30.783  1.00  0.00     0.031 C 
ATOM     60  C   UNL A   1      45.137  33.668  29.702  1.00  0.00     0.029 A 
ATOM     61  C   UNL A   1      43.780  33.396  29.789  1.00  0.00     0.049 A 
ATOM     62  H   UNL A   1      42.756  31.599  29.377  1.00  0.00     0.167 HD
ATOM     63  C   UNL A   1      41.412  33.936  30.296  1.00  0.00     0.074 A 
ATOM     64  C   UNL A   1      40.361  34.823  30.750  1.00  0.00     0.031 C 
ATOM     65  C   UNL A   1      42.721  34.281  30.212  1.00  0.00     0.034 A 
BRANCH  52  66
ATOM     66  C   UNL A   1      46.458  29.761  28.283  1.00  0.00     0.023 A 
ATOM     67  C   UNL A   1      47.268  29.169  29.268  1.00  0.00     0.031 A 
ATOM     68  C   UNL A   1      47.034  30.069  27.037  1.00  0.00     0.131 A 
ATOM     69  C   UNL A   1      48.622  28.937  29.002  1.00  0.00     0.055 A 
ATOM     70  C   UNL A   1      48.375  29.800  26.764  1.00  0.00     0.041 A 
ATOM     71  F   UNL A   1      46.298  30.632  26.066  1.00  0.00    -0.206 F 
ATOM     72  C   UNL A   1      49.179  29.243  27.755  1.00  0.00     0.022 A 
BRANCH  69  73
ATOM     73  S   UNL A   1      49.725  28.273  30.278  1.00  0.00     0.124 S 
ATOM     74  O   UNL A   1      50.854  27.794  29.483  1.00  0.00    -0.237 OA
ATOM     75  O   UNL A   1      49.992  29.453  31.093  1.00  0.00    -0.237 OA
ATOM     76  O   UNL A   1      48.933  27.227  30.916  1.00  0.00    -0.744 OA
ENDBRANCH  69  73
ENDBRANCH  52  66
BRANCH  53  77
ATOM     77  C   UNL A   1      36.990  32.241  30.401  1.00  0.00     0.023 A 
ATOM     78  C   UNL A   1      36.147  32.830  29.441  1.00  0.00     0.031 A 
ATOM     79  C   UNL A   1      36.501  32.088  31.709  1.00  0.00     0.131 A 
ATOM     80  C   UNL A   1      34.881  33.296  29.819  1.00  0.00     0.055 A 
ATOM     81  C   UNL A   1      35.214  32.497  32.065  1.00  0.00     0.041 A 
ATOM     82  F   UNL A   1      37.275  31.544  32.661  1.00  0.00    -0.206 F 
ATOM     83  C   UNL A   1      34.403  33.117  31.121  1.00  0.00     0.022 A 
BRANCH  80  84
ATOM     84  S   UNL A   1      33.855  34.240  28.660  1.00  0.00     0.124 S 
ATOM     85  O   UNL A   1      34.778  35.278  28.208  1.00  0.00    -0.237 OA
ATOM     86  O   UNL A   1      33.517  33.222  27.668  1.00  0.00    -0.237 OA
ATOM     87  O   UNL A   1      32.742  34.703  29.481  1.00  0.00    -0.744 OA
ENDBRANCH  80  84
ENDBRANCH  53  77
BRANCH  65  88
ATOM     88  C   UNL A   1      43.131  35.682  30.590  1.00  0.00     0.023 A 
ATOM     89  C   UNL A   1      43.263  36.664  29.588  1.00  0.00     0.031 A 
ATOM     90  C   UNL A   1      43.561  35.992  31.891  1.00  0.00     0.131 A 
ATOM     91  C   UNL A   1      43.861  37.892  29.893  1.00  0.00     0.055 A 
ATOM     92  C   UNL A   1      44.114  37.235  32.200  1.00  0.00     0.041 A 
ATOM     93  F   UNL A   1      43.465  35.084  32.875  1.00  0.00    -0.206 F 
ATOM     94  C   UNL A   1      44.280  38.186  31.195  1.00  0.00     0.022 A 
BRANCH  91  95
ATOM     95  S   UNL A   1      44.188  39.119  28.598  1.00  0.00     0.124 S 
ATOM     96  O   UNL A   1      43.545  38.513  27.434  1.00  0.00    -0.237 OA
ATOM     97  O   UNL A   1      43.526  40.307  29.128  1.00  0.00    -0.237 OA
ATOM     98  O   UNL A   1      45.645  39.185  28.536  1.00  0.00    -0.744 OA
ENDBRANCH  91  95
ENDBRANCH  65  88
ENDBRANCH  39  40
ENDBRANCH  31  34
ENDBRANCH   1  30
TORSDOF 14
ENDMDL
