MODEL 1
REMARK VINA RESULT:     -11.7      0.000      0.000
REMARK SMILES O=C(NCCCNC(=O)[C@@H]1C=C[C@H](NC(=O)[C@@H]2CCSC2)C1)c1ccc(-c2c3nc(c(-c4cc(S(=O)(=O)[O-])ccc4F)c4ccc([nH]4)c(-c4cc(S(=O)(=O)[O-])ccc4F)c4nc(c(-c5cc(S(=O)(=O)[O-])ccc5F)c5ccc2[nH]5)C=C4)C=C3)cc1
REMARK SMILES IDX 4 1 3 2 1 3 2 4 23 6 24 7 85 8 25 9 84 10 26 11 27 12 28 13
REMARK SMILES IDX 78 14 29 15 83 16 77 17 79 18 30 19 82 20 76 21 75 22 31 24
REMARK SMILES IDX 63 25 43 26 62 27 44 28 47 29 61 30 80 31 45 32 46 33 60 35
REMARK SMILES IDX 81 36 48 37 32 38 33 39 41 40 34 41 40 42 42 43 39 44 35 45
REMARK SMILES IDX 36 46 37 47 38 48 64 49 65 50 73 51 66 52 72 53 74 54 71 55
REMARK SMILES IDX 67 56 68 57 69 58 70 59 49 60 50 61 58 62 51 63 57 64 59 65
REMARK SMILES IDX 56 66 52 67 53 68 54 69 55 70 5 71 6 72 7 73 8 74 9 76 10 77
REMARK SMILES IDX 11 78 22 79 12 80 13 81 14 82 15 83 16 85 17 86 18 87 21 88
REMARK SMILES IDX 19 89 20 90
REMARK H PARENT 3 5 79 23 47 34 7 75 14 84
REMARK Flexibility Score: inf
ROOT
ATOM      1  C   UNL A   1      33.569  28.943  25.303  1.00  0.00     0.118 C 
ENDROOT
BRANCH   1   2
ATOM      2  N   UNL A   1      32.955  30.166  25.803  1.00  0.00    -0.352 N 
ATOM      3  O   UNL A   1      32.527  31.838  27.252  1.00  0.00    -0.269 OA
ATOM      4  C   UNL A   1      33.296  30.952  26.882  1.00  0.00     0.251 C 
ATOM      5  H   UNL A   1      32.175  30.480  25.291  1.00  0.00     0.163 HD
BRANCH   4   6
ATOM      6  C   UNL A   1      34.575  30.732  27.596  1.00  0.00     0.039 A 
ATOM      7  C   UNL A   1      34.833  29.515  28.221  1.00  0.00     0.014 A 
ATOM      8  C   UNL A   1      35.546  31.741  27.624  1.00  0.00     0.014 A 
ATOM      9  C   UNL A   1      35.947  29.374  29.033  1.00  0.00     0.010 A 
ATOM     10  C   UNL A   1      36.747  31.538  28.319  1.00  0.00     0.010 A 
ATOM     11  C   UNL A   1      36.948  30.360  29.052  1.00  0.00    -0.014 A 
BRANCH  11  12
ATOM     12  C   UNL A   1      38.216  30.048  29.767  1.00  0.00     0.031 A 
ATOM     13  C   UNL A   1      38.501  30.574  31.146  1.00  0.00     0.074 A 
ATOM     14  C   UNL A   1      39.080  29.198  29.172  1.00  0.00     0.049 A 
ATOM     15  N   UNL A   1      39.525  30.324  31.923  1.00  0.00    -0.248 NA
ATOM     16  C   UNL A   1      37.523  31.504  31.726  1.00  0.00     0.031 C 
ATOM     17  C   UNL A   1      38.912  28.642  27.823  1.00  0.00     0.029 A 
ATOM     18  N   UNL A   1      40.237  28.615  29.620  1.00  0.00    -0.354 N 
ATOM     19  C   UNL A   1      39.320  31.065  33.081  1.00  0.00     0.074 A 
ATOM     20  C   UNL A   1      38.093  31.811  32.884  1.00  0.00     0.031 C 
ATOM     21  C   UNL A   1      39.873  27.740  27.592  1.00  0.00     0.029 A 
ATOM     22  C   UNL A   1      40.788  27.727  28.724  1.00  0.00     0.049 A 
ATOM     23  H   UNL A   1      40.634  28.813  30.498  1.00  0.00     0.167 HD
ATOM     24  C   UNL A   1      40.080  31.107  34.205  1.00  0.00     0.034 A 
ATOM     25  C   UNL A   1      41.919  27.001  28.786  1.00  0.00     0.034 A 
ATOM     26  C   UNL A   1      41.309  30.364  34.374  1.00  0.00     0.049 A 
ATOM     27  C   UNL A   1      42.760  27.101  30.028  1.00  0.00     0.074 A 
ATOM     28  C   UNL A   1      42.158  30.338  35.467  1.00  0.00     0.029 A 
ATOM     29  N   UNL A   1      41.867  29.516  33.424  1.00  0.00    -0.354 N 
ATOM     30  N   UNL A   1      42.544  27.806  31.116  1.00  0.00    -0.248 NA
ATOM     31  C   UNL A   1      43.993  26.307  30.055  1.00  0.00     0.031 C 
ATOM     32  C   UNL A   1      43.260  29.533  35.154  1.00  0.00     0.029 A 
ATOM     33  C   UNL A   1      43.060  28.985  33.897  1.00  0.00     0.049 A 
ATOM     34  H   UNL A   1      41.474  29.321  32.543  1.00  0.00     0.167 HD
ATOM     35  C   UNL A   1      43.612  27.529  31.961  1.00  0.00     0.074 A 
ATOM     36  C   UNL A   1      44.442  26.560  31.274  1.00  0.00     0.031 C 
ATOM     37  C   UNL A   1      43.891  28.038  33.189  1.00  0.00     0.034 A 
BRANCH  24  38
ATOM     38  C   UNL A   1      39.622  32.013  35.326  1.00  0.00     0.023 A 
ATOM     39  C   UNL A   1      38.875  31.525  36.412  1.00  0.00     0.031 A 
ATOM     40  C   UNL A   1      39.940  33.384  35.311  1.00  0.00     0.131 A 
ATOM     41  C   UNL A   1      38.423  32.406  37.408  1.00  0.00     0.055 A 
ATOM     42  C   UNL A   1      39.552  34.242  36.343  1.00  0.00     0.041 A 
ATOM     43  F   UNL A   1      40.633  33.915  34.291  1.00  0.00    -0.206 F 
ATOM     44  C   UNL A   1      38.779  33.757  37.394  1.00  0.00     0.022 A 
BRANCH  41  45
ATOM     45  S   UNL A   1      37.264  31.785  38.657  1.00  0.00     0.124 S 
ATOM     46  O   UNL A   1      36.139  32.703  38.503  1.00  0.00    -0.237 OA
ATOM     47  O   UNL A   1      37.031  30.414  38.219  1.00  0.00    -0.237 OA
ATOM     48  O   UNL A   1      38.004  31.922  39.911  1.00  0.00    -0.744 OA
ENDBRANCH  41  45
ENDBRANCH  24  38
BRANCH  25  49
ATOM     49  C   UNL A   1      42.350  26.170  27.623  1.00  0.00     0.023 A 
ATOM     50  C   UNL A   1      41.919  24.844  27.471  1.00  0.00     0.031 A 
ATOM     51  C   UNL A   1      43.246  26.685  26.666  1.00  0.00     0.131 A 
ATOM     52  C   UNL A   1      42.427  24.062  26.421  1.00  0.00     0.055 A 
ATOM     53  C   UNL A   1      43.689  25.927  25.584  1.00  0.00     0.041 A 
ATOM     54  F   UNL A   1      43.693  27.948  26.763  1.00  0.00    -0.206 F 
ATOM     55  C   UNL A   1      43.294  24.600  25.467  1.00  0.00     0.022 A 
BRANCH  52  56
ATOM     56  S   UNL A   1      42.032  22.292  26.389  1.00  0.00     0.124 S 
ATOM     57  O   UNL A   1      40.573  22.313  26.381  1.00  0.00    -0.237 OA
ATOM     58  O   UNL A   1      42.674  21.862  25.152  1.00  0.00    -0.237 OA
ATOM     59  O   UNL A   1      42.642  21.786  27.617  1.00  0.00    -0.744 OA
ENDBRANCH  52  56
ENDBRANCH  25  49
BRANCH  37  60
ATOM     60  C   UNL A   1      45.137  27.518  33.865  1.00  0.00     0.023 A 
ATOM     61  C   UNL A   1      45.108  26.372  34.679  1.00  0.00     0.031 A 
ATOM     62  C   UNL A   1      46.355  28.209  33.741  1.00  0.00     0.131 A 
ATOM     63  C   UNL A   1      46.249  26.000  35.405  1.00  0.00     0.055 A 
ATOM     64  C   UNL A   1      47.508  27.789  34.405  1.00  0.00     0.041 A 
ATOM     65  F   UNL A   1      46.441  29.312  32.980  1.00  0.00    -0.206 F 
ATOM     66  C   UNL A   1      47.454  26.692  35.259  1.00  0.00     0.022 A 
BRANCH  63  67
ATOM     67  S   UNL A   1      46.098  24.687  36.647  1.00  0.00     0.124 S 
ATOM     68  O   UNL A   1      45.984  25.454  37.884  1.00  0.00    -0.237 OA
ATOM     69  O   UNL A   1      44.891  23.989  36.217  1.00  0.00    -0.237 OA
ATOM     70  O   UNL A   1      47.339  23.930  36.497  1.00  0.00    -0.744 OA
ENDBRANCH  63  67
ENDBRANCH  37  60
ENDBRANCH  11  12
ENDBRANCH   4   6
ENDBRANCH   1   2
BRANCH   1  71
ATOM     71  C   UNL A   1      33.085  27.709  26.041  1.00  0.00     0.042 C 
BRANCH  71  72
ATOM     72  C   UNL A   1      31.597  27.737  26.355  1.00  0.00     0.117 C 
BRANCH  72  73
ATOM     73  N   UNL A   1      31.113  26.442  26.779  1.00  0.00    -0.356 N 
ATOM     74  C   UNL A   1      30.574  25.402  26.102  1.00  0.00     0.227 C 
ATOM     75  H   UNL A   1      31.190  26.289  27.748  1.00  0.00     0.163 HD
ATOM     76  O   UNL A   1      30.364  24.385  26.778  1.00  0.00    -0.274 OA
BRANCH  74  77
ATOM     77  C   UNL A   1      30.301  25.352  24.589  1.00  0.00     0.103 C 
ATOM     78  C   UNL A   1      31.550  25.403  23.782  1.00  0.00    -0.016 C 
ATOM     79  C   UNL A   1      29.377  26.335  23.853  1.00  0.00     0.047 C 
ATOM     80  C   UNL A   1      31.489  26.345  22.837  1.00  0.00    -0.006 C 
ATOM     81  C   UNL A   1      30.247  27.166  22.861  1.00  0.00     0.106 C 
BRANCH  81  82
ATOM     82  N   UNL A   1      30.407  28.524  23.381  1.00  0.00    -0.350 N 
ATOM     83  C   UNL A   1      29.776  29.697  23.558  1.00  0.00     0.224 C 
ATOM     84  H   UNL A   1      31.322  28.613  23.732  1.00  0.00     0.164 HD
ATOM     85  O   UNL A   1      30.423  30.495  24.256  1.00  0.00    -0.275 OA
BRANCH  83  86
ATOM     86  C   UNL A   1      28.394  30.133  23.091  1.00  0.00     0.089 C 
ATOM     87  C   UNL A   1      28.015  30.081  21.629  1.00  0.00     0.025 C 
ATOM     88  C   UNL A   1      28.127  31.589  23.527  1.00  0.00     0.083 C 
ATOM     89  C   UNL A   1      28.704  31.250  20.945  1.00  0.00     0.070 C 
ATOM     90  S   UNL A   1      28.407  32.636  22.059  1.00  0.00    -0.161 SA
ENDBRANCH  83  86
ENDBRANCH  81  82
ENDBRANCH  74  77
ENDBRANCH  72  73
ENDBRANCH  71  72
ENDBRANCH   1  71
TORSDOF 15
ENDMDL
MODEL 2
REMARK VINA RESULT:     -11.5      1.408      1.647
REMARK SMILES O=C(NCCCNC(=O)[C@@H]1C=C[C@H](NC(=O)[C@@H]2CCSC2)C1)c1ccc(-c2c3nc(c(-c4cc(S(=O)(=O)[O-])ccc4F)c4ccc([nH]4)c(-c4cc(S(=O)(=O)[O-])ccc4F)c4nc(c(-c5cc(S(=O)(=O)[O-])ccc5F)c5ccc2[nH]5)C=C4)C=C3)cc1
REMARK SMILES IDX 4 1 3 2 1 3 2 4 23 6 24 7 85 8 25 9 84 10 26 11 27 12 28 13
REMARK SMILES IDX 78 14 29 15 83 16 77 17 79 18 30 19 82 20 76 21 75 22 31 24
REMARK SMILES IDX 63 25 43 26 62 27 44 28 47 29 61 30 80 31 45 32 46 33 60 35
REMARK SMILES IDX 81 36 48 37 32 38 33 39 41 40 34 41 40 42 42 43 39 44 35 45
REMARK SMILES IDX 36 46 37 47 38 48 64 49 65 50 73 51 66 52 72 53 74 54 71 55
REMARK SMILES IDX 67 56 68 57 69 58 70 59 49 60 50 61 58 62 51 63 57 64 59 65
REMARK SMILES IDX 56 66 52 67 53 68 54 69 55 70 5 71 6 72 7 73 8 74 9 76 10 77
REMARK SMILES IDX 11 78 22 79 12 80 13 81 14 82 15 83 16 85 17 86 18 87 21 88
REMARK SMILES IDX 19 89 20 90
REMARK H PARENT 3 5 79 23 47 34 7 75 14 84
REMARK Flexibility Score: inf
ROOT
ATOM      1  C   UNL A   1      33.747  28.944  25.163  1.00  0.00     0.118 C 
ENDROOT
BRANCH   1   2
ATOM      2  N   UNL A   1      33.070  30.103  25.730  1.00  0.00    -0.352 N 
ATOM      3  O   UNL A   1      32.548  31.659  27.275  1.00  0.00    -0.269 OA
ATOM      4  C   UNL A   1      33.362  30.835  26.860  1.00  0.00     0.251 C 
ATOM      5  H   UNL A   1      32.280  30.410  25.229  1.00  0.00     0.163 HD
BRANCH   4   6
ATOM      6  C   UNL A   1      34.644  30.633  27.575  1.00  0.00     0.039 A 
ATOM      7  C   UNL A   1      34.939  29.404  28.159  1.00  0.00     0.014 A 
ATOM      8  C   UNL A   1      35.580  31.672  27.645  1.00  0.00     0.014 A 
ATOM      9  C   UNL A   1      36.052  29.271  28.973  1.00  0.00     0.010 A 
ATOM     10  C   UNL A   1      36.783  31.485  28.341  1.00  0.00     0.010 A 
ATOM     11  C   UNL A   1      37.020  30.289  29.033  1.00  0.00    -0.014 A 
BRANCH  11  12
ATOM     12  C   UNL A   1      38.293  29.994  29.746  1.00  0.00     0.031 A 
ATOM     13  C   UNL A   1      38.574  30.526  31.122  1.00  0.00     0.074 A 
ATOM     14  C   UNL A   1      39.166  29.154  29.150  1.00  0.00     0.049 A 
ATOM     15  N   UNL A   1      39.604  30.291  31.897  1.00  0.00    -0.248 NA
ATOM     16  C   UNL A   1      37.587  31.446  31.703  1.00  0.00     0.031 C 
ATOM     17  C   UNL A   1      39.001  28.593  27.803  1.00  0.00     0.029 A 
ATOM     18  N   UNL A   1      40.331  28.586  29.597  1.00  0.00    -0.354 N 
ATOM     19  C   UNL A   1      39.393  31.032  33.055  1.00  0.00     0.074 A 
ATOM     20  C   UNL A   1      38.156  31.761  32.859  1.00  0.00     0.031 C 
ATOM     21  C   UNL A   1      39.973  27.702  27.571  1.00  0.00     0.029 A 
ATOM     22  C   UNL A   1      40.891  27.703  28.700  1.00  0.00     0.049 A 
ATOM     23  H   UNL A   1      40.728  28.790  30.473  1.00  0.00     0.167 HD
ATOM     24  C   UNL A   1      40.155  31.086  34.177  1.00  0.00     0.034 A 
ATOM     25  C   UNL A   1      42.031  26.991  28.761  1.00  0.00     0.034 A 
ATOM     26  C   UNL A   1      41.393  30.358  34.344  1.00  0.00     0.049 A 
ATOM     27  C   UNL A   1      42.874  27.104  30.001  1.00  0.00     0.074 A 
ATOM     28  C   UNL A   1      42.246  30.345  35.434  1.00  0.00     0.029 A 
ATOM     29  N   UNL A   1      41.960  29.515  33.394  1.00  0.00    -0.354 N 
ATOM     30  N   UNL A   1      42.652  27.808  31.088  1.00  0.00    -0.248 NA
ATOM     31  C   UNL A   1      44.116  26.326  30.027  1.00  0.00     0.031 C 
ATOM     32  C   UNL A   1      43.356  29.553  35.120  1.00  0.00     0.029 A 
ATOM     33  C   UNL A   1      43.160  29.000  33.866  1.00  0.00     0.049 A 
ATOM     34  H   UNL A   1      41.567  29.313  32.514  1.00  0.00     0.167 HD
ATOM     35  C   UNL A   1      43.725  27.547  31.931  1.00  0.00     0.074 A 
ATOM     36  C   UNL A   1      44.565  26.587  31.244  1.00  0.00     0.031 C 
ATOM     37  C   UNL A   1      44.001  28.062  33.157  1.00  0.00     0.034 A 
BRANCH  24  38
ATOM     38  C   UNL A   1      39.689  31.988  35.297  1.00  0.00     0.023 A 
ATOM     39  C   UNL A   1      38.929  31.497  36.373  1.00  0.00     0.031 A 
ATOM     40  C   UNL A   1      40.011  33.357  35.292  1.00  0.00     0.131 A 
ATOM     41  C   UNL A   1      38.469  32.376  37.368  1.00  0.00     0.055 A 
ATOM     42  C   UNL A   1      39.616  34.213  36.323  1.00  0.00     0.041 A 
ATOM     43  F   UNL A   1      40.717  33.891  34.282  1.00  0.00    -0.206 F 
ATOM     44  C   UNL A   1      38.831  33.725  37.364  1.00  0.00     0.022 A 
BRANCH  41  45
ATOM     45  S   UNL A   1      37.295  31.754  38.602  1.00  0.00     0.124 S 
ATOM     46  O   UNL A   1      36.194  32.703  38.471  1.00  0.00    -0.237 OA
ATOM     47  O   UNL A   1      37.028  30.399  38.131  1.00  0.00    -0.237 OA
ATOM     48  O   UNL A   1      38.038  31.841  39.859  1.00  0.00    -0.744 OA
ENDBRANCH  41  45
ENDBRANCH  24  38
BRANCH  25  49
ATOM     49  C   UNL A   1      42.469  26.164  27.599  1.00  0.00     0.023 A 
ATOM     50  C   UNL A   1      42.043  24.836  27.442  1.00  0.00     0.031 A 
ATOM     51  C   UNL A   1      43.367  26.682  26.647  1.00  0.00     0.131 A 
ATOM     52  C   UNL A   1      42.557  24.057  26.394  1.00  0.00     0.055 A 
ATOM     53  C   UNL A   1      43.818  25.927  25.565  1.00  0.00     0.041 A 
ATOM     54  F   UNL A   1      43.811  27.946  26.747  1.00  0.00    -0.206 F 
ATOM     55  C   UNL A   1      43.427  24.599  25.444  1.00  0.00     0.022 A 
BRANCH  52  56
ATOM     56  S   UNL A   1      42.168  22.287  26.358  1.00  0.00     0.124 S 
ATOM     57  O   UNL A   1      42.647  21.850  27.665  1.00  0.00    -0.237 OA
ATOM     58  O   UNL A   1      40.720  22.299  26.177  1.00  0.00    -0.237 OA
ATOM     59  O   UNL A   1      42.934  21.793  25.215  1.00  0.00    -0.744 OA
ENDBRANCH  52  56
ENDBRANCH  25  49
BRANCH  37  60
ATOM     60  C   UNL A   1      45.256  27.559  33.830  1.00  0.00     0.023 A 
ATOM     61  C   UNL A   1      46.498  28.188  33.633  1.00  0.00     0.031 A 
ATOM     62  C   UNL A   1      45.221  26.403  34.630  1.00  0.00     0.131 A 
ATOM     63  C   UNL A   1      47.665  27.611  34.155  1.00  0.00     0.055 A 
ATOM     64  C   UNL A   1      46.375  25.878  35.212  1.00  0.00     0.041 A 
ATOM     65  F   UNL A   1      44.064  25.758  34.850  1.00  0.00    -0.206 F 
ATOM     66  C   UNL A   1      47.609  26.470  34.958  1.00  0.00     0.022 A 
BRANCH  63  67
ATOM     67  S   UNL A   1      49.269  28.294  33.654  1.00  0.00     0.124 S 
ATOM     68  O   UNL A   1      48.944  28.923  32.377  1.00  0.00    -0.237 OA
ATOM     69  O   UNL A   1      49.578  29.203  34.752  1.00  0.00    -0.237 OA
ATOM     70  O   UNL A   1      50.129  27.115  33.564  1.00  0.00    -0.744 OA
ENDBRANCH  63  67
ENDBRANCH  37  60
ENDBRANCH  11  12
ENDBRANCH   4   6
ENDBRANCH   1   2
BRANCH   1  71
ATOM     71  C   UNL A   1      33.068  27.638  25.534  1.00  0.00     0.042 C 
BRANCH  71  72
ATOM     72  C   UNL A   1      31.720  27.830  26.210  1.00  0.00     0.117 C 
BRANCH  72  73
ATOM     73  N   UNL A   1      31.131  26.568  26.600  1.00  0.00    -0.356 N 
ATOM     74  C   UNL A   1      30.429  25.637  25.913  1.00  0.00     0.227 C 
ATOM     75  H   UNL A   1      31.265  26.344  27.549  1.00  0.00     0.163 HD
ATOM     76  O   UNL A   1      30.162  24.605  26.546  1.00  0.00    -0.274 OA
BRANCH  74  77
ATOM     77  C   UNL A   1      30.036  25.714  24.428  1.00  0.00     0.103 C 
ATOM     78  C   UNL A   1      31.217  25.699  23.523  1.00  0.00    -0.016 C 
ATOM     79  C   UNL A   1      29.161  26.827  23.831  1.00  0.00     0.047 C 
ATOM     80  C   UNL A   1      31.177  26.704  22.644  1.00  0.00    -0.006 C 
ATOM     81  C   UNL A   1      30.029  27.636  22.821  1.00  0.00     0.106 C 
BRANCH  81  82
ATOM     82  N   UNL A   1      30.365  28.935  23.404  1.00  0.00    -0.350 N 
ATOM     83  C   UNL A   1      29.858  30.130  23.751  1.00  0.00     0.224 C 
ATOM     84  H   UNL A   1      31.324  28.934  23.626  1.00  0.00     0.164 HD
ATOM     85  O   UNL A   1      30.656  30.825  24.402  1.00  0.00    -0.275 OA
BRANCH  83  86
ATOM     86  C   UNL A   1      28.463  30.694  23.518  1.00  0.00     0.089 C 
ATOM     87  C   UNL A   1      27.536  30.079  22.496  1.00  0.00     0.025 C 
ATOM     88  C   UNL A   1      28.556  32.185  23.136  1.00  0.00     0.083 C 
ATOM     89  C   UNL A   1      28.028  30.515  21.125  1.00  0.00     0.070 C 
ATOM     90  S   UNL A   1      28.353  32.276  21.324  1.00  0.00    -0.161 SA
ENDBRANCH  83  86
ENDBRANCH  81  82
ENDBRANCH  74  77
ENDBRANCH  72  73
ENDBRANCH  71  72
ENDBRANCH   1  71
TORSDOF 15
ENDMDL
MODEL 3
REMARK VINA RESULT:     -11.2      2.162      2.625
REMARK SMILES O=C(NCCCNC(=O)[C@@H]1C=C[C@H](NC(=O)[C@@H]2CCSC2)C1)c1ccc(-c2c3nc(c(-c4cc(S(=O)(=O)[O-])ccc4F)c4ccc([nH]4)c(-c4cc(S(=O)(=O)[O-])ccc4F)c4nc(c(-c5cc(S(=O)(=O)[O-])ccc5F)c5ccc2[nH]5)C=C4)C=C3)cc1
REMARK SMILES IDX 4 1 3 2 1 3 2 4 23 6 24 7 85 8 25 9 84 10 26 11 27 12 28 13
REMARK SMILES IDX 78 14 29 15 83 16 77 17 79 18 30 19 82 20 76 21 75 22 31 24
REMARK SMILES IDX 63 25 43 26 62 27 44 28 47 29 61 30 80 31 45 32 46 33 60 35
REMARK SMILES IDX 81 36 48 37 32 38 33 39 41 40 34 41 40 42 42 43 39 44 35 45
REMARK SMILES IDX 36 46 37 47 38 48 64 49 65 50 73 51 66 52 72 53 74 54 71 55
REMARK SMILES IDX 67 56 68 57 69 58 70 59 49 60 50 61 58 62 51 63 57 64 59 65
REMARK SMILES IDX 56 66 52 67 53 68 54 69 55 70 5 71 6 72 7 73 8 74 9 76 10 77
REMARK SMILES IDX 11 78 22 79 12 80 13 81 14 82 15 83 16 85 17 86 18 87 21 88
REMARK SMILES IDX 19 89 20 90
REMARK H PARENT 3 5 79 23 47 34 7 75 14 84
REMARK Flexibility Score: inf
ROOT
ATOM      1  C   UNL A   1      33.782  28.889  26.047  1.00  0.00     0.118 C 
ENDROOT
BRANCH   1   2
ATOM      2  N   UNL A   1      33.558  30.257  26.498  1.00  0.00    -0.352 N 
ATOM      3  O   UNL A   1      33.753  32.070  27.823  1.00  0.00    -0.269 OA
ATOM      4  C   UNL A   1      34.225  30.996  27.450  1.00  0.00     0.251 C 
ATOM      5  H   UNL A   1      32.814  30.725  26.055  1.00  0.00     0.163 HD
BRANCH   4   6
ATOM      6  C   UNL A   1      35.499  30.506  28.025  1.00  0.00     0.039 A 
ATOM      7  C   UNL A   1      36.712  30.811  27.413  1.00  0.00     0.014 A 
ATOM      8  C   UNL A   1      35.493  29.754  29.206  1.00  0.00     0.014 A 
ATOM      9  C   UNL A   1      37.881  30.209  27.850  1.00  0.00     0.010 A 
ATOM     10  C   UNL A   1      36.699  29.274  29.736  1.00  0.00     0.010 A 
ATOM     11  C   UNL A   1      37.904  29.476  29.048  1.00  0.00    -0.014 A 
BRANCH  11  12
ATOM     12  C   UNL A   1      39.229  29.047  29.574  1.00  0.00     0.031 A 
ATOM     13  C   UNL A   1      39.846  29.684  30.787  1.00  0.00     0.074 A 
ATOM     14  C   UNL A   1      39.833  27.999  28.975  1.00  0.00     0.049 A 
ATOM     15  N   UNL A   1      40.956  29.364  31.406  1.00  0.00    -0.248 NA
ATOM     16  C   UNL A   1      39.141  30.829  31.379  1.00  0.00     0.031 C 
ATOM     17  C   UNL A   1      39.329  27.317  27.776  1.00  0.00     0.029 A 
ATOM     18  N   UNL A   1      40.960  27.290  29.301  1.00  0.00    -0.354 N 
ATOM     19  C   UNL A   1      41.086  30.266  32.456  1.00  0.00     0.074 A 
ATOM     20  C   UNL A   1      39.962  31.176  32.361  1.00  0.00     0.031 C 
ATOM     21  C   UNL A   1      40.090  26.246  27.522  1.00  0.00     0.029 A 
ATOM     22  C   UNL A   1      41.196  26.219  28.469  1.00  0.00     0.049 A 
ATOM     23  H   UNL A   1      41.544  27.525  30.058  1.00  0.00     0.167 HD
ATOM     24  C   UNL A   1      42.047  30.319  33.413  1.00  0.00     0.034 A 
ATOM     25  C   UNL A   1      42.204  25.328  28.445  1.00  0.00     0.034 A 
ATOM     26  C   UNL A   1      43.167  29.407  33.479  1.00  0.00     0.049 A 
ATOM     27  C   UNL A   1      43.275  25.438  29.495  1.00  0.00     0.074 A 
ATOM     28  C   UNL A   1      44.200  29.374  34.400  1.00  0.00     0.029 A 
ATOM     29  N   UNL A   1      43.406  28.367  32.587  1.00  0.00    -0.354 N 
ATOM     30  N   UNL A   1      43.375  26.297  30.483  1.00  0.00    -0.248 NA
ATOM     31  C   UNL A   1      44.364  24.459  29.430  1.00  0.00     0.031 C 
ATOM     32  C   UNL A   1      45.095  28.365  34.028  1.00  0.00     0.029 A 
ATOM     33  C   UNL A   1      44.581  27.707  32.923  1.00  0.00     0.049 A 
ATOM     34  H   UNL A   1      42.826  28.134  31.826  1.00  0.00     0.167 HD
ATOM     35  C   UNL A   1      44.536  25.953  31.165  1.00  0.00     0.074 A 
ATOM     36  C   UNL A   1      45.072  24.781  30.501  1.00  0.00     0.031 C 
ATOM     37  C   UNL A   1      45.116  26.555  32.235  1.00  0.00     0.034 A 
BRANCH  24  38
ATOM     38  C   UNL A   1      41.948  31.419  34.445  1.00  0.00     0.023 A 
ATOM     39  C   UNL A   1      40.952  31.413  35.437  1.00  0.00     0.031 A 
ATOM     40  C   UNL A   1      42.863  32.488  34.440  1.00  0.00     0.131 A 
ATOM     41  C   UNL A   1      40.859  32.480  36.346  1.00  0.00     0.055 A 
ATOM     42  C   UNL A   1      42.812  33.508  35.393  1.00  0.00     0.041 A 
ATOM     43  F   UNL A   1      43.824  32.562  33.505  1.00  0.00    -0.206 F 
ATOM     44  C   UNL A   1      41.799  33.513  36.347  1.00  0.00     0.022 A 
BRANCH  41  45
ATOM     45  S   UNL A   1      39.422  32.558  37.451  1.00  0.00     0.124 S 
ATOM     46  O   UNL A   1      38.763  33.780  36.999  1.00  0.00    -0.237 OA
ATOM     47  O   UNL A   1      38.725  31.311  37.153  1.00  0.00    -0.237 OA
ATOM     48  O   UNL A   1      40.017  32.636  38.784  1.00  0.00    -0.744 OA
ENDBRANCH  41  45
ENDBRANCH  24  38
BRANCH  25  49
ATOM     49  C   UNL A   1      42.279  24.300  27.365  1.00  0.00     0.023 A 
ATOM     50  C   UNL A   1      41.511  23.127  27.415  1.00  0.00     0.031 A 
ATOM     51  C   UNL A   1      43.167  24.460  26.284  1.00  0.00     0.131 A 
ATOM     52  C   UNL A   1      41.686  22.137  26.435  1.00  0.00     0.055 A 
ATOM     53  C   UNL A   1      43.282  23.506  25.273  1.00  0.00     0.041 A 
ATOM     54  F   UNL A   1      43.928  25.562  26.185  1.00  0.00    -0.206 F 
ATOM     55  C   UNL A   1      42.552  22.327  25.355  1.00  0.00     0.022 A 
BRANCH  52  56
ATOM     56  S   UNL A   1      40.853  20.542  26.657  1.00  0.00     0.124 S 
ATOM     57  O   UNL A   1      41.727  19.644  25.908  1.00  0.00    -0.237 OA
ATOM     58  O   UNL A   1      40.871  20.391  28.108  1.00  0.00    -0.237 OA
ATOM     59  O   UNL A   1      39.534  20.762  26.069  1.00  0.00    -0.744 OA
ENDBRANCH  52  56
ENDBRANCH  25  49
BRANCH  37  60
ATOM     60  C   UNL A   1      46.384  25.921  32.757  1.00  0.00     0.023 A 
ATOM     61  C   UNL A   1      47.609  26.065  32.081  1.00  0.00     0.031 A 
ATOM     62  C   UNL A   1      46.356  25.117  33.909  1.00  0.00     0.131 A 
ATOM     63  C   UNL A   1      48.734  25.346  32.512  1.00  0.00     0.055 A 
ATOM     64  C   UNL A   1      47.497  24.466  34.378  1.00  0.00     0.041 A 
ATOM     65  F   UNL A   1      45.213  24.941  34.593  1.00  0.00    -0.206 F 
ATOM     66  C   UNL A   1      48.690  24.562  33.667  1.00  0.00     0.022 A 
BRANCH  63  67
ATOM     67  S   UNL A   1      50.214  25.341  31.463  1.00  0.00     0.124 S 
ATOM     68  O   UNL A   1      50.743  24.000  31.694  1.00  0.00    -0.237 OA
ATOM     69  O   UNL A   1      49.657  25.586  30.137  1.00  0.00    -0.237 OA
ATOM     70  O   UNL A   1      51.022  26.430  32.008  1.00  0.00    -0.744 OA
ENDBRANCH  63  67
ENDBRANCH  37  60
ENDBRANCH  11  12
ENDBRANCH   4   6
ENDBRANCH   1   2
BRANCH   1  71
ATOM     71  C   UNL A   1      33.080  27.869  26.923  1.00  0.00     0.042 C 
BRANCH  71  72
ATOM     72  C   UNL A   1      31.619  27.661  26.557  1.00  0.00     0.117 C 
BRANCH  72  73
ATOM     73  N   UNL A   1      31.172  26.322  26.870  1.00  0.00    -0.356 N 
ATOM     74  C   UNL A   1      30.718  25.307  26.099  1.00  0.00     0.227 C 
ATOM     75  H   UNL A   1      31.203  26.108  27.831  1.00  0.00     0.163 HD
ATOM     76  O   UNL A   1      30.518  24.240  26.697  1.00  0.00    -0.274 OA
BRANCH  74  77
ATOM     77  C   UNL A   1      30.530  25.345  24.573  1.00  0.00     0.103 C 
ATOM     78  C   UNL A   1      31.823  25.425  23.841  1.00  0.00    -0.016 C 
ATOM     79  C   UNL A   1      29.658  26.378  23.843  1.00  0.00     0.047 C 
ATOM     80  C   UNL A   1      31.824  26.420  22.948  1.00  0.00    -0.006 C 
ATOM     81  C   UNL A   1      30.589  27.253  22.950  1.00  0.00     0.106 C 
BRANCH  81  82
ATOM     82  N   UNL A   1      30.733  28.578  23.553  1.00  0.00    -0.350 N 
ATOM     83  C   UNL A   1      30.073  29.711  23.846  1.00  0.00     0.224 C 
ATOM     84  H   UNL A   1      31.663  28.677  23.861  1.00  0.00     0.164 HD
ATOM     85  O   UNL A   1      30.732  30.484  24.562  1.00  0.00    -0.275 OA
BRANCH  83  86
ATOM     86  C   UNL A   1      28.654  30.126  23.486  1.00  0.00     0.089 C 
ATOM     87  C   UNL A   1      28.081  29.832  22.119  1.00  0.00     0.025 C 
ATOM     88  C   UNL A   1      28.486  31.648  23.677  1.00  0.00     0.083 C 
ATOM     89  C   UNL A   1      28.702  30.824  21.149  1.00  0.00     0.070 C 
ATOM     90  S   UNL A   1      28.595  32.400  22.017  1.00  0.00    -0.161 SA
ENDBRANCH  83  86
ENDBRANCH  81  82
ENDBRANCH  74  77
ENDBRANCH  72  73
ENDBRANCH  71  72
ENDBRANCH   1  71
TORSDOF 15
ENDMDL
