MODEL 1
REMARK VINA RESULT:     -13.6      0.000      0.000
REMARK SMILES CCn1ncc(NC(=O)[C@@H]2CCCC[C@@H]2C(=O)NCCCNC(=O)c2ccc(-c3c4nc(c(-c5cc(S(=O)(=O)[O-])ccc5F)c5ccc([nH]5)c(-c5cc(S(=O)(=O)[O-])ccc5F)c5nc(c(-c6cc(S(=O)(=O)[O-])ccc6F)c6ccc3[nH]6)C=C5)C=C4)cc2)c1C(=O)Nc1cnn(C)c1C
REMARK SMILES IDX 19 1 18 2 16 3 17 4 15 6 10 7 11 8 12 9 14 10 13 11 8 12
REMARK SMILES IDX 7 13 9 15 6 16 3 17 4 18 88 19 5 20 2 21 1 22 89 23 90 24
REMARK SMILES IDX 91 25 92 27 93 28 97 29 94 30 95 31 98 32 96 33 20 34 21 35
REMARK SMILES IDX 22 36 23 37 24 39 25 40 26 41 87 42 27 43 86 44 28 45 29 46
REMARK SMILES IDX 30 47 80 48 31 49 85 50 79 51 81 52 32 53 84 54 78 55 77 56
REMARK SMILES IDX 33 58 65 59 45 60 64 61 46 62 49 63 63 64 82 65 47 66 48 67
REMARK SMILES IDX 62 69 83 70 50 71 34 72 35 73 43 74 36 75 42 76 44 77 41 78
REMARK SMILES IDX 37 79 38 80 39 81 40 82 66 83 67 84 75 85 68 86 74 87 76 88
REMARK SMILES IDX 73 89 69 90 70 91 71 92 72 93 51 94 52 95 60 96 53 97 59 98
REMARK SMILES IDX 61 99 58 100 54 101 55 102 56 103 57 104
REMARK H PARENT 18 5 7 14 91 26 22 38 81 57 49 68
REMARK Flexibility Score: inf
ROOT
ATOM      1  C   UNL A   1      34.385  28.533  26.581  1.00  0.00     0.117 C 
ENDROOT
BRANCH   1   2
ATOM      2  N   UNL A   1      34.091  28.983  25.243  1.00  0.00    -0.356 N 
ATOM      3  C   UNL A   1      33.222  28.571  24.290  1.00  0.00     0.223 C 
ATOM      4  O   UNL A   1      33.172  29.281  23.278  1.00  0.00    -0.275 OA
ATOM      5  H   UNL A   1      34.638  29.752  24.963  1.00  0.00     0.163 HD
BRANCH   3   6
ATOM      6  C   UNL A   1      32.422  27.256  24.313  1.00  0.00     0.091 C 
ATOM      7  C   UNL A   1      32.141  26.406  23.068  1.00  0.00     0.091 C 
ATOM      8  C   UNL A   1      31.077  26.974  22.152  1.00  0.00     0.014 C 
ATOM      9  C   UNL A   1      29.825  27.433  22.888  1.00  0.00     0.001 C 
ATOM     10  C   UNL A   1      31.159  27.343  25.166  1.00  0.00     0.014 C 
ATOM     11  C   UNL A   1      29.836  27.496  24.419  1.00  0.00     0.001 C 
BRANCH   7  12
ATOM     12  C   UNL A   1      33.363  25.984  22.299  1.00  0.00     0.228 C 
ATOM     13  N   UNL A   1      33.848  24.713  22.393  1.00  0.00    -0.322 N 
ATOM     14  H   UNL A   1      34.693  24.596  21.903  1.00  0.00     0.170 HD
ATOM     15  O   UNL A   1      33.927  26.742  21.508  1.00  0.00    -0.274 OA
BRANCH  13  16
ATOM     16  C   UNL A   1      33.431  23.543  23.019  1.00  0.00     0.092 A 
ATOM     17  N   UNL A   1      32.643  21.898  24.234  1.00  0.00    -0.258 N 
ATOM     18  N   UNL A   1      32.243  21.592  22.988  1.00  0.00    -0.178 NA
ATOM     19  C   UNL A   1      33.497  22.986  24.310  1.00  0.00     0.150 A 
ATOM     20  C   UNL A   1      32.724  22.582  22.255  1.00  0.00     0.162 A 
BRANCH  17  21
ATOM     21  C   UNL A   1      32.176  21.004  25.272  1.00  0.00     0.142 C 
ATOM     22  C   UNL A   1      32.814  19.635  25.167  1.00  0.00     0.029 C 
ENDBRANCH  17  21
BRANCH  19  23
ATOM     23  C   UNL A   1      34.350  23.317  25.455  1.00  0.00     0.276 C 
ATOM     24  O   UNL A   1      34.287  24.406  26.024  1.00  0.00    -0.267 OA
ATOM     25  N   UNL A   1      35.061  22.293  26.071  1.00  0.00    -0.318 N 
ATOM     26  H   UNL A   1      34.621  21.811  26.808  1.00  0.00     0.170 HD
BRANCH  25  27
ATOM     27  C   UNL A   1      36.346  21.901  25.724  1.00  0.00     0.082 A 
ATOM     28  C   UNL A   1      36.758  20.718  25.081  1.00  0.00     0.161 A 
ATOM     29  C   UNL A   1      37.515  22.632  25.886  1.00  0.00     0.059 A 
ATOM     30  N   UNL A   1      38.084  20.580  25.086  1.00  0.00    -0.179 NA
ATOM     31  N   UNL A   1      38.515  21.706  25.686  1.00  0.00    -0.271 N 
ATOM     32  C   UNL A   1      37.833  24.020  26.313  1.00  0.00     0.068 C 
ATOM     33  C   UNL A   1      39.853  21.736  26.233  1.00  0.00     0.174 C 
ENDBRANCH  25  27
ENDBRANCH  19  23
ENDBRANCH  13  16
ENDBRANCH   7  12
ENDBRANCH   3   6
ENDBRANCH   1   2
BRANCH   1  34
ATOM     34  C   UNL A   1      34.275  29.603  27.665  1.00  0.00     0.042 C 
BRANCH  34  35
ATOM     35  C   UNL A   1      35.627  30.190  27.985  1.00  0.00     0.118 C 
BRANCH  35  36
ATOM     36  N   UNL A   1      35.865  30.276  29.432  1.00  0.00    -0.352 N 
ATOM     37  C   UNL A   1      36.764  29.521  30.178  1.00  0.00     0.251 C 
ATOM     38  H   UNL A   1      35.332  30.939  29.928  1.00  0.00     0.163 HD
ATOM     39  O   UNL A   1      36.660  29.409  31.378  1.00  0.00    -0.269 OA
BRANCH  37  40
ATOM     40  C   UNL A   1      37.839  28.863  29.413  1.00  0.00     0.039 A 
ATOM     41  C   UNL A   1      38.425  29.476  28.308  1.00  0.00     0.014 A 
ATOM     42  C   UNL A   1      38.395  27.732  30.002  1.00  0.00     0.014 A 
ATOM     43  C   UNL A   1      39.666  29.005  27.881  1.00  0.00     0.010 A 
ATOM     44  C   UNL A   1      39.700  27.424  29.717  1.00  0.00     0.010 A 
ATOM     45  C   UNL A   1      40.330  28.013  28.628  1.00  0.00    -0.014 A 
BRANCH  45  46
ATOM     46  C   UNL A   1      41.740  27.697  28.392  1.00  0.00     0.031 A 
ATOM     47  C   UNL A   1      41.951  26.427  27.641  1.00  0.00     0.074 A 
ATOM     48  C   UNL A   1      42.758  28.551  28.656  1.00  0.00     0.049 A 
ATOM     49  N   UNL A   1      42.295  25.285  28.134  1.00  0.00    -0.248 NA
ATOM     50  C   UNL A   1      41.524  26.348  26.233  1.00  0.00     0.031 C 
ATOM     51  C   UNL A   1      42.680  29.938  29.136  1.00  0.00     0.029 A 
ATOM     52  N   UNL A   1      44.100  28.388  28.476  1.00  0.00    -0.354 N 
ATOM     53  C   UNL A   1      42.427  24.425  27.050  1.00  0.00     0.074 A 
ATOM     54  C   UNL A   1      41.706  25.049  25.976  1.00  0.00     0.031 C 
ATOM     55  C   UNL A   1      43.875  30.551  28.991  1.00  0.00     0.029 A 
ATOM     56  C   UNL A   1      44.856  29.556  28.605  1.00  0.00     0.049 A 
ATOM     57  H   UNL A   1      44.505  27.514  28.272  1.00  0.00     0.167 HD
ATOM     58  C   UNL A   1      43.365  23.435  27.067  1.00  0.00     0.034 A 
ATOM     59  C   UNL A   1      46.201  29.709  28.457  1.00  0.00     0.034 A 
ATOM     60  C   UNL A   1      43.873  23.253  28.413  1.00  0.00     0.049 A 
ATOM     61  C   UNL A   1      46.791  28.369  28.665  1.00  0.00     0.074 A 
ATOM     62  C   UNL A   1      43.326  22.893  29.629  1.00  0.00     0.029 A 
ATOM     63  N   UNL A   1      45.071  23.868  28.705  1.00  0.00    -0.354 N 
ATOM     64  N   UNL A   1      46.740  27.743  29.809  1.00  0.00    -0.248 NA
ATOM     65  C   UNL A   1      46.999  27.518  27.505  1.00  0.00     0.031 C 
ATOM     66  C   UNL A   1      43.994  23.709  30.592  1.00  0.00     0.029 A 
ATOM     67  C   UNL A   1      44.980  24.454  29.941  1.00  0.00     0.049 A 
ATOM     68  H   UNL A   1      45.863  23.883  28.121  1.00  0.00     0.167 HD
ATOM     69  C   UNL A   1      46.451  26.428  29.483  1.00  0.00     0.074 A 
ATOM     70  C   UNL A   1      46.752  26.325  28.055  1.00  0.00     0.031 C 
ATOM     71  C   UNL A   1      45.729  25.639  30.336  1.00  0.00     0.034 A 
BRANCH  58  72
ATOM     72  C   UNL A   1      44.154  22.950  25.861  1.00  0.00     0.023 A 
ATOM     73  C   UNL A   1      44.168  21.559  25.630  1.00  0.00     0.031 A 
ATOM     74  C   UNL A   1      45.108  23.695  25.134  1.00  0.00     0.131 A 
ATOM     75  C   UNL A   1      45.164  20.962  24.837  1.00  0.00     0.055 A 
ATOM     76  C   UNL A   1      46.061  23.102  24.297  1.00  0.00     0.041 A 
ATOM     77  F   UNL A   1      45.237  25.020  25.243  1.00  0.00    -0.206 F 
ATOM     78  C   UNL A   1      46.118  21.726  24.174  1.00  0.00     0.022 A 
BRANCH  75  79
ATOM     79  S   UNL A   1      45.300  19.156  24.841  1.00  0.00     0.124 S 
ATOM     80  O   UNL A   1      44.210  18.785  25.736  1.00  0.00    -0.237 OA
ATOM     81  O   UNL A   1      45.114  18.840  23.429  1.00  0.00    -0.237 OA
ATOM     82  O   UNL A   1      46.644  18.921  25.362  1.00  0.00    -0.744 OA
ENDBRANCH  75  79
ENDBRANCH  58  72
BRANCH  59  83
ATOM     83  C   UNL A   1      46.932  30.849  27.830  1.00  0.00     0.023 A 
ATOM     84  C   UNL A   1      46.309  31.865  27.068  1.00  0.00     0.031 A 
ATOM     85  C   UNL A   1      48.272  31.078  28.212  1.00  0.00     0.131 A 
ATOM     86  C   UNL A   1      47.022  33.044  26.731  1.00  0.00     0.055 A 
ATOM     87  C   UNL A   1      48.967  32.244  27.883  1.00  0.00     0.041 A 
ATOM     88  F   UNL A   1      48.923  30.206  28.999  1.00  0.00    -0.206 F 
ATOM     89  C   UNL A   1      48.342  33.237  27.147  1.00  0.00     0.022 A 
BRANCH  86  90
ATOM     90  S   UNL A   1      46.224  34.393  25.789  1.00  0.00     0.124 S 
ATOM     91  O   UNL A   1      45.694  35.246  26.846  1.00  0.00    -0.237 OA
ATOM     92  O   UNL A   1      47.336  34.931  25.015  1.00  0.00    -0.237 OA
ATOM     93  O   UNL A   1      45.206  33.701  24.995  1.00  0.00    -0.744 OA
ENDBRANCH  86  90
ENDBRANCH  59  83
BRANCH  71  94
ATOM     94  C   UNL A   1      45.571  26.108  31.772  1.00  0.00     0.023 A 
ATOM     95  C   UNL A   1      44.443  26.781  32.303  1.00  0.00     0.031 A 
ATOM     96  C   UNL A   1      46.602  25.765  32.664  1.00  0.00     0.131 A 
ATOM     97  C   UNL A   1      44.392  27.091  33.678  1.00  0.00     0.055 A 
ATOM     98  C   UNL A   1      46.535  26.052  34.026  1.00  0.00     0.041 A 
ATOM     99  F   UNL A   1      47.689  25.111  32.226  1.00  0.00    -0.206 F 
ATOM    100  C   UNL A   1      45.432  26.722  34.538  1.00  0.00     0.022 A 
BRANCH  97 101
ATOM    101  S   UNL A   1      42.979  28.006  34.383  1.00  0.00     0.124 S 
ATOM    102  O   UNL A   1      42.915  29.216  33.571  1.00  0.00    -0.237 OA
ATOM    103  O   UNL A   1      41.874  27.066  34.216  1.00  0.00    -0.237 OA
ATOM    104  O   UNL A   1      43.378  28.229  35.775  1.00  0.00    -0.744 OA
ENDBRANCH  97 101
ENDBRANCH  71  94
ENDBRANCH  45  46
ENDBRANCH  37  40
ENDBRANCH  35  36
ENDBRANCH  34  35
ENDBRANCH   1  34
TORSDOF 18
ENDMDL
MODEL 2
REMARK VINA RESULT:     -13.2      1.493      1.764
REMARK SMILES CCn1ncc(NC(=O)[C@@H]2CCCC[C@@H]2C(=O)NCCCNC(=O)c2ccc(-c3c4nc(c(-c5cc(S(=O)(=O)[O-])ccc5F)c5ccc([nH]5)c(-c5cc(S(=O)(=O)[O-])ccc5F)c5nc(c(-c6cc(S(=O)(=O)[O-])ccc6F)c6ccc3[nH]6)C=C5)C=C4)cc2)c1C(=O)Nc1cnn(C)c1C
REMARK SMILES IDX 19 1 18 2 16 3 17 4 15 6 10 7 11 8 12 9 14 10 13 11 8 12
REMARK SMILES IDX 7 13 9 15 6 16 3 17 4 18 88 19 5 20 2 21 1 22 89 23 90 24
REMARK SMILES IDX 91 25 92 27 93 28 97 29 94 30 95 31 98 32 96 33 20 34 21 35
REMARK SMILES IDX 22 36 23 37 24 39 25 40 26 41 87 42 27 43 86 44 28 45 29 46
REMARK SMILES IDX 30 47 80 48 31 49 85 50 79 51 81 52 32 53 84 54 78 55 77 56
REMARK SMILES IDX 33 58 65 59 45 60 64 61 46 62 49 63 63 64 82 65 47 66 48 67
REMARK SMILES IDX 62 69 83 70 50 71 34 72 35 73 43 74 36 75 42 76 44 77 41 78
REMARK SMILES IDX 37 79 38 80 39 81 40 82 66 83 67 84 75 85 68 86 74 87 76 88
REMARK SMILES IDX 73 89 69 90 70 91 71 92 72 93 51 94 52 95 60 96 53 97 59 98
REMARK SMILES IDX 61 99 58 100 54 101 55 102 56 103 57 104
REMARK H PARENT 18 5 7 14 91 26 22 38 81 57 49 68
REMARK Flexibility Score: inf
ROOT
ATOM      1  C   UNL A   1      33.172  29.546  26.064  1.00  0.00     0.117 C 
ENDROOT
BRANCH   1   2
ATOM      2  N   UNL A   1      33.823  29.197  24.827  1.00  0.00    -0.356 N 
ATOM      3  C   UNL A   1      33.555  28.294  23.853  1.00  0.00     0.223 C 
ATOM      4  O   UNL A   1      34.293  28.352  22.861  1.00  0.00    -0.275 OA
ATOM      5  H   UNL A   1      34.634  29.726  24.652  1.00  0.00     0.163 HD
BRANCH   3   6
ATOM      6  C   UNL A   1      32.526  27.152  23.946  1.00  0.00     0.091 C 
ATOM      7  C   UNL A   1      32.003  26.374  22.734  1.00  0.00     0.091 C 
ATOM      8  C   UNL A   1      31.002  27.134  21.888  1.00  0.00     0.014 C 
ATOM      9  C   UNL A   1      29.914  27.818  22.705  1.00  0.00     0.001 C 
ATOM     10  C   UNL A   1      31.366  27.473  24.885  1.00  0.00     0.014 C 
ATOM     11  C   UNL A   1      30.046  27.873  24.231  1.00  0.00     0.001 C 
BRANCH   7  12
ATOM     12  C   UNL A   1      33.067  25.732  21.885  1.00  0.00     0.228 C 
ATOM     13  N   UNL A   1      33.629  24.542  22.244  1.00  0.00    -0.322 N 
ATOM     14  H   UNL A   1      34.363  24.277  21.645  1.00  0.00     0.170 HD
ATOM     15  O   UNL A   1      33.418  26.215  20.808  1.00  0.00    -0.274 OA
BRANCH  13  16
ATOM     16  C   UNL A   1      33.410  23.615  23.258  1.00  0.00     0.092 A 
ATOM     17  N   UNL A   1      32.976  22.413  25.039  1.00  0.00    -0.258 N 
ATOM     18  N   UNL A   1      32.341  21.759  24.051  1.00  0.00    -0.178 NA
ATOM     19  C   UNL A   1      33.771  23.463  24.609  1.00  0.00     0.150 A 
ATOM     20  C   UNL A   1      32.609  22.481  22.976  1.00  0.00     0.162 A 
BRANCH  17  21
ATOM     21  C   UNL A   1      32.780  21.873  26.366  1.00  0.00     0.142 C 
ATOM     22  C   UNL A   1      32.027  22.834  27.262  1.00  0.00     0.029 C 
ENDBRANCH  17  21
BRANCH  19  23
ATOM     23  C   UNL A   1      34.826  24.106  25.400  1.00  0.00     0.276 C 
ATOM     24  O   UNL A   1      34.913  25.329  25.502  1.00  0.00    -0.267 OA
ATOM     25  N   UNL A   1      35.588  23.318  26.255  1.00  0.00    -0.318 N 
ATOM     26  H   UNL A   1      35.263  23.200  27.177  1.00  0.00     0.170 HD
BRANCH  25  27
ATOM     27  C   UNL A   1      36.772  22.686  25.906  1.00  0.00     0.082 A 
ATOM     28  C   UNL A   1      36.952  21.527  25.127  1.00  0.00     0.161 A 
ATOM     29  C   UNL A   1      38.061  23.104  26.207  1.00  0.00     0.059 A 
ATOM     30  N   UNL A   1      38.210  21.089  25.163  1.00  0.00    -0.179 NA
ATOM     31  N   UNL A   1      38.840  22.004  25.922  1.00  0.00    -0.271 N 
ATOM     32  C   UNL A   1      38.652  24.319  26.828  1.00  0.00     0.068 C 
ATOM     33  C   UNL A   1      40.113  21.659  26.518  1.00  0.00     0.174 C 
ENDBRANCH  25  27
ENDBRANCH  19  23
ENDBRANCH  13  16
ENDBRANCH   7  12
ENDBRANCH   3   6
ENDBRANCH   1   2
BRANCH   1  34
ATOM     34  C   UNL A   1      33.815  28.966  27.322  1.00  0.00     0.042 C 
BRANCH  34  35
ATOM     35  C   UNL A   1      35.275  29.336  27.402  1.00  0.00     0.118 C 
BRANCH  35  36
ATOM     36  N   UNL A   1      35.603  30.028  28.656  1.00  0.00    -0.352 N 
ATOM     37  C   UNL A   1      36.695  29.787  29.483  1.00  0.00     0.251 C 
ATOM     38  H   UNL A   1      34.985  30.739  28.942  1.00  0.00     0.163 HD
ATOM     39  O   UNL A   1      36.711  30.148  30.638  1.00  0.00    -0.269 OA
BRANCH  37  40
ATOM     40  C   UNL A   1      37.820  29.060  28.867  1.00  0.00     0.039 A 
ATOM     41  C   UNL A   1      38.545  29.605  27.809  1.00  0.00     0.014 A 
ATOM     42  C   UNL A   1      38.265  27.937  29.556  1.00  0.00     0.014 A 
ATOM     43  C   UNL A   1      39.805  29.075  27.538  1.00  0.00     0.010 A 
ATOM     44  C   UNL A   1      39.580  27.573  29.426  1.00  0.00     0.010 A 
ATOM     45  C   UNL A   1      40.346  28.093  28.391  1.00  0.00    -0.014 A 
BRANCH  45  46
ATOM     46  C   UNL A   1      41.760  27.718  28.322  1.00  0.00     0.031 A 
ATOM     47  C   UNL A   1      42.016  26.491  27.517  1.00  0.00     0.074 A 
ATOM     48  C   UNL A   1      42.768  28.498  28.781  1.00  0.00     0.049 A 
ATOM     49  N   UNL A   1      42.239  25.303  27.968  1.00  0.00    -0.248 NA
ATOM     50  C   UNL A   1      41.782  26.527  26.062  1.00  0.00     0.031 C 
ATOM     51  C   UNL A   1      42.687  29.853  29.344  1.00  0.00     0.029 A 
ATOM     52  N   UNL A   1      44.114  28.276  28.770  1.00  0.00    -0.354 N 
ATOM     53  C   UNL A   1      42.480  24.509  26.852  1.00  0.00     0.074 A 
ATOM     54  C   UNL A   1      41.940  25.240  25.739  1.00  0.00     0.031 C 
ATOM     55  C   UNL A   1      43.916  30.410  29.404  1.00  0.00     0.029 A 
ATOM     56  C   UNL A   1      44.896  29.392  29.081  1.00  0.00     0.049 A 
ATOM     57  H   UNL A   1      44.505  27.397  28.559  1.00  0.00     0.167 HD
ATOM     58  C   UNL A   1      43.363  23.472  26.922  1.00  0.00     0.034 A 
ATOM     59  C   UNL A   1      46.254  29.482  29.125  1.00  0.00     0.034 A 
ATOM     60  C   UNL A   1      43.674  23.176  28.308  1.00  0.00     0.049 A 
ATOM     61  C   UNL A   1      46.751  28.103  29.313  1.00  0.00     0.074 A 
ATOM     62  C   UNL A   1      42.951  22.766  29.410  1.00  0.00     0.029 A 
ATOM     63  N   UNL A   1      44.846  23.706  28.799  1.00  0.00    -0.354 N 
ATOM     64  N   UNL A   1      46.517  27.406  30.392  1.00  0.00    -0.248 NA
ATOM     65  C   UNL A   1      47.078  27.319  28.133  1.00  0.00     0.031 C 
ATOM     66  C   UNL A   1      43.517  23.481  30.510  1.00  0.00     0.029 A 
ATOM     67  C   UNL A   1      44.614  24.214  30.052  1.00  0.00     0.049 A 
ATOM     68  H   UNL A   1      45.711  23.717  28.329  1.00  0.00     0.167 HD
ATOM     69  C   UNL A   1      46.218  26.132  29.936  1.00  0.00     0.074 A 
ATOM     70  C   UNL A   1      46.706  26.108  28.558  1.00  0.00     0.031 C 
ATOM     71  C   UNL A   1      45.353  25.329  30.627  1.00  0.00     0.034 A 
BRANCH  58  72
ATOM     72  C   UNL A   1      44.287  23.026  25.801  1.00  0.00     0.023 A 
ATOM     73  C   UNL A   1      44.376  21.638  25.566  1.00  0.00     0.031 A 
ATOM     74  C   UNL A   1      45.281  23.811  25.176  1.00  0.00     0.131 A 
ATOM     75  C   UNL A   1      45.469  21.085  24.876  1.00  0.00     0.055 A 
ATOM     76  C   UNL A   1      46.335  23.261  24.438  1.00  0.00     0.041 A 
ATOM     77  F   UNL A   1      45.349  25.140  25.303  1.00  0.00    -0.206 F 
ATOM     78  C   UNL A   1      46.456  21.888  24.316  1.00  0.00     0.022 A 
BRANCH  75  79
ATOM     79  S   UNL A   1      45.671  19.285  24.886  1.00  0.00     0.124 S 
ATOM     80  O   UNL A   1      45.630  18.980  23.461  1.00  0.00    -0.237 OA
ATOM     81  O   UNL A   1      46.965  19.134  25.544  1.00  0.00    -0.237 OA
ATOM     82  O   UNL A   1      44.521  18.821  25.658  1.00  0.00    -0.744 OA
ENDBRANCH  75  79
ENDBRANCH  58  72
BRANCH  59  83
ATOM     83  C   UNL A   1      47.112  30.620  28.685  1.00  0.00     0.023 A 
ATOM     84  C   UNL A   1      48.021  31.299  29.531  1.00  0.00     0.031 A 
ATOM     85  C   UNL A   1      47.219  30.886  27.301  1.00  0.00     0.131 A 
ATOM     86  C   UNL A   1      48.983  32.186  28.982  1.00  0.00     0.055 A 
ATOM     87  C   UNL A   1      48.172  31.755  26.766  1.00  0.00     0.041 A 
ATOM     88  F   UNL A   1      46.451  30.234  26.414  1.00  0.00    -0.206 F 
ATOM     89  C   UNL A   1      49.065  32.404  27.604  1.00  0.00     0.022 A 
BRANCH  86  90
ATOM     90  S   UNL A   1      50.199  33.037  30.048  1.00  0.00     0.124 S 
ATOM     91  O   UNL A   1      49.598  34.353  30.225  1.00  0.00    -0.237 OA
ATOM     92  O   UNL A   1      50.239  32.176  31.224  1.00  0.00    -0.237 OA
ATOM     93  O   UNL A   1      51.424  33.029  29.245  1.00  0.00    -0.744 OA
ENDBRANCH  86  90
ENDBRANCH  59  83
BRANCH  71  94
ATOM     94  C   UNL A   1      45.021  25.711  32.059  1.00  0.00     0.023 A 
ATOM     95  C   UNL A   1      43.885  26.447  32.477  1.00  0.00     0.031 A 
ATOM     96  C   UNL A   1      45.875  25.214  33.058  1.00  0.00     0.131 A 
ATOM     97  C   UNL A   1      43.654  26.665  33.851  1.00  0.00     0.055 A 
ATOM     98  C   UNL A   1      45.630  25.411  34.415  1.00  0.00     0.041 A 
ATOM     99  F   UNL A   1      46.959  24.492  32.728  1.00  0.00    -0.206 F 
ATOM    100  C   UNL A   1      44.521  26.143  34.817  1.00  0.00     0.022 A 
BRANCH  97 101
ATOM    101  S   UNL A   1      42.231  27.657  34.420  1.00  0.00     0.124 S 
ATOM    102  O   UNL A   1      42.692  28.225  35.681  1.00  0.00    -0.237 OA
ATOM    103  O   UNL A   1      42.045  28.603  33.323  1.00  0.00    -0.237 OA
ATOM    104  O   UNL A   1      41.159  26.668  34.554  1.00  0.00    -0.744 OA
ENDBRANCH  97 101
ENDBRANCH  71  94
ENDBRANCH  45  46
ENDBRANCH  37  40
ENDBRANCH  35  36
ENDBRANCH  34  35
ENDBRANCH   1  34
TORSDOF 18
ENDMDL
MODEL 3
REMARK VINA RESULT:     -13.0      1.569      2.540
REMARK SMILES CCn1ncc(NC(=O)[C@@H]2CCCC[C@@H]2C(=O)NCCCNC(=O)c2ccc(-c3c4nc(c(-c5cc(S(=O)(=O)[O-])ccc5F)c5ccc([nH]5)c(-c5cc(S(=O)(=O)[O-])ccc5F)c5nc(c(-c6cc(S(=O)(=O)[O-])ccc6F)c6ccc3[nH]6)C=C5)C=C4)cc2)c1C(=O)Nc1cnn(C)c1C
REMARK SMILES IDX 19 1 18 2 16 3 17 4 15 6 10 7 11 8 12 9 14 10 13 11 8 12
REMARK SMILES IDX 7 13 9 15 6 16 3 17 4 18 88 19 5 20 2 21 1 22 89 23 90 24
REMARK SMILES IDX 91 25 92 27 93 28 97 29 94 30 95 31 98 32 96 33 20 34 21 35
REMARK SMILES IDX 22 36 23 37 24 39 25 40 26 41 87 42 27 43 86 44 28 45 29 46
REMARK SMILES IDX 30 47 80 48 31 49 85 50 79 51 81 52 32 53 84 54 78 55 77 56
REMARK SMILES IDX 33 58 65 59 45 60 64 61 46 62 49 63 63 64 82 65 47 66 48 67
REMARK SMILES IDX 62 69 83 70 50 71 34 72 35 73 43 74 36 75 42 76 44 77 41 78
REMARK SMILES IDX 37 79 38 80 39 81 40 82 66 83 67 84 75 85 68 86 74 87 76 88
REMARK SMILES IDX 73 89 69 90 70 91 71 92 72 93 51 94 52 95 60 96 53 97 59 98
REMARK SMILES IDX 61 99 58 100 54 101 55 102 56 103 57 104
REMARK H PARENT 18 5 7 14 91 26 22 38 81 57 49 68
REMARK Flexibility Score: inf
ROOT
ATOM      1  C   UNL A   1      33.508  29.575  26.137  1.00  0.00     0.117 C 
ENDROOT
BRANCH   1   2
ATOM      2  N   UNL A   1      33.675  29.383  24.719  1.00  0.00    -0.356 N 
ATOM      3  C   UNL A   1      33.222  28.454  23.843  1.00  0.00     0.223 C 
ATOM      4  O   UNL A   1      33.487  28.675  22.654  1.00  0.00    -0.275 OA
ATOM      5  H   UNL A   1      34.237  30.072  24.296  1.00  0.00     0.163 HD
BRANCH   3   6
ATOM      6  C   UNL A   1      32.548  27.122  24.216  1.00  0.00     0.091 C 
ATOM      7  C   UNL A   1      32.128  26.060  23.193  1.00  0.00     0.091 C 
ATOM      8  C   UNL A   1      30.881  26.409  22.407  1.00  0.00     0.014 C 
ATOM      9  C   UNL A   1      29.740  26.919  23.278  1.00  0.00     0.001 C 
ATOM     10  C   UNL A   1      31.447  27.285  25.260  1.00  0.00     0.014 C 
ATOM     11  C   UNL A   1      30.007  27.240  24.753  1.00  0.00     0.001 C 
BRANCH   7  12
ATOM     12  C   UNL A   1      33.232  25.579  22.290  1.00  0.00     0.228 C 
ATOM     13  N   UNL A   1      34.179  24.708  22.741  1.00  0.00    -0.322 N 
ATOM     14  H   UNL A   1      34.882  24.539  22.074  1.00  0.00     0.170 HD
ATOM     15  O   UNL A   1      33.282  25.895  21.100  1.00  0.00    -0.274 OA
BRANCH  13  16
ATOM     16  C   UNL A   1      34.386  24.002  23.922  1.00  0.00     0.092 A 
ATOM     17  N   UNL A   1      34.695  22.621  25.595  1.00  0.00    -0.258 N 
ATOM     18  N   UNL A   1      35.665  23.538  25.756  1.00  0.00    -0.178 NA
ATOM     19  C   UNL A   1      33.786  22.920  24.593  1.00  0.00     0.150 A 
ATOM     20  C   UNL A   1      35.473  24.374  24.750  1.00  0.00     0.162 A 
BRANCH  17  21
ATOM     21  C   UNL A   1      34.720  21.520  26.533  1.00  0.00     0.142 C 
ATOM     22  C   UNL A   1      33.930  21.829  27.788  1.00  0.00     0.029 C 
ENDBRANCH  17  21
BRANCH  19  23
ATOM     23  C   UNL A   1      32.465  22.306  24.435  1.00  0.00     0.276 C 
ATOM     24  O   UNL A   1      31.435  22.864  24.810  1.00  0.00    -0.267 OA
ATOM     25  N   UNL A   1      32.347  21.186  23.619  1.00  0.00    -0.318 N 
ATOM     26  H   UNL A   1      32.156  21.335  22.665  1.00  0.00     0.170 HD
BRANCH  25  27
ATOM     27  C   UNL A   1      32.476  19.874  24.051  1.00  0.00     0.082 A 
ATOM     28  C   UNL A   1      32.518  19.385  25.371  1.00  0.00     0.161 A 
ATOM     29  C   UNL A   1      32.532  18.736  23.258  1.00  0.00     0.059 A 
ATOM     30  N   UNL A   1      32.852  18.095  25.417  1.00  0.00    -0.179 NA
ATOM     31  N   UNL A   1      32.967  17.753  24.120  1.00  0.00    -0.271 N 
ATOM     32  C   UNL A   1      32.359  18.458  21.807  1.00  0.00     0.068 C 
ATOM     33  C   UNL A   1      33.704  16.556  23.777  1.00  0.00     0.174 C 
ENDBRANCH  25  27
ENDBRANCH  19  23
ENDBRANCH  13  16
ENDBRANCH   7  12
ENDBRANCH   3   6
ENDBRANCH   1   2
BRANCH   1  34
ATOM     34  C   UNL A   1      34.729  30.135  26.865  1.00  0.00     0.042 C 
BRANCH  34  35
ATOM     35  C   UNL A   1      35.140  29.233  28.001  1.00  0.00     0.118 C 
BRANCH  35  36
ATOM     36  N   UNL A   1      35.615  29.992  29.167  1.00  0.00    -0.352 N 
ATOM     37  C   UNL A   1      36.797  29.789  29.871  1.00  0.00     0.251 C 
ATOM     38  H   UNL A   1      35.034  30.721  29.484  1.00  0.00     0.163 HD
ATOM     39  O   UNL A   1      36.949  30.214  30.994  1.00  0.00    -0.269 OA
BRANCH  37  40
ATOM     40  C   UNL A   1      37.841  29.022  29.168  1.00  0.00     0.039 A 
ATOM     41  C   UNL A   1      38.457  29.516  28.020  1.00  0.00     0.014 A 
ATOM     42  C   UNL A   1      38.341  27.917  29.849  1.00  0.00     0.014 A 
ATOM     43  C   UNL A   1      39.674  28.954  27.639  1.00  0.00     0.010 A 
ATOM     44  C   UNL A   1      39.631  27.526  29.595  1.00  0.00     0.010 A 
ATOM     45  C   UNL A   1      40.289  27.995  28.466  1.00  0.00    -0.014 A 
BRANCH  45  46
ATOM     46  C   UNL A   1      41.683  27.595  28.264  1.00  0.00     0.031 A 
ATOM     47  C   UNL A   1      41.837  26.344  27.469  1.00  0.00     0.074 A 
ATOM     48  C   UNL A   1      42.745  28.368  28.596  1.00  0.00     0.049 A 
ATOM     49  N   UNL A   1      42.088  25.163  27.926  1.00  0.00    -0.248 NA
ATOM     50  C   UNL A   1      41.456  26.348  26.045  1.00  0.00     0.031 C 
ATOM     51  C   UNL A   1      42.741  29.738  29.130  1.00  0.00     0.029 A 
ATOM     52  N   UNL A   1      44.079  28.123  28.454  1.00  0.00    -0.354 N 
ATOM     53  C   UNL A   1      42.202  24.339  26.812  1.00  0.00     0.074 A 
ATOM     54  C   UNL A   1      41.561  25.051  25.741  1.00  0.00     0.031 C 
ATOM     55  C   UNL A   1      43.978  30.275  29.049  1.00  0.00     0.029 A 
ATOM     56  C   UNL A   1      44.905  29.232  28.655  1.00  0.00     0.049 A 
ATOM     57  H   UNL A   1      44.433  27.232  28.227  1.00  0.00     0.167 HD
ATOM     58  C   UNL A   1      43.072  23.289  26.819  1.00  0.00     0.034 A 
ATOM     59  C   UNL A   1      46.261  29.300  28.558  1.00  0.00     0.034 A 
ATOM     60  C   UNL A   1      43.519  23.021  28.173  1.00  0.00     0.049 A 
ATOM     61  C   UNL A   1      46.755  27.917  28.730  1.00  0.00     0.074 A 
ATOM     62  C   UNL A   1      42.907  22.651  29.354  1.00  0.00     0.029 A 
ATOM     63  N   UNL A   1      44.743  23.542  28.528  1.00  0.00    -0.354 N 
ATOM     64  N   UNL A   1      46.623  27.252  29.845  1.00  0.00    -0.248 NA
ATOM     65  C   UNL A   1      46.947  27.099  27.543  1.00  0.00     0.031 C 
ATOM     66  C   UNL A   1      43.592  23.383  30.371  1.00  0.00     0.029 A 
ATOM     67  C   UNL A   1      44.648  24.086  29.784  1.00  0.00     0.049 A 
ATOM     68  H   UNL A   1      45.555  23.528  27.972  1.00  0.00     0.167 HD
ATOM     69  C   UNL A   1      46.260  25.972  29.456  1.00  0.00     0.074 A 
ATOM     70  C   UNL A   1      46.603  25.906  28.036  1.00  0.00     0.031 C 
ATOM     71  C   UNL A   1      45.458  25.201  30.251  1.00  0.00     0.034 A 
BRANCH  58  72
ATOM     72  C   UNL A   1      43.869  22.799  25.621  1.00  0.00     0.023 A 
ATOM     73  C   UNL A   1      43.897  21.406  25.402  1.00  0.00     0.031 A 
ATOM     74  C   UNL A   1      44.820  23.546  24.890  1.00  0.00     0.131 A 
ATOM     75  C   UNL A   1      44.901  20.811  24.619  1.00  0.00     0.055 A 
ATOM     76  C   UNL A   1      45.782  22.953  24.063  1.00  0.00     0.041 A 
ATOM     77  F   UNL A   1      44.938  24.873  24.987  1.00  0.00    -0.206 F 
ATOM     78  C   UNL A   1      45.851  21.576  23.953  1.00  0.00     0.022 A 
BRANCH  75  79
ATOM     79  S   UNL A   1      45.052  19.006  24.641  1.00  0.00     0.124 S 
ATOM     80  O   UNL A   1      43.899  18.628  25.450  1.00  0.00    -0.237 OA
ATOM     81  O   UNL A   1      44.980  18.683  23.220  1.00  0.00    -0.237 OA
ATOM     82  O   UNL A   1      46.354  18.785  25.266  1.00  0.00    -0.744 OA
ENDBRANCH  75  79
ENDBRANCH  58  72
BRANCH  59  83
ATOM     83  C   UNL A   1      47.087  30.412  28.003  1.00  0.00     0.023 A 
ATOM     84  C   UNL A   1      46.557  31.506  27.280  1.00  0.00     0.031 A 
ATOM     85  C   UNL A   1      48.431  30.524  28.422  1.00  0.00     0.131 A 
ATOM     86  C   UNL A   1      47.361  32.645  27.015  1.00  0.00     0.055 A 
ATOM     87  C   UNL A   1      49.216  31.651  28.164  1.00  0.00     0.041 A 
ATOM     88  F   UNL A   1      48.999  29.571  29.178  1.00  0.00    -0.206 F 
ATOM     89  C   UNL A   1      48.682  32.721  27.466  1.00  0.00     0.022 A 
BRANCH  86  90
ATOM     90  S   UNL A   1      46.685  34.092  26.126  1.00  0.00     0.124 S 
ATOM     91  O   UNL A   1      45.575  33.513  25.378  1.00  0.00    -0.237 OA
ATOM     92  O   UNL A   1      46.335  34.993  27.217  1.00  0.00    -0.237 OA
ATOM     93  O   UNL A   1      47.808  34.542  25.300  1.00  0.00    -0.744 OA
ENDBRANCH  86  90
ENDBRANCH  59  83
BRANCH  71  94
ATOM     94  C   UNL A   1      45.280  25.624  31.700  1.00  0.00     0.023 A 
ATOM     95  C   UNL A   1      46.191  25.368  32.754  1.00  0.00     0.031 A 
ATOM     96  C   UNL A   1      44.151  26.408  31.993  1.00  0.00     0.131 A 
ATOM     97  C   UNL A   1      45.940  25.888  34.041  1.00  0.00     0.055 A 
ATOM     98  C   UNL A   1      43.920  26.939  33.260  1.00  0.00     0.041 A 
ATOM     99  F   UNL A   1      43.259  26.701  31.032  1.00  0.00    -0.206 F 
ATOM    100  C   UNL A   1      44.812  26.676  34.292  1.00  0.00     0.022 A 
BRANCH  97 101
ATOM    101  S   UNL A   1      47.064  25.530  35.434  1.00  0.00     0.124 S 
ATOM    102  O   UNL A   1      47.967  26.675  35.448  1.00  0.00    -0.237 OA
ATOM    103  O   UNL A   1      46.147  25.425  36.565  1.00  0.00    -0.237 OA
ATOM    104  O   UNL A   1      47.693  24.265  35.047  1.00  0.00    -0.744 OA
ENDBRANCH  97 101
ENDBRANCH  71  94
ENDBRANCH  45  46
ENDBRANCH  37  40
ENDBRANCH  35  36
ENDBRANCH  34  35
ENDBRANCH   1  34
TORSDOF 18
ENDMDL
