MODEL 1
REMARK VINA RESULT:     -12.4      0.000      0.000
REMARK SMILES COc1ccc(C(=O)C2=C(NCCCNC(=O)c3ccc(-c4c5nc(c(-c6cc(S(=O)(=O)[O-])ccc6F)c6ccc([nH]6)c(-c6cc(S(=O)(=O)[O-])ccc6F)c6nc(c(-c7cc(S(=O)(=O)[O-])ccc7F)c7ccc4[nH]7)C=C6)C=C5)cc3)C(=O)N(CC(=O)[O-])[C@H]2c2ccccc2)cc1
REMARK SMILES IDX 13 1 12 2 11 3 10 5 9 6 88 7 81 8 83 9 82 10 7 11 8 12 6 13
REMARK SMILES IDX 3 14 4 15 96 16 5 17 95 18 2 19 1 20 89 21 90 22 94 23 91 24
REMARK SMILES IDX 93 25 92 26 84 27 85 28 86 29 87 30 14 31 15 32 16 33 17 35
REMARK SMILES IDX 18 36 19 37 80 38 20 39 79 40 21 41 22 42 23 43 73 44 24 45
REMARK SMILES IDX 78 46 72 47 74 48 25 49 77 50 71 51 70 52 26 54 58 55 38 56
REMARK SMILES IDX 57 57 39 58 42 59 56 60 75 61 40 62 41 63 55 65 76 66 43 67
REMARK SMILES IDX 27 68 28 69 36 70 29 71 35 72 37 73 34 74 30 75 31 76 32 77
REMARK SMILES IDX 33 78 59 79 60 80 68 81 61 82 67 83 69 84 66 85 62 86 63 87
REMARK SMILES IDX 64 88 65 89 44 90 45 91 53 92 46 93 52 94 54 95 51 96 47 97
REMARK SMILES IDX 48 98 49 99 50 100
REMARK H PARENT 11 4 15 34 74 53 42 64
REMARK Flexibility Score: inf
ROOT
ATOM      1  C   UNL A   1      31.835  29.259  27.191  1.00  0.00     0.042 C 
ENDROOT
BRANCH   1   2
ATOM      2  C   UNL A   1      31.620  27.818  27.637  1.00  0.00     0.115 C 
BRANCH   2   3
ATOM      3  N   UNL A   1      31.168  27.008  26.528  1.00  0.00    -0.380 N 
ATOM      4  H   UNL A   1      30.190  26.967  26.413  1.00  0.00     0.160 HD
BRANCH   3   5
ATOM      5  C   UNL A   1      31.888  26.287  25.612  1.00  0.00     0.110 C 
ATOM      6  C   UNL A   1      32.261  25.012  25.446  1.00  0.00     0.056 C 
ATOM      7  C   UNL A   1      32.969  24.734  24.151  1.00  0.00     0.153 C 
ATOM      8  C   UNL A   1      32.398  26.988  24.383  1.00  0.00     0.271 C 
ATOM      9  N   UNL A   1      32.983  26.053  23.569  1.00  0.00    -0.320 N 
ATOM     10  O   UNL A   1      32.273  28.183  24.167  1.00  0.00    -0.267 OA
BRANCH   6  11
ATOM     11  C   UNL A   1      31.839  23.903  26.314  1.00  0.00     0.193 C 
ATOM     12  O   UNL A   1      31.060  24.131  27.237  1.00  0.00    -0.289 OA
BRANCH  11  13
ATOM     13  C   UNL A   1      32.298  22.510  26.034  1.00  0.00     0.023 A 
ATOM     14  C   UNL A   1      33.275  19.984  25.239  1.00  0.00     0.118 A 
ATOM     15  C   UNL A   1      32.187  20.564  24.583  1.00  0.00     0.047 A 
ATOM     16  C   UNL A   1      33.839  20.648  26.325  1.00  0.00     0.047 A 
ATOM     17  C   UNL A   1      31.704  21.819  24.971  1.00  0.00     0.016 A 
ATOM     18  C   UNL A   1      33.332  21.889  26.738  1.00  0.00     0.016 A 
BRANCH  14  19
ATOM     19  O   UNL A   1      33.693  18.791  24.719  1.00  0.00    -0.497 OA
ATOM     20  C   UNL A   1      33.096  17.613  25.251  1.00  0.00     0.278 C 
ENDBRANCH  14  19
ENDBRANCH  11  13
ENDBRANCH   6  11
BRANCH   7  21
ATOM     21  C   UNL A   1      34.373  24.177  24.319  1.00  0.00    -0.021 A 
ATOM     22  C   UNL A   1      35.205  24.577  25.384  1.00  0.00     0.006 A 
ATOM     23  C   UNL A   1      34.855  23.211  23.423  1.00  0.00     0.006 A 
ATOM     24  C   UNL A   1      36.471  24.017  25.555  1.00  0.00     0.000 A 
ATOM     25  C   UNL A   1      36.129  22.662  23.590  1.00  0.00     0.000 A 
ATOM     26  C   UNL A   1      36.932  23.060  24.657  1.00  0.00     0.000 A 
ENDBRANCH   7  21
BRANCH   9  27
ATOM     27  C   UNL A   1      33.519  26.365  22.252  1.00  0.00     0.173 C 
BRANCH  27  28
ATOM     28  C   UNL A   1      32.691  25.850  21.086  1.00  0.00     0.061 C 
ATOM     29  O   UNL A   1      33.103  25.106  20.206  1.00  0.00    -0.548 OA
ATOM     30  O   UNL A   1      31.395  26.217  21.101  1.00  0.00    -0.548 OA
ENDBRANCH  27  28
ENDBRANCH   9  27
ENDBRANCH   3   5
ENDBRANCH   2   3
ENDBRANCH   1   2
BRANCH   1  31
ATOM     31  C   UNL A   1      33.296  29.700  27.175  1.00  0.00     0.118 C 
BRANCH  31  32
ATOM     32  N   UNL A   1      33.467  31.109  27.502  1.00  0.00    -0.352 N 
ATOM     33  C   UNL A   1      34.461  31.747  28.206  1.00  0.00     0.251 C 
ATOM     34  H   UNL A   1      32.755  31.701  27.165  1.00  0.00     0.163 HD
ATOM     35  O   UNL A   1      34.307  32.924  28.522  1.00  0.00    -0.269 OA
BRANCH  33  36
ATOM     36  C   UNL A   1      35.693  31.029  28.604  1.00  0.00     0.039 A 
ATOM     37  C   UNL A   1      36.912  31.424  28.045  1.00  0.00     0.014 A 
ATOM     38  C   UNL A   1      35.657  29.956  29.499  1.00  0.00     0.014 A 
ATOM     39  C   UNL A   1      38.097  30.795  28.438  1.00  0.00     0.010 A 
ATOM     40  C   UNL A   1      36.845  29.382  29.949  1.00  0.00     0.010 A 
ATOM     41  C   UNL A   1      38.080  29.797  29.426  1.00  0.00    -0.014 A 
BRANCH  41  42
ATOM     42  C   UNL A   1      39.342  29.190  29.931  1.00  0.00     0.031 A 
ATOM     43  C   UNL A   1      40.056  29.788  31.114  1.00  0.00     0.074 A 
ATOM     44  C   UNL A   1      39.878  28.136  29.281  1.00  0.00     0.049 A 
ATOM     45  N   UNL A   1      41.199  29.445  31.652  1.00  0.00    -0.248 NA
ATOM     46  C   UNL A   1      39.412  30.942  31.760  1.00  0.00     0.031 C 
ATOM     47  C   UNL A   1      39.306  27.495  28.096  1.00  0.00     0.029 A 
ATOM     48  N   UNL A   1      41.027  27.422  29.518  1.00  0.00    -0.354 N 
ATOM     49  C   UNL A   1      41.420  30.348  32.688  1.00  0.00     0.074 A 
ATOM     50  C   UNL A   1      40.318  31.286  32.664  1.00  0.00     0.031 C 
ATOM     51  C   UNL A   1      40.091  26.471  27.725  1.00  0.00     0.029 A 
ATOM     52  C   UNL A   1      41.246  26.409  28.613  1.00  0.00     0.049 A 
ATOM     53  H   UNL A   1      41.638  27.616  30.266  1.00  0.00     0.167 HD
ATOM     54  C   UNL A   1      42.436  30.378  33.586  1.00  0.00     0.034 A 
ATOM     55  C   UNL A   1      42.268  25.535  28.501  1.00  0.00     0.034 A 
ATOM     56  C   UNL A   1      43.518  29.423  33.608  1.00  0.00     0.049 A 
ATOM     57  C   UNL A   1      43.390  25.596  29.507  1.00  0.00     0.074 A 
ATOM     58  C   UNL A   1      44.562  29.326  34.512  1.00  0.00     0.029 A 
ATOM     59  N   UNL A   1      43.702  28.404  32.681  1.00  0.00    -0.354 N 
ATOM     60  N   UNL A   1      43.553  26.423  30.513  1.00  0.00    -0.248 NA
ATOM     61  C   UNL A   1      44.458  24.598  29.368  1.00  0.00     0.031 C 
ATOM     62  C   UNL A   1      45.411  28.294  34.094  1.00  0.00     0.029 A 
ATOM     63  C   UNL A   1      44.857  27.696  32.974  1.00  0.00     0.049 A 
ATOM     64  H   UNL A   1      43.099  28.214  31.926  1.00  0.00     0.167 HD
ATOM     65  C   UNL A   1      44.727  26.022  31.146  1.00  0.00     0.074 A 
ATOM     66  C   UNL A   1      45.220  24.872  30.418  1.00  0.00     0.031 C 
ATOM     67  C   UNL A   1      45.342  26.555  32.233  1.00  0.00     0.034 A 
BRANCH  54  68
ATOM     68  C   UNL A   1      42.434  31.493  34.605  1.00  0.00     0.023 A 
ATOM     69  C   UNL A   1      41.501  31.533  35.657  1.00  0.00     0.031 A 
ATOM     70  C   UNL A   1      43.374  32.535  34.520  1.00  0.00     0.131 A 
ATOM     71  C   UNL A   1      41.485  32.625  36.538  1.00  0.00     0.055 A 
ATOM     72  C   UNL A   1      43.403  33.579  35.448  1.00  0.00     0.041 A 
ATOM     73  F   UNL A   1      44.278  32.562  33.528  1.00  0.00    -0.206 F 
ATOM     74  C   UNL A   1      42.446  33.636  36.457  1.00  0.00     0.022 A 
BRANCH  71  75
ATOM     75  S   UNL A   1      40.111  32.770  37.713  1.00  0.00     0.124 S 
ATOM     76  O   UNL A   1      39.252  31.664  37.299  1.00  0.00    -0.237 OA
ATOM     77  O   UNL A   1      40.778  32.615  39.000  1.00  0.00    -0.237 OA
ATOM     78  O   UNL A   1      39.572  34.103  37.446  1.00  0.00    -0.744 OA
ENDBRANCH  71  75
ENDBRANCH  54  68
BRANCH  55  79
ATOM     79  C   UNL A   1      42.294  24.536  27.394  1.00  0.00     0.023 A 
ATOM     80  C   UNL A   1      41.534  23.357  27.464  1.00  0.00     0.031 A 
ATOM     81  C   UNL A   1      43.122  24.720  26.272  1.00  0.00     0.131 A 
ATOM     82  C   UNL A   1      41.656  22.385  26.460  1.00  0.00     0.055 A 
ATOM     83  C   UNL A   1      43.195  23.776  25.246  1.00  0.00     0.041 A 
ATOM     84  F   UNL A   1      43.866  25.830  26.152  1.00  0.00    -0.206 F 
ATOM     85  C   UNL A   1      42.471  22.591  25.345  1.00  0.00     0.022 A 
BRANCH  82  86
ATOM     86  S   UNL A   1      40.807  20.797  26.681  1.00  0.00     0.124 S 
ATOM     87  O   UNL A   1      41.667  19.893  25.927  1.00  0.00    -0.237 OA
ATOM     88  O   UNL A   1      40.828  20.643  28.132  1.00  0.00    -0.237 OA
ATOM     89  O   UNL A   1      39.487  21.034  26.100  1.00  0.00    -0.744 OA
ENDBRANCH  82  86
ENDBRANCH  55  79
BRANCH  67  90
ATOM     90  C   UNL A   1      46.592  25.863  32.720  1.00  0.00     0.023 A 
ATOM     91  C   UNL A   1      47.844  26.087  32.122  1.00  0.00     0.031 A 
ATOM     92  C   UNL A   1      46.523  24.952  33.789  1.00  0.00     0.131 A 
ATOM     93  C   UNL A   1      48.965  25.365  32.556  1.00  0.00     0.055 A 
ATOM     94  C   UNL A   1      47.653  24.282  34.258  1.00  0.00     0.041 A 
ATOM     95  F   UNL A   1      45.353  24.697  34.396  1.00  0.00    -0.206 F 
ATOM     96  C   UNL A   1      48.882  24.477  33.632  1.00  0.00     0.022 A 
BRANCH  93  97
ATOM     97  S   UNL A   1      50.519  25.532  31.636  1.00  0.00     0.124 S 
ATOM     98  O   UNL A   1      50.085  25.298  30.262  1.00  0.00    -0.237 OA
ATOM     99  O   UNL A   1      50.925  26.898  31.952  1.00  0.00    -0.237 OA
ATOM    100  O   UNL A   1      51.369  24.487  32.204  1.00  0.00    -0.744 OA
ENDBRANCH  93  97
ENDBRANCH  67  90
ENDBRANCH  41  42
ENDBRANCH  33  36
ENDBRANCH  31  32
ENDBRANCH   1  31
TORSDOF 19
ENDMDL
MODEL 2
REMARK VINA RESULT:     -11.6      1.812      2.233
REMARK SMILES COc1ccc(C(=O)C2=C(NCCCNC(=O)c3ccc(-c4c5nc(c(-c6cc(S(=O)(=O)[O-])ccc6F)c6ccc([nH]6)c(-c6cc(S(=O)(=O)[O-])ccc6F)c6nc(c(-c7cc(S(=O)(=O)[O-])ccc7F)c7ccc4[nH]7)C=C6)C=C5)cc3)C(=O)N(CC(=O)[O-])[C@H]2c2ccccc2)cc1
REMARK SMILES IDX 13 1 12 2 11 3 10 5 9 6 88 7 81 8 83 9 82 10 7 11 8 12 6 13
REMARK SMILES IDX 3 14 4 15 96 16 5 17 95 18 2 19 1 20 89 21 90 22 94 23 91 24
REMARK SMILES IDX 93 25 92 26 84 27 85 28 86 29 87 30 14 31 15 32 16 33 17 35
REMARK SMILES IDX 18 36 19 37 80 38 20 39 79 40 21 41 22 42 23 43 73 44 24 45
REMARK SMILES IDX 78 46 72 47 74 48 25 49 77 50 71 51 70 52 26 54 58 55 38 56
REMARK SMILES IDX 57 57 39 58 42 59 56 60 75 61 40 62 41 63 55 65 76 66 43 67
REMARK SMILES IDX 27 68 28 69 36 70 29 71 35 72 37 73 34 74 30 75 31 76 32 77
REMARK SMILES IDX 33 78 59 79 60 80 68 81 61 82 67 83 69 84 66 85 62 86 63 87
REMARK SMILES IDX 64 88 65 89 44 90 45 91 53 92 46 93 52 94 54 95 51 96 47 97
REMARK SMILES IDX 48 98 49 99 50 100
REMARK H PARENT 11 4 15 34 74 53 42 64
REMARK Flexibility Score: inf
ROOT
ATOM      1  C   UNL A   1      32.465  29.779  27.060  1.00  0.00     0.042 C 
ENDROOT
BRANCH   1   2
ATOM      2  C   UNL A   1      32.456  28.326  27.519  1.00  0.00     0.115 C 
BRANCH   2   3
ATOM      3  N   UNL A   1      31.793  27.491  26.542  1.00  0.00    -0.380 N 
ATOM      4  H   UNL A   1      30.809  27.511  26.576  1.00  0.00     0.160 HD
BRANCH   3   5
ATOM      5  C   UNL A   1      32.321  26.674  25.577  1.00  0.00     0.110 C 
ATOM      6  C   UNL A   1      32.518  25.362  25.406  1.00  0.00     0.056 C 
ATOM      7  C   UNL A   1      33.048  24.981  24.054  1.00  0.00     0.153 C 
ATOM      8  C   UNL A   1      32.782  27.291  24.285  1.00  0.00     0.271 C 
ATOM      9  N   UNL A   1      33.161  26.281  23.439  1.00  0.00    -0.320 N 
ATOM     10  O   UNL A   1      32.782  28.490  24.052  1.00  0.00    -0.267 OA
BRANCH   6  11
ATOM     11  C   UNL A   1      32.056  24.324  26.341  1.00  0.00     0.193 C 
ATOM     12  O   UNL A   1      31.354  24.651  27.296  1.00  0.00    -0.289 OA
BRANCH  11  13
ATOM     13  C   UNL A   1      32.383  22.889  26.094  1.00  0.00     0.023 A 
ATOM     14  C   UNL A   1      32.881  20.117  25.904  1.00  0.00     0.118 A 
ATOM     15  C   UNL A   1      33.596  20.907  26.807  1.00  0.00     0.047 A 
ATOM     16  C   UNL A   1      31.955  20.726  25.061  1.00  0.00     0.047 A 
ATOM     17  C   UNL A   1      33.346  22.280  26.908  1.00  0.00     0.016 A 
ATOM     18  C   UNL A   1      31.731  22.108  25.136  1.00  0.00     0.016 A 
BRANCH  14  19
ATOM     19  O   UNL A   1      33.168  18.782  25.952  1.00  0.00    -0.497 OA
ATOM     20  C   UNL A   1      32.536  17.952  24.984  1.00  0.00     0.278 C 
ENDBRANCH  14  19
ENDBRANCH  11  13
ENDBRANCH   6  11
BRANCH   7  21
ATOM     21  C   UNL A   1      34.384  24.257  24.093  1.00  0.00    -0.021 A 
ATOM     22  C   UNL A   1      34.726  23.285  23.131  1.00  0.00     0.006 A 
ATOM     23  C   UNL A   1      35.327  24.579  25.080  1.00  0.00     0.006 A 
ATOM     24  C   UNL A   1      35.977  22.668  23.149  1.00  0.00     0.000 A 
ATOM     25  C   UNL A   1      36.574  23.949  25.102  1.00  0.00     0.000 A 
ATOM     26  C   UNL A   1      36.900  23.000  24.134  1.00  0.00     0.000 A 
ENDBRANCH   7  21
BRANCH   9  27
ATOM     27  C   UNL A   1      33.592  26.507  22.068  1.00  0.00     0.173 C 
BRANCH  27  28
ATOM     28  C   UNL A   1      32.599  26.064  21.005  1.00  0.00     0.061 C 
ATOM     29  O   UNL A   1      31.385  26.190  21.082  1.00  0.00    -0.548 OA
ATOM     30  O   UNL A   1      33.151  25.560  19.884  1.00  0.00    -0.548 OA
ENDBRANCH  27  28
ENDBRANCH   9  27
ENDBRANCH   3   5
ENDBRANCH   2   3
ENDBRANCH   1   2
BRANCH   1  31
ATOM     31  C   UNL A   1      33.831  30.454  27.140  1.00  0.00     0.118 C 
BRANCH  31  32
ATOM     32  N   UNL A   1      33.817  31.669  27.942  1.00  0.00    -0.352 N 
ATOM     33  C   UNL A   1      34.646  32.075  28.962  1.00  0.00     0.251 C 
ATOM     34  H   UNL A   1      33.098  32.304  27.719  1.00  0.00     0.163 HD
ATOM     35  O   UNL A   1      34.335  33.060  29.627  1.00  0.00    -0.269 OA
BRANCH  33  36
ATOM     36  C   UNL A   1      35.883  31.327  29.280  1.00  0.00     0.039 A 
ATOM     37  C   UNL A   1      37.089  31.750  28.710  1.00  0.00     0.014 A 
ATOM     38  C   UNL A   1      35.866  30.201  30.107  1.00  0.00     0.014 A 
ATOM     39  C   UNL A   1      38.280  31.093  29.030  1.00  0.00     0.010 A 
ATOM     40  C   UNL A   1      37.063  29.596  30.487  1.00  0.00     0.010 A 
ATOM     41  C   UNL A   1      38.286  30.036  29.955  1.00  0.00    -0.014 A 
BRANCH  41  42
ATOM     42  C   UNL A   1      39.557  29.393  30.384  1.00  0.00     0.031 A 
ATOM     43  C   UNL A   1      40.317  29.925  31.570  1.00  0.00     0.074 A 
ATOM     44  C   UNL A   1      40.059  28.367  29.665  1.00  0.00     0.049 A 
ATOM     45  N   UNL A   1      41.475  29.544  32.050  1.00  0.00    -0.248 NA
ATOM     46  C   UNL A   1      39.709  31.051  32.295  1.00  0.00     0.031 C 
ATOM     47  C   UNL A   1      39.439  27.792  28.470  1.00  0.00     0.029 A 
ATOM     48  N   UNL A   1      41.208  27.633  29.826  1.00  0.00    -0.354 N 
ATOM     49  C   UNL A   1      41.741  30.392  33.121  1.00  0.00     0.074 A 
ATOM     50  C   UNL A   1      40.649  31.340  33.183  1.00  0.00     0.031 C 
ATOM     51  C   UNL A   1      40.200  26.781  28.021  1.00  0.00     0.029 A 
ATOM     52  C   UNL A   1      41.385  26.664  28.865  1.00  0.00     0.049 A 
ATOM     53  H   UNL A   1      41.846  27.784  30.561  1.00  0.00     0.167 HD
ATOM     54  C   UNL A   1      42.787  30.368  33.984  1.00  0.00     0.034 A 
ATOM     55  C   UNL A   1      42.392  25.788  28.674  1.00  0.00     0.034 A 
ATOM     56  C   UNL A   1      43.859  29.404  33.921  1.00  0.00     0.049 A 
ATOM     57  C   UNL A   1      43.549  25.788  29.642  1.00  0.00     0.074 A 
ATOM     58  C   UNL A   1      44.933  29.252  34.782  1.00  0.00     0.029 A 
ATOM     59  N   UNL A   1      44.000  28.431  32.939  1.00  0.00    -0.354 N 
ATOM     60  N   UNL A   1      43.756  26.562  30.682  1.00  0.00    -0.248 NA
ATOM     61  C   UNL A   1      44.601  24.788  29.416  1.00  0.00     0.031 C 
ATOM     62  C   UNL A   1      45.755  28.235  34.284  1.00  0.00     0.029 A 
ATOM     63  C   UNL A   1      45.157  27.698  33.156  1.00  0.00     0.049 A 
ATOM     64  H   UNL A   1      43.370  28.284  32.197  1.00  0.00     0.167 HD
ATOM     65  C   UNL A   1      44.946  26.119  31.252  1.00  0.00     0.074 A 
ATOM     66  C   UNL A   1      45.401  25.003  30.451  1.00  0.00     0.031 C 
ATOM     67  C   UNL A   1      45.604  26.591  32.342  1.00  0.00     0.034 A 
BRANCH  54  68
ATOM     68  C   UNL A   1      42.832  31.431  35.057  1.00  0.00     0.023 A 
ATOM     69  C   UNL A   1      43.421  32.688  34.829  1.00  0.00     0.031 A 
ATOM     70  C   UNL A   1      42.284  31.183  36.327  1.00  0.00     0.131 A 
ATOM     71  C   UNL A   1      43.510  33.620  35.874  1.00  0.00     0.055 A 
ATOM     72  C   UNL A   1      42.306  32.144  37.340  1.00  0.00     0.041 A 
ATOM     73  F   UNL A   1      41.725  29.996  36.611  1.00  0.00    -0.206 F 
ATOM     74  C   UNL A   1      42.933  33.367  37.121  1.00  0.00     0.022 A 
BRANCH  71  75
ATOM     75  S   UNL A   1      44.503  35.116  35.619  1.00  0.00     0.124 S 
ATOM     76  O   UNL A   1      45.796  34.708  36.163  1.00  0.00    -0.237 OA
ATOM     77  O   UNL A   1      44.444  35.291  34.173  1.00  0.00    -0.237 OA
ATOM     78  O   UNL A   1      43.799  36.132  36.400  1.00  0.00    -0.744 OA
ENDBRANCH  71  75
ENDBRANCH  54  68
BRANCH  55  79
ATOM     79  C   UNL A   1      42.370  24.845  27.518  1.00  0.00     0.023 A 
ATOM     80  C   UNL A   1      41.608  23.666  27.560  1.00  0.00     0.031 A 
ATOM     81  C   UNL A   1      43.153  25.083  26.374  1.00  0.00     0.131 A 
ATOM     82  C   UNL A   1      41.684  22.745  26.504  1.00  0.00     0.055 A 
ATOM     83  C   UNL A   1      43.181  24.190  25.301  1.00  0.00     0.041 A 
ATOM     84  F   UNL A   1      43.898  26.195  26.280  1.00  0.00    -0.206 F 
ATOM     85  C   UNL A   1      42.456  23.005  25.369  1.00  0.00     0.022 A 
BRANCH  82  86
ATOM     86  S   UNL A   1      40.837  21.151  26.680  1.00  0.00     0.124 S 
ATOM     87  O   UNL A   1      40.681  21.056  28.127  1.00  0.00    -0.237 OA
ATOM     88  O   UNL A   1      39.614  21.373  25.916  1.00  0.00    -0.237 OA
ATOM     89  O   UNL A   1      41.776  20.200  26.088  1.00  0.00    -0.744 OA
ENDBRANCH  82  86
ENDBRANCH  55  79
BRANCH  67  90
ATOM     90  C   UNL A   1      46.862  25.865  32.751  1.00  0.00     0.023 A 
ATOM     91  C   UNL A   1      46.842  24.821  33.693  1.00  0.00     0.031 A 
ATOM     92  C   UNL A   1      48.102  26.235  32.201  1.00  0.00     0.131 A 
ATOM     93  C   UNL A   1      48.044  24.226  34.101  1.00  0.00     0.055 A 
ATOM     94  C   UNL A   1      49.288  25.597  32.565  1.00  0.00     0.041 A 
ATOM     95  F   UNL A   1      48.181  27.227  31.298  1.00  0.00    -0.206 F 
ATOM     96  C   UNL A   1      49.266  24.594  33.530  1.00  0.00     0.022 A 
BRANCH  93  97
ATOM     97  S   UNL A   1      48.004  23.023  35.459  1.00  0.00     0.124 S 
ATOM     98  O   UNL A   1      48.032  21.753  34.741  1.00  0.00    -0.237 OA
ATOM     99  O   UNL A   1      49.211  23.358  36.209  1.00  0.00    -0.237 OA
ATOM    100  O   UNL A   1      46.748  23.321  36.145  1.00  0.00    -0.744 OA
ENDBRANCH  93  97
ENDBRANCH  67  90
ENDBRANCH  41  42
ENDBRANCH  33  36
ENDBRANCH  31  32
ENDBRANCH   1  31
TORSDOF 19
ENDMDL
MODEL 3
REMARK VINA RESULT:     -11.6      3.616      8.651
REMARK SMILES COc1ccc(C(=O)C2=C(NCCCNC(=O)c3ccc(-c4c5nc(c(-c6cc(S(=O)(=O)[O-])ccc6F)c6ccc([nH]6)c(-c6cc(S(=O)(=O)[O-])ccc6F)c6nc(c(-c7cc(S(=O)(=O)[O-])ccc7F)c7ccc4[nH]7)C=C6)C=C5)cc3)C(=O)N(CC(=O)[O-])[C@H]2c2ccccc2)cc1
REMARK SMILES IDX 13 1 12 2 11 3 10 5 9 6 88 7 81 8 83 9 82 10 7 11 8 12 6 13
REMARK SMILES IDX 3 14 4 15 96 16 5 17 95 18 2 19 1 20 89 21 90 22 94 23 91 24
REMARK SMILES IDX 93 25 92 26 84 27 85 28 86 29 87 30 14 31 15 32 16 33 17 35
REMARK SMILES IDX 18 36 19 37 80 38 20 39 79 40 21 41 22 42 23 43 73 44 24 45
REMARK SMILES IDX 78 46 72 47 74 48 25 49 77 50 71 51 70 52 26 54 58 55 38 56
REMARK SMILES IDX 57 57 39 58 42 59 56 60 75 61 40 62 41 63 55 65 76 66 43 67
REMARK SMILES IDX 27 68 28 69 36 70 29 71 35 72 37 73 34 74 30 75 31 76 32 77
REMARK SMILES IDX 33 78 59 79 60 80 68 81 61 82 67 83 69 84 66 85 62 86 63 87
REMARK SMILES IDX 64 88 65 89 44 90 45 91 53 92 46 93 52 94 54 95 51 96 47 97
REMARK SMILES IDX 48 98 49 99 50 100
REMARK H PARENT 11 4 15 34 74 53 42 64
REMARK Flexibility Score: inf
ROOT
ATOM      1  C   UNL A   1      31.753  32.297  26.662  1.00  0.00     0.042 C 
ENDROOT
BRANCH   1   2
ATOM      2  C   UNL A   1      31.594  30.820  27.003  1.00  0.00     0.115 C 
BRANCH   2   3
ATOM      3  N   UNL A   1      32.066  29.996  25.913  1.00  0.00    -0.380 N 
ATOM      4  H   UNL A   1      32.981  30.193  25.607  1.00  0.00     0.160 HD
BRANCH   3   5
ATOM      5  C   UNL A   1      31.438  28.982  25.238  1.00  0.00     0.110 C 
ATOM      6  C   UNL A   1      31.327  27.653  25.352  1.00  0.00     0.056 C 
ATOM      7  C   UNL A   1      30.379  27.020  24.375  1.00  0.00     0.153 C 
ATOM      8  C   UNL A   1      30.551  29.331  24.075  1.00  0.00     0.271 C 
ATOM      9  N   UNL A   1      29.949  28.181  23.635  1.00  0.00    -0.320 N 
ATOM     10  O   UNL A   1      30.397  30.461  23.638  1.00  0.00    -0.267 OA
BRANCH   6  11
ATOM     11  C   UNL A   1      31.883  26.865  26.463  1.00  0.00     0.193 C 
ATOM     12  O   UNL A   1      31.550  27.140  27.614  1.00  0.00    -0.289 OA
BRANCH  11  13
ATOM     13  C   UNL A   1      32.785  25.708  26.189  1.00  0.00     0.023 A 
ATOM     14  C   UNL A   1      34.272  23.415  25.484  1.00  0.00     0.118 A 
ATOM     15  C   UNL A   1      33.120  23.302  26.264  1.00  0.00     0.047 A 
ATOM     16  C   UNL A   1      34.707  24.682  25.102  1.00  0.00     0.047 A 
ATOM     17  C   UNL A   1      32.377  24.436  26.609  1.00  0.00     0.016 A 
ATOM     18  C   UNL A   1      33.983  25.822  25.480  1.00  0.00     0.016 A 
BRANCH  14  19
ATOM     19  O   UNL A   1      34.866  22.229  25.157  1.00  0.00    -0.497 OA
ATOM     20  C   UNL A   1      35.467  21.495  26.219  1.00  0.00     0.278 C 
ENDBRANCH  14  19
ENDBRANCH  11  13
ENDBRANCH   6  11
BRANCH   7  21
ATOM     21  C   UNL A   1      31.022  25.981  23.470  1.00  0.00    -0.021 A 
ATOM     22  C   UNL A   1      31.967  26.340  22.487  1.00  0.00     0.006 A 
ATOM     23  C   UNL A   1      30.708  24.623  23.629  1.00  0.00     0.006 A 
ATOM     24  C   UNL A   1      32.588  25.369  21.702  1.00  0.00     0.000 A 
ATOM     25  C   UNL A   1      31.323  23.655  22.831  1.00  0.00     0.000 A 
ATOM     26  C   UNL A   1      32.265  24.028  21.874  1.00  0.00     0.000 A 
ENDBRANCH   7  21
BRANCH   9  27
ATOM     27  C   UNL A   1      28.962  28.155  22.566  1.00  0.00     0.173 C 
BRANCH  27  28
ATOM     28  C   UNL A   1      27.662  28.880  22.878  1.00  0.00     0.061 C 
ATOM     29  O   UNL A   1      26.807  28.483  23.659  1.00  0.00    -0.548 OA
ATOM     30  O   UNL A   1      27.516  30.075  22.275  1.00  0.00    -0.548 OA
ENDBRANCH  27  28
ENDBRANCH   9  27
ENDBRANCH   3   5
ENDBRANCH   2   3
ENDBRANCH   1   2
BRANCH   1  31
ATOM     31  C   UNL A   1      32.948  32.970  27.333  1.00  0.00     0.118 C 
BRANCH  31  32
ATOM     32  N   UNL A   1      32.641  34.303  27.832  1.00  0.00    -0.352 N 
ATOM     33  C   UNL A   1      33.150  34.992  28.907  1.00  0.00     0.251 C 
ATOM     34  H   UNL A   1      31.958  34.790  27.316  1.00  0.00     0.163 HD
ATOM     35  O   UNL A   1      32.609  36.039  29.256  1.00  0.00    -0.269 OA
BRANCH  33  36
ATOM     36  C   UNL A   1      34.317  34.476  29.658  1.00  0.00     0.039 A 
ATOM     37  C   UNL A   1      34.094  33.758  30.837  1.00  0.00     0.014 A 
ATOM     38  C   UNL A   1      35.626  34.715  29.231  1.00  0.00     0.014 A 
ATOM     39  C   UNL A   1      35.175  33.218  31.541  1.00  0.00     0.010 A 
ATOM     40  C   UNL A   1      36.696  34.112  29.889  1.00  0.00     0.010 A 
ATOM     41  C   UNL A   1      36.484  33.353  31.051  1.00  0.00    -0.014 A 
BRANCH  41  42
ATOM     42  C   UNL A   1      37.633  32.698  31.732  1.00  0.00     0.031 A 
ATOM     43  C   UNL A   1      38.349  31.545  31.080  1.00  0.00     0.074 A 
ATOM     44  C   UNL A   1      37.993  33.105  32.968  1.00  0.00     0.049 A 
ATOM     45  N   UNL A   1      39.322  30.804  31.548  1.00  0.00    -0.248 NA
ATOM     46  C   UNL A   1      37.892  31.157  29.738  1.00  0.00     0.031 C 
ATOM     47  C   UNL A   1      37.348  34.181  33.723  1.00  0.00     0.029 A 
ATOM     48  N   UNL A   1      38.979  32.656  33.811  1.00  0.00    -0.354 N 
ATOM     49  C   UNL A   1      39.582  29.853  30.565  1.00  0.00     0.074 A 
ATOM     50  C   UNL A   1      38.627  30.080  29.502  1.00  0.00     0.031 C 
ATOM     51  C   UNL A   1      37.970  34.325  34.904  1.00  0.00     0.029 A 
ATOM     52  C   UNL A   1      39.025  33.324  35.014  1.00  0.00     0.049 A 
ATOM     53  H   UNL A   1      39.597  31.926  33.578  1.00  0.00     0.167 HD
ATOM     54  C   UNL A   1      40.543  28.895  30.544  1.00  0.00     0.034 A 
ATOM     55  C   UNL A   1      39.818  33.144  36.090  1.00  0.00     0.034 A 
ATOM     56  C   UNL A   1      41.501  28.694  31.604  1.00  0.00     0.049 A 
ATOM     57  C   UNL A   1      40.871  32.064  36.045  1.00  0.00     0.074 A 
ATOM     58  C   UNL A   1      42.553  27.795  31.655  1.00  0.00     0.029 A 
ATOM     59  N   UNL A   1      41.523  29.396  32.803  1.00  0.00    -0.354 N 
ATOM     60  N   UNL A   1      41.138  31.211  35.084  1.00  0.00    -0.248 NA
ATOM     61  C   UNL A   1      41.736  31.935  37.224  1.00  0.00     0.031 C 
ATOM     62  C   UNL A   1      43.167  27.906  32.908  1.00  0.00     0.029 A 
ATOM     63  C   UNL A   1      42.549  28.928  33.611  1.00  0.00     0.049 A 
ATOM     64  H   UNL A   1      40.901  30.119  33.044  1.00  0.00     0.167 HD
ATOM     65  C   UNL A   1      42.224  30.464  35.533  1.00  0.00     0.074 A 
ATOM     66  C   UNL A   1      42.571  30.980  36.840  1.00  0.00     0.031 C 
ATOM     67  C   UNL A   1      42.878  29.445  34.918  1.00  0.00     0.034 A 
BRANCH  54  68
ATOM     68  C   UNL A   1      40.587  27.978  29.345  1.00  0.00     0.023 A 
ATOM     69  C   UNL A   1      41.511  28.168  28.301  1.00  0.00     0.031 A 
ATOM     70  C   UNL A   1      39.689  26.901  29.239  1.00  0.00     0.131 A 
ATOM     71  C   UNL A   1      41.470  27.339  27.170  1.00  0.00     0.055 A 
ATOM     72  C   UNL A   1      39.706  26.032  28.146  1.00  0.00     0.041 A 
ATOM     73  F   UNL A   1      38.772  26.679  30.194  1.00  0.00    -0.206 F 
ATOM     74  C   UNL A   1      40.591  26.256  27.096  1.00  0.00     0.022 A 
BRANCH  71  75
ATOM     75  S   UNL A   1      42.495  27.776  25.739  1.00  0.00     0.124 S 
ATOM     76  O   UNL A   1      42.021  29.124  25.437  1.00  0.00    -0.237 OA
ATOM     77  O   UNL A   1      43.847  27.678  26.277  1.00  0.00    -0.237 OA
ATOM     78  O   UNL A   1      42.145  26.763  24.745  1.00  0.00    -0.744 OA
ENDBRANCH  71  75
ENDBRANCH  54  68
BRANCH  55  79
ATOM     79  C   UNL A   1      39.647  33.987  37.309  1.00  0.00     0.023 A 
ATOM     80  C   UNL A   1      38.996  33.489  38.449  1.00  0.00     0.031 A 
ATOM     81  C   UNL A   1      40.087  35.323  37.332  1.00  0.00     0.131 A 
ATOM     82  C   UNL A   1      38.756  34.334  39.543  1.00  0.00     0.055 A 
ATOM     83  C   UNL A   1      39.897  36.143  38.445  1.00  0.00     0.041 A 
ATOM     84  F   UNL A   1      40.719  35.849  36.271  1.00  0.00    -0.206 F 
ATOM     85  C   UNL A   1      39.213  35.654  39.555  1.00  0.00     0.022 A 
BRANCH  82  86
ATOM     86  S   UNL A   1      37.747  33.711  40.916  1.00  0.00     0.124 S 
ATOM     87  O   UNL A   1      37.394  34.945  41.608  1.00  0.00    -0.237 OA
ATOM     88  O   UNL A   1      36.661  33.038  40.211  1.00  0.00    -0.237 OA
ATOM     89  O   UNL A   1      38.661  32.829  41.637  1.00  0.00    -0.744 OA
ENDBRANCH  82  86
ENDBRANCH  55  79
BRANCH  67  90
ATOM     90  C   UNL A   1      44.065  28.857  35.643  1.00  0.00     0.023 A 
ATOM     91  C   UNL A   1      43.930  27.770  36.524  1.00  0.00     0.031 A 
ATOM     92  C   UNL A   1      45.346  29.406  35.462  1.00  0.00     0.131 A 
ATOM     93  C   UNL A   1      45.045  27.305  37.235  1.00  0.00     0.055 A 
ATOM     94  C   UNL A   1      46.463  28.900  36.125  1.00  0.00     0.041 A 
ATOM     95  F   UNL A   1      45.533  30.448  34.634  1.00  0.00    -0.206 F 
ATOM     96  C   UNL A   1      46.315  27.851  37.029  1.00  0.00     0.022 A 
BRANCH  93  97
ATOM     97  S   UNL A   1      44.800  26.034  38.507  1.00  0.00     0.124 S 
ATOM     98  O   UNL A   1      44.378  24.886  37.711  1.00  0.00    -0.237 OA
ATOM     99  O   UNL A   1      46.125  25.938  39.112  1.00  0.00    -0.237 OA
ATOM    100  O   UNL A   1      43.766  26.606  39.369  1.00  0.00    -0.744 OA
ENDBRANCH  93  97
ENDBRANCH  67  90
ENDBRANCH  41  42
ENDBRANCH  33  36
ENDBRANCH  31  32
ENDBRANCH   1  31
TORSDOF 19
ENDMDL
