MODEL 1
REMARK VINA RESULT:     -11.6      0.000      0.000
REMARK SMILES O=C(NCCCNC(=O)[C@@H]1CS[C@@H](C2CC2)N1C(=O)Cc1ccn[nH]1)c1ccc(-c2c3nc(c(-c4cc(S(=O)(=O)[O-])ccc4F)c4ccc([nH]4)c(-c4cc(S(=O)(=O)[O-])ccc4F)c4nc(c(-c5cc(S(=O)(=O)[O-])ccc5F)c5ccc2[nH]5)C=C4)C=C3)cc1
REMARK SMILES IDX 5 1 4 2 3 3 1 4 2 5 26 7 27 8 88 9 28 10 87 11 29 12 30 13
REMARK SMILES IDX 31 14 81 15 32 16 86 17 80 18 82 19 33 20 85 21 79 22 78 23
REMARK SMILES IDX 34 25 66 26 46 27 65 28 47 29 50 30 64 31 83 32 48 33 49 34
REMARK SMILES IDX 63 36 84 37 51 38 35 39 36 40 44 41 37 42 43 43 45 44 42 45
REMARK SMILES IDX 38 46 39 47 40 48 41 49 67 50 68 51 76 52 69 53 75 54 77 55
REMARK SMILES IDX 74 56 70 57 71 58 72 59 73 60 52 61 53 62 61 63 54 64 60 65
REMARK SMILES IDX 62 66 59 67 55 68 56 69 57 70 58 71 6 72 7 73 8 74 9 76
REMARK SMILES IDX 10 77 11 78 17 79 12 80 13 81 18 82 19 83 20 84 21 85 22 86
REMARK SMILES IDX 25 87 23 88 24 89 14 91 15 92 16 93
REMARK H PARENT 3 6 82 24 50 35 7 75 25 90
REMARK Flexibility Score: inf
ROOT
ATOM      1  C   UNL A   1      37.783  19.929  25.040  1.00  0.00     0.042 C 
ENDROOT
BRANCH   1   2
ATOM      2  C   UNL A   1      39.016  20.443  25.770  1.00  0.00     0.118 C 
BRANCH   2   3
ATOM      3  N   UNL A   1      40.036  19.416  25.935  1.00  0.00    -0.352 N 
ATOM      4  O   UNL A   1      42.108  18.550  26.037  1.00  0.00    -0.269 OA
ATOM      5  C   UNL A   1      41.392  19.542  26.121  1.00  0.00     0.251 C 
ATOM      6  H   UNL A   1      39.702  18.490  25.911  1.00  0.00     0.163 HD
BRANCH   5   7
ATOM      7  C   UNL A   1      41.984  20.866  26.416  1.00  0.00     0.039 A 
ATOM      8  C   UNL A   1      42.162  21.805  25.399  1.00  0.00     0.014 A 
ATOM      9  C   UNL A   1      42.315  21.192  27.735  1.00  0.00     0.014 A 
ATOM     10  C   UNL A   1      42.787  23.016  25.672  1.00  0.00     0.010 A 
ATOM     11  C   UNL A   1      42.854  22.451  28.025  1.00  0.00     0.010 A 
ATOM     12  C   UNL A   1      43.101  23.370  26.993  1.00  0.00    -0.014 A 
BRANCH  12  13
ATOM     13  C   UNL A   1      43.551  24.756  27.279  1.00  0.00     0.031 A 
ATOM     14  C   UNL A   1      42.608  25.792  27.820  1.00  0.00     0.074 A 
ATOM     15  C   UNL A   1      44.844  25.060  27.044  1.00  0.00     0.049 A 
ATOM     16  N   UNL A   1      42.846  27.047  28.105  1.00  0.00    -0.248 NA
ATOM     17  C   UNL A   1      41.219  25.374  28.069  1.00  0.00     0.031 C 
ATOM     18  C   UNL A   1      45.842  24.125  26.513  1.00  0.00     0.029 A 
ATOM     19  N   UNL A   1      45.549  26.223  27.221  1.00  0.00    -0.354 N 
ATOM     20  C   UNL A   1      41.639  27.576  28.549  1.00  0.00     0.074 A 
ATOM     21  C   UNL A   1      40.665  26.508  28.482  1.00  0.00     0.031 C 
ATOM     22  C   UNL A   1      47.031  24.740  26.439  1.00  0.00     0.029 A 
ATOM     23  C   UNL A   1      46.865  26.133  26.830  1.00  0.00     0.049 A 
ATOM     24  H   UNL A   1      45.151  27.043  27.592  1.00  0.00     0.167 HD
ATOM     25  C   UNL A   1      41.381  28.839  28.969  1.00  0.00     0.034 A 
ATOM     26  C   UNL A   1      47.825  27.075  26.750  1.00  0.00     0.034 A 
ATOM     27  C   UNL A   1      42.376  29.885  29.033  1.00  0.00     0.049 A 
ATOM     28  C   UNL A   1      47.483  28.480  27.167  1.00  0.00     0.074 A 
ATOM     29  C   UNL A   1      42.233  31.176  29.513  1.00  0.00     0.029 A 
ATOM     30  N   UNL A   1      43.685  29.772  28.583  1.00  0.00    -0.354 N 
ATOM     31  N   UNL A   1      46.352  28.945  27.647  1.00  0.00    -0.248 NA
ATOM     32  C   UNL A   1      48.541  29.488  27.032  1.00  0.00     0.031 C 
ATOM     33  C   UNL A   1      43.423  31.868  29.270  1.00  0.00     0.029 A 
ATOM     34  C   UNL A   1      44.341  30.988  28.721  1.00  0.00     0.049 A 
ATOM     35  H   UNL A   1      44.089  28.951  28.221  1.00  0.00     0.167 HD
ATOM     36  C   UNL A   1      46.572  30.299  27.883  1.00  0.00     0.074 A 
ATOM     37  C   UNL A   1      47.951  30.564  27.530  1.00  0.00     0.031 C 
ATOM     38  C   UNL A   1      45.710  31.240  28.343  1.00  0.00     0.034 A 
BRANCH  25  39
ATOM     39  C   UNL A   1      39.963  29.193  29.347  1.00  0.00     0.023 A 
ATOM     40  C   UNL A   1      39.536  29.250  30.684  1.00  0.00     0.031 A 
ATOM     41  C   UNL A   1      39.039  29.537  28.343  1.00  0.00     0.131 A 
ATOM     42  C   UNL A   1      38.212  29.615  30.979  1.00  0.00     0.055 A 
ATOM     43  C   UNL A   1      37.743  29.959  28.646  1.00  0.00     0.041 A 
ATOM     44  F   UNL A   1      39.386  29.480  27.048  1.00  0.00    -0.206 F 
ATOM     45  C   UNL A   1      37.322  29.995  29.971  1.00  0.00     0.022 A 
BRANCH  42  46
ATOM     46  S   UNL A   1      37.639  29.506  32.697  1.00  0.00     0.124 S 
ATOM     47  O   UNL A   1      36.362  30.210  32.629  1.00  0.00    -0.237 OA
ATOM     48  O   UNL A   1      37.564  28.066  32.914  1.00  0.00    -0.237 OA
ATOM     49  O   UNL A   1      38.683  30.196  33.452  1.00  0.00    -0.744 OA
ENDBRANCH  42  46
ENDBRANCH  25  39
BRANCH  26  50
ATOM     50  C   UNL A   1      49.167  26.748  26.186  1.00  0.00     0.023 A 
ATOM     51  C   UNL A   1      50.273  26.540  27.021  1.00  0.00     0.031 A 
ATOM     52  C   UNL A   1      49.379  26.714  24.794  1.00  0.00     0.131 A 
ATOM     53  C   UNL A   1      51.550  26.377  26.462  1.00  0.00     0.055 A 
ATOM     54  C   UNL A   1      50.637  26.476  24.242  1.00  0.00     0.041 A 
ATOM     55  F   UNL A   1      48.358  26.912  23.944  1.00  0.00    -0.206 F 
ATOM     56  C   UNL A   1      51.738  26.327  25.079  1.00  0.00     0.022 A 
BRANCH  53  57
ATOM     57  S   UNL A   1      52.984  26.380  27.572  1.00  0.00     0.124 S 
ATOM     58  O   UNL A   1      53.753  25.249  27.065  1.00  0.00    -0.237 OA
ATOM     59  O   UNL A   1      53.551  27.701  27.328  1.00  0.00    -0.237 OA
ATOM     60  O   UNL A   1      52.390  26.189  28.894  1.00  0.00    -0.744 OA
ENDBRANCH  53  57
ENDBRANCH  26  50
BRANCH  38  61
ATOM     61  C   UNL A   1      46.255  32.637  28.505  1.00  0.00     0.023 A 
ATOM     62  C   UNL A   1      46.367  33.511  27.409  1.00  0.00     0.031 A 
ATOM     63  C   UNL A   1      46.683  33.094  29.763  1.00  0.00     0.131 A 
ATOM     64  C   UNL A   1      46.948  34.776  27.581  1.00  0.00     0.055 A 
ATOM     65  C   UNL A   1      47.197  34.378  29.941  1.00  0.00     0.041 A 
ATOM     66  F   UNL A   1      46.605  32.299  30.843  1.00  0.00    -0.206 F 
ATOM     67  C   UNL A   1      47.344  35.223  28.844  1.00  0.00     0.022 A 
BRANCH  64  68
ATOM     68  S   UNL A   1      47.261  35.795  26.115  1.00  0.00     0.124 S 
ATOM     69  O   UNL A   1      47.130  34.821  25.036  1.00  0.00    -0.237 OA
ATOM     70  O   UNL A   1      46.206  36.799  26.199  1.00  0.00    -0.237 OA
ATOM     71  O   UNL A   1      48.616  36.301  26.333  1.00  0.00    -0.744 OA
ENDBRANCH  64  68
ENDBRANCH  38  61
ENDBRANCH  12  13
ENDBRANCH   5   7
ENDBRANCH   2   3
ENDBRANCH   1   2
BRANCH   1  72
ATOM     72  C   UNL A   1      36.711  20.991  24.831  1.00  0.00     0.117 C 
BRANCH  72  73
ATOM     73  N   UNL A   1      35.937  21.224  26.037  1.00  0.00    -0.354 N 
ATOM     74  C   UNL A   1      34.904  22.089  26.254  1.00  0.00     0.243 C 
ATOM     75  H   UNL A   1      36.195  20.677  26.814  1.00  0.00     0.163 HD
ATOM     76  O   UNL A   1      34.388  22.110  27.375  1.00  0.00    -0.273 OA
BRANCH  74  77
ATOM     77  C   UNL A   1      34.481  23.081  25.144  1.00  0.00     0.185 C 
ATOM     78  C   UNL A   1      35.254  24.354  25.452  1.00  0.00     0.107 C 
ATOM     79  N   UNL A   1      33.010  23.277  25.156  1.00  0.00    -0.317 N 
ATOM     80  S   UNL A   1      34.089  25.695  25.322  1.00  0.00    -0.134 SA
ATOM     81  C   UNL A   1      32.581  24.620  25.535  1.00  0.00     0.147 C 
BRANCH  79  82
ATOM     82  C   UNL A   1      32.302  22.098  24.983  1.00  0.00     0.230 C 
ATOM     83  O   UNL A   1      31.351  21.844  25.743  1.00  0.00    -0.274 OA
BRANCH  82  84
ATOM     84  C   UNL A   1      32.650  21.043  23.955  1.00  0.00     0.155 C 
BRANCH  84  85
ATOM     85  C   UNL A   1      32.675  19.632  24.437  1.00  0.00     0.044 A 
ATOM     86  C   UNL A   1      32.605  18.446  23.732  1.00  0.00     0.045 A 
ATOM     87  N   UNL A   1      32.654  19.257  25.753  1.00  0.00    -0.282 N 
ATOM     88  C   UNL A   1      32.532  17.439  24.708  1.00  0.00     0.135 A 
ATOM     89  N   UNL A   1      32.549  17.936  25.945  1.00  0.00    -0.184 NA
ATOM     90  H   UNL A   1      32.711  19.903  26.494  1.00  0.00     0.190 HD
ENDBRANCH  84  85
ENDBRANCH  82  84
ENDBRANCH  79  82
BRANCH  81  91
ATOM     91  C   UNL A   1      31.598  25.413  24.687  1.00  0.00     0.022 C 
ATOM     92  C   UNL A   1      30.692  24.785  23.655  1.00  0.00     0.007 C 
ATOM     93  C   UNL A   1      30.095  25.541  24.811  1.00  0.00     0.007 C 
ENDBRANCH  81  91
ENDBRANCH  74  77
ENDBRANCH  72  73
ENDBRANCH   1  72
TORSDOF 17
ENDMDL
MODEL 2
REMARK VINA RESULT:     -11.6      6.130     11.534
REMARK SMILES O=C(NCCCNC(=O)[C@@H]1CS[C@@H](C2CC2)N1C(=O)Cc1ccn[nH]1)c1ccc(-c2c3nc(c(-c4cc(S(=O)(=O)[O-])ccc4F)c4ccc([nH]4)c(-c4cc(S(=O)(=O)[O-])ccc4F)c4nc(c(-c5cc(S(=O)(=O)[O-])ccc5F)c5ccc2[nH]5)C=C4)C=C3)cc1
REMARK SMILES IDX 5 1 4 2 3 3 1 4 2 5 26 7 27 8 88 9 28 10 87 11 29 12 30 13
REMARK SMILES IDX 31 14 81 15 32 16 86 17 80 18 82 19 33 20 85 21 79 22 78 23
REMARK SMILES IDX 34 25 66 26 46 27 65 28 47 29 50 30 64 31 83 32 48 33 49 34
REMARK SMILES IDX 63 36 84 37 51 38 35 39 36 40 44 41 37 42 43 43 45 44 42 45
REMARK SMILES IDX 38 46 39 47 40 48 41 49 67 50 68 51 76 52 69 53 75 54 77 55
REMARK SMILES IDX 74 56 70 57 71 58 72 59 73 60 52 61 53 62 61 63 54 64 60 65
REMARK SMILES IDX 62 66 59 67 55 68 56 69 57 70 58 71 6 72 7 73 8 74 9 76
REMARK SMILES IDX 10 77 11 78 17 79 12 80 13 81 18 82 19 83 20 84 21 85 22 86
REMARK SMILES IDX 25 87 23 88 24 89 14 91 15 92 16 93
REMARK H PARENT 3 6 82 24 50 35 7 75 25 90
REMARK Flexibility Score: inf
ROOT
ATOM      1  C   UNL A   1      31.483  31.788  26.497  1.00  0.00     0.042 C 
ENDROOT
BRANCH   1   2
ATOM      2  C   UNL A   1      32.700  32.378  27.197  1.00  0.00     0.118 C 
BRANCH   2   3
ATOM      3  N   UNL A   1      32.534  33.792  27.506  1.00  0.00    -0.352 N 
ATOM      4  O   UNL A   1      32.742  35.693  28.688  1.00  0.00    -0.269 OA
ATOM      5  C   UNL A   1      33.167  34.569  28.448  1.00  0.00     0.251 C 
ATOM      6  H   UNL A   1      31.868  34.264  26.956  1.00  0.00     0.163 HD
BRANCH   5   7
ATOM      7  C   UNL A   1      34.350  34.048  29.169  1.00  0.00     0.039 A 
ATOM      8  C   UNL A   1      34.194  33.232  30.291  1.00  0.00     0.014 A 
ATOM      9  C   UNL A   1      35.631  34.336  28.687  1.00  0.00     0.014 A 
ATOM     10  C   UNL A   1      35.310  32.810  31.005  1.00  0.00     0.010 A 
ATOM     11  C   UNL A   1      36.754  33.829  29.351  1.00  0.00     0.010 A 
ATOM     12  C   UNL A   1      36.601  33.068  30.519  1.00  0.00    -0.014 A 
BRANCH  12  13
ATOM     13  C   UNL A   1      37.760  32.410  31.175  1.00  0.00     0.031 A 
ATOM     14  C   UNL A   1      38.490  31.272  30.521  1.00  0.00     0.074 A 
ATOM     15  C   UNL A   1      38.147  32.870  32.382  1.00  0.00     0.049 A 
ATOM     16  N   UNL A   1      39.508  30.585  30.971  1.00  0.00    -0.248 NA
ATOM     17  C   UNL A   1      38.018  30.843  29.194  1.00  0.00     0.031 C 
ATOM     18  C   UNL A   1      37.499  33.970  33.107  1.00  0.00     0.029 A 
ATOM     19  N   UNL A   1      39.170  32.490  33.212  1.00  0.00    -0.354 N 
ATOM     20  C   UNL A   1      39.791  29.632  30.000  1.00  0.00     0.074 A 
ATOM     21  C   UNL A   1      38.825  29.821  28.938  1.00  0.00     0.031 C 
ATOM     22  C   UNL A   1      38.158  34.194  34.252  1.00  0.00     0.029 A 
ATOM     23  C   UNL A   1      39.216  33.202  34.389  1.00  0.00     0.049 A 
ATOM     24  H   UNL A   1      39.809  31.776  32.988  1.00  0.00     0.167 HD
ATOM     25  C   UNL A   1      40.767  28.692  30.005  1.00  0.00     0.034 A 
ATOM     26  C   UNL A   1      39.992  33.049  35.480  1.00  0.00     0.034 A 
ATOM     27  C   UNL A   1      41.723  28.531  31.076  1.00  0.00     0.049 A 
ATOM     28  C   UNL A   1      41.024  31.954  35.473  1.00  0.00     0.074 A 
ATOM     29  C   UNL A   1      42.796  27.657  31.145  1.00  0.00     0.029 A 
ATOM     30  N   UNL A   1      41.710  29.236  32.273  1.00  0.00    -0.354 N 
ATOM     31  N   UNL A   1      41.319  31.105  34.515  1.00  0.00    -0.248 NA
ATOM     32  C   UNL A   1      41.827  31.792  36.691  1.00  0.00     0.031 C 
ATOM     33  C   UNL A   1      43.373  27.770  32.413  1.00  0.00     0.029 A 
ATOM     34  C   UNL A   1      42.719  28.775  33.107  1.00  0.00     0.049 A 
ATOM     35  H   UNL A   1      41.079  29.958  32.497  1.00  0.00     0.167 HD
ATOM     36  C   UNL A   1      42.352  30.319  35.014  1.00  0.00     0.074 A 
ATOM     37  C   UNL A   1      42.653  30.819  36.340  1.00  0.00     0.031 C 
ATOM     38  C   UNL A   1      42.991  29.272  34.435  1.00  0.00     0.034 A 
BRANCH  25  39
ATOM     39  C   UNL A   1      40.834  27.721  28.851  1.00  0.00     0.023 A 
ATOM     40  C   UNL A   1      41.806  27.823  27.843  1.00  0.00     0.031 A 
ATOM     41  C   UNL A   1      39.938  26.638  28.798  1.00  0.00     0.131 A 
ATOM     42  C   UNL A   1      41.841  26.873  26.808  1.00  0.00     0.055 A 
ATOM     43  C   UNL A   1      40.016  25.663  27.802  1.00  0.00     0.041 A 
ATOM     44  F   UNL A   1      38.975  26.502  29.724  1.00  0.00    -0.206 F 
ATOM     45  C   UNL A   1      40.970  25.780  26.796  1.00  0.00     0.022 A 
BRANCH  42  46
ATOM     46  S   UNL A   1      42.987  27.130  25.426  1.00  0.00     0.124 S 
ATOM     47  O   UNL A   1      43.069  25.788  24.855  1.00  0.00    -0.237 OA
ATOM     48  O   UNL A   1      42.292  28.126  24.619  1.00  0.00    -0.237 OA
ATOM     49  O   UNL A   1      44.210  27.598  26.076  1.00  0.00    -0.744 OA
ENDBRANCH  42  46
ENDBRANCH  25  39
BRANCH  26  50
ATOM     50  C   UNL A   1      39.777  33.894  36.691  1.00  0.00     0.023 A 
ATOM     51  C   UNL A   1      40.649  34.945  37.005  1.00  0.00     0.031 A 
ATOM     52  C   UNL A   1      38.736  33.610  37.596  1.00  0.00     0.131 A 
ATOM     53  C   UNL A   1      40.509  35.629  38.224  1.00  0.00     0.055 A 
ATOM     54  C   UNL A   1      38.555  34.343  38.769  1.00  0.00     0.041 A 
ATOM     55  F   UNL A   1      37.874  32.611  37.350  1.00  0.00    -0.206 F 
ATOM     56  C   UNL A   1      39.458  35.347  39.099  1.00  0.00     0.022 A 
BRANCH  53  57
ATOM     57  S   UNL A   1      41.809  36.794  38.713  1.00  0.00     0.124 S 
ATOM     58  O   UNL A   1      41.044  37.805  39.434  1.00  0.00    -0.237 OA
ATOM     59  O   UNL A   1      42.680  35.950  39.524  1.00  0.00    -0.237 OA
ATOM     60  O   UNL A   1      42.373  37.229  37.437  1.00  0.00    -0.744 OA
ENDBRANCH  53  57
ENDBRANCH  26  50
BRANCH  38  61
ATOM     61  C   UNL A   1      44.091  28.620  35.234  1.00  0.00     0.023 A 
ATOM     62  C   UNL A   1      43.833  27.527  36.080  1.00  0.00     0.031 A 
ATOM     63  C   UNL A   1      45.407  29.108  35.165  1.00  0.00     0.131 A 
ATOM     64  C   UNL A   1      44.864  26.993  36.866  1.00  0.00     0.055 A 
ATOM     65  C   UNL A   1      46.443  28.529  35.898  1.00  0.00     0.041 A 
ATOM     66  F   UNL A   1      45.709  30.154  34.379  1.00  0.00    -0.206 F 
ATOM     67  C   UNL A   1      46.172  27.474  36.765  1.00  0.00     0.022 A 
BRANCH  64  68
ATOM     68  S   UNL A   1      44.454  25.720  38.091  1.00  0.00     0.124 S 
ATOM     69  O   UNL A   1      44.156  26.524  39.273  1.00  0.00    -0.237 OA
ATOM     70  O   UNL A   1      43.316  25.047  37.474  1.00  0.00    -0.237 OA
ATOM     71  O   UNL A   1      45.675  24.921  38.176  1.00  0.00    -0.744 OA
ENDBRANCH  64  68
ENDBRANCH  38  61
ENDBRANCH  12  13
ENDBRANCH   5   7
ENDBRANCH   2   3
ENDBRANCH   1   2
BRANCH   1  72
ATOM     72  C   UNL A   1      31.604  30.295  26.219  1.00  0.00     0.117 C 
BRANCH  72  73
ATOM     73  N   UNL A   1      32.520  30.019  25.127  1.00  0.00    -0.354 N 
ATOM     74  C   UNL A   1      32.894  28.824  24.586  1.00  0.00     0.243 C 
ATOM     75  H   UNL A   1      32.933  30.813  24.715  1.00  0.00     0.163 HD
ATOM     76  O   UNL A   1      33.694  28.834  23.646  1.00  0.00    -0.273 OA
BRANCH  74  77
ATOM     77  C   UNL A   1      32.401  27.501  25.220  1.00  0.00     0.185 C 
ATOM     78  C   UNL A   1      33.528  27.076  26.149  1.00  0.00     0.107 C 
ATOM     79  N   UNL A   1      32.106  26.498  24.167  1.00  0.00    -0.317 N 
ATOM     80  S   UNL A   1      33.803  25.342  25.848  1.00  0.00    -0.134 SA
ATOM     81  C   UNL A   1      32.996  25.340  24.167  1.00  0.00     0.147 C 
BRANCH  79  82
ATOM     82  C   UNL A   1      31.155  26.929  23.256  1.00  0.00     0.230 C 
ATOM     83  O   UNL A   1      31.424  26.908  22.042  1.00  0.00    -0.274 OA
BRANCH  82  84
ATOM     84  C   UNL A   1      29.806  27.496  23.642  1.00  0.00     0.155 C 
BRANCH  84  85
ATOM     85  C   UNL A   1      29.333  28.672  22.858  1.00  0.00     0.044 A 
ATOM     86  C   UNL A   1      28.070  29.222  22.747  1.00  0.00     0.045 A 
ATOM     87  N   UNL A   1      30.098  29.376  21.969  1.00  0.00    -0.282 N 
ATOM     88  C   UNL A   1      28.187  30.223  21.768  1.00  0.00     0.135 A 
ATOM     89  N   UNL A   1      29.425  30.309  21.283  1.00  0.00    -0.184 NA
ATOM     90  H   UNL A   1      31.061  29.211  21.844  1.00  0.00     0.190 HD
ENDBRANCH  84  85
ENDBRANCH  82  84
ENDBRANCH  79  82
BRANCH  81  91
ATOM     91  C   UNL A   1      32.455  23.918  24.160  1.00  0.00     0.022 C 
ATOM     92  C   UNL A   1      31.046  23.560  24.571  1.00  0.00     0.007 C 
ATOM     93  C   UNL A   1      31.523  23.241  23.179  1.00  0.00     0.007 C 
ENDBRANCH  81  91
ENDBRANCH  74  77
ENDBRANCH  72  73
ENDBRANCH   1  72
TORSDOF 17
ENDMDL
MODEL 3
REMARK VINA RESULT:     -11.5      6.163     10.404
REMARK SMILES O=C(NCCCNC(=O)[C@@H]1CS[C@@H](C2CC2)N1C(=O)Cc1ccn[nH]1)c1ccc(-c2c3nc(c(-c4cc(S(=O)(=O)[O-])ccc4F)c4ccc([nH]4)c(-c4cc(S(=O)(=O)[O-])ccc4F)c4nc(c(-c5cc(S(=O)(=O)[O-])ccc5F)c5ccc2[nH]5)C=C4)C=C3)cc1
REMARK SMILES IDX 5 1 4 2 3 3 1 4 2 5 26 7 27 8 88 9 28 10 87 11 29 12 30 13
REMARK SMILES IDX 31 14 81 15 32 16 86 17 80 18 82 19 33 20 85 21 79 22 78 23
REMARK SMILES IDX 34 25 66 26 46 27 65 28 47 29 50 30 64 31 83 32 48 33 49 34
REMARK SMILES IDX 63 36 84 37 51 38 35 39 36 40 44 41 37 42 43 43 45 44 42 45
REMARK SMILES IDX 38 46 39 47 40 48 41 49 67 50 68 51 76 52 69 53 75 54 77 55
REMARK SMILES IDX 74 56 70 57 71 58 72 59 73 60 52 61 53 62 61 63 54 64 60 65
REMARK SMILES IDX 62 66 59 67 55 68 56 69 57 70 58 71 6 72 7 73 8 74 9 76
REMARK SMILES IDX 10 77 11 78 17 79 12 80 13 81 18 82 19 83 20 84 21 85 22 86
REMARK SMILES IDX 25 87 23 88 24 89 14 91 15 92 16 93
REMARK H PARENT 3 6 82 24 50 35 7 75 25 90
REMARK Flexibility Score: inf
ROOT
ATOM      1  C   UNL A   1      31.553  31.764  26.519  1.00  0.00     0.042 C 
ENDROOT
BRANCH   1   2
ATOM      2  C   UNL A   1      32.735  32.360  27.272  1.00  0.00     0.118 C 
BRANCH   2   3
ATOM      3  N   UNL A   1      32.553  33.775  27.565  1.00  0.00    -0.352 N 
ATOM      4  O   UNL A   1      32.690  35.680  28.752  1.00  0.00    -0.269 OA
ATOM      5  C   UNL A   1      33.128  34.554  28.542  1.00  0.00     0.251 C 
ATOM      6  H   UNL A   1      31.923  34.246  26.973  1.00  0.00     0.163 HD
BRANCH   5   7
ATOM      7  C   UNL A   1      34.262  34.034  29.337  1.00  0.00     0.039 A 
ATOM      8  C   UNL A   1      34.035  33.220  30.448  1.00  0.00     0.014 A 
ATOM      9  C   UNL A   1      35.571  34.321  28.937  1.00  0.00     0.014 A 
ATOM     10  C   UNL A   1      35.103  32.799  31.232  1.00  0.00     0.010 A 
ATOM     11  C   UNL A   1      36.650  33.814  29.670  1.00  0.00     0.010 A 
ATOM     12  C   UNL A   1      36.422  33.055  30.829  1.00  0.00    -0.014 A 
BRANCH  12  13
ATOM     13  C   UNL A   1      37.537  32.397  31.557  1.00  0.00     0.031 A 
ATOM     14  C   UNL A   1      37.965  32.859  32.920  1.00  0.00     0.074 A 
ATOM     15  C   UNL A   1      38.156  31.359  30.958  1.00  0.00     0.049 A 
ATOM     16  N   UNL A   1      38.928  32.398  33.676  1.00  0.00    -0.248 NA
ATOM     17  C   UNL A   1      37.224  33.984  33.514  1.00  0.00     0.031 C 
ATOM     18  C   UNL A   1      37.820  30.836  29.629  1.00  0.00     0.029 A 
ATOM     19  N   UNL A   1      39.185  30.554  31.375  1.00  0.00    -0.354 N 
ATOM     20  C   UNL A   1      38.926  33.182  34.824  1.00  0.00     0.074 A 
ATOM     21  C   UNL A   1      37.872  34.160  34.659  1.00  0.00     0.031 C 
ATOM     22  C   UNL A   1      38.602  29.782  29.357  1.00  0.00     0.029 A 
ATOM     23  C   UNL A   1      39.554  29.608  30.446  1.00  0.00     0.049 A 
ATOM     24  H   UNL A   1      39.618  30.644  32.254  1.00  0.00     0.167 HD
ATOM     25  C   UNL A   1      39.735  33.087  35.908  1.00  0.00     0.034 A 
ATOM     26  C   UNL A   1      40.572  28.726  30.445  1.00  0.00     0.034 A 
ATOM     27  C   UNL A   1      40.776  32.095  36.049  1.00  0.00     0.049 A 
ATOM     28  C   UNL A   1      41.487  28.691  31.639  1.00  0.00     0.074 A 
ATOM     29  C   UNL A   1      41.602  31.867  37.138  1.00  0.00     0.029 A 
ATOM     30  N   UNL A   1      41.153  31.186  35.070  1.00  0.00    -0.354 N 
ATOM     31  N   UNL A   1      41.426  29.398  32.744  1.00  0.00    -0.248 NA
ATOM     32  C   UNL A   1      42.607  27.744  31.589  1.00  0.00     0.031 C 
ATOM     33  C   UNL A   1      42.533  30.886  36.784  1.00  0.00     0.029 A 
ATOM     34  C   UNL A   1      42.237  30.437  35.508  1.00  0.00     0.049 A 
ATOM     35  H   UNL A   1      40.716  31.085  34.193  1.00  0.00     0.167 HD
ATOM     36  C   UNL A   1      42.495  28.968  33.525  1.00  0.00     0.074 A 
ATOM     37  C   UNL A   1      43.156  27.916  32.781  1.00  0.00     0.031 C 
ATOM     38  C   UNL A   1      42.898  29.407  34.744  1.00  0.00     0.034 A 
BRANCH  25  39
ATOM     39  C   UNL A   1      39.577  34.103  37.012  1.00  0.00     0.023 A 
ATOM     40  C   UNL A   1      39.095  33.757  38.285  1.00  0.00     0.031 A 
ATOM     41  C   UNL A   1      39.977  35.435  36.797  1.00  0.00     0.131 A 
ATOM     42  C   UNL A   1      38.997  34.739  39.285  1.00  0.00     0.055 A 
ATOM     43  C   UNL A   1      39.936  36.391  37.812  1.00  0.00     0.041 A 
ATOM     44  F   UNL A   1      40.426  35.827  35.594  1.00  0.00    -0.206 F 
ATOM     45  C   UNL A   1      39.439  36.046  39.065  1.00  0.00     0.022 A 
BRANCH  42  46
ATOM     46  S   UNL A   1      38.204  34.306  40.859  1.00  0.00     0.124 S 
ATOM     47  O   UNL A   1      37.113  33.444  40.413  1.00  0.00    -0.237 OA
ATOM     48  O   UNL A   1      39.283  33.647  41.585  1.00  0.00    -0.237 OA
ATOM     49  O   UNL A   1      37.787  35.598  41.400  1.00  0.00    -0.744 OA
ENDBRANCH  42  46
ENDBRANCH  25  39
BRANCH  26  50
ATOM     50  C   UNL A   1      40.830  27.863  29.255  1.00  0.00     0.023 A 
ATOM     51  C   UNL A   1      41.848  28.173  28.343  1.00  0.00     0.031 A 
ATOM     52  C   UNL A   1      40.009  26.755  28.972  1.00  0.00     0.131 A 
ATOM     53  C   UNL A   1      41.975  27.430  27.158  1.00  0.00     0.055 A 
ATOM     54  C   UNL A   1      40.188  25.973  27.831  1.00  0.00     0.041 A 
ATOM     55  F   UNL A   1      39.014  26.413  29.807  1.00  0.00    -0.206 F 
ATOM     56  C   UNL A   1      41.164  26.322  26.905  1.00  0.00     0.022 A 
BRANCH  53  57
ATOM     57  S   UNL A   1      43.123  28.025  25.886  1.00  0.00     0.124 S 
ATOM     58  O   UNL A   1      44.125  26.965  25.873  1.00  0.00    -0.237 OA
ATOM     59  O   UNL A   1      42.258  28.104  24.714  1.00  0.00    -0.237 OA
ATOM     60  O   UNL A   1      43.578  29.309  26.414  1.00  0.00    -0.744 OA
ENDBRANCH  53  57
ENDBRANCH  26  50
BRANCH  38  61
ATOM     61  C   UNL A   1      44.101  28.726  35.346  1.00  0.00     0.023 A 
ATOM     62  C   UNL A   1      43.964  27.647  36.236  1.00  0.00     0.031 A 
ATOM     63  C   UNL A   1      45.399  29.171  35.040  1.00  0.00     0.131 A 
ATOM     64  C   UNL A   1      45.101  27.086  36.836  1.00  0.00     0.055 A 
ATOM     65  C   UNL A   1      46.530  28.565  35.587  1.00  0.00     0.041 A 
ATOM     66  F   UNL A   1      45.590  30.202  34.201  1.00  0.00    -0.206 F 
ATOM     67  C   UNL A   1      46.384  27.525  36.501  1.00  0.00     0.022 A 
BRANCH  64  68
ATOM     68  S   UNL A   1      44.874  25.835  38.129  1.00  0.00     0.124 S 
ATOM     69  O   UNL A   1      46.243  25.377  38.349  1.00  0.00    -0.237 OA
ATOM     70  O   UNL A   1      44.279  26.609  39.213  1.00  0.00    -0.237 OA
ATOM     71  O   UNL A   1      43.985  24.857  37.506  1.00  0.00    -0.744 OA
ENDBRANCH  64  68
ENDBRANCH  38  61
ENDBRANCH  12  13
ENDBRANCH   5   7
ENDBRANCH   2   3
ENDBRANCH   1   2
BRANCH   1  72
ATOM     72  C   UNL A   1      31.731  30.291  26.173  1.00  0.00     0.117 C 
BRANCH  72  73
ATOM     73  N   UNL A   1      32.581  30.107  25.010  1.00  0.00    -0.354 N 
ATOM     74  C   UNL A   1      32.899  28.963  24.338  1.00  0.00     0.243 C 
ATOM     75  H   UNL A   1      32.988  30.929  24.653  1.00  0.00     0.163 HD
ATOM     76  O   UNL A   1      33.647  29.051  23.360  1.00  0.00    -0.273 OA
BRANCH  74  77
ATOM     77  C   UNL A   1      32.412  27.593  24.869  1.00  0.00     0.185 C 
ATOM     78  C   UNL A   1      33.612  27.017  25.603  1.00  0.00     0.107 C 
ATOM     79  N   UNL A   1      31.947  26.737  23.749  1.00  0.00    -0.317 N 
ATOM     80  S   UNL A   1      33.760  25.322  25.074  1.00  0.00    -0.134 SA
ATOM     81  C   UNL A   1      32.770  25.554  23.512  1.00  0.00     0.147 C 
BRANCH  79  82
ATOM     82  C   UNL A   1      30.923  27.311  23.013  1.00  0.00     0.230 C 
ATOM     83  O   UNL A   1      31.024  27.366  21.775  1.00  0.00    -0.274 OA
BRANCH  82  84
ATOM     84  C   UNL A   1      29.694  27.948  23.623  1.00  0.00     0.155 C 
BRANCH  84  85
ATOM     85  C   UNL A   1      29.156  29.151  22.926  1.00  0.00     0.044 A 
ATOM     86  C   UNL A   1      27.856  29.600  22.794  1.00  0.00     0.045 A 
ATOM     87  N   UNL A   1      29.898  30.001  22.153  1.00  0.00    -0.282 N 
ATOM     88  C   UNL A   1      27.931  30.699  21.921  1.00  0.00     0.135 A 
ATOM     89  N   UNL A   1      29.179  30.936  21.519  1.00  0.00    -0.184 NA
ATOM     90  H   UNL A   1      30.877  29.932  22.070  1.00  0.00     0.190 HD
ENDBRANCH  84  85
ENDBRANCH  82  84
ENDBRANCH  79  82
BRANCH  81  91
ATOM     91  C   UNL A   1      32.157  24.165  23.405  1.00  0.00     0.022 C 
ATOM     92  C   UNL A   1      31.608  23.403  24.587  1.00  0.00     0.007 C 
ATOM     93  C   UNL A   1      30.705  23.742  23.432  1.00  0.00     0.007 C 
ENDBRANCH  81  91
ENDBRANCH  74  77
ENDBRANCH  72  73
ENDBRANCH   1  72
TORSDOF 17
ENDMDL
