MODEL 1
REMARK VINA RESULT:     -12.2      0.000      0.000
REMARK SMILES COC(=O)c1ccc(N2C[C@@H](C(=O)NCCCNC(=O)c3ccc(-c4c5nc(c(-c6cc(S(=O)(=O)[O-])ccc6F)c6ccc([nH]6)c(-c6cc(S(=O)(=O)[O-])ccc6F)c6nc(c(-c7cc(S(=O)(=O)[O-])ccc7F)c7ccc4[nH]7)C=C6)C=C5)cc3)CC2=O)cc1
REMARK SMILES IDX 16 1 15 2 14 3 12 4 13 5 11 7 9 8 10 9 85 10 84 11 86 12
REMARK SMILES IDX 8 13 5 14 6 15 88 16 7 17 87 18 3 19 4 20 2 21 1 22 17 23
REMARK SMILES IDX 18 24 19 25 20 27 21 28 22 29 83 30 23 31 82 32 24 33 25 34
REMARK SMILES IDX 26 35 76 36 27 37 81 38 75 39 77 40 28 41 80 42 74 43 73 44
REMARK SMILES IDX 29 46 61 47 41 48 60 49 42 50 45 51 59 52 78 53 43 54 44 55
REMARK SMILES IDX 58 57 79 58 46 59 30 60 31 61 39 62 32 63 38 64 40 65 37 66
REMARK SMILES IDX 33 67 34 68 35 69 36 70 62 71 63 72 71 73 64 74 70 75 72 76
REMARK SMILES IDX 69 77 65 78 66 79 67 80 68 81 47 82 48 83 56 84 49 85 55 86
REMARK SMILES IDX 57 87 54 88 50 89 51 90 52 91 53 92
REMARK H PARENT 14 6 18 26 77 45 45 56
REMARK Flexibility Score: inf
ROOT
ATOM      1  C   UNL A   1      35.769  20.878  24.903  1.00  0.00     0.042 C 
ENDROOT
BRANCH   1   2
ATOM      2  C   UNL A   1      34.621  21.881  24.908  1.00  0.00     0.117 C 
BRANCH   2   3
ATOM      3  N   UNL A   1      34.742  22.872  23.850  1.00  0.00    -0.356 N 
ATOM      4  C   UNL A   1      33.965  23.926  23.499  1.00  0.00     0.225 C 
ATOM      5  O   UNL A   1      34.351  24.627  22.559  1.00  0.00    -0.275 OA
ATOM      6  H   UNL A   1      35.539  22.755  23.281  1.00  0.00     0.163 HD
BRANCH   4   7
ATOM      7  C   UNL A   1      32.687  24.291  24.225  1.00  0.00     0.107 C 
ATOM      8  N   UNL A   1      31.420  26.277  24.332  1.00  0.00    -0.312 N 
ATOM      9  C   UNL A   1      31.801  25.224  23.423  1.00  0.00     0.139 C 
ATOM     10  C   UNL A   1      32.048  26.176  25.572  1.00  0.00     0.227 C 
ATOM     11  C   UNL A   1      32.886  24.926  25.591  1.00  0.00     0.116 C 
ATOM     12  O   UNL A   1      31.939  26.922  26.534  1.00  0.00    -0.274 OA
BRANCH   8  13
ATOM     13  C   UNL A   1      30.560  27.331  23.946  1.00  0.00     0.044 A 
ATOM     14  C   UNL A   1      28.830  29.426  23.204  1.00  0.00     0.060 A 
ATOM     15  C   UNL A   1      28.396  28.098  23.146  1.00  0.00     0.018 A 
ATOM     16  C   UNL A   1      30.131  29.708  23.629  1.00  0.00     0.018 A 
ATOM     17  C   UNL A   1      29.266  27.057  23.486  1.00  0.00     0.027 A 
ATOM     18  C   UNL A   1      30.979  28.666  24.020  1.00  0.00     0.027 A 
BRANCH  14  19
ATOM     19  C   UNL A   1      27.871  30.493  22.837  1.00  0.00     0.337 C 
ATOM     20  O   UNL A   1      27.228  31.132  23.659  1.00  0.00    -0.246 OA
BRANCH  19  21
ATOM     21  O   UNL A   1      27.778  30.596  21.490  1.00  0.00    -0.465 OA
ATOM     22  C   UNL A   1      28.083  31.895  20.981  1.00  0.00     0.282 C 
ENDBRANCH  19  21
ENDBRANCH  14  19
ENDBRANCH   8  13
ENDBRANCH   4   7
ENDBRANCH   2   3
ENDBRANCH   1   2
BRANCH   1  23
ATOM     23  C   UNL A   1      37.118  21.467  25.305  1.00  0.00     0.118 C 
BRANCH  23  24
ATOM     24  N   UNL A   1      38.097  20.447  25.650  1.00  0.00    -0.352 N 
ATOM     25  C   UNL A   1      39.385  20.572  26.114  1.00  0.00     0.251 C 
ATOM     26  H   UNL A   1      37.787  19.519  25.532  1.00  0.00     0.163 HD
ATOM     27  O   UNL A   1      40.105  19.578  26.145  1.00  0.00    -0.269 OA
BRANCH  25  28
ATOM     28  C   UNL A   1      39.909  21.888  26.546  1.00  0.00     0.039 A 
ATOM     29  C   UNL A   1      40.981  21.927  27.442  1.00  0.00     0.014 A 
ATOM     30  C   UNL A   1      39.339  23.079  26.092  1.00  0.00     0.014 A 
ATOM     31  C   UNL A   1      41.525  23.157  27.822  1.00  0.00     0.010 A 
ATOM     32  C   UNL A   1      39.938  24.300  26.400  1.00  0.00     0.010 A 
ATOM     33  C   UNL A   1      41.037  24.353  27.271  1.00  0.00    -0.014 A 
BRANCH  33  34
ATOM     34  C   UNL A   1      41.660  25.665  27.594  1.00  0.00     0.031 A 
ATOM     35  C   UNL A   1      40.889  26.700  28.368  1.00  0.00     0.074 A 
ATOM     36  C   UNL A   1      42.897  25.948  27.137  1.00  0.00     0.049 A 
ATOM     37  N   UNL A   1      41.227  27.927  28.677  1.00  0.00    -0.248 NA
ATOM     38  C   UNL A   1      39.547  26.313  28.829  1.00  0.00     0.031 C 
ATOM     39  C   UNL A   1      43.730  25.043  26.342  1.00  0.00     0.029 A 
ATOM     40  N   UNL A   1      43.667  27.076  27.266  1.00  0.00    -0.354 N 
ATOM     41  C   UNL A   1      40.139  28.460  29.360  1.00  0.00     0.074 A 
ATOM     42  C   UNL A   1      39.105  27.446  29.353  1.00  0.00     0.031 C 
ATOM     43  C   UNL A   1      44.901  25.641  26.077  1.00  0.00     0.029 A 
ATOM     44  C   UNL A   1      44.887  26.990  26.634  1.00  0.00     0.049 A 
ATOM     45  H   UNL A   1      43.375  27.874  27.763  1.00  0.00     0.167 HD
ATOM     46  C   UNL A   1      40.021  29.672  29.959  1.00  0.00     0.034 A 
ATOM     47  C   UNL A   1      45.875  27.897  26.502  1.00  0.00     0.034 A 
ATOM     48  C   UNL A   1      41.063  30.671  29.955  1.00  0.00     0.049 A 
ATOM     49  C   UNL A   1      45.708  29.254  27.140  1.00  0.00     0.074 A 
ATOM     50  C   UNL A   1      41.067  31.913  30.567  1.00  0.00     0.029 A 
ATOM     51  N   UNL A   1      42.282  30.550  29.300  1.00  0.00    -0.354 N 
ATOM     52  N   UNL A   1      44.690  29.726  27.823  1.00  0.00    -0.248 NA
ATOM     53  C   UNL A   1      46.826  30.194  26.998  1.00  0.00     0.031 C 
ATOM     54  C   UNL A   1      42.252  32.570  30.218  1.00  0.00     0.029 A 
ATOM     55  C   UNL A   1      43.029  31.706  29.463  1.00  0.00     0.049 A 
ATOM     56  H   UNL A   1      42.574  29.757  28.793  1.00  0.00     0.167 HD
ATOM     57  C   UNL A   1      45.061  31.009  28.218  1.00  0.00     0.074 A 
ATOM     58  C   UNL A   1      46.400  31.226  27.710  1.00  0.00     0.031 C 
ATOM     59  C   UNL A   1      44.360  31.920  28.940  1.00  0.00     0.034 A 
BRANCH  46  60
ATOM     60  C   UNL A   1      38.707  29.985  30.639  1.00  0.00     0.023 A 
ATOM     61  C   UNL A   1      37.686  30.695  29.982  1.00  0.00     0.031 A 
ATOM     62  C   UNL A   1      38.482  29.600  31.973  1.00  0.00     0.131 A 
ATOM     63  C   UNL A   1      36.532  31.076  30.683  1.00  0.00     0.055 A 
ATOM     64  C   UNL A   1      37.290  29.901  32.636  1.00  0.00     0.041 A 
ATOM     65  F   UNL A   1      39.424  28.939  32.663  1.00  0.00    -0.206 F 
ATOM     66  C   UNL A   1      36.314  30.659  31.997  1.00  0.00     0.022 A 
BRANCH  63  67
ATOM     67  S   UNL A   1      35.401  32.261  29.904  1.00  0.00     0.124 S 
ATOM     68  O   UNL A   1      36.293  33.387  29.637  1.00  0.00    -0.237 OA
ATOM     69  O   UNL A   1      34.930  31.528  28.735  1.00  0.00    -0.237 OA
ATOM     70  O   UNL A   1      34.395  32.505  30.936  1.00  0.00    -0.744 OA
ENDBRANCH  63  67
ENDBRANCH  46  60
BRANCH  47  71
ATOM     71  C   UNL A   1      47.103  27.565  25.724  1.00  0.00     0.023 A 
ATOM     72  C   UNL A   1      47.200  27.866  24.356  1.00  0.00     0.031 A 
ATOM     73  C   UNL A   1      48.188  26.907  26.331  1.00  0.00     0.131 A 
ATOM     74  C   UNL A   1      48.336  27.472  23.631  1.00  0.00     0.055 A 
ATOM     75  C   UNL A   1      49.340  26.568  25.619  1.00  0.00     0.041 A 
ATOM     76  F   UNL A   1      48.150  26.597  27.637  1.00  0.00    -0.206 F 
ATOM     77  C   UNL A   1      49.413  26.840  24.256  1.00  0.00     0.022 A 
BRANCH  74  78
ATOM     78  S   UNL A   1      48.351  27.722  21.834  1.00  0.00     0.124 S 
ATOM     79  O   UNL A   1      49.466  28.648  21.674  1.00  0.00    -0.237 OA
ATOM     80  O   UNL A   1      48.568  26.365  21.342  1.00  0.00    -0.237 OA
ATOM     81  O   UNL A   1      47.029  28.280  21.557  1.00  0.00    -0.744 OA
ENDBRANCH  74  78
ENDBRANCH  47  71
BRANCH  59  82
ATOM     82  C   UNL A   1      45.054  33.223  29.263  1.00  0.00     0.023 A 
ATOM     83  C   UNL A   1      44.940  34.352  28.433  1.00  0.00     0.031 A 
ATOM     84  C   UNL A   1      45.849  33.331  30.419  1.00  0.00     0.131 A 
ATOM     85  C   UNL A   1      45.657  35.520  28.738  1.00  0.00     0.055 A 
ATOM     86  C   UNL A   1      46.505  34.517  30.753  1.00  0.00     0.041 A 
ATOM     87  F   UNL A   1      45.998  32.285  31.246  1.00  0.00    -0.206 F 
ATOM     88  C   UNL A   1      46.422  35.616  29.903  1.00  0.00     0.022 A 
BRANCH  85  89
ATOM     89  S   UNL A   1      45.657  36.881  27.539  1.00  0.00     0.124 S 
ATOM     90  O   UNL A   1      45.980  36.189  26.296  1.00  0.00    -0.237 OA
ATOM     91  O   UNL A   1      44.295  37.394  27.648  1.00  0.00    -0.237 OA
ATOM     92  O   UNL A   1      46.698  37.778  28.038  1.00  0.00    -0.744 OA
ENDBRANCH  85  89
ENDBRANCH  59  82
ENDBRANCH  33  34
ENDBRANCH  25  28
ENDBRANCH  23  24
ENDBRANCH   1  23
TORSDOF 16
ENDMDL
MODEL 2
REMARK VINA RESULT:     -12.1      5.857     11.310
REMARK SMILES COC(=O)c1ccc(N2C[C@@H](C(=O)NCCCNC(=O)c3ccc(-c4c5nc(c(-c6cc(S(=O)(=O)[O-])ccc6F)c6ccc([nH]6)c(-c6cc(S(=O)(=O)[O-])ccc6F)c6nc(c(-c7cc(S(=O)(=O)[O-])ccc7F)c7ccc4[nH]7)C=C6)C=C5)cc3)CC2=O)cc1
REMARK SMILES IDX 16 1 15 2 14 3 12 4 13 5 11 7 9 8 10 9 85 10 84 11 86 12
REMARK SMILES IDX 8 13 5 14 6 15 88 16 7 17 87 18 3 19 4 20 2 21 1 22 17 23
REMARK SMILES IDX 18 24 19 25 20 27 21 28 22 29 83 30 23 31 82 32 24 33 25 34
REMARK SMILES IDX 26 35 76 36 27 37 81 38 75 39 77 40 28 41 80 42 74 43 73 44
REMARK SMILES IDX 29 46 61 47 41 48 60 49 42 50 45 51 59 52 78 53 43 54 44 55
REMARK SMILES IDX 58 57 79 58 46 59 30 60 31 61 39 62 32 63 38 64 40 65 37 66
REMARK SMILES IDX 33 67 34 68 35 69 36 70 62 71 63 72 71 73 64 74 70 75 72 76
REMARK SMILES IDX 69 77 65 78 66 79 67 80 68 81 47 82 48 83 56 84 49 85 55 86
REMARK SMILES IDX 57 87 54 88 50 89 51 90 52 91 53 92
REMARK H PARENT 14 6 18 26 77 45 45 56
REMARK Flexibility Score: inf
ROOT
ATOM      1  C   UNL A   1      31.519  31.766  26.719  1.00  0.00     0.042 C 
ENDROOT
BRANCH   1   2
ATOM      2  C   UNL A   1      31.821  30.555  25.844  1.00  0.00     0.117 C 
BRANCH   2   3
ATOM      3  N   UNL A   1      32.982  29.809  26.306  1.00  0.00    -0.356 N 
ATOM      4  C   UNL A   1      33.440  28.568  26.009  1.00  0.00     0.225 C 
ATOM      5  O   UNL A   1      34.497  28.213  26.540  1.00  0.00    -0.275 OA
ATOM      6  H   UNL A   1      33.539  30.297  26.955  1.00  0.00     0.163 HD
BRANCH   4   7
ATOM      7  C   UNL A   1      32.740  27.635  25.043  1.00  0.00     0.107 C 
ATOM      8  N   UNL A   1      33.176  25.420  24.360  1.00  0.00    -0.312 N 
ATOM      9  C   UNL A   1      32.757  26.191  25.504  1.00  0.00     0.139 C 
ATOM     10  C   UNL A   1      33.529  26.216  23.272  1.00  0.00     0.227 C 
ATOM     11  C   UNL A   1      33.283  27.658  23.624  1.00  0.00     0.116 C 
ATOM     12  O   UNL A   1      33.935  25.857  22.176  1.00  0.00    -0.274 OA
BRANCH   8  13
ATOM     13  C   UNL A   1      33.283  24.011  24.398  1.00  0.00     0.044 A 
ATOM     14  C   UNL A   1      33.475  21.203  24.496  1.00  0.00     0.060 A 
ATOM     15  C   UNL A   1      34.075  21.987  25.486  1.00  0.00     0.018 A 
ATOM     16  C   UNL A   1      32.781  21.822  23.452  1.00  0.00     0.018 A 
ATOM     17  C   UNL A   1      34.004  23.382  25.419  1.00  0.00     0.027 A 
ATOM     18  C   UNL A   1      32.667  23.217  23.421  1.00  0.00     0.027 A 
BRANCH  14  19
ATOM     19  C   UNL A   1      33.575  19.730  24.612  1.00  0.00     0.337 C 
ATOM     20  O   UNL A   1      34.637  19.123  24.587  1.00  0.00    -0.246 OA
BRANCH  19  21
ATOM     21  O   UNL A   1      32.338  19.181  24.683  1.00  0.00    -0.465 OA
ATOM     22  C   UNL A   1      32.338  17.766  24.876  1.00  0.00     0.282 C 
ENDBRANCH  19  21
ENDBRANCH  14  19
ENDBRANCH   8  13
ENDBRANCH   4   7
ENDBRANCH   2   3
ENDBRANCH   1   2
BRANCH   1  23
ATOM     23  C   UNL A   1      32.754  32.418  27.336  1.00  0.00     0.118 C 
BRANCH  23  24
ATOM     24  N   UNL A   1      32.557  33.830  27.626  1.00  0.00    -0.352 N 
ATOM     25  C   UNL A   1      33.149  34.633  28.573  1.00  0.00     0.251 C 
ATOM     26  H   UNL A   1      31.895  34.283  27.055  1.00  0.00     0.163 HD
ATOM     27  O   UNL A   1      32.684  35.751  28.779  1.00  0.00    -0.269 OA
BRANCH  25  28
ATOM     28  C   UNL A   1      34.313  34.152  29.351  1.00  0.00     0.039 A 
ATOM     29  C   UNL A   1      34.089  33.356  30.478  1.00  0.00     0.014 A 
ATOM     30  C   UNL A   1      35.618  34.496  28.993  1.00  0.00     0.014 A 
ATOM     31  C   UNL A   1      35.174  32.847  31.197  1.00  0.00     0.010 A 
ATOM     32  C   UNL A   1      36.699  33.916  29.655  1.00  0.00     0.010 A 
ATOM     33  C   UNL A   1      36.489  33.087  30.767  1.00  0.00    -0.014 A 
BRANCH  33  34
ATOM     34  C   UNL A   1      37.654  32.481  31.467  1.00  0.00     0.031 A 
ATOM     35  C   UNL A   1      38.394  31.327  30.845  1.00  0.00     0.074 A 
ATOM     36  C   UNL A   1      38.009  32.929  32.688  1.00  0.00     0.049 A 
ATOM     37  N   UNL A   1      39.379  30.614  31.332  1.00  0.00    -0.248 NA
ATOM     38  C   UNL A   1      37.945  30.898  29.512  1.00  0.00     0.031 C 
ATOM     39  C   UNL A   1      37.344  34.015  33.413  1.00  0.00     0.029 A 
ATOM     40  N   UNL A   1      39.005  32.524  33.540  1.00  0.00    -0.354 N 
ATOM     41  C   UNL A   1      39.661  29.649  30.370  1.00  0.00     0.074 A 
ATOM     42  C   UNL A   1      38.694  29.825  29.307  1.00  0.00     0.031 C 
ATOM     43  C   UNL A   1      37.967  34.207  34.586  1.00  0.00     0.029 A 
ATOM     44  C   UNL A   1      39.039  33.226  34.725  1.00  0.00     0.049 A 
ATOM     45  H   UNL A   1      39.637  31.801  33.326  1.00  0.00     0.167 HD
ATOM     46  C   UNL A   1      40.650  28.721  30.362  1.00  0.00     0.034 A 
ATOM     47  C   UNL A   1      39.830  33.085  35.807  1.00  0.00     0.034 A 
ATOM     48  C   UNL A   1      41.607  28.560  31.431  1.00  0.00     0.049 A 
ATOM     49  C   UNL A   1      40.897  32.019  35.795  1.00  0.00     0.074 A 
ATOM     50  C   UNL A   1      42.676  27.683  31.507  1.00  0.00     0.029 A 
ATOM     51  N   UNL A   1      41.606  29.284  32.617  1.00  0.00    -0.354 N 
ATOM     52  N   UNL A   1      41.181  31.144  34.857  1.00  0.00    -0.248 NA
ATOM     53  C   UNL A   1      41.756  31.929  36.983  1.00  0.00     0.031 C 
ATOM     54  C   UNL A   1      43.270  27.823  32.766  1.00  0.00     0.029 A 
ATOM     55  C   UNL A   1      42.632  28.850  33.443  1.00  0.00     0.049 A 
ATOM     56  H   UNL A   1      40.970  30.002  32.839  1.00  0.00     0.167 HD
ATOM     57  C   UNL A   1      42.273  30.421  35.331  1.00  0.00     0.074 A 
ATOM     58  C   UNL A   1      42.603  30.974  36.629  1.00  0.00     0.031 C 
ATOM     59  C   UNL A   1      42.945  29.398  34.744  1.00  0.00     0.034 A 
BRANCH  46  60
ATOM     60  C   UNL A   1      40.722  27.794  29.170  1.00  0.00     0.023 A 
ATOM     61  C   UNL A   1      41.671  27.977  28.148  1.00  0.00     0.031 A 
ATOM     62  C   UNL A   1      39.810  26.732  29.032  1.00  0.00     0.131 A 
ATOM     63  C   UNL A   1      41.629  27.175  26.997  1.00  0.00     0.055 A 
ATOM     64  C   UNL A   1      39.834  25.877  27.927  1.00  0.00     0.041 A 
ATOM     65  F   UNL A   1      38.866  26.516  29.961  1.00  0.00    -0.206 F 
ATOM     66  C   UNL A   1      40.736  26.107  26.893  1.00  0.00     0.022 A 
BRANCH  63  67
ATOM     67  S   UNL A   1      42.647  27.653  25.574  1.00  0.00     0.124 S 
ATOM     68  O   UNL A   1      41.932  28.829  25.083  1.00  0.00    -0.237 OA
ATOM     69  O   UNL A   1      43.947  27.903  26.185  1.00  0.00    -0.237 OA
ATOM     70  O   UNL A   1      42.582  26.484  24.698  1.00  0.00    -0.744 OA
ENDBRANCH  63  67
ENDBRANCH  46  60
BRANCH  47  71
ATOM     71  C   UNL A   1      39.638  33.961  36.999  1.00  0.00     0.023 A 
ATOM     72  C   UNL A   1      39.034  33.473  38.169  1.00  0.00     0.031 A 
ATOM     73  C   UNL A   1      40.025  35.313  36.972  1.00  0.00     0.131 A 
ATOM     74  C   UNL A   1      38.795  34.341  39.247  1.00  0.00     0.055 A 
ATOM     75  C   UNL A   1      39.838  36.157  38.068  1.00  0.00     0.041 A 
ATOM     76  F   UNL A   1      40.609  35.831  35.879  1.00  0.00    -0.206 F 
ATOM     77  C   UNL A   1      39.208  35.675  39.211  1.00  0.00     0.022 A 
BRANCH  74  78
ATOM     78  S   UNL A   1      37.859  33.720  40.671  1.00  0.00     0.124 S 
ATOM     79  O   UNL A   1      36.719  33.082  40.021  1.00  0.00    -0.237 OA
ATOM     80  O   UNL A   1      38.823  32.822  41.299  1.00  0.00    -0.237 OA
ATOM     81  O   UNL A   1      37.550  34.930  41.429  1.00  0.00    -0.744 OA
ENDBRANCH  74  78
ENDBRANCH  47  71
BRANCH  59  82
ATOM     82  C   UNL A   1      44.137  28.842  35.486  1.00  0.00     0.023 A 
ATOM     83  C   UNL A   1      44.006  27.828  36.452  1.00  0.00     0.031 A 
ATOM     84  C   UNL A   1      45.426  29.341  35.225  1.00  0.00     0.131 A 
ATOM     85  C   UNL A   1      45.133  27.390  37.164  1.00  0.00     0.055 A 
ATOM     86  C   UNL A   1      46.553  28.853  35.888  1.00  0.00     0.041 A 
ATOM     87  F   UNL A   1      45.612  30.312  34.317  1.00  0.00    -0.206 F 
ATOM     88  C   UNL A   1      46.409  27.881  36.873  1.00  0.00     0.022 A 
BRANCH  85  89
ATOM     89  S   UNL A   1      44.898  26.239  38.546  1.00  0.00     0.124 S 
ATOM     90  O   UNL A   1      45.909  26.695  39.494  1.00  0.00    -0.237 OA
ATOM     91  O   UNL A   1      43.511  26.486  38.926  1.00  0.00    -0.237 OA
ATOM     92  O   UNL A   1      45.153  24.929  37.949  1.00  0.00    -0.744 OA
ENDBRANCH  85  89
ENDBRANCH  59  82
ENDBRANCH  33  34
ENDBRANCH  25  28
ENDBRANCH  23  24
ENDBRANCH   1  23
TORSDOF 16
ENDMDL
MODEL 3
REMARK VINA RESULT:     -12.0      4.920      8.599
REMARK SMILES COC(=O)c1ccc(N2C[C@@H](C(=O)NCCCNC(=O)c3ccc(-c4c5nc(c(-c6cc(S(=O)(=O)[O-])ccc6F)c6ccc([nH]6)c(-c6cc(S(=O)(=O)[O-])ccc6F)c6nc(c(-c7cc(S(=O)(=O)[O-])ccc7F)c7ccc4[nH]7)C=C6)C=C5)cc3)CC2=O)cc1
REMARK SMILES IDX 16 1 15 2 14 3 12 4 13 5 11 7 9 8 10 9 85 10 84 11 86 12
REMARK SMILES IDX 8 13 5 14 6 15 88 16 7 17 87 18 3 19 4 20 2 21 1 22 17 23
REMARK SMILES IDX 18 24 19 25 20 27 21 28 22 29 83 30 23 31 82 32 24 33 25 34
REMARK SMILES IDX 26 35 76 36 27 37 81 38 75 39 77 40 28 41 80 42 74 43 73 44
REMARK SMILES IDX 29 46 61 47 41 48 60 49 42 50 45 51 59 52 78 53 43 54 44 55
REMARK SMILES IDX 58 57 79 58 46 59 30 60 31 61 39 62 32 63 38 64 40 65 37 66
REMARK SMILES IDX 33 67 34 68 35 69 36 70 62 71 63 72 71 73 64 74 70 75 72 76
REMARK SMILES IDX 69 77 65 78 66 79 67 80 68 81 47 82 48 83 56 84 49 85 55 86
REMARK SMILES IDX 57 87 54 88 50 89 51 90 52 91 53 92
REMARK H PARENT 14 6 18 26 77 45 45 56
REMARK Flexibility Score: inf
ROOT
ATOM      1  C   UNL A   1      33.033  29.204  24.947  1.00  0.00     0.042 C 
ENDROOT
BRANCH   1   2
ATOM      2  C   UNL A   1      33.534  28.010  24.141  1.00  0.00     0.117 C 
BRANCH   2   3
ATOM      3  N   UNL A   1      32.461  27.103  23.764  1.00  0.00    -0.356 N 
ATOM      4  C   UNL A   1      32.300  25.767  23.934  1.00  0.00     0.225 C 
ATOM      5  O   UNL A   1      31.243  25.269  23.534  1.00  0.00    -0.275 OA
ATOM      6  H   UNL A   1      31.712  27.541  23.299  1.00  0.00     0.163 HD
BRANCH   4   7
ATOM      7  C   UNL A   1      33.328  24.888  24.615  1.00  0.00     0.107 C 
ATOM      8  N   UNL A   1      33.453  22.561  24.977  1.00  0.00    -0.312 N 
ATOM      9  C   UNL A   1      33.503  23.549  23.927  1.00  0.00     0.139 C 
ATOM     10  C   UNL A   1      33.158  23.112  26.223  1.00  0.00     0.227 C 
ATOM     11  C   UNL A   1      33.058  24.607  26.083  1.00  0.00     0.116 C 
ATOM     12  O   UNL A   1      33.034  22.532  27.292  1.00  0.00    -0.274 OA
BRANCH   8  13
ATOM     13  C   UNL A   1      33.612  21.180  24.722  1.00  0.00     0.044 A 
ATOM     14  C   UNL A   1      33.930  18.434  24.184  1.00  0.00     0.060 A 
ATOM     15  C   UNL A   1      32.722  19.075  23.892  1.00  0.00     0.018 A 
ATOM     16  C   UNL A   1      34.979  19.164  24.749  1.00  0.00     0.018 A 
ATOM     17  C   UNL A   1      32.556  20.432  24.188  1.00  0.00     0.027 A 
ATOM     18  C   UNL A   1      34.825  20.534  24.992  1.00  0.00     0.027 A 
BRANCH  14  19
ATOM     19  C   UNL A   1      34.059  16.997  23.849  1.00  0.00     0.337 C 
ATOM     20  O   UNL A   1      33.982  16.563  22.708  1.00  0.00    -0.246 OA
BRANCH  19  21
ATOM     21  O   UNL A   1      34.205  16.264  24.979  1.00  0.00    -0.465 OA
ATOM     22  C   UNL A   1      32.973  15.818  25.548  1.00  0.00     0.282 C 
ENDBRANCH  19  21
ENDBRANCH  14  19
ENDBRANCH   8  13
ENDBRANCH   4   7
ENDBRANCH   2   3
ENDBRANCH   1   2
BRANCH   1  23
ATOM     23  C   UNL A   1      33.662  29.334  26.331  1.00  0.00     0.118 C 
BRANCH  23  24
ATOM     24  N   UNL A   1      33.739  30.715  26.785  1.00  0.00    -0.352 N 
ATOM     25  C   UNL A   1      34.608  31.312  27.668  1.00  0.00     0.251 C 
ATOM     26  H   UNL A   1      33.062  31.317  26.399  1.00  0.00     0.163 HD
ATOM     27  O   UNL A   1      34.364  32.449  28.065  1.00  0.00    -0.269 OA
BRANCH  25  28
ATOM     28  C   UNL A   1      35.805  30.591  28.157  1.00  0.00     0.039 A 
ATOM     29  C   UNL A   1      37.015  30.750  27.475  1.00  0.00     0.014 A 
ATOM     30  C   UNL A   1      35.740  29.745  29.266  1.00  0.00     0.014 A 
ATOM     31  C   UNL A   1      38.169  30.121  27.949  1.00  0.00     0.010 A 
ATOM     32  C   UNL A   1      36.906  29.191  29.789  1.00  0.00     0.010 A 
ATOM     33  C   UNL A   1      38.134  29.370  29.135  1.00  0.00    -0.014 A 
BRANCH  33  34
ATOM     34  C   UNL A   1      39.369  28.766  29.705  1.00  0.00     0.031 A 
ATOM     35  C   UNL A   1      39.992  29.346  30.947  1.00  0.00     0.074 A 
ATOM     36  C   UNL A   1      39.964  27.736  29.070  1.00  0.00     0.049 A 
ATOM     37  N   UNL A   1      41.107  29.013  31.548  1.00  0.00    -0.248 NA
ATOM     38  C   UNL A   1      39.282  30.468  31.578  1.00  0.00     0.031 C 
ATOM     39  C   UNL A   1      39.480  27.113  27.836  1.00  0.00     0.029 A 
ATOM     40  N   UNL A   1      41.108  27.038  29.366  1.00  0.00    -0.354 N 
ATOM     41  C   UNL A   1      41.235  29.890  32.621  1.00  0.00     0.074 A 
ATOM     42  C   UNL A   1      40.122  30.813  32.542  1.00  0.00     0.031 C 
ATOM     43  C   UNL A   1      40.304  26.110  27.497  1.00  0.00     0.029 A 
ATOM     44  C   UNL A   1      41.405  26.050  28.454  1.00  0.00     0.049 A 
ATOM     45  H   UNL A   1      41.664  27.224  30.156  1.00  0.00     0.167 HD
ATOM     46  C   UNL A   1      42.178  29.907  33.597  1.00  0.00     0.034 A 
ATOM     47  C   UNL A   1      42.452  25.204  28.384  1.00  0.00     0.034 A 
ATOM     48  C   UNL A   1      43.282  28.978  33.660  1.00  0.00     0.049 A 
ATOM     49  C   UNL A   1      43.512  25.267  29.455  1.00  0.00     0.074 A 
ATOM     50  C   UNL A   1      44.268  28.877  34.627  1.00  0.00     0.029 A 
ATOM     51  N   UNL A   1      43.553  27.996  32.716  1.00  0.00    -0.354 N 
ATOM     52  N   UNL A   1      43.594  26.072  30.490  1.00  0.00    -0.248 NA
ATOM     53  C   UNL A   1      44.613  24.301  29.354  1.00  0.00     0.031 C 
ATOM     54  C   UNL A   1      45.175  27.890  34.227  1.00  0.00     0.029 A 
ATOM     55  C   UNL A   1      44.709  27.311  33.058  1.00  0.00     0.049 A 
ATOM     56  H   UNL A   1      43.004  27.813  31.918  1.00  0.00     0.167 HD
ATOM     57  C   UNL A   1      44.740  25.686  31.180  1.00  0.00     0.074 A 
ATOM     58  C   UNL A   1      45.305  24.569  30.451  1.00  0.00     0.031 C 
ATOM     59  C   UNL A   1      45.273  26.205  32.316  1.00  0.00     0.034 A 
BRANCH  46  60
ATOM     60  C   UNL A   1      42.065  30.984  34.652  1.00  0.00     0.023 A 
ATOM     61  C   UNL A   1      42.816  32.172  34.578  1.00  0.00     0.031 A 
ATOM     62  C   UNL A   1      41.223  30.812  35.764  1.00  0.00     0.131 A 
ATOM     63  C   UNL A   1      42.780  33.093  35.636  1.00  0.00     0.055 A 
ATOM     64  C   UNL A   1      41.121  31.777  36.769  1.00  0.00     0.041 A 
ATOM     65  F   UNL A   1      40.496  29.692  35.906  1.00  0.00    -0.206 F 
ATOM     66  C   UNL A   1      41.916  32.918  36.717  1.00  0.00     0.022 A 
BRANCH  63  67
ATOM     67  S   UNL A   1      44.000  34.435  35.653  1.00  0.00     0.124 S 
ATOM     68  O   UNL A   1      43.646  35.170  34.440  1.00  0.00    -0.237 OA
ATOM     69  O   UNL A   1      43.713  35.107  36.914  1.00  0.00    -0.237 OA
ATOM     70  O   UNL A   1      45.282  33.735  35.595  1.00  0.00    -0.744 OA
ENDBRANCH  63  67
ENDBRANCH  46  60
BRANCH  47  71
ATOM     71  C   UNL A   1      42.563  24.236  27.255  1.00  0.00     0.023 A 
ATOM     72  C   UNL A   1      41.931  22.982  27.308  1.00  0.00     0.031 A 
ATOM     73  C   UNL A   1      43.333  24.537  26.117  1.00  0.00     0.131 A 
ATOM     74  C   UNL A   1      42.117  22.061  26.265  1.00  0.00     0.055 A 
ATOM     75  C   UNL A   1      43.467  23.640  25.056  1.00  0.00     0.041 A 
ATOM     76  F   UNL A   1      43.955  25.722  26.013  1.00  0.00    -0.206 F 
ATOM     77  C   UNL A   1      42.867  22.386  25.133  1.00  0.00     0.022 A 
BRANCH  74  78
ATOM     78  S   UNL A   1      41.431  20.391  26.449  1.00  0.00     0.124 S 
ATOM     79  O   UNL A   1      42.167  19.655  25.427  1.00  0.00    -0.237 OA
ATOM     80  O   UNL A   1      41.767  20.076  27.833  1.00  0.00    -0.237 OA
ATOM     81  O   UNL A   1      40.007  20.577  26.181  1.00  0.00    -0.744 OA
ENDBRANCH  74  78
ENDBRANCH  47  71
BRANCH  59  82
ATOM     82  C   UNL A   1      46.510  25.534  32.865  1.00  0.00     0.023 A 
ATOM     83  C   UNL A   1      47.794  25.813  32.362  1.00  0.00     0.031 A 
ATOM     84  C   UNL A   1      46.400  24.593  33.905  1.00  0.00     0.131 A 
ATOM     85  C   UNL A   1      48.906  25.115  32.857  1.00  0.00     0.055 A 
ATOM     86  C   UNL A   1      47.518  23.952  34.440  1.00  0.00     0.041 A 
ATOM     87  F   UNL A   1      45.200  24.283  34.422  1.00  0.00    -0.206 F 
ATOM     88  C   UNL A   1      48.779  24.202  33.907  1.00  0.00     0.022 A 
BRANCH  85  89
ATOM     89  S   UNL A   1      50.511  25.343  32.043  1.00  0.00     0.124 S 
ATOM     90  O   UNL A   1      50.203  26.362  31.046  1.00  0.00    -0.237 OA
ATOM     91  O   UNL A   1      51.364  25.769  33.147  1.00  0.00    -0.237 OA
ATOM     92  O   UNL A   1      50.813  24.018  31.503  1.00  0.00    -0.744 OA
ENDBRANCH  85  89
ENDBRANCH  59  82
ENDBRANCH  33  34
ENDBRANCH  25  28
ENDBRANCH  23  24
ENDBRANCH   1  23
TORSDOF 16
ENDMDL
