MODEL 1
REMARK VINA RESULT:     -13.5      0.000      0.000
REMARK SMILES COc1ccc(N2C(=O)/C(=C/c3c(C(=O)NCCCNC(=O)c4ccc(-c5c6nc(c(-c7cc(S(=O)(=O)[O-])ccc7F)c7ccc([nH]7)c(-c7cc(S(=O)(=O)[O-])ccc7F)c7nc(c(-c8cc(S(=O)(=O)[O-])ccc8F)c8ccc5[nH]8)C=C7)C=C6)cc4)[nH]c4cc(OC)ccc34)SC2=S)cc1
REMARK SMILES IDX 18 1 17 2 16 3 14 4 15 5 13 7 12 8 94 9 86 10 87 11 93 12
REMARK SMILES IDX 88 14 92 15 89 16 11 17 7 18 8 19 96 20 9 21 10 22 95 23
REMARK SMILES IDX 97 24 6 25 3 26 4 27 99 28 5 29 98 30 2 31 1 32 90 33 91 34
REMARK SMILES IDX 19 35 20 36 21 37 22 39 23 40 24 41 85 42 25 43 84 44 26 45
REMARK SMILES IDX 27 46 28 47 78 48 29 49 83 50 77 51 79 52 30 53 82 54 76 55
REMARK SMILES IDX 75 56 31 58 63 59 43 60 62 61 44 62 47 63 61 64 80 65 45 66
REMARK SMILES IDX 46 67 60 69 81 70 48 71 32 72 33 73 41 74 34 75 40 76 42 77
REMARK SMILES IDX 39 78 35 79 36 80 37 81 38 82 64 83 65 84 73 85 66 86 72 87
REMARK SMILES IDX 74 88 71 89 67 90 68 91 69 92 70 93 49 94 50 95 58 96 51 97
REMARK SMILES IDX 57 98 59 99 56 100 52 101 53 102 54 103 55 104
REMARK H PARENT 16 6 86 13 20 38 79 57 47 68
REMARK Flexibility Score: inf
ROOT
ATOM      1  C   UNL A   1      33.166  29.246  27.593  1.00  0.00     0.042 C 
ENDROOT
BRANCH   1   2
ATOM      2  C   UNL A   1      33.235  28.099  26.603  1.00  0.00     0.118 C 
BRANCH   2   3
ATOM      3  N   UNL A   1      33.989  28.391  25.395  1.00  0.00    -0.351 N 
ATOM      4  C   UNL A   1      33.490  28.613  24.132  1.00  0.00     0.268 C 
ATOM      5  O   UNL A   1      34.268  28.625  23.185  1.00  0.00    -0.268 OA
ATOM      6  H   UNL A   1      34.967  28.436  25.491  1.00  0.00     0.163 HD
BRANCH   4   7
ATOM      7  C   UNL A   1      32.060  28.711  23.954  1.00  0.00     0.112 A 
ATOM      8  C   UNL A   1      31.092  27.946  23.292  1.00  0.00     0.014 A 
ATOM      9  C   UNL A   1      29.974  28.858  23.080  1.00  0.00     0.008 A 
ATOM     10  N   UNL A   1      31.397  29.750  24.544  1.00  0.00    -0.350 N 
ATOM     11  C   UNL A   1      30.242  29.990  23.858  1.00  0.00     0.050 A 
ATOM     12  C   UNL A   1      28.790  28.918  22.297  1.00  0.00     0.015 A 
ATOM     13  H   UNL A   1      31.703  30.246  25.337  1.00  0.00     0.167 HD
ATOM     14  C   UNL A   1      29.469  31.150  23.869  1.00  0.00     0.073 A 
ATOM     15  C   UNL A   1      28.000  30.107  22.279  1.00  0.00     0.047 A 
ATOM     16  C   UNL A   1      28.351  31.214  23.048  1.00  0.00     0.120 A 
BRANCH   8  17
ATOM     17  C   UNL A   1      31.400  26.632  22.738  1.00  0.00     0.032 C 
ATOM     18  N   UNL A   1      31.924  23.405  24.326  1.00  0.00    -0.261 N 
ATOM     19  C   UNL A   1      32.010  24.205  23.174  1.00  0.00     0.270 C 
ATOM     20  C   UNL A   1      31.032  23.831  25.300  1.00  0.00     0.152 C 
ATOM     21  O   UNL A   1      32.757  24.066  22.216  1.00  0.00    -0.268 OA
ATOM     22  C   UNL A   1      31.154  25.443  23.350  1.00  0.00     0.081 C 
ATOM     23  S   UNL A   1      30.084  25.174  24.675  1.00  0.00    -0.054 SA
ATOM     24  S   UNL A   1      30.753  23.229  26.835  1.00  0.00    -0.051 S 
BRANCH  18  25
ATOM     25  C   UNL A   1      32.759  22.260  24.525  1.00  0.00     0.051 A 
ATOM     26  C   UNL A   1      34.486  20.016  24.689  1.00  0.00     0.119 A 
ATOM     27  C   UNL A   1      33.184  19.876  24.218  1.00  0.00     0.048 A 
ATOM     28  C   UNL A   1      34.946  21.288  25.024  1.00  0.00     0.048 A 
ATOM     29  C   UNL A   1      32.329  20.984  24.131  1.00  0.00     0.030 A 
ATOM     30  C   UNL A   1      34.084  22.402  24.956  1.00  0.00     0.030 A 
BRANCH  26  31
ATOM     31  O   UNL A   1      35.213  18.859  24.729  1.00  0.00    -0.497 OA
ATOM     32  C   UNL A   1      34.550  17.677  24.294  1.00  0.00     0.278 C 
ENDBRANCH  26  31
ENDBRANCH  18  25
ENDBRANCH   8  17
BRANCH  16  33
ATOM     33  O   UNL A   1      27.771  32.452  23.034  1.00  0.00    -0.497 OA
ATOM     34  C   UNL A   1      28.625  33.582  23.058  1.00  0.00     0.278 C 
ENDBRANCH  16  33
ENDBRANCH   4   7
ENDBRANCH   2   3
ENDBRANCH   1   2
BRANCH   1  35
ATOM     35  C   UNL A   1      33.939  30.479  27.149  1.00  0.00     0.118 C 
BRANCH  35  36
ATOM     36  N   UNL A   1      33.183  31.725  27.150  1.00  0.00    -0.352 N 
ATOM     37  C   UNL A   1      33.392  32.890  27.860  1.00  0.00     0.251 C 
ATOM     38  H   UNL A   1      32.403  31.738  26.551  1.00  0.00     0.163 HD
ATOM     39  O   UNL A   1      32.579  33.805  27.734  1.00  0.00    -0.269 OA
BRANCH  37  40
ATOM     40  C   UNL A   1      34.520  33.040  28.818  1.00  0.00     0.039 A 
ATOM     41  C   UNL A   1      34.311  32.630  30.141  1.00  0.00     0.014 A 
ATOM     42  C   UNL A   1      35.783  33.506  28.444  1.00  0.00     0.014 A 
ATOM     43  C   UNL A   1      35.394  32.493  31.007  1.00  0.00     0.010 A 
ATOM     44  C   UNL A   1      36.877  33.288  29.265  1.00  0.00     0.010 A 
ATOM     45  C   UNL A   1      36.691  32.701  30.518  1.00  0.00    -0.014 A 
BRANCH  45  46
ATOM     46  C   UNL A   1      37.861  32.073  31.167  1.00  0.00     0.031 A 
ATOM     47  C   UNL A   1      38.554  30.906  30.542  1.00  0.00     0.074 A 
ATOM     48  C   UNL A   1      38.154  32.494  32.416  1.00  0.00     0.049 A 
ATOM     49  N   UNL A   1      39.535  30.187  31.016  1.00  0.00    -0.248 NA
ATOM     50  C   UNL A   1      38.052  30.460  29.232  1.00  0.00     0.031 C 
ATOM     51  C   UNL A   1      37.431  33.551  33.138  1.00  0.00     0.029 A 
ATOM     52  N   UNL A   1      39.106  32.087  33.311  1.00  0.00    -0.354 N 
ATOM     53  C   UNL A   1      39.784  29.213  30.058  1.00  0.00     0.074 A 
ATOM     54  C   UNL A   1      38.798  29.386  29.013  1.00  0.00     0.031 C 
ATOM     55  C   UNL A   1      37.994  33.737  34.340  1.00  0.00     0.029 A 
ATOM     56  C   UNL A   1      39.079  32.783  34.499  1.00  0.00     0.049 A 
ATOM     57  H   UNL A   1      39.748  31.366  33.122  1.00  0.00     0.167 HD
ATOM     58  C   UNL A   1      40.770  28.282  30.053  1.00  0.00     0.034 A 
ATOM     59  C   UNL A   1      39.851  32.661  35.595  1.00  0.00     0.034 A 
ATOM     60  C   UNL A   1      41.711  28.133  31.137  1.00  0.00     0.049 A 
ATOM     61  C   UNL A   1      40.938  31.622  35.557  1.00  0.00     0.074 A 
ATOM     62  C   UNL A   1      42.776  27.259  31.248  1.00  0.00     0.029 A 
ATOM     63  N   UNL A   1      41.691  28.885  32.310  1.00  0.00    -0.354 N 
ATOM     64  N   UNL A   1      41.222  30.764  34.602  1.00  0.00    -0.248 NA
ATOM     65  C   UNL A   1      41.820  31.547  36.724  1.00  0.00     0.031 C 
ATOM     66  C   UNL A   1      43.359  27.437  32.507  1.00  0.00     0.029 A 
ATOM     67  C   UNL A   1      42.712  28.479  33.154  1.00  0.00     0.049 A 
ATOM     68  H   UNL A   1      41.046  29.600  32.509  1.00  0.00     0.167 HD
ATOM     69  C   UNL A   1      42.343  30.070  35.040  1.00  0.00     0.074 A 
ATOM     70  C   UNL A   1      42.693  30.630  36.332  1.00  0.00     0.031 C 
ATOM     71  C   UNL A   1      43.024  29.062  34.439  1.00  0.00     0.034 A 
BRANCH  58  72
ATOM     72  C   UNL A   1      40.869  27.374  28.850  1.00  0.00     0.023 A 
ATOM     73  C   UNL A   1      41.852  27.577  27.864  1.00  0.00     0.031 A 
ATOM     74  C   UNL A   1      39.977  26.304  28.673  1.00  0.00     0.131 A 
ATOM     75  C   UNL A   1      41.880  26.768  26.718  1.00  0.00     0.055 A 
ATOM     76  C   UNL A   1      40.058  25.452  27.567  1.00  0.00     0.041 A 
ATOM     77  F   UNL A   1      39.002  26.069  29.565  1.00  0.00    -0.206 F 
ATOM     78  C   UNL A   1      41.006  25.689  26.575  1.00  0.00     0.022 A 
BRANCH  75  79
ATOM     79  S   UNL A   1      42.997  27.223  25.364  1.00  0.00     0.124 S 
ATOM     80  O   UNL A   1      44.164  27.710  26.096  1.00  0.00    -0.237 OA
ATOM     81  O   UNL A   1      43.168  25.961  24.657  1.00  0.00    -0.237 OA
ATOM     82  O   UNL A   1      42.253  28.249  24.636  1.00  0.00    -0.744 OA
ENDBRANCH  75  79
ENDBRANCH  58  72
BRANCH  59  83
ATOM     83  C   UNL A   1      39.653  33.548  36.777  1.00  0.00     0.023 A 
ATOM     84  C   UNL A   1      39.068  33.052  37.953  1.00  0.00     0.031 A 
ATOM     85  C   UNL A   1      40.011  34.909  36.749  1.00  0.00     0.131 A 
ATOM     86  C   UNL A   1      38.791  33.918  39.022  1.00  0.00     0.055 A 
ATOM     87  C   UNL A   1      39.797  35.752  37.842  1.00  0.00     0.041 A 
ATOM     88  F   UNL A   1      40.588  35.438  35.658  1.00  0.00    -0.206 F 
ATOM     89  C   UNL A   1      39.165  35.262  38.980  1.00  0.00     0.022 A 
BRANCH  86  90
ATOM     90  S   UNL A   1      37.820  33.286  40.415  1.00  0.00     0.124 S 
ATOM     91  O   UNL A   1      37.787  34.442  41.303  1.00  0.00    -0.237 OA
ATOM     92  O   UNL A   1      36.559  32.937  39.770  1.00  0.00    -0.237 OA
ATOM     93  O   UNL A   1      38.610  32.154  40.894  1.00  0.00    -0.744 OA
ENDBRANCH  86  90
ENDBRANCH  59  83
BRANCH  71  94
ATOM     94  C   UNL A   1      44.236  28.548  35.169  1.00  0.00     0.023 A 
ATOM     95  C   UNL A   1      44.134  27.548  36.150  1.00  0.00     0.031 A 
ATOM     96  C   UNL A   1      45.505  29.089  34.897  1.00  0.00     0.131 A 
ATOM     97  C   UNL A   1      45.269  27.168  36.875  1.00  0.00     0.055 A 
ATOM     98  C   UNL A   1      46.644  28.654  35.572  1.00  0.00     0.041 A 
ATOM     99  F   UNL A   1      45.655  30.051  33.972  1.00  0.00    -0.206 F 
ATOM    100  C   UNL A   1      46.528  27.699  36.578  1.00  0.00     0.022 A 
BRANCH  97 101
ATOM    101  S   UNL A   1      45.059  26.053  38.288  1.00  0.00     0.124 S 
ATOM    102  O   UNL A   1      43.801  26.524  38.860  1.00  0.00    -0.237 OA
ATOM    103  O   UNL A   1      45.015  24.742  37.649  1.00  0.00    -0.237 OA
ATOM    104  O   UNL A   1      46.245  26.307  39.104  1.00  0.00    -0.744 OA
ENDBRANCH  97 101
ENDBRANCH  71  94
ENDBRANCH  45  46
ENDBRANCH  37  40
ENDBRANCH  35  36
ENDBRANCH   1  35
TORSDOF 17
ENDMDL
MODEL 2
REMARK VINA RESULT:     -13.4      1.319      1.723
REMARK SMILES COc1ccc(N2C(=O)/C(=C/c3c(C(=O)NCCCNC(=O)c4ccc(-c5c6nc(c(-c7cc(S(=O)(=O)[O-])ccc7F)c7ccc([nH]7)c(-c7cc(S(=O)(=O)[O-])ccc7F)c7nc(c(-c8cc(S(=O)(=O)[O-])ccc8F)c8ccc5[nH]8)C=C7)C=C6)cc4)[nH]c4cc(OC)ccc34)SC2=S)cc1
REMARK SMILES IDX 18 1 17 2 16 3 14 4 15 5 13 7 12 8 94 9 86 10 87 11 93 12
REMARK SMILES IDX 88 14 92 15 89 16 11 17 7 18 8 19 96 20 9 21 10 22 95 23
REMARK SMILES IDX 97 24 6 25 3 26 4 27 99 28 5 29 98 30 2 31 1 32 90 33 91 34
REMARK SMILES IDX 19 35 20 36 21 37 22 39 23 40 24 41 85 42 25 43 84 44 26 45
REMARK SMILES IDX 27 46 28 47 78 48 29 49 83 50 77 51 79 52 30 53 82 54 76 55
REMARK SMILES IDX 75 56 31 58 63 59 43 60 62 61 44 62 47 63 61 64 80 65 45 66
REMARK SMILES IDX 46 67 60 69 81 70 48 71 32 72 33 73 41 74 34 75 40 76 42 77
REMARK SMILES IDX 39 78 35 79 36 80 37 81 38 82 64 83 65 84 73 85 66 86 72 87
REMARK SMILES IDX 74 88 71 89 67 90 68 91 69 92 70 93 49 94 50 95 58 96 51 97
REMARK SMILES IDX 57 98 59 99 56 100 52 101 53 102 54 103 55 104
REMARK H PARENT 16 6 86 13 20 38 79 57 47 68
REMARK Flexibility Score: inf
ROOT
ATOM      1  C   UNL A   1      33.207  28.905  27.228  1.00  0.00     0.042 C 
ENDROOT
BRANCH   1   2
ATOM      2  C   UNL A   1      33.422  27.817  26.193  1.00  0.00     0.118 C 
BRANCH   2   3
ATOM      3  N   UNL A   1      34.043  28.274  24.960  1.00  0.00    -0.351 N 
ATOM      4  C   UNL A   1      33.414  28.610  23.783  1.00  0.00     0.268 C 
ATOM      5  O   UNL A   1      34.094  28.761  22.774  1.00  0.00    -0.268 OA
ATOM      6  H   UNL A   1      35.024  28.351  24.968  1.00  0.00     0.163 HD
BRANCH   4   7
ATOM      7  C   UNL A   1      31.971  28.663  23.753  1.00  0.00     0.112 A 
ATOM      8  C   UNL A   1      30.963  27.836  23.244  1.00  0.00     0.014 A 
ATOM      9  C   UNL A   1      29.802  28.706  23.099  1.00  0.00     0.008 A 
ATOM     10  N   UNL A   1      31.343  29.720  24.348  1.00  0.00    -0.350 N 
ATOM     11  C   UNL A   1      30.115  29.890  23.777  1.00  0.00     0.050 A 
ATOM     12  C   UNL A   1      28.541  28.690  22.445  1.00  0.00     0.015 A 
ATOM     13  H   UNL A   1      31.715  30.271  25.074  1.00  0.00     0.167 HD
ATOM     14  C   UNL A   1      29.313  31.030  23.802  1.00  0.00     0.073 A 
ATOM     15  C   UNL A   1      27.718  29.856  22.441  1.00  0.00     0.047 A 
ATOM     16  C   UNL A   1      28.114  31.017  23.102  1.00  0.00     0.120 A 
BRANCH   8  17
ATOM     17  C   UNL A   1      31.251  26.498  22.738  1.00  0.00     0.032 C 
ATOM     18  N   UNL A   1      32.493  23.509  24.390  1.00  0.00    -0.261 N 
ATOM     19  C   UNL A   1      32.198  24.185  23.195  1.00  0.00     0.270 C 
ATOM     20  C   UNL A   1      31.843  23.966  25.528  1.00  0.00     0.152 C 
ATOM     21  O   UNL A   1      32.683  24.003  22.087  1.00  0.00    -0.268 OA
ATOM     22  C   UNL A   1      31.294  25.365  23.489  1.00  0.00     0.081 C 
ATOM     23  S   UNL A   1      30.634  25.158  25.070  1.00  0.00    -0.054 SA
ATOM     24  S   UNL A   1      32.032  23.511  27.126  1.00  0.00    -0.051 S 
BRANCH  18  25
ATOM     25  C   UNL A   1      33.464  22.459  24.453  1.00  0.00     0.051 A 
ATOM     26  C   UNL A   1      35.373  20.394  24.817  1.00  0.00     0.119 A 
ATOM     27  C   UNL A   1      35.767  21.728  24.798  1.00  0.00     0.048 A 
ATOM     28  C   UNL A   1      34.017  20.091  24.712  1.00  0.00     0.048 A 
ATOM     29  C   UNL A   1      34.825  22.752  24.623  1.00  0.00     0.030 A 
ATOM     30  C   UNL A   1      33.068  21.117  24.517  1.00  0.00     0.030 A 
BRANCH  26  31
ATOM     31  O   UNL A   1      36.389  19.495  24.990  1.00  0.00    -0.497 OA
ATOM     32  C   UNL A   1      37.713  19.999  24.854  1.00  0.00     0.278 C 
ENDBRANCH  26  31
ENDBRANCH  18  25
ENDBRANCH   8  17
BRANCH  16  33
ATOM     33  O   UNL A   1      27.499  32.237  23.078  1.00  0.00    -0.497 OA
ATOM     34  C   UNL A   1      28.180  33.308  22.449  1.00  0.00     0.278 C 
ENDBRANCH  16  33
ENDBRANCH   4   7
ENDBRANCH   2   3
ENDBRANCH   1   2
BRANCH   1  35
ATOM     35  C   UNL A   1      33.967  30.189  26.927  1.00  0.00     0.118 C 
BRANCH  35  36
ATOM     36  N   UNL A   1      33.179  31.413  26.998  1.00  0.00    -0.352 N 
ATOM     37  C   UNL A   1      33.402  32.572  27.715  1.00  0.00     0.251 C 
ATOM     38  H   UNL A   1      32.362  31.413  26.452  1.00  0.00     0.163 HD
ATOM     39  O   UNL A   1      32.558  33.466  27.657  1.00  0.00    -0.269 OA
BRANCH  37  40
ATOM     40  C   UNL A   1      34.585  32.738  28.600  1.00  0.00     0.039 A 
ATOM     41  C   UNL A   1      34.446  32.381  29.947  1.00  0.00     0.014 A 
ATOM     42  C   UNL A   1      35.831  33.169  28.138  1.00  0.00     0.014 A 
ATOM     43  C   UNL A   1      35.575  32.258  30.755  1.00  0.00     0.010 A 
ATOM     44  C   UNL A   1      36.967  32.962  28.903  1.00  0.00     0.010 A 
ATOM     45  C   UNL A   1      36.845  32.426  30.186  1.00  0.00    -0.014 A 
BRANCH  45  46
ATOM     46  C   UNL A   1      38.040  31.803  30.791  1.00  0.00     0.031 A 
ATOM     47  C   UNL A   1      38.795  30.730  30.075  1.00  0.00     0.074 A 
ATOM     48  C   UNL A   1      38.303  32.127  32.075  1.00  0.00     0.049 A 
ATOM     49  N   UNL A   1      39.809  30.023  30.495  1.00  0.00    -0.248 NA
ATOM     50  C   UNL A   1      38.326  30.376  28.726  1.00  0.00     0.031 C 
ATOM     51  C   UNL A   1      37.523  33.080  32.878  1.00  0.00     0.029 A 
ATOM     52  N   UNL A   1      39.269  31.692  32.941  1.00  0.00    -0.354 N 
ATOM     53  C   UNL A   1      40.113  29.149  29.459  1.00  0.00     0.074 A 
ATOM     54  C   UNL A   1      39.126  29.363  28.422  1.00  0.00     0.031 C 
ATOM     55  C   UNL A   1      38.068  33.188  34.097  1.00  0.00     0.029 A 
ATOM     56  C   UNL A   1      39.200  32.280  34.185  1.00  0.00     0.049 A 
ATOM     57  H   UNL A   1      39.948  31.023  32.698  1.00  0.00     0.167 HD
ATOM     58  C   UNL A   1      41.145  28.273  29.384  1.00  0.00     0.034 A 
ATOM     59  C   UNL A   1      39.969  32.101  35.274  1.00  0.00     0.034 A 
ATOM     60  C   UNL A   1      42.086  28.078  30.461  1.00  0.00     0.049 A 
ATOM     61  C   UNL A   1      41.108  31.125  35.159  1.00  0.00     0.074 A 
ATOM     62  C   UNL A   1      43.192  27.251  30.507  1.00  0.00     0.029 A 
ATOM     63  N   UNL A   1      42.020  28.722  31.695  1.00  0.00    -0.354 N 
ATOM     64  N   UNL A   1      41.441  30.369  34.136  1.00  0.00    -0.248 NA
ATOM     65  C   UNL A   1      41.985  30.992  36.324  1.00  0.00     0.031 C 
ATOM     66  C   UNL A   1      43.757  27.348  31.784  1.00  0.00     0.029 A 
ATOM     67  C   UNL A   1      43.054  28.295  32.512  1.00  0.00     0.049 A 
ATOM     68  H   UNL A   1      41.338  29.384  31.948  1.00  0.00     0.167 HD
ATOM     69  C   UNL A   1      42.592  29.696  34.524  1.00  0.00     0.074 A 
ATOM     70  C   UNL A   1      42.905  30.158  35.863  1.00  0.00     0.031 C 
ATOM     71  C   UNL A   1      43.327  28.779  33.845  1.00  0.00     0.034 A 
BRANCH  58  72
ATOM     72  C   UNL A   1      41.298  27.480  28.108  1.00  0.00     0.023 A 
ATOM     73  C   UNL A   1      40.949  26.118  28.052  1.00  0.00     0.031 A 
ATOM     74  C   UNL A   1      41.802  28.074  26.939  1.00  0.00     0.131 A 
ATOM     75  C   UNL A   1      41.168  25.381  26.879  1.00  0.00     0.055 A 
ATOM     76  C   UNL A   1      41.946  27.354  25.749  1.00  0.00     0.041 A 
ATOM     77  F   UNL A   1      42.174  29.364  26.931  1.00  0.00    -0.206 F 
ATOM     78  C   UNL A   1      41.639  25.996  25.718  1.00  0.00     0.022 A 
BRANCH  75  79
ATOM     79  S   UNL A   1      40.941  23.582  26.931  1.00  0.00     0.124 S 
ATOM     80  O   UNL A   1      39.515  23.457  26.638  1.00  0.00    -0.237 OA
ATOM     81  O   UNL A   1      41.849  23.118  25.890  1.00  0.00    -0.237 OA
ATOM     82  O   UNL A   1      41.325  23.228  28.296  1.00  0.00    -0.744 OA
ENDBRANCH  75  79
ENDBRANCH  58  72
BRANCH  59  83
ATOM     83  C   UNL A   1      39.719  32.870  36.527  1.00  0.00     0.023 A 
ATOM     84  C   UNL A   1      38.835  32.382  37.502  1.00  0.00     0.031 A 
ATOM     85  C   UNL A   1      40.326  34.118  36.763  1.00  0.00     0.131 A 
ATOM     86  C   UNL A   1      38.527  33.160  38.628  1.00  0.00     0.055 A 
ATOM     87  C   UNL A   1      40.070  34.859  37.919  1.00  0.00     0.041 A 
ATOM     88  F   UNL A   1      41.192  34.632  35.874  1.00  0.00    -0.206 F 
ATOM     89  C   UNL A   1      39.149  34.390  38.850  1.00  0.00     0.022 A 
BRANCH  86  90
ATOM     90  S   UNL A   1      37.204  32.597  39.731  1.00  0.00     0.124 S 
ATOM     91  O   UNL A   1      37.677  31.270  40.109  1.00  0.00    -0.237 OA
ATOM     92  O   UNL A   1      37.233  33.611  40.779  1.00  0.00    -0.237 OA
ATOM     93  O   UNL A   1      36.018  32.617  38.877  1.00  0.00    -0.744 OA
ENDBRANCH  86  90
ENDBRANCH  59  83
BRANCH  71  94
ATOM     94  C   UNL A   1      44.559  28.265  34.541  1.00  0.00     0.023 A 
ATOM     95  C   UNL A   1      44.519  27.122  35.357  1.00  0.00     0.031 A 
ATOM     96  C   UNL A   1      45.782  28.946  34.407  1.00  0.00     0.131 A 
ATOM     97  C   UNL A   1      45.663  26.733  36.065  1.00  0.00     0.055 A 
ATOM     98  C   UNL A   1      46.935  28.511  35.057  1.00  0.00     0.041 A 
ATOM     99  F   UNL A   1      45.871  30.046  33.643  1.00  0.00    -0.206 F 
ATOM    100  C   UNL A   1      46.877  27.408  35.904  1.00  0.00     0.022 A 
BRANCH  97 101
ATOM    101  S   UNL A   1      45.513  25.403  37.286  1.00  0.00     0.124 S 
ATOM    102  O   UNL A   1      46.295  24.336  36.669  1.00  0.00    -0.237 OA
ATOM    103  O   UNL A   1      46.092  26.008  38.481  1.00  0.00    -0.237 OA
ATOM    104  O   UNL A   1      44.072  25.158  37.350  1.00  0.00    -0.744 OA
ENDBRANCH  97 101
ENDBRANCH  71  94
ENDBRANCH  45  46
ENDBRANCH  37  40
ENDBRANCH  35  36
ENDBRANCH   1  35
TORSDOF 17
ENDMDL
MODEL 3
REMARK VINA RESULT:     -13.1      1.354      7.317
REMARK SMILES COc1ccc(N2C(=O)/C(=C/c3c(C(=O)NCCCNC(=O)c4ccc(-c5c6nc(c(-c7cc(S(=O)(=O)[O-])ccc7F)c7ccc([nH]7)c(-c7cc(S(=O)(=O)[O-])ccc7F)c7nc(c(-c8cc(S(=O)(=O)[O-])ccc8F)c8ccc5[nH]8)C=C7)C=C6)cc4)[nH]c4cc(OC)ccc34)SC2=S)cc1
REMARK SMILES IDX 18 1 17 2 16 3 14 4 15 5 13 7 12 8 94 9 86 10 87 11 93 12
REMARK SMILES IDX 88 14 92 15 89 16 11 17 7 18 8 19 96 20 9 21 10 22 95 23
REMARK SMILES IDX 97 24 6 25 3 26 4 27 99 28 5 29 98 30 2 31 1 32 90 33 91 34
REMARK SMILES IDX 19 35 20 36 21 37 22 39 23 40 24 41 85 42 25 43 84 44 26 45
REMARK SMILES IDX 27 46 28 47 78 48 29 49 83 50 77 51 79 52 30 53 82 54 76 55
REMARK SMILES IDX 75 56 31 58 63 59 43 60 62 61 44 62 47 63 61 64 80 65 45 66
REMARK SMILES IDX 46 67 60 69 81 70 48 71 32 72 33 73 41 74 34 75 40 76 42 77
REMARK SMILES IDX 39 78 35 79 36 80 37 81 38 82 64 83 65 84 73 85 66 86 72 87
REMARK SMILES IDX 74 88 71 89 67 90 68 91 69 92 70 93 49 94 50 95 58 96 51 97
REMARK SMILES IDX 57 98 59 99 56 100 52 101 53 102 54 103 55 104
REMARK H PARENT 16 6 86 13 20 38 79 57 47 68
REMARK Flexibility Score: inf
ROOT
ATOM      1  C   UNL A   1      32.859  29.164  27.217  1.00  0.00     0.042 C 
ENDROOT
BRANCH   1   2
ATOM      2  C   UNL A   1      33.372  27.991  26.404  1.00  0.00     0.118 C 
BRANCH   2   3
ATOM      3  N   UNL A   1      34.055  28.364  25.176  1.00  0.00    -0.351 N 
ATOM      4  C   UNL A   1      33.486  28.631  23.952  1.00  0.00     0.268 C 
ATOM      5  O   UNL A   1      34.213  28.711  22.969  1.00  0.00    -0.268 OA
ATOM      6  H   UNL A   1      35.035  28.432  25.225  1.00  0.00     0.163 HD
BRANCH   4   7
ATOM      7  C   UNL A   1      32.047  28.694  23.851  1.00  0.00     0.112 A 
ATOM      8  C   UNL A   1      31.062  27.901  23.251  1.00  0.00     0.014 A 
ATOM      9  C   UNL A   1      29.914  28.785  23.090  1.00  0.00     0.008 A 
ATOM     10  N   UNL A   1      31.393  29.726  24.464  1.00  0.00    -0.350 N 
ATOM     11  C   UNL A   1      30.197  29.932  23.840  1.00  0.00     0.050 A 
ATOM     12  C   UNL A   1      28.688  28.809  22.372  1.00  0.00     0.015 A 
ATOM     13  H   UNL A   1      31.730  30.238  25.234  1.00  0.00     0.167 HD
ATOM     14  C   UNL A   1      29.400  31.075  23.880  1.00  0.00     0.073 A 
ATOM     15  C   UNL A   1      27.871  29.980  22.383  1.00  0.00     0.047 A 
ATOM     16  C   UNL A   1      28.239  31.104  23.120  1.00  0.00     0.120 A 
BRANCH   8  17
ATOM     17  C   UNL A   1      31.369  26.587  22.696  1.00  0.00     0.032 C 
ATOM     18  N   UNL A   1      31.913  23.363  24.283  1.00  0.00    -0.261 N 
ATOM     19  C   UNL A   1      31.989  24.162  23.130  1.00  0.00     0.270 C 
ATOM     20  C   UNL A   1      31.027  23.787  25.263  1.00  0.00     0.152 C 
ATOM     21  O   UNL A   1      32.730  24.024  22.166  1.00  0.00    -0.268 OA
ATOM     22  C   UNL A   1      31.131  25.397  23.311  1.00  0.00     0.081 C 
ATOM     23  S   UNL A   1      30.071  25.127  24.644  1.00  0.00    -0.054 SA
ATOM     24  S   UNL A   1      30.761  23.185  26.801  1.00  0.00    -0.051 S 
BRANCH  18  25
ATOM     25  C   UNL A   1      32.753  22.220  24.476  1.00  0.00     0.051 A 
ATOM     26  C   UNL A   1      34.472  19.969  24.625  1.00  0.00     0.119 A 
ATOM     27  C   UNL A   1      33.139  19.820  24.255  1.00  0.00     0.048 A 
ATOM     28  C   UNL A   1      34.963  21.251  24.865  1.00  0.00     0.048 A 
ATOM     29  C   UNL A   1      32.287  20.931  24.175  1.00  0.00     0.030 A 
ATOM     30  C   UNL A   1      34.106  22.369  24.806  1.00  0.00     0.030 A 
BRANCH  26  31
ATOM     31  O   UNL A   1      35.192  18.808  24.669  1.00  0.00    -0.497 OA
ATOM     32  C   UNL A   1      34.519  17.627  24.247  1.00  0.00     0.278 C 
ENDBRANCH  26  31
ENDBRANCH  18  25
ENDBRANCH   8  17
BRANCH  16  33
ATOM     33  O   UNL A   1      27.631  32.328  23.124  1.00  0.00    -0.497 OA
ATOM     34  C   UNL A   1      28.407  33.453  22.752  1.00  0.00     0.278 C 
ENDBRANCH  16  33
ENDBRANCH   4   7
ENDBRANCH   2   3
ENDBRANCH   1   2
BRANCH   1  35
ATOM     35  C   UNL A   1      33.802  30.359  27.224  1.00  0.00     0.118 C 
BRANCH  35  36
ATOM     36  N   UNL A   1      33.157  31.665  27.227  1.00  0.00    -0.352 N 
ATOM     37  C   UNL A   1      33.479  32.813  27.924  1.00  0.00     0.251 C 
ATOM     38  H   UNL A   1      32.370  31.742  26.643  1.00  0.00     0.163 HD
ATOM     39  O   UNL A   1      32.746  33.794  27.804  1.00  0.00    -0.269 OA
BRANCH  37  40
ATOM     40  C   UNL A   1      34.633  32.872  28.860  1.00  0.00     0.039 A 
ATOM     41  C   UNL A   1      34.429  32.435  30.175  1.00  0.00     0.014 A 
ATOM     42  C   UNL A   1      35.912  33.278  28.471  1.00  0.00     0.014 A 
ATOM     43  C   UNL A   1      35.520  32.212  31.012  1.00  0.00     0.010 A 
ATOM     44  C   UNL A   1      37.009  32.974  29.260  1.00  0.00     0.010 A 
ATOM     45  C   UNL A   1      36.817  32.362  30.500  1.00  0.00    -0.014 A 
BRANCH  45  46
ATOM     46  C   UNL A   1      37.962  31.651  31.105  1.00  0.00     0.031 A 
ATOM     47  C   UNL A   1      38.512  32.066  32.431  1.00  0.00     0.074 A 
ATOM     48  C   UNL A   1      38.582  30.738  30.328  1.00  0.00     0.049 A 
ATOM     49  N   UNL A   1      39.559  31.608  33.062  1.00  0.00    -0.248 NA
ATOM     50  C   UNL A   1      37.822  33.167  33.121  1.00  0.00     0.031 C 
ATOM     51  C   UNL A   1      38.168  30.374  28.964  1.00  0.00     0.029 A 
ATOM     52  N   UNL A   1      39.690  29.964  30.544  1.00  0.00    -0.354 N 
ATOM     53  C   UNL A   1      39.647  32.350  34.233  1.00  0.00     0.074 A 
ATOM     54  C   UNL A   1      38.594  33.341  34.185  1.00  0.00     0.031 C 
ATOM     55  C   UNL A   1      38.981  29.421  28.489  1.00  0.00     0.029 A 
ATOM     56  C   UNL A   1      40.002  29.141  29.485  1.00  0.00     0.049 A 
ATOM     57  H   UNL A   1      40.212  29.993  31.377  1.00  0.00     0.167 HD
ATOM     58  C   UNL A   1      40.519  32.187  35.259  1.00  0.00     0.034 A 
ATOM     59  C   UNL A   1      41.006  28.257  29.339  1.00  0.00     0.034 A 
ATOM     60  C   UNL A   1      41.572  31.200  35.242  1.00  0.00     0.049 A 
ATOM     61  C   UNL A   1      41.955  28.097  30.496  1.00  0.00     0.074 A 
ATOM     62  C   UNL A   1      42.501  30.906  36.222  1.00  0.00     0.029 A 
ATOM     63  N   UNL A   1      41.838  30.345  34.174  1.00  0.00    -0.354 N 
ATOM     64  N   UNL A   1      41.972  28.744  31.640  1.00  0.00    -0.248 NA
ATOM     65  C   UNL A   1      42.999  27.079  30.358  1.00  0.00     0.031 C 
ATOM     66  C   UNL A   1      43.363  29.922  35.727  1.00  0.00     0.029 A 
ATOM     67  C   UNL A   1      42.926  29.540  34.467  1.00  0.00     0.049 A 
ATOM     68  H   UNL A   1      41.326  30.318  33.334  1.00  0.00     0.167 HD
ATOM     69  C   UNL A   1      43.009  28.184  32.374  1.00  0.00     0.074 A 
ATOM     70  C   UNL A   1      43.573  27.131  31.551  1.00  0.00     0.031 C 
ATOM     71  C   UNL A   1      43.461  28.505  33.613  1.00  0.00     0.034 A 
BRANCH  58  72
ATOM     72  C   UNL A   1      40.360  33.088  36.461  1.00  0.00     0.023 A 
ATOM     73  C   UNL A   1      39.576  32.700  37.562  1.00  0.00     0.031 A 
ATOM     74  C   UNL A   1      40.984  34.345  36.512  1.00  0.00     0.131 A 
ATOM     75  C   UNL A   1      39.382  33.582  38.636  1.00  0.00     0.055 A 
ATOM     76  C   UNL A   1      40.851  35.189  37.620  1.00  0.00     0.041 A 
ATOM     77  F   UNL A   1      41.728  34.785  35.486  1.00  0.00    -0.206 F 
ATOM     78  C   UNL A   1      40.036  34.814  38.685  1.00  0.00     0.022 A 
BRANCH  75  79
ATOM     79  S   UNL A   1      38.167  33.142  39.909  1.00  0.00     0.124 S 
ATOM     80  O   UNL A   1      36.970  32.907  39.104  1.00  0.00    -0.237 OA
ATOM     81  O   UNL A   1      38.764  31.964  40.524  1.00  0.00    -0.237 OA
ATOM     82  O   UNL A   1      38.115  34.331  40.758  1.00  0.00    -0.744 OA
ENDBRANCH  75  79
ENDBRANCH  58  72
BRANCH  59  83
ATOM     83  C   UNL A   1      41.144  27.447  28.094  1.00  0.00     0.023 A 
ATOM     84  C   UNL A   1      40.830  26.079  28.093  1.00  0.00     0.031 A 
ATOM     85  C   UNL A   1      41.619  28.009  26.895  1.00  0.00     0.131 A 
ATOM     86  C   UNL A   1      41.061  25.304  26.947  1.00  0.00     0.055 A 
ATOM     87  C   UNL A   1      41.782  27.247  25.735  1.00  0.00     0.041 A 
ATOM     88  F   UNL A   1      41.923  29.315  26.829  1.00  0.00    -0.206 F 
ATOM     89  C   UNL A   1      41.521  25.881  25.762  1.00  0.00     0.022 A 
BRANCH  86  90
ATOM     90  S   UNL A   1      40.870  23.505  27.068  1.00  0.00     0.124 S 
ATOM     91  O   UNL A   1      39.425  23.351  26.953  1.00  0.00    -0.237 OA
ATOM     92  O   UNL A   1      41.657  23.041  25.931  1.00  0.00    -0.237 OA
ATOM     93  O   UNL A   1      41.428  23.192  28.382  1.00  0.00    -0.744 OA
ENDBRANCH  86  90
ENDBRANCH  59  83
BRANCH  71  94
ATOM     94  C   UNL A   1      44.591  27.666  34.148  1.00  0.00     0.023 A 
ATOM     95  C   UNL A   1      44.352  26.535  34.946  1.00  0.00     0.031 A 
ATOM     96  C   UNL A   1      45.924  28.022  33.877  1.00  0.00     0.131 A 
ATOM     97  C   UNL A   1      45.431  25.839  35.505  1.00  0.00     0.055 A 
ATOM     98  C   UNL A   1      46.993  27.281  34.377  1.00  0.00     0.041 A 
ATOM     99  F   UNL A   1      46.205  29.097  33.124  1.00  0.00    -0.206 F 
ATOM    100  C   UNL A   1      46.750  26.192  35.209  1.00  0.00     0.022 A 
BRANCH  97 101
ATOM    101  S   UNL A   1      45.084  24.536  36.716  1.00  0.00     0.124 S 
ATOM    102  O   UNL A   1      46.187  24.696  37.658  1.00  0.00    -0.237 OA
ATOM    103  O   UNL A   1      43.764  24.913  37.212  1.00  0.00    -0.237 OA
ATOM    104  O   UNL A   1      45.120  23.310  35.920  1.00  0.00    -0.744 OA
ENDBRANCH  97 101
ENDBRANCH  71  94
ENDBRANCH  45  46
ENDBRANCH  37  40
ENDBRANCH  35  36
ENDBRANCH   1  35
TORSDOF 17
ENDMDL
