MODEL 1
REMARK VINA RESULT:     -12.3      0.000      0.000
REMARK SMILES O=C(NCCCNC(=O)c1ccc(Br)c(NC(=S)NC(=O)c2cccs2)c1)c1ccc(-c2c3nc(c(-c4cc(S(=O)(=O)[O-])ccc4F)c4ccc([nH]4)c(-c4cc(S(=O)(=O)[O-])ccc4F)c4nc(c(-c5cc(S(=O)(=O)[O-])ccc5F)c5ccc2[nH]5)C=C4)C=C3)cc1
REMARK SMILES IDX 5 1 4 2 3 3 1 4 2 5 28 7 29 8 90 9 30 10 89 11 31 12 32 13
REMARK SMILES IDX 33 14 83 15 34 16 88 17 82 18 84 19 35 20 87 21 81 22 80 23
REMARK SMILES IDX 36 25 68 26 48 27 67 28 49 29 52 30 66 31 85 32 50 33 51 34
REMARK SMILES IDX 65 36 86 37 53 38 37 39 38 40 46 41 39 42 45 43 47 44 44 45
REMARK SMILES IDX 40 46 41 47 42 48 43 49 69 50 70 51 78 52 71 53 77 54 79 55
REMARK SMILES IDX 76 56 72 57 73 58 74 59 75 60 54 61 55 62 63 63 56 64 62 65
REMARK SMILES IDX 64 66 61 67 57 68 58 69 59 70 60 71 6 72 7 73 8 74 9 76
REMARK SMILES IDX 10 77 11 78 27 79 12 80 15 81 13 82 14 83 16 84 17 86 18 87
REMARK SMILES IDX 19 88 20 89 21 91 22 92 23 93 26 94 24 95 25 96
REMARK H PARENT 3 6 84 24 52 35 7 75 16 85 19 90
REMARK Flexibility Score: inf
ROOT
ATOM      1  C   UNL A   1      31.690  32.126  26.869  1.00  0.00     0.042 C 
ENDROOT
BRANCH   1   2
ATOM      2  C   UNL A   1      32.866  32.797  27.557  1.00  0.00     0.118 C 
BRANCH   2   3
ATOM      3  N   UNL A   1      32.641  34.214  27.844  1.00  0.00    -0.352 N 
ATOM      4  O   UNL A   1      32.745  36.150  29.000  1.00  0.00    -0.269 OA
ATOM      5  C   UNL A   1      33.193  35.024  28.810  1.00  0.00     0.251 C 
ATOM      6  H   UNL A   1      31.990  34.657  27.253  1.00  0.00     0.163 HD
BRANCH   5   7
ATOM      7  C   UNL A   1      34.299  34.506  29.636  1.00  0.00     0.039 A 
ATOM      8  C   UNL A   1      35.604  34.575  29.159  1.00  0.00     0.014 A 
ATOM      9  C   UNL A   1      34.028  33.889  30.859  1.00  0.00     0.014 A 
ATOM     10  C   UNL A   1      36.586  33.806  29.756  1.00  0.00     0.010 A 
ATOM     11  C   UNL A   1      35.065  33.260  31.553  1.00  0.00     0.010 A 
ATOM     12  C   UNL A   1      36.343  33.167  30.980  1.00  0.00    -0.014 A 
BRANCH  12  13
ATOM     13  C   UNL A   1      37.469  32.468  31.651  1.00  0.00     0.031 A 
ATOM     14  C   UNL A   1      38.229  31.366  30.966  1.00  0.00     0.074 A 
ATOM     15  C   UNL A   1      37.833  32.880  32.882  1.00  0.00     0.049 A 
ATOM     16  N   UNL A   1      39.257  30.686  31.405  1.00  0.00    -0.248 NA
ATOM     17  C   UNL A   1      37.777  30.969  29.626  1.00  0.00     0.031 C 
ATOM     18  C   UNL A   1      37.174  33.951  33.638  1.00  0.00     0.029 A 
ATOM     19  N   UNL A   1      38.854  32.483  33.705  1.00  0.00    -0.354 N 
ATOM     20  C   UNL A   1      39.562  29.766  30.409  1.00  0.00     0.074 A 
ATOM     21  C   UNL A   1      38.583  29.951  29.359  1.00  0.00     0.031 C 
ATOM     22  C   UNL A   1      37.852  34.177  34.770  1.00  0.00     0.029 A 
ATOM     23  C   UNL A   1      38.925  33.199  34.877  1.00  0.00     0.049 A 
ATOM     24  H   UNL A   1      39.478  31.756  33.477  1.00  0.00     0.167 HD
ATOM     25  C   UNL A   1      40.567  28.855  30.380  1.00  0.00     0.034 A 
ATOM     26  C   UNL A   1      39.739  33.067  35.940  1.00  0.00     0.034 A 
ATOM     27  C   UNL A   1      41.522  28.679  31.449  1.00  0.00     0.049 A 
ATOM     28  C   UNL A   1      40.785  31.988  35.913  1.00  0.00     0.074 A 
ATOM     29  C   UNL A   1      42.597  27.808  31.502  1.00  0.00     0.029 A 
ATOM     30  N   UNL A   1      41.506  29.360  32.659  1.00  0.00    -0.354 N 
ATOM     31  N   UNL A   1      41.070  31.139  34.955  1.00  0.00    -0.248 NA
ATOM     32  C   UNL A   1      41.620  31.853  37.111  1.00  0.00     0.031 C 
ATOM     33  C   UNL A   1      43.152  27.876  32.783  1.00  0.00     0.029 A 
ATOM     34  C   UNL A   1      42.516  28.887  33.484  1.00  0.00     0.049 A 
ATOM     35  H   UNL A   1      40.871  30.075  32.897  1.00  0.00     0.167 HD
ATOM     36  C   UNL A   1      42.151  30.396  35.418  1.00  0.00     0.074 A 
ATOM     37  C   UNL A   1      42.469  30.911  36.735  1.00  0.00     0.031 C 
ATOM     38  C   UNL A   1      42.824  29.391  34.803  1.00  0.00     0.034 A 
BRANCH  25  39
ATOM     39  C   UNL A   1      40.643  27.932  29.186  1.00  0.00     0.023 A 
ATOM     40  C   UNL A   1      41.596  28.103  28.167  1.00  0.00     0.031 A 
ATOM     41  C   UNL A   1      39.729  26.870  29.058  1.00  0.00     0.131 A 
ATOM     42  C   UNL A   1      41.557  27.282  27.030  1.00  0.00     0.055 A 
ATOM     43  C   UNL A   1      39.764  25.991  27.974  1.00  0.00     0.041 A 
ATOM     44  F   UNL A   1      38.775  26.672  29.983  1.00  0.00    -0.206 F 
ATOM     45  C   UNL A   1      40.671  26.206  26.942  1.00  0.00     0.022 A 
BRANCH  42  46
ATOM     46  S   UNL A   1      42.553  27.756  25.590  1.00  0.00     0.124 S 
ATOM     47  O   UNL A   1      41.819  28.919  25.093  1.00  0.00    -0.237 OA
ATOM     48  O   UNL A   1      43.856  28.032  26.182  1.00  0.00    -0.237 OA
ATOM     49  O   UNL A   1      42.493  26.578  24.728  1.00  0.00    -0.744 OA
ENDBRANCH  42  46
ENDBRANCH  25  39
BRANCH  26  50
ATOM     50  C   UNL A   1      39.577  33.951  37.130  1.00  0.00     0.023 A 
ATOM     51  C   UNL A   1      38.996  33.468  38.310  1.00  0.00     0.031 A 
ATOM     52  C   UNL A   1      39.949  35.307  37.084  1.00  0.00     0.131 A 
ATOM     53  C   UNL A   1      38.741  34.348  39.373  1.00  0.00     0.055 A 
ATOM     54  C   UNL A   1      39.770  36.159  38.174  1.00  0.00     0.041 A 
ATOM     55  F   UNL A   1      40.502  35.825  35.977  1.00  0.00    -0.206 F 
ATOM     56  C   UNL A   1      39.145  35.685  39.321  1.00  0.00     0.022 A 
BRANCH  53  57
ATOM     57  S   UNL A   1      37.743  33.753  40.764  1.00  0.00     0.124 S 
ATOM     58  O   UNL A   1      37.458  34.997  41.471  1.00  0.00    -0.237 OA
ATOM     59  O   UNL A   1      36.614  33.128  40.083  1.00  0.00    -0.237 OA
ATOM     60  O   UNL A   1      38.643  32.833  41.456  1.00  0.00    -0.744 OA
ENDBRANCH  53  57
ENDBRANCH  26  50
BRANCH  38  61
ATOM     61  C   UNL A   1      44.027  28.827  35.523  1.00  0.00     0.023 A 
ATOM     62  C   UNL A   1      43.938  27.710  36.372  1.00  0.00     0.031 A 
ATOM     63  C   UNL A   1      45.285  29.443  35.377  1.00  0.00     0.131 A 
ATOM     64  C   UNL A   1      45.060  27.302  37.108  1.00  0.00     0.055 A 
ATOM     65  C   UNL A   1      46.419  28.970  36.035  1.00  0.00     0.041 A 
ATOM     66  F   UNL A   1      45.431  30.523  34.592  1.00  0.00    -0.206 F 
ATOM     67  C   UNL A   1      46.306  27.905  36.923  1.00  0.00     0.022 A 
BRANCH  64  68
ATOM     68  S   UNL A   1      44.831  26.081  38.429  1.00  0.00     0.124 S 
ATOM     69  O   UNL A   1      44.092  25.029  37.740  1.00  0.00    -0.237 OA
ATOM     70  O   UNL A   1      46.206  25.758  38.798  1.00  0.00    -0.237 OA
ATOM     71  O   UNL A   1      44.071  26.812  39.443  1.00  0.00    -0.744 OA
ENDBRANCH  64  68
ENDBRANCH  38  61
ENDBRANCH  12  13
ENDBRANCH   5   7
ENDBRANCH   2   3
ENDBRANCH   1   2
BRANCH   1  72
ATOM     72  C   UNL A   1      32.033  30.803  26.210  1.00  0.00     0.118 C 
BRANCH  72  73
ATOM     73  N   UNL A   1      31.835  29.686  27.110  1.00  0.00    -0.352 N 
ATOM     74  C   UNL A   1      31.651  28.344  26.912  1.00  0.00     0.251 C 
ATOM     75  H   UNL A   1      31.831  29.944  28.059  1.00  0.00     0.163 HD
ATOM     76  O   UNL A   1      31.173  27.764  27.886  1.00  0.00    -0.269 OA
BRANCH  74  77
ATOM     77  C   UNL A   1      32.060  27.674  25.535  1.00  0.00     0.041 A 
ATOM     78  C   UNL A   1      30.751  27.940  24.297  1.00  0.00     0.015 A 
ATOM     79  C   UNL A   1      33.657  26.595  24.813  1.00  0.00     0.041 A 
ATOM     80  C   UNL A   1      30.997  27.210  22.689  1.00  0.00     0.018 A 
ATOM     81  C   UNL A   1      33.735  25.876  23.335  1.00  0.00     0.055 A 
ATOM     82  C   UNL A   1      32.427  26.219  22.259  1.00  0.00     0.041 A 
ATOM     83  Br  UNL A   1      32.433  25.401  20.550  1.00  0.00    -0.049 Br
BRANCH  81  84
ATOM     84  N   UNL A   1      34.758  24.904  23.387  1.00  0.00    -0.331 N 
ATOM     85  H   UNL A   1      35.674  25.264  23.430  1.00  0.00     0.169 HD
BRANCH  84  86
ATOM     86  C   UNL A   1      34.668  23.506  23.385  1.00  0.00     0.177 C 
ATOM     87  S   UNL A   1      36.013  22.676  23.964  1.00  0.00    -0.040 S 
BRANCH  86  88
ATOM     88  N   UNL A   1      33.547  22.667  22.985  1.00  0.00    -0.298 N 
ATOM     89  C   UNL A   1      32.371  21.715  23.255  1.00  0.00     0.267 C 
ATOM     90  H   UNL A   1      33.539  22.758  22.004  1.00  0.00     0.172 HD
ATOM     91  O   UNL A   1      31.901  21.110  22.293  1.00  0.00    -0.268 OA
BRANCH  89  92
ATOM     92  C   UNL A   1      31.839  21.565  24.684  1.00  0.00     0.092 A 
ATOM     93  C   UNL A   1      31.134  23.000  25.286  1.00  0.00     0.025 A 
ATOM     94  S   UNL A   1      33.468  20.635  26.043  1.00  0.00    -0.139 S 
ATOM     95  C   UNL A   1      32.123  23.786  26.721  1.00  0.00     0.012 A 
ATOM     96  C   UNL A   1      33.582  22.583  27.327  1.00  0.00     0.065 A 
ENDBRANCH  89  92
ENDBRANCH  86  88
ENDBRANCH  84  86
ENDBRANCH  81  84
ENDBRANCH  74  77
ENDBRANCH  72  73
ENDBRANCH   1  72
TORSDOF 17
ENDMDL
MODEL 2
REMARK VINA RESULT:     -12.3      0.380      7.708
REMARK SMILES O=C(NCCCNC(=O)c1ccc(Br)c(NC(=S)NC(=O)c2cccs2)c1)c1ccc(-c2c3nc(c(-c4cc(S(=O)(=O)[O-])ccc4F)c4ccc([nH]4)c(-c4cc(S(=O)(=O)[O-])ccc4F)c4nc(c(-c5cc(S(=O)(=O)[O-])ccc5F)c5ccc2[nH]5)C=C4)C=C3)cc1
REMARK SMILES IDX 5 1 4 2 3 3 1 4 2 5 28 7 29 8 90 9 30 10 89 11 31 12 32 13
REMARK SMILES IDX 33 14 83 15 34 16 88 17 82 18 84 19 35 20 87 21 81 22 80 23
REMARK SMILES IDX 36 25 68 26 48 27 67 28 49 29 52 30 66 31 85 32 50 33 51 34
REMARK SMILES IDX 65 36 86 37 53 38 37 39 38 40 46 41 39 42 45 43 47 44 44 45
REMARK SMILES IDX 40 46 41 47 42 48 43 49 69 50 70 51 78 52 71 53 77 54 79 55
REMARK SMILES IDX 76 56 72 57 73 58 74 59 75 60 54 61 55 62 63 63 56 64 62 65
REMARK SMILES IDX 64 66 61 67 57 68 58 69 59 70 60 71 6 72 7 73 8 74 9 76
REMARK SMILES IDX 10 77 11 78 27 79 12 80 15 81 13 82 14 83 16 84 17 86 18 87
REMARK SMILES IDX 19 88 20 89 21 91 22 92 23 93 26 94 24 95 25 96
REMARK H PARENT 3 6 84 24 52 35 7 75 16 85 19 90
REMARK Flexibility Score: inf
ROOT
ATOM      1  C   UNL A   1      31.803  32.035  27.081  1.00  0.00     0.042 C 
ENDROOT
BRANCH   1   2
ATOM      2  C   UNL A   1      33.004  32.900  27.426  1.00  0.00     0.118 C 
BRANCH   2   3
ATOM      3  N   UNL A   1      32.646  34.264  27.814  1.00  0.00    -0.352 N 
ATOM      4  O   UNL A   1      32.565  36.111  29.109  1.00  0.00    -0.269 OA
ATOM      5  C   UNL A   1      33.117  35.049  28.842  1.00  0.00     0.251 C 
ATOM      6  H   UNL A   1      31.960  34.687  27.250  1.00  0.00     0.163 HD
BRANCH   5   7
ATOM      7  C   UNL A   1      34.264  34.576  29.640  1.00  0.00     0.039 A 
ATOM      8  C   UNL A   1      35.554  34.716  29.138  1.00  0.00     0.014 A 
ATOM      9  C   UNL A   1      34.047  33.932  30.859  1.00  0.00     0.014 A 
ATOM     10  C   UNL A   1      36.584  33.989  29.706  1.00  0.00     0.010 A 
ATOM     11  C   UNL A   1      35.127  33.346  31.525  1.00  0.00     0.010 A 
ATOM     12  C   UNL A   1      36.397  33.323  30.926  1.00  0.00    -0.014 A 
BRANCH  12  13
ATOM     13  C   UNL A   1      37.570  32.673  31.566  1.00  0.00     0.031 A 
ATOM     14  C   UNL A   1      38.052  33.088  32.928  1.00  0.00     0.074 A 
ATOM     15  C   UNL A   1      38.170  31.657  30.913  1.00  0.00     0.049 A 
ATOM     16  N   UNL A   1      39.036  32.593  33.633  1.00  0.00    -0.248 NA
ATOM     17  C   UNL A   1      37.350  34.203  33.579  1.00  0.00     0.031 C 
ATOM     18  C   UNL A   1      37.779  31.161  29.589  1.00  0.00     0.029 A 
ATOM     19  N   UNL A   1      39.208  30.838  31.274  1.00  0.00    -0.354 N 
ATOM     20  C   UNL A   1      39.090  33.348  34.799  1.00  0.00     0.074 A 
ATOM     21  C   UNL A   1      38.060  34.360  34.687  1.00  0.00     0.031 C 
ATOM     22  C   UNL A   1      38.509  30.079  29.288  1.00  0.00     0.029 A 
ATOM     23  C   UNL A   1      39.494  29.870  30.339  1.00  0.00     0.049 A 
ATOM     24  H   UNL A   1      39.700  30.932  32.121  1.00  0.00     0.167 HD
ATOM     25  C   UNL A   1      39.921  33.203  35.862  1.00  0.00     0.034 A 
ATOM     26  C   UNL A   1      40.460  28.935  30.308  1.00  0.00     0.034 A 
ATOM     27  C   UNL A   1      40.952  32.195  35.942  1.00  0.00     0.049 A 
ATOM     28  C   UNL A   1      41.423  28.861  31.460  1.00  0.00     0.074 A 
ATOM     29  C   UNL A   1      41.825  31.944  36.987  1.00  0.00     0.029 A 
ATOM     30  N   UNL A   1      41.271  31.291  34.936  1.00  0.00    -0.354 N 
ATOM     31  N   UNL A   1      41.446  29.571  32.563  1.00  0.00    -0.248 NA
ATOM     32  C   UNL A   1      42.486  27.856  31.364  1.00  0.00     0.031 C 
ATOM     33  C   UNL A   1      42.743  30.977  36.568  1.00  0.00     0.029 A 
ATOM     34  C   UNL A   1      42.362  30.523  35.316  1.00  0.00     0.049 A 
ATOM     35  H   UNL A   1      40.792  31.208  34.080  1.00  0.00     0.167 HD
ATOM     36  C   UNL A   1      42.503  29.065  33.314  1.00  0.00     0.074 A 
ATOM     37  C   UNL A   1      43.078  27.985  32.540  1.00  0.00     0.031 C 
ATOM     38  C   UNL A   1      42.945  29.454  34.537  1.00  0.00     0.034 A 
BRANCH  25  39
ATOM     39  C   UNL A   1      39.799  34.200  36.990  1.00  0.00     0.023 A 
ATOM     40  C   UNL A   1      39.356  33.831  38.271  1.00  0.00     0.031 A 
ATOM     41  C   UNL A   1      40.114  35.554  36.770  1.00  0.00     0.131 A 
ATOM     42  C   UNL A   1      39.162  34.813  39.254  1.00  0.00     0.055 A 
ATOM     43  C   UNL A   1      40.019  36.509  37.784  1.00  0.00     0.041 A 
ATOM     44  F   UNL A   1      40.514  35.977  35.560  1.00  0.00    -0.206 F 
ATOM     45  C   UNL A   1      39.522  36.144  39.030  1.00  0.00     0.022 A 
BRANCH  42  46
ATOM     46  S   UNL A   1      38.256  34.359  40.758  1.00  0.00     0.124 S 
ATOM     47  O   UNL A   1      39.281  33.647  41.517  1.00  0.00    -0.237 OA
ATOM     48  O   UNL A   1      37.856  35.655  41.292  1.00  0.00    -0.237 OA
ATOM     49  O   UNL A   1      37.166  33.522  40.264  1.00  0.00    -0.744 OA
ENDBRANCH  42  46
ENDBRANCH  25  39
BRANCH  26  50
ATOM     50  C   UNL A   1      40.591  28.022  29.137  1.00  0.00     0.023 A 
ATOM     51  C   UNL A   1      41.504  28.297  28.109  1.00  0.00     0.031 A 
ATOM     52  C   UNL A   1      39.765  26.891  29.001  1.00  0.00     0.131 A 
ATOM     53  C   UNL A   1      41.523  27.492  26.960  1.00  0.00     0.055 A 
ATOM     54  C   UNL A   1      39.847  26.046  27.895  1.00  0.00     0.041 A 
ATOM     55  F   UNL A   1      38.868  26.584  29.951  1.00  0.00    -0.206 F 
ATOM     56  C   UNL A   1      40.717  26.356  26.856  1.00  0.00     0.022 A 
BRANCH  53  57
ATOM     57  S   UNL A   1      42.513  28.038  25.543  1.00  0.00     0.124 S 
ATOM     58  O   UNL A   1      41.716  29.153  25.043  1.00  0.00    -0.237 OA
ATOM     59  O   UNL A   1      43.781  28.386  26.174  1.00  0.00    -0.237 OA
ATOM     60  O   UNL A   1      42.548  26.858  24.681  1.00  0.00    -0.744 OA
ENDBRANCH  53  57
ENDBRANCH  26  50
BRANCH  38  61
ATOM     61  C   UNL A   1      44.069  28.652  35.150  1.00  0.00     0.023 A 
ATOM     62  C   UNL A   1      43.832  27.547  35.987  1.00  0.00     0.031 A 
ATOM     63  C   UNL A   1      45.406  29.023  34.915  1.00  0.00     0.131 A 
ATOM     64  C   UNL A   1      44.907  26.913  36.626  1.00  0.00     0.055 A 
ATOM     65  C   UNL A   1      46.475  28.324  35.474  1.00  0.00     0.041 A 
ATOM     66  F   UNL A   1      45.697  30.078  34.137  1.00  0.00    -0.206 F 
ATOM     67  C   UNL A   1      46.228  27.274  36.353  1.00  0.00     0.022 A 
BRANCH  64  68
ATOM     68  S   UNL A   1      44.549  25.718  37.943  1.00  0.00     0.124 S 
ATOM     69  O   UNL A   1      44.092  24.561  37.181  1.00  0.00    -0.237 OA
ATOM     70  O   UNL A   1      45.845  25.578  38.599  1.00  0.00    -0.237 OA
ATOM     71  O   UNL A   1      43.519  26.385  38.738  1.00  0.00    -0.744 OA
ENDBRANCH  64  68
ENDBRANCH  38  61
ENDBRANCH  12  13
ENDBRANCH   5   7
ENDBRANCH   2   3
ENDBRANCH   1   2
BRANCH   1  72
ATOM     72  C   UNL A   1      32.161  30.715  26.424  1.00  0.00     0.118 C 
BRANCH  72  73
ATOM     73  N   UNL A   1      31.852  29.587  27.277  1.00  0.00    -0.352 N 
ATOM     74  C   UNL A   1      31.606  28.264  27.030  1.00  0.00     0.251 C 
ATOM     75  H   UNL A   1      31.810  29.819  28.233  1.00  0.00     0.163 HD
ATOM     76  O   UNL A   1      31.043  27.685  27.958  1.00  0.00    -0.269 OA
BRANCH  74  77
ATOM     77  C   UNL A   1      32.054  27.610  25.656  1.00  0.00     0.041 A 
ATOM     78  C   UNL A   1      30.779  27.888  24.386  1.00  0.00     0.015 A 
ATOM     79  C   UNL A   1      33.672  26.540  24.967  1.00  0.00     0.041 A 
ATOM     80  C   UNL A   1      31.070  27.176  22.777  1.00  0.00     0.018 A 
ATOM     81  C   UNL A   1      33.791  25.839  23.484  1.00  0.00     0.055 A 
ATOM     82  C   UNL A   1      32.513  26.191  22.376  1.00  0.00     0.041 A 
ATOM     83  Br  UNL A   1      32.567  25.393  20.659  1.00  0.00    -0.049 Br
BRANCH  81  84
ATOM     84  N   UNL A   1      34.814  24.867  23.553  1.00  0.00    -0.331 N 
ATOM     85  H   UNL A   1      35.708  25.216  23.776  1.00  0.00     0.169 HD
BRANCH  84  86
ATOM     86  C   UNL A   1      34.750  23.482  23.351  1.00  0.00     0.177 C 
ATOM     87  S   UNL A   1      36.173  22.627  23.627  1.00  0.00    -0.040 S 
BRANCH  86  88
ATOM     88  N   UNL A   1      33.604  22.669  22.968  1.00  0.00    -0.298 N 
ATOM     89  C   UNL A   1      32.410  21.746  23.258  1.00  0.00     0.267 C 
ATOM     90  H   UNL A   1      33.583  22.761  21.988  1.00  0.00     0.172 HD
ATOM     91  O   UNL A   1      31.911  21.152  22.302  1.00  0.00    -0.268 OA
BRANCH  89  92
ATOM     92  C   UNL A   1      31.897  21.608  24.695  1.00  0.00     0.092 A 
ATOM     93  C   UNL A   1      31.098  23.010  25.253  1.00  0.00     0.025 A 
ATOM     94  S   UNL A   1      33.595  20.841  26.072  1.00  0.00    -0.139 S 
ATOM     95  C   UNL A   1      32.036  23.912  26.653  1.00  0.00     0.012 A 
ATOM     96  C   UNL A   1      33.579  22.835  27.288  1.00  0.00     0.065 A 
ENDBRANCH  89  92
ENDBRANCH  86  88
ENDBRANCH  84  86
ENDBRANCH  81  84
ENDBRANCH  74  77
ENDBRANCH  72  73
ENDBRANCH   1  72
TORSDOF 17
ENDMDL
MODEL 3
REMARK VINA RESULT:     -12.1      1.943      7.797
REMARK SMILES O=C(NCCCNC(=O)c1ccc(Br)c(NC(=S)NC(=O)c2cccs2)c1)c1ccc(-c2c3nc(c(-c4cc(S(=O)(=O)[O-])ccc4F)c4ccc([nH]4)c(-c4cc(S(=O)(=O)[O-])ccc4F)c4nc(c(-c5cc(S(=O)(=O)[O-])ccc5F)c5ccc2[nH]5)C=C4)C=C3)cc1
REMARK SMILES IDX 5 1 4 2 3 3 1 4 2 5 28 7 29 8 90 9 30 10 89 11 31 12 32 13
REMARK SMILES IDX 33 14 83 15 34 16 88 17 82 18 84 19 35 20 87 21 81 22 80 23
REMARK SMILES IDX 36 25 68 26 48 27 67 28 49 29 52 30 66 31 85 32 50 33 51 34
REMARK SMILES IDX 65 36 86 37 53 38 37 39 38 40 46 41 39 42 45 43 47 44 44 45
REMARK SMILES IDX 40 46 41 47 42 48 43 49 69 50 70 51 78 52 71 53 77 54 79 55
REMARK SMILES IDX 76 56 72 57 73 58 74 59 75 60 54 61 55 62 63 63 56 64 62 65
REMARK SMILES IDX 64 66 61 67 57 68 58 69 59 70 60 71 6 72 7 73 8 74 9 76
REMARK SMILES IDX 10 77 11 78 27 79 12 80 15 81 13 82 14 83 16 84 17 86 18 87
REMARK SMILES IDX 19 88 20 89 21 91 22 92 23 93 26 94 24 95 25 96
REMARK H PARENT 3 6 84 24 52 35 7 75 16 85 19 90
REMARK Flexibility Score: inf
ROOT
ATOM      1  C   UNL A   1      31.944  31.266  26.921  1.00  0.00     0.042 C 
ENDROOT
BRANCH   1   2
ATOM      2  C   UNL A   1      33.178  32.101  27.218  1.00  0.00     0.118 C 
BRANCH   2   3
ATOM      3  N   UNL A   1      32.872  33.496  27.536  1.00  0.00    -0.352 N 
ATOM      4  O   UNL A   1      32.855  35.406  28.740  1.00  0.00    -0.269 OA
ATOM      5  C   UNL A   1      33.365  34.310  28.530  1.00  0.00     0.251 C 
ATOM      6  H   UNL A   1      32.208  33.919  26.945  1.00  0.00     0.163 HD
BRANCH   5   7
ATOM      7  C   UNL A   1      34.484  33.831  29.363  1.00  0.00     0.039 A 
ATOM      8  C   UNL A   1      35.789  34.176  29.024  1.00  0.00     0.014 A 
ATOM      9  C   UNL A   1      34.237  32.982  30.443  1.00  0.00     0.014 A 
ATOM     10  C   UNL A   1      36.842  33.472  29.579  1.00  0.00     0.010 A 
ATOM     11  C   UNL A   1      35.315  32.406  31.121  1.00  0.00     0.010 A 
ATOM     12  C   UNL A   1      36.627  32.605  30.660  1.00  0.00    -0.014 A 
BRANCH  12  13
ATOM     13  C   UNL A   1      37.805  31.979  31.313  1.00  0.00     0.031 A 
ATOM     14  C   UNL A   1      38.238  32.376  32.696  1.00  0.00     0.074 A 
ATOM     15  C   UNL A   1      38.457  31.002  30.651  1.00  0.00     0.049 A 
ATOM     16  N   UNL A   1      39.222  31.897  33.414  1.00  0.00    -0.248 NA
ATOM     17  C   UNL A   1      37.482  33.448  33.357  1.00  0.00     0.031 C 
ATOM     18  C   UNL A   1      38.116  30.527  29.305  1.00  0.00     0.029 A 
ATOM     19  N   UNL A   1      39.513  30.210  31.017  1.00  0.00    -0.354 N 
ATOM     20  C   UNL A   1      39.221  32.623  34.600  1.00  0.00     0.074 A 
ATOM     21  C   UNL A   1      38.159  33.601  34.487  1.00  0.00     0.031 C 
ATOM     22  C   UNL A   1      38.890  29.479  28.995  1.00  0.00     0.029 A 
ATOM     23  C   UNL A   1      39.856  29.277  30.066  1.00  0.00     0.049 A 
ATOM     24  H   UNL A   1      39.981  30.300  31.878  1.00  0.00     0.167 HD
ATOM     25  C   UNL A   1      40.031  32.479  35.679  1.00  0.00     0.034 A 
ATOM     26  C   UNL A   1      40.855  28.377  30.036  1.00  0.00     0.034 A 
ATOM     27  C   UNL A   1      41.094  31.506  35.760  1.00  0.00     0.049 A 
ATOM     28  C   UNL A   1      41.791  28.306  31.210  1.00  0.00     0.074 A 
ATOM     29  C   UNL A   1      41.950  31.258  36.820  1.00  0.00     0.029 A 
ATOM     30  N   UNL A   1      41.469  30.640  34.740  1.00  0.00    -0.354 N 
ATOM     31  N   UNL A   1      41.763  28.989  32.331  1.00  0.00    -0.248 NA
ATOM     32  C   UNL A   1      42.891  27.342  31.115  1.00  0.00     0.031 C 
ATOM     33  C   UNL A   1      42.911  30.335  36.401  1.00  0.00     0.029 A 
ATOM     34  C   UNL A   1      42.577  29.900  35.129  1.00  0.00     0.049 A 
ATOM     35  H   UNL A   1      41.015  30.562  33.870  1.00  0.00     0.167 HD
ATOM     36  C   UNL A   1      42.818  28.500  33.095  1.00  0.00     0.074 A 
ATOM     37  C   UNL A   1      43.450  27.461  32.309  1.00  0.00     0.031 C 
ATOM     38  C   UNL A   1      43.216  28.873  34.338  1.00  0.00     0.034 A 
BRANCH  25  39
ATOM     39  C   UNL A   1      39.846  33.442  36.828  1.00  0.00     0.023 A 
ATOM     40  C   UNL A   1      40.647  34.587  36.982  1.00  0.00     0.031 A 
ATOM     41  C   UNL A   1      38.858  33.197  37.801  1.00  0.00     0.131 A 
ATOM     42  C   UNL A   1      40.503  35.391  38.122  1.00  0.00     0.055 A 
ATOM     43  C   UNL A   1      38.650  34.060  38.877  1.00  0.00     0.041 A 
ATOM     44  F   UNL A   1      38.081  32.104  37.727  1.00  0.00    -0.206 F 
ATOM     45  C   UNL A   1      39.488  35.157  39.053  1.00  0.00     0.022 A 
BRANCH  42  46
ATOM     46  S   UNL A   1      41.778  36.634  38.466  1.00  0.00     0.124 S 
ATOM     47  O   UNL A   1      40.987  37.722  39.037  1.00  0.00    -0.237 OA
ATOM     48  O   UNL A   1      42.661  35.936  39.393  1.00  0.00    -0.237 OA
ATOM     49  O   UNL A   1      42.348  36.915  37.150  1.00  0.00    -0.744 OA
ENDBRANCH  42  46
ENDBRANCH  25  39
BRANCH  26  50
ATOM     50  C   UNL A   1      41.047  27.500  28.846  1.00  0.00     0.023 A 
ATOM     51  C   UNL A   1      42.060  27.763  27.914  1.00  0.00     0.031 A 
ATOM     52  C   UNL A   1      40.183  26.418  28.594  1.00  0.00     0.131 A 
ATOM     53  C   UNL A   1      42.144  26.998  26.741  1.00  0.00     0.055 A 
ATOM     54  C   UNL A   1      40.323  25.609  27.467  1.00  0.00     0.041 A 
ATOM     55  F   UNL A   1      39.190  26.125  29.448  1.00  0.00    -0.206 F 
ATOM     56  C   UNL A   1      41.297  25.909  26.522  1.00  0.00     0.022 A 
BRANCH  53  57
ATOM     57  S   UNL A   1      43.282  27.541  25.439  1.00  0.00     0.124 S 
ATOM     58  O   UNL A   1      44.133  28.476  26.167  1.00  0.00    -0.237 OA
ATOM     59  O   UNL A   1      43.905  26.284  25.037  1.00  0.00    -0.237 OA
ATOM     60  O   UNL A   1      42.397  28.144  24.445  1.00  0.00    -0.744 OA
ENDBRANCH  53  57
ENDBRANCH  26  50
BRANCH  38  61
ATOM     61  C   UNL A   1      44.352  28.094  34.959  1.00  0.00     0.023 A 
ATOM     62  C   UNL A   1      44.143  26.892  35.658  1.00  0.00     0.031 A 
ATOM     63  C   UNL A   1      45.669  28.585  34.876  1.00  0.00     0.131 A 
ATOM     64  C   UNL A   1      45.216  26.274  36.317  1.00  0.00     0.055 A 
ATOM     65  C   UNL A   1      46.745  27.912  35.449  1.00  0.00     0.041 A 
ATOM     66  F   UNL A   1      45.930  29.737  34.235  1.00  0.00    -0.206 F 
ATOM     67  C   UNL A   1      46.520  26.758  36.194  1.00  0.00     0.022 A 
BRANCH  64  68
ATOM     68  S   UNL A   1      44.858  24.922  37.473  1.00  0.00     0.124 S 
ATOM     69  O   UNL A   1      43.522  25.274  37.941  1.00  0.00    -0.237 OA
ATOM     70  O   UNL A   1      44.943  23.746  36.613  1.00  0.00    -0.237 OA
ATOM     71  O   UNL A   1      45.917  25.038  38.474  1.00  0.00    -0.744 OA
ENDBRANCH  64  68
ENDBRANCH  38  61
ENDBRANCH  12  13
ENDBRANCH   5   7
ENDBRANCH   2   3
ENDBRANCH   1   2
BRANCH   1  72
ATOM     72  C   UNL A   1      32.115  30.303  25.761  1.00  0.00     0.118 C 
BRANCH  72  73
ATOM     73  N   UNL A   1      30.971  30.321  24.873  1.00  0.00    -0.352 N 
ATOM     74  C   UNL A   1      30.557  29.498  23.861  1.00  0.00     0.251 C 
ATOM     75  H   UNL A   1      30.366  31.081  25.030  1.00  0.00     0.163 HD
ATOM     76  O   UNL A   1      29.732  30.017  23.111  1.00  0.00    -0.269 OA
BRANCH  74  77
ATOM     77  C   UNL A   1      31.122  28.021  23.748  1.00  0.00     0.041 A 
ATOM     78  C   UNL A   1      32.486  27.965  22.543  1.00  0.00     0.015 A 
ATOM     79  C   UNL A   1      30.705  26.191  24.593  1.00  0.00     0.041 A 
ATOM     80  C   UNL A   1      33.223  26.371  22.228  1.00  0.00     0.018 A 
ATOM     81  C   UNL A   1      31.381  24.759  24.151  1.00  0.00     0.055 A 
ATOM     82  C   UNL A   1      32.668  24.853  23.002  1.00  0.00     0.041 A 
ATOM     83  Br  UNL A   1      33.475  23.240  22.422  1.00  0.00    -0.049 Br
BRANCH  81  84
ATOM     84  N   UNL A   1      30.548  23.726  24.635  1.00  0.00    -0.331 N 
ATOM     85  H   UNL A   1      29.656  23.680  24.220  1.00  0.00     0.169 HD
BRANCH  84  86
ATOM     86  C   UNL A   1      30.798  22.759  25.617  1.00  0.00     0.177 C 
ATOM     87  S   UNL A   1      29.951  22.933  27.062  1.00  0.00    -0.040 S 
BRANCH  86  88
ATOM     88  N   UNL A   1      31.666  21.592  25.546  1.00  0.00    -0.298 N 
ATOM     89  C   UNL A   1      33.018  20.869  25.664  1.00  0.00     0.267 C 
ATOM     90  H   UNL A   1      31.052  20.873  25.272  1.00  0.00     0.172 HD
ATOM     91  O   UNL A   1      33.101  19.744  25.174  1.00  0.00    -0.268 OA
BRANCH  89  92
ATOM     92  C   UNL A   1      34.182  21.564  26.378  1.00  0.00     0.092 A 
ATOM     93  C   UNL A   1      33.900  23.227  26.646  1.00  0.00     0.025 A 
ATOM     94  S   UNL A   1      36.175  21.074  25.305  1.00  0.00    -0.139 S 
ATOM     95  C   UNL A   1      35.053  24.365  25.630  1.00  0.00     0.012 A 
ATOM     96  C   UNL A   1      36.470  23.315  24.718  1.00  0.00     0.065 A 
ENDBRANCH  89  92
ENDBRANCH  86  88
ENDBRANCH  84  86
ENDBRANCH  81  84
ENDBRANCH  74  77
ENDBRANCH  72  73
ENDBRANCH   1  72
TORSDOF 17
ENDMDL
