MODEL 1
REMARK VINA RESULT:     -12.3      0.000      0.000
REMARK SMILES Cc1ccc(CNC(=O)c2csc(/C=C/C(=O)NCCCNC(=O)c3ccc(-c4c5nc(c(-c6cc(S(=O)(=O)[O-])ccc6F)c6ccc([nH]6)c(-c6cc(S(=O)(=O)[O-])ccc6F)c6nc(c(-c7cc(S(=O)(=O)[O-])ccc7F)c7ccc4[nH]7)C=C6)C=C5)cc3)c2)s1
REMARK SMILES IDX 19 1 18 2 16 3 17 4 15 6 14 7 13 8 10 9 11 10 88 11 12 12
REMARK SMILES IDX 8 13 7 14 9 16 6 17 5 18 1 19 2 20 3 21 89 22 4 23 20 24
REMARK SMILES IDX 21 25 22 26 23 27 24 29 25 30 26 31 87 32 27 33 86 34 28 35
REMARK SMILES IDX 29 36 30 37 80 38 31 39 85 40 79 41 81 42 32 43 84 44 78 45
REMARK SMILES IDX 77 46 33 48 65 49 45 50 64 51 46 52 49 53 63 54 82 55 47 56
REMARK SMILES IDX 48 57 62 59 83 60 50 61 34 62 35 63 43 64 36 65 42 66 44 67
REMARK SMILES IDX 41 68 37 69 38 70 39 71 40 72 66 73 67 74 75 75 68 76 74 77
REMARK SMILES IDX 76 78 73 79 69 80 70 81 71 82 72 83 51 84 52 85 60 86 53 87
REMARK SMILES IDX 59 88 61 89 58 90 54 91 55 92 56 93 57 94
REMARK H PARENT 18 5 7 15 22 28 81 47 49 58
REMARK Flexibility Score: inf
ROOT
ATOM      1  C   UNL A   1      31.588  30.492  26.168  1.00  0.00     0.118 C 
ENDROOT
BRANCH   1   2
ATOM      2  N   UNL A   1      31.079  30.302  24.819  1.00  0.00    -0.352 N 
ATOM      3  C   UNL A   1      31.151  29.223  23.993  1.00  0.00     0.244 C 
ATOM      4  O   UNL A   1      30.511  29.208  22.945  1.00  0.00    -0.270 OA
ATOM      5  H   UNL A   1      30.608  31.079  24.443  1.00  0.00     0.163 HD
BRANCH   3   6
ATOM      6  C   UNL A   1      31.919  28.027  24.393  1.00  0.00     0.072 C 
ATOM      7  C   UNL A   1      31.456  27.124  25.269  1.00  0.00     0.024 C 
BRANCH   7   8
ATOM      8  C   UNL A   1      32.206  25.969  25.638  1.00  0.00     0.028 A 
ATOM      9  C   UNL A   1      32.731  23.811  26.453  1.00  0.00     0.051 A 
ATOM     10  C   UNL A   1      33.969  24.280  26.060  1.00  0.00     0.079 A 
ATOM     11  C   UNL A   1      31.735  24.831  26.275  1.00  0.00     0.033 A 
ATOM     12  S   UNL A   1      33.902  25.843  25.381  1.00  0.00    -0.144 S 
BRANCH   9  13
ATOM     13  C   UNL A   1      32.559  22.480  27.025  1.00  0.00     0.252 C 
ATOM     14  N   UNL A   1      32.224  21.438  26.199  1.00  0.00    -0.347 N 
ATOM     15  H   UNL A   1      31.917  20.621  26.652  1.00  0.00     0.164 HD
ATOM     16  O   UNL A   1      32.734  22.262  28.220  1.00  0.00    -0.269 OA
BRANCH  14  17
ATOM     17  C   UNL A   1      32.257  21.376  24.754  1.00  0.00     0.163 C 
BRANCH  17  18
ATOM     18  C   UNL A   1      32.424  19.949  24.327  1.00  0.00     0.024 A 
ATOM     19  C   UNL A   1      33.262  16.130  24.665  1.00  0.00     0.056 C 
ATOM     20  C   UNL A   1      32.908  17.524  24.279  1.00  0.00     0.002 A 
ATOM     21  C   UNL A   1      32.560  18.012  23.038  1.00  0.00     0.015 A 
ATOM     22  S   UNL A   1      32.910  18.759  25.462  1.00  0.00    -0.144 S 
ATOM     23  C   UNL A   1      32.277  19.409  23.066  1.00  0.00     0.017 A 
ENDBRANCH  17  18
ENDBRANCH  14  17
ENDBRANCH   9  13
ENDBRANCH   7   8
ENDBRANCH   3   6
ENDBRANCH   1   2
BRANCH   1  24
ATOM     24  C   UNL A   1      31.482  31.946  26.621  1.00  0.00     0.042 C 
BRANCH  24  25
ATOM     25  C   UNL A   1      32.761  32.496  27.253  1.00  0.00     0.118 C 
BRANCH  25  26
ATOM     26  N   UNL A   1      32.622  33.887  27.655  1.00  0.00    -0.352 N 
ATOM     27  C   UNL A   1      33.265  34.595  28.642  1.00  0.00     0.251 C 
ATOM     28  H   UNL A   1      31.962  34.404  27.138  1.00  0.00     0.163 HD
ATOM     29  O   UNL A   1      32.837  35.706  28.946  1.00  0.00    -0.269 OA
BRANCH  27  30
ATOM     30  C   UNL A   1      34.443  34.035  29.348  1.00  0.00     0.039 A 
ATOM     31  C   UNL A   1      34.227  33.128  30.393  1.00  0.00     0.014 A 
ATOM     32  C   UNL A   1      35.745  34.435  29.036  1.00  0.00     0.014 A 
ATOM     33  C   UNL A   1      35.314  32.586  31.086  1.00  0.00     0.010 A 
ATOM     34  C   UNL A   1      36.831  33.853  29.692  1.00  0.00     0.010 A 
ATOM     35  C   UNL A   1      36.627  32.925  30.726  1.00  0.00    -0.014 A 
BRANCH  35  36
ATOM     36  C   UNL A   1      37.796  32.328  31.423  1.00  0.00     0.031 A 
ATOM     37  C   UNL A   1      38.578  31.218  30.774  1.00  0.00     0.074 A 
ATOM     38  C   UNL A   1      38.114  32.738  32.667  1.00  0.00     0.049 A 
ATOM     39  N   UNL A   1      39.560  30.501  31.260  1.00  0.00    -0.248 NA
ATOM     40  C   UNL A   1      38.184  30.853  29.406  1.00  0.00     0.031 C 
ATOM     41  C   UNL A   1      37.414  33.782  33.417  1.00  0.00     0.029 A 
ATOM     42  N   UNL A   1      39.096  32.313  33.526  1.00  0.00    -0.354 N 
ATOM     43  C   UNL A   1      39.887  29.583  30.267  1.00  0.00     0.074 A 
ATOM     44  C   UNL A   1      38.969  29.812  29.169  1.00  0.00     0.031 C 
ATOM     45  C   UNL A   1      37.992  33.921  34.621  1.00  0.00     0.029 A 
ATOM     46  C   UNL A   1      39.078  32.953  34.744  1.00  0.00     0.049 A 
ATOM     47  H   UNL A   1      39.753  31.617  33.293  1.00  0.00     0.167 HD
ATOM     48  C   UNL A   1      40.870  28.648  30.264  1.00  0.00     0.034 A 
ATOM     49  C   UNL A   1      39.838  32.769  35.841  1.00  0.00     0.034 A 
ATOM     50  C   UNL A   1      41.790  28.441  31.356  1.00  0.00     0.049 A 
ATOM     51  C   UNL A   1      40.924  31.726  35.816  1.00  0.00     0.074 A 
ATOM     52  C   UNL A   1      42.855  27.559  31.434  1.00  0.00     0.029 A 
ATOM     53  N   UNL A   1      41.754  29.124  32.565  1.00  0.00    -0.354 N 
ATOM     54  N   UNL A   1      41.241  30.888  34.856  1.00  0.00    -0.248 NA
ATOM     55  C   UNL A   1      41.758  31.613  37.018  1.00  0.00     0.031 C 
ATOM     56  C   UNL A   1      43.431  27.673  32.706  1.00  0.00     0.029 A 
ATOM     57  C   UNL A   1      42.763  28.668  33.402  1.00  0.00     0.049 A 
ATOM     58  H   UNL A   1      41.107  29.829  32.795  1.00  0.00     0.167 HD
ATOM     59  C   UNL A   1      42.328  30.163  35.333  1.00  0.00     0.074 A 
ATOM     60  C   UNL A   1      42.618  30.669  36.660  1.00  0.00     0.031 C 
ATOM     61  C   UNL A   1      43.028  29.172  34.727  1.00  0.00     0.034 A 
BRANCH  48  62
ATOM     62  C   UNL A   1      40.970  27.758  29.048  1.00  0.00     0.023 A 
ATOM     63  C   UNL A   1      41.964  27.951  28.073  1.00  0.00     0.031 A 
ATOM     64  C   UNL A   1      40.038  26.726  28.843  1.00  0.00     0.131 A 
ATOM     65  C   UNL A   1      41.955  27.180  26.901  1.00  0.00     0.055 A 
ATOM     66  C   UNL A   1      40.081  25.910  27.711  1.00  0.00     0.041 A 
ATOM     67  F   UNL A   1      39.057  26.505  29.732  1.00  0.00    -0.206 F 
ATOM     68  C   UNL A   1      41.033  26.144  26.723  1.00  0.00     0.022 A 
BRANCH  65  69
ATOM     69  S   UNL A   1      43.074  27.642  25.552  1.00  0.00     0.124 S 
ATOM     70  O   UNL A   1      42.155  28.282  24.613  1.00  0.00    -0.237 OA
ATOM     71  O   UNL A   1      44.024  28.526  26.217  1.00  0.00    -0.237 OA
ATOM     72  O   UNL A   1      43.619  26.362  25.104  1.00  0.00    -0.744 OA
ENDBRANCH  65  69
ENDBRANCH  48  62
BRANCH  49  73
ATOM     73  C   UNL A   1      39.592  33.578  37.066  1.00  0.00     0.023 A 
ATOM     74  C   UNL A   1      39.059  32.992  38.223  1.00  0.00     0.031 A 
ATOM     75  C   UNL A   1      39.865  34.957  37.084  1.00  0.00     0.131 A 
ATOM     76  C   UNL A   1      38.778  33.790  39.342  1.00  0.00     0.055 A 
ATOM     77  C   UNL A   1      39.619  35.740  38.213  1.00  0.00     0.041 A 
ATOM     78  F   UNL A   1      40.386  35.560  36.004  1.00  0.00    -0.206 F 
ATOM     79  C   UNL A   1      39.063  35.158  39.349  1.00  0.00     0.022 A 
BRANCH  76  80
ATOM     80  S   UNL A   1      37.980  33.020  40.778  1.00  0.00     0.124 S 
ATOM     81  O   UNL A   1      38.938  33.304  41.840  1.00  0.00    -0.237 OA
ATOM     82  O   UNL A   1      36.716  33.746  40.844  1.00  0.00    -0.237 OA
ATOM     83  O   UNL A   1      37.869  31.616  40.393  1.00  0.00    -0.744 OA
ENDBRANCH  76  80
ENDBRANCH  49  73
BRANCH  61  84
ATOM     84  C   UNL A   1      44.200  28.606  35.487  1.00  0.00     0.023 A 
ATOM     85  C   UNL A   1      44.042  27.564  36.416  1.00  0.00     0.031 A 
ATOM     86  C   UNL A   1      45.488  29.135  35.293  1.00  0.00     0.131 A 
ATOM     87  C   UNL A   1      45.147  27.114  37.154  1.00  0.00     0.055 A 
ATOM     88  C   UNL A   1      46.592  28.653  35.996  1.00  0.00     0.041 A 
ATOM     89  F   UNL A   1      45.691  30.133  34.418  1.00  0.00    -0.206 F 
ATOM     90  C   UNL A   1      46.423  27.644  36.941  1.00  0.00     0.022 A 
BRANCH  87  91
ATOM     91  S   UNL A   1      44.883  25.877  38.453  1.00  0.00     0.124 S 
ATOM     92  O   UNL A   1      44.029  24.905  37.779  1.00  0.00    -0.237 OA
ATOM     93  O   UNL A   1      46.243  25.435  38.746  1.00  0.00    -0.237 OA
ATOM     94  O   UNL A   1      44.236  26.634  39.523  1.00  0.00    -0.744 OA
ENDBRANCH  87  91
ENDBRANCH  61  84
ENDBRANCH  35  36
ENDBRANCH  27  30
ENDBRANCH  25  26
ENDBRANCH  24  25
ENDBRANCH   1  24
TORSDOF 17
ENDMDL
MODEL 2
REMARK VINA RESULT:     -12.1      1.885      2.434
REMARK SMILES Cc1ccc(CNC(=O)c2csc(/C=C/C(=O)NCCCNC(=O)c3ccc(-c4c5nc(c(-c6cc(S(=O)(=O)[O-])ccc6F)c6ccc([nH]6)c(-c6cc(S(=O)(=O)[O-])ccc6F)c6nc(c(-c7cc(S(=O)(=O)[O-])ccc7F)c7ccc4[nH]7)C=C6)C=C5)cc3)c2)s1
REMARK SMILES IDX 19 1 18 2 16 3 17 4 15 6 14 7 13 8 10 9 11 10 88 11 12 12
REMARK SMILES IDX 8 13 7 14 9 16 6 17 5 18 1 19 2 20 3 21 89 22 4 23 20 24
REMARK SMILES IDX 21 25 22 26 23 27 24 29 25 30 26 31 87 32 27 33 86 34 28 35
REMARK SMILES IDX 29 36 30 37 80 38 31 39 85 40 79 41 81 42 32 43 84 44 78 45
REMARK SMILES IDX 77 46 33 48 65 49 45 50 64 51 46 52 49 53 63 54 82 55 47 56
REMARK SMILES IDX 48 57 62 59 83 60 50 61 34 62 35 63 43 64 36 65 42 66 44 67
REMARK SMILES IDX 41 68 37 69 38 70 39 71 40 72 66 73 67 74 75 75 68 76 74 77
REMARK SMILES IDX 76 78 73 79 69 80 70 81 71 82 72 83 51 84 52 85 60 86 53 87
REMARK SMILES IDX 59 88 61 89 58 90 54 91 55 92 56 93 57 94
REMARK H PARENT 18 5 7 15 22 28 81 47 49 58
REMARK Flexibility Score: inf
ROOT
ATOM      1  C   UNL A   1      31.754  30.885  26.833  1.00  0.00     0.118 C 
ENDROOT
BRANCH   1   2
ATOM      2  N   UNL A   1      33.018  30.429  27.387  1.00  0.00    -0.352 N 
ATOM      3  C   UNL A   1      33.852  29.435  26.979  1.00  0.00     0.244 C 
ATOM      4  O   UNL A   1      34.962  29.314  27.493  1.00  0.00    -0.270 OA
ATOM      5  H   UNL A   1      33.318  30.918  28.186  1.00  0.00     0.163 HD
BRANCH   3   6
ATOM      6  C   UNL A   1      33.474  28.556  25.854  1.00  0.00     0.072 C 
ATOM      7  C   UNL A   1      32.636  27.519  25.990  1.00  0.00     0.024 C 
BRANCH   7   8
ATOM      8  C   UNL A   1      32.273  26.685  24.892  1.00  0.00     0.028 A 
ATOM      9  C   UNL A   1      32.445  25.340  22.954  1.00  0.00     0.051 A 
ATOM     10  C   UNL A   1      31.091  25.290  23.220  1.00  0.00     0.079 A 
ATOM     11  C   UNL A   1      33.102  26.216  23.885  1.00  0.00     0.033 A 
ATOM     12  S   UNL A   1      30.657  26.162  24.620  1.00  0.00    -0.144 S 
BRANCH   9  13
ATOM     13  C   UNL A   1      33.033  24.630  21.824  1.00  0.00     0.252 C 
ATOM     14  N   UNL A   1      33.510  23.358  22.011  1.00  0.00    -0.347 N 
ATOM     15  H   UNL A   1      34.078  23.008  21.288  1.00  0.00     0.164 HD
ATOM     16  O   UNL A   1      33.088  25.129  20.704  1.00  0.00    -0.269 OA
BRANCH  14  17
ATOM     17  C   UNL A   1      33.294  22.460  23.125  1.00  0.00     0.163 C 
BRANCH  17  18
ATOM     18  C   UNL A   1      34.224  22.828  24.241  1.00  0.00     0.024 A 
ATOM     19  C   UNL A   1      37.615  23.731  25.997  1.00  0.00     0.056 C 
ATOM     20  C   UNL A   1      36.226  23.397  25.576  1.00  0.00     0.002 A 
ATOM     21  C   UNL A   1      35.095  23.282  26.355  1.00  0.00     0.015 A 
ATOM     22  S   UNL A   1      35.889  23.094  23.927  1.00  0.00    -0.144 S 
ATOM     23  C   UNL A   1      33.940  22.958  25.585  1.00  0.00     0.017 A 
ENDBRANCH  17  18
ENDBRANCH  14  17
ENDBRANCH   9  13
ENDBRANCH   7   8
ENDBRANCH   3   6
ENDBRANCH   1   2
BRANCH   1  24
ATOM     24  C   UNL A   1      31.651  32.408  26.815  1.00  0.00     0.042 C 
BRANCH  24  25
ATOM     25  C   UNL A   1      32.931  33.123  27.247  1.00  0.00     0.118 C 
BRANCH  25  26
ATOM     26  N   UNL A   1      32.659  34.410  27.869  1.00  0.00    -0.352 N 
ATOM     27  C   UNL A   1      33.189  34.977  29.003  1.00  0.00     0.251 C 
ATOM     28  H   UNL A   1      31.990  34.961  27.404  1.00  0.00     0.163 HD
ATOM     29  O   UNL A   1      32.658  35.985  29.462  1.00  0.00    -0.269 OA
BRANCH  27  30
ATOM     30  C   UNL A   1      34.369  34.386  29.680  1.00  0.00     0.039 A 
ATOM     31  C   UNL A   1      34.155  33.513  30.754  1.00  0.00     0.014 A 
ATOM     32  C   UNL A   1      35.674  34.726  29.314  1.00  0.00     0.014 A 
ATOM     33  C   UNL A   1      35.243  32.943  31.421  1.00  0.00     0.010 A 
ATOM     34  C   UNL A   1      36.759  34.116  29.946  1.00  0.00     0.010 A 
ATOM     35  C   UNL A   1      36.555  33.220  31.008  1.00  0.00    -0.014 A 
BRANCH  35  36
ATOM     36  C   UNL A   1      37.724  32.593  31.678  1.00  0.00     0.031 A 
ATOM     37  C   UNL A   1      38.447  31.448  31.022  1.00  0.00     0.074 A 
ATOM     38  C   UNL A   1      38.093  33.008  32.906  1.00  0.00     0.049 A 
ATOM     39  N   UNL A   1      39.418  30.703  31.488  1.00  0.00    -0.248 NA
ATOM     40  C   UNL A   1      37.999  31.078  29.672  1.00  0.00     0.031 C 
ATOM     41  C   UNL A   1      37.452  34.086  33.662  1.00  0.00     0.029 A 
ATOM     42  N   UNL A   1      39.086  32.561  33.741  1.00  0.00    -0.354 N 
ATOM     43  C   UNL A   1      39.683  29.762  30.499  1.00  0.00     0.074 A 
ATOM     44  C   UNL A   1      38.740  30.008  29.427  1.00  0.00     0.031 C 
ATOM     45  C   UNL A   1      38.071  34.220  34.846  1.00  0.00     0.029 A 
ATOM     46  C   UNL A   1      39.127  33.217  34.950  1.00  0.00     0.049 A 
ATOM     47  H   UNL A   1      39.711  31.839  33.498  1.00  0.00     0.167 HD
ATOM     48  C   UNL A   1      40.633  28.793  30.480  1.00  0.00     0.034 A 
ATOM     49  C   UNL A   1      39.913  33.022  36.027  1.00  0.00     0.034 A 
ATOM     50  C   UNL A   1      41.578  28.569  31.547  1.00  0.00     0.049 A 
ATOM     51  C   UNL A   1      40.961  31.941  35.984  1.00  0.00     0.074 A 
ATOM     52  C   UNL A   1      42.614  27.651  31.606  1.00  0.00     0.029 A 
ATOM     53  N   UNL A   1      41.603  29.269  32.747  1.00  0.00    -0.354 N 
ATOM     54  N   UNL A   1      41.220  31.080  35.027  1.00  0.00    -0.248 NA
ATOM     55  C   UNL A   1      41.827  31.815  37.162  1.00  0.00     0.031 C 
ATOM     56  C   UNL A   1      43.232  27.763  32.858  1.00  0.00     0.029 A 
ATOM     57  C   UNL A   1      42.620  28.789  33.559  1.00  0.00     0.049 A 
ATOM     58  H   UNL A   1      40.987  29.999  32.986  1.00  0.00     0.167 HD
ATOM     59  C   UNL A   1      42.296  30.324  35.481  1.00  0.00     0.074 A 
ATOM     60  C   UNL A   1      42.643  30.837  36.792  1.00  0.00     0.031 C 
ATOM     61  C   UNL A   1      42.943  29.301  34.869  1.00  0.00     0.034 A 
BRANCH  48  62
ATOM     62  C   UNL A   1      40.666  27.884  29.275  1.00  0.00     0.023 A 
ATOM     63  C   UNL A   1      41.584  28.079  28.229  1.00  0.00     0.031 A 
ATOM     64  C   UNL A   1      39.743  26.830  29.154  1.00  0.00     0.131 A 
ATOM     65  C   UNL A   1      41.507  27.288  27.073  1.00  0.00     0.055 A 
ATOM     66  C   UNL A   1      39.723  25.995  28.035  1.00  0.00     0.041 A 
ATOM     67  F   UNL A   1      38.832  26.605  30.114  1.00  0.00    -0.206 F 
ATOM     68  C   UNL A   1      40.598  26.231  26.978  1.00  0.00     0.022 A 
BRANCH  65  69
ATOM     69  S   UNL A   1      42.518  27.749  25.640  1.00  0.00     0.124 S 
ATOM     70  O   UNL A   1      43.837  27.910  26.250  1.00  0.00    -0.237 OA
ATOM     71  O   UNL A   1      42.359  26.600  24.757  1.00  0.00    -0.237 OA
ATOM     72  O   UNL A   1      41.902  28.988  25.170  1.00  0.00    -0.744 OA
ENDBRANCH  65  69
ENDBRANCH  48  62
BRANCH  49  73
ATOM     73  C   UNL A   1      39.733  33.855  37.246  1.00  0.00     0.023 A 
ATOM     74  C   UNL A   1      38.978  33.389  38.333  1.00  0.00     0.031 A 
ATOM     75  C   UNL A   1      40.293  35.141  37.328  1.00  0.00     0.131 A 
ATOM     76  C   UNL A   1      38.771  34.220  39.444  1.00  0.00     0.055 A 
ATOM     77  C   UNL A   1      40.116  35.950  38.451  1.00  0.00     0.041 A 
ATOM     78  F   UNL A   1      41.032  35.625  36.318  1.00  0.00    -0.206 F 
ATOM     79  C   UNL A   1      39.342  35.493  39.515  1.00  0.00     0.022 A 
BRANCH  76  80
ATOM     80  S   UNL A   1      37.693  33.631  40.779  1.00  0.00     0.124 S 
ATOM     81  O   UNL A   1      38.583  32.735  41.508  1.00  0.00    -0.237 OA
ATOM     82  O   UNL A   1      37.343  34.876  41.454  1.00  0.00    -0.237 OA
ATOM     83  O   UNL A   1      36.595  32.982  40.068  1.00  0.00    -0.744 OA
ENDBRANCH  76  80
ENDBRANCH  49  73
BRANCH  61  84
ATOM     84  C   UNL A   1      44.117  28.705  35.601  1.00  0.00     0.023 A 
ATOM     85  C   UNL A   1      43.956  27.656  36.522  1.00  0.00     0.031 A 
ATOM     86  C   UNL A   1      45.411  29.213  35.390  1.00  0.00     0.131 A 
ATOM     87  C   UNL A   1      45.065  27.178  37.235  1.00  0.00     0.055 A 
ATOM     88  C   UNL A   1      46.518  28.702  36.068  1.00  0.00     0.041 A 
ATOM     89  F   UNL A   1      45.617  30.216  34.523  1.00  0.00    -0.206 F 
ATOM     90  C   UNL A   1      46.347  27.686  37.005  1.00  0.00     0.022 A 
BRANCH  87  91
ATOM     91  S   UNL A   1      44.802  25.931  38.525  1.00  0.00     0.124 S 
ATOM     92  O   UNL A   1      44.081  24.889  37.799  1.00  0.00    -0.237 OA
ATOM     93  O   UNL A   1      46.166  25.601  38.926  1.00  0.00    -0.237 OA
ATOM     94  O   UNL A   1      44.015  26.640  39.533  1.00  0.00    -0.744 OA
ENDBRANCH  87  91
ENDBRANCH  61  84
ENDBRANCH  35  36
ENDBRANCH  27  30
ENDBRANCH  25  26
ENDBRANCH  24  25
ENDBRANCH   1  24
TORSDOF 17
ENDMDL
MODEL 3
REMARK VINA RESULT:     -11.8      6.153     11.748
REMARK SMILES Cc1ccc(CNC(=O)c2csc(/C=C/C(=O)NCCCNC(=O)c3ccc(-c4c5nc(c(-c6cc(S(=O)(=O)[O-])ccc6F)c6ccc([nH]6)c(-c6cc(S(=O)(=O)[O-])ccc6F)c6nc(c(-c7cc(S(=O)(=O)[O-])ccc7F)c7ccc4[nH]7)C=C6)C=C5)cc3)c2)s1
REMARK SMILES IDX 19 1 18 2 16 3 17 4 15 6 14 7 13 8 10 9 11 10 88 11 12 12
REMARK SMILES IDX 8 13 7 14 9 16 6 17 5 18 1 19 2 20 3 21 89 22 4 23 20 24
REMARK SMILES IDX 21 25 22 26 23 27 24 29 25 30 26 31 87 32 27 33 86 34 28 35
REMARK SMILES IDX 29 36 30 37 80 38 31 39 85 40 79 41 81 42 32 43 84 44 78 45
REMARK SMILES IDX 77 46 33 48 65 49 45 50 64 51 46 52 49 53 63 54 82 55 47 56
REMARK SMILES IDX 48 57 62 59 83 60 50 61 34 62 35 63 43 64 36 65 42 66 44 67
REMARK SMILES IDX 41 68 37 69 38 70 39 71 40 72 66 73 67 74 75 75 68 76 74 77
REMARK SMILES IDX 76 78 73 79 69 80 70 81 71 82 72 83 51 84 52 85 60 86 53 87
REMARK SMILES IDX 59 88 61 89 58 90 54 91 55 92 56 93 57 94
REMARK H PARENT 18 5 7 15 22 28 81 47 49 58
REMARK Flexibility Score: inf
ROOT
ATOM      1  C   UNL A   1      36.171  20.217  24.975  1.00  0.00     0.118 C 
ENDROOT
BRANCH   1   2
ATOM      2  N   UNL A   1      35.052  19.289  25.001  1.00  0.00    -0.352 N 
ATOM      3  C   UNL A   1      33.719  19.510  24.840  1.00  0.00     0.244 C 
ATOM      4  O   UNL A   1      32.948  18.559  24.733  1.00  0.00    -0.270 OA
ATOM      5  H   UNL A   1      35.299  18.350  25.160  1.00  0.00     0.163 HD
BRANCH   3   6
ATOM      6  C   UNL A   1      33.202  20.885  24.695  1.00  0.00     0.072 C 
ATOM      7  C   UNL A   1      32.754  21.376  23.531  1.00  0.00     0.024 C 
BRANCH   7   8
ATOM      8  C   UNL A   1      32.249  22.704  23.409  1.00  0.00     0.028 A 
ATOM      9  C   UNL A   1      31.897  24.895  22.591  1.00  0.00     0.051 A 
ATOM     10  C   UNL A   1      31.044  24.852  23.676  1.00  0.00     0.079 A 
ATOM     11  C   UNL A   1      32.645  23.671  22.499  1.00  0.00     0.033 A 
ATOM     12  S   UNL A   1      31.054  23.342  24.469  1.00  0.00    -0.144 S 
BRANCH   9  13
ATOM     13  C   UNL A   1      32.013  26.082  21.751  1.00  0.00     0.252 C 
ATOM     14  N   UNL A   1      32.853  27.094  22.139  1.00  0.00    -0.347 N 
ATOM     15  H   UNL A   1      32.738  27.946  21.660  1.00  0.00     0.164 HD
ATOM     16  O   UNL A   1      31.399  26.188  20.693  1.00  0.00    -0.269 OA
BRANCH  14  17
ATOM     17  C   UNL A   1      33.884  27.082  23.154  1.00  0.00     0.163 C 
BRANCH  17  18
ATOM     18  C   UNL A   1      33.331  27.654  24.423  1.00  0.00     0.024 A 
ATOM     19  C   UNL A   1      31.890  30.374  26.858  1.00  0.00     0.056 C 
ATOM     20  C   UNL A   1      32.427  29.181  26.146  1.00  0.00     0.002 A 
ATOM     21  C   UNL A   1      32.640  27.910  26.634  1.00  0.00     0.015 A 
ATOM     22  S   UNL A   1      32.871  29.304  24.499  1.00  0.00    -0.144 S 
ATOM     23  C   UNL A   1      33.157  27.028  25.641  1.00  0.00     0.017 A 
ENDBRANCH  17  18
ENDBRANCH  14  17
ENDBRANCH   9  13
ENDBRANCH   7   8
ENDBRANCH   3   6
ENDBRANCH   1   2
BRANCH   1  24
ATOM     24  C   UNL A   1      37.511  19.497  24.840  1.00  0.00     0.042 C 
BRANCH  24  25
ATOM     25  C   UNL A   1      38.675  20.216  25.522  1.00  0.00     0.118 C 
BRANCH  25  26
ATOM     26  N   UNL A   1      39.767  19.310  25.846  1.00  0.00    -0.352 N 
ATOM     27  C   UNL A   1      41.075  19.577  26.171  1.00  0.00     0.251 C 
ATOM     28  H   UNL A   1      39.530  18.354  25.831  1.00  0.00     0.163 HD
ATOM     29  O   UNL A   1      41.877  18.647  26.199  1.00  0.00    -0.269 OA
BRANCH  27  30
ATOM     30  C   UNL A   1      41.529  20.957  26.466  1.00  0.00     0.039 A 
ATOM     31  C   UNL A   1      41.539  21.387  27.799  1.00  0.00     0.014 A 
ATOM     32  C   UNL A   1      41.883  21.847  25.448  1.00  0.00     0.014 A 
ATOM     33  C   UNL A   1      41.954  22.685  28.113  1.00  0.00     0.010 A 
ATOM     34  C   UNL A   1      42.348  23.125  25.768  1.00  0.00     0.010 A 
ATOM     35  C   UNL A   1      42.386  23.558  27.103  1.00  0.00    -0.014 A 
BRANCH  35  36
ATOM     36  C   UNL A   1      42.869  24.927  27.421  1.00  0.00     0.031 A 
ATOM     37  C   UNL A   1      41.953  25.914  28.094  1.00  0.00     0.074 A 
ATOM     38  C   UNL A   1      44.106  25.304  27.044  1.00  0.00     0.049 A 
ATOM     39  N   UNL A   1      42.151  27.181  28.361  1.00  0.00    -0.248 NA
ATOM     40  C   UNL A   1      40.632  25.412  28.497  1.00  0.00     0.031 C 
ATOM     41  C   UNL A   1      45.076  24.451  26.356  1.00  0.00     0.029 A 
ATOM     42  N   UNL A   1      44.753  26.508  27.172  1.00  0.00    -0.354 N 
ATOM     43  C   UNL A   1      40.972  27.635  28.942  1.00  0.00     0.074 A 
ATOM     44  C   UNL A   1      40.052  26.515  28.950  1.00  0.00     0.031 C 
ATOM     45  C   UNL A   1      46.196  25.155  26.127  1.00  0.00     0.029 A 
ATOM     46  C   UNL A   1      46.012  26.518  26.618  1.00  0.00     0.049 A 
ATOM     47  H   UNL A   1      44.354  27.289  27.619  1.00  0.00     0.167 HD
ATOM     48  C   UNL A   1      40.687  28.866  29.437  1.00  0.00     0.034 A 
ATOM     49  C   UNL A   1      46.910  27.516  26.502  1.00  0.00     0.034 A 
ATOM     50  C   UNL A   1      41.617  29.969  29.440  1.00  0.00     0.049 A 
ATOM     51  C   UNL A   1      46.574  28.874  27.058  1.00  0.00     0.074 A 
ATOM     52  C   UNL A   1      41.449  31.241  29.963  1.00  0.00     0.029 A 
ATOM     53  N   UNL A   1      42.892  29.935  28.889  1.00  0.00    -0.354 N 
ATOM     54  N   UNL A   1      45.465  29.279  27.634  1.00  0.00    -0.248 NA
ATOM     55  C   UNL A   1      47.613  29.906  26.957  1.00  0.00     0.031 C 
ATOM     56  C   UNL A   1      42.601  31.988  29.686  1.00  0.00     0.029 A 
ATOM     57  C   UNL A   1      43.511  31.167  29.040  1.00  0.00     0.049 A 
ATOM     58  H   UNL A   1      43.297  29.151  28.454  1.00  0.00     0.167 HD
ATOM     59  C   UNL A   1      45.685  30.607  27.984  1.00  0.00     0.074 A 
ATOM     60  C   UNL A   1      47.033  30.932  27.563  1.00  0.00     0.031 C 
ATOM     61  C   UNL A   1      44.850  31.479  28.602  1.00  0.00     0.034 A 
BRANCH  48  62
ATOM     62  C   UNL A   1      39.297  29.084  29.983  1.00  0.00     0.023 A 
ATOM     63  C   UNL A   1      38.287  29.686  29.213  1.00  0.00     0.031 A 
ATOM     64  C   UNL A   1      38.987  28.719  31.306  1.00  0.00     0.131 A 
ATOM     65  C   UNL A   1      37.043  29.978  29.793  1.00  0.00     0.055 A 
ATOM     66  C   UNL A   1      37.722  28.941  31.853  1.00  0.00     0.041 A 
ATOM     67  F   UNL A   1      39.915  28.155  32.094  1.00  0.00    -0.206 F 
ATOM     68  C   UNL A   1      36.746  29.589  31.102  1.00  0.00     0.022 A 
BRANCH  65  69
ATOM     69  S   UNL A   1      35.871  30.999  28.859  1.00  0.00     0.124 S 
ATOM     70  O   UNL A   1      36.773  31.828  28.062  1.00  0.00    -0.237 OA
ATOM     71  O   UNL A   1      35.101  30.003  28.123  1.00  0.00    -0.237 OA
ATOM     72  O   UNL A   1      35.135  31.714  29.899  1.00  0.00    -0.744 OA
ENDBRANCH  65  69
ENDBRANCH  48  62
BRANCH  49  73
ATOM     73  C   UNL A   1      48.209  27.278  25.817  1.00  0.00     0.023 A 
ATOM     74  C   UNL A   1      48.333  27.440  24.428  1.00  0.00     0.031 A 
ATOM     75  C   UNL A   1      49.339  26.860  26.541  1.00  0.00     0.131 A 
ATOM     76  C   UNL A   1      49.553  27.148  23.800  1.00  0.00     0.055 A 
ATOM     77  C   UNL A   1      50.560  26.608  25.916  1.00  0.00     0.041 A 
ATOM     78  F   UNL A   1      49.271  26.703  27.872  1.00  0.00    -0.206 F 
ATOM     79  C   UNL A   1      50.670  26.742  24.535  1.00  0.00     0.022 A 
BRANCH  76  80
ATOM     80  S   UNL A   1      49.644  27.254  21.991  1.00  0.00     0.124 S 
ATOM     81  O   UNL A   1      48.732  26.191  21.584  1.00  0.00    -0.237 OA
ATOM     82  O   UNL A   1      49.189  28.618  21.747  1.00  0.00    -0.237 OA
ATOM     83  O   UNL A   1      51.055  27.011  21.707  1.00  0.00    -0.744 OA
ENDBRANCH  76  80
ENDBRANCH  49  73
BRANCH  61  84
ATOM     84  C   UNL A   1      45.397  32.852  28.893  1.00  0.00     0.023 A 
ATOM     85  C   UNL A   1      45.267  33.908  27.975  1.00  0.00     0.031 A 
ATOM     86  C   UNL A   1      46.077  33.099  30.099  1.00  0.00     0.131 A 
ATOM     87  C   UNL A   1      45.853  35.151  28.254  1.00  0.00     0.055 A 
ATOM     88  C   UNL A   1      46.618  34.351  30.392  1.00  0.00     0.041 A 
ATOM     89  F   UNL A   1      46.230  32.123  31.008  1.00  0.00    -0.206 F 
ATOM     90  C   UNL A   1      46.518  35.383  29.463  1.00  0.00     0.022 A 
BRANCH  87  91
ATOM     91  S   UNL A   1      45.802  36.445  26.984  1.00  0.00     0.124 S 
ATOM     92  O   UNL A   1      46.715  37.444  27.530  1.00  0.00    -0.237 OA
ATOM     93  O   UNL A   1      46.267  35.737  25.796  1.00  0.00    -0.237 OA
ATOM     94  O   UNL A   1      44.395  36.842  26.955  1.00  0.00    -0.744 OA
ENDBRANCH  87  91
ENDBRANCH  61  84
ENDBRANCH  35  36
ENDBRANCH  27  30
ENDBRANCH  25  26
ENDBRANCH  24  25
ENDBRANCH   1  24
TORSDOF 17
ENDMDL
