MODEL 1
REMARK VINA RESULT:     -11.3      0.000      0.000
REMARK SMILES COc1ccc(CCC(=O)N(C)C[C@H](C)C(=O)NCCCNC(=O)c2ccc(-c3c4nc(c(-c5cc(S(=O)(=O)[O-])ccc5F)c5ccc([nH]5)c(-c5cc(S(=O)(=O)[O-])ccc5F)c5nc(c(-c6cc(S(=O)(=O)[O-])ccc6F)c6ccc3[nH]6)C=C5)C=C4)cc2)cc1F
REMARK SMILES IDX 16 1 17 2 18 3 14 5 15 6 13 7 11 8 12 9 9 10 10 11 8 12 7 13
REMARK SMILES IDX 6 14 3 15 4 16 89 17 5 18 88 19 90 20 2 21 1 22 19 23 20 24
REMARK SMILES IDX 21 25 22 26 23 27 24 29 25 30 26 31 87 32 27 33 86 34 28 35
REMARK SMILES IDX 29 36 30 37 80 38 31 39 85 40 79 41 81 42 32 43 84 44 78 45
REMARK SMILES IDX 77 46 33 48 65 49 45 50 64 51 46 52 49 53 63 54 82 55 47 56
REMARK SMILES IDX 48 57 62 59 83 60 50 61 34 62 35 63 43 64 36 65 42 66 44 67
REMARK SMILES IDX 41 68 37 69 38 70 39 71 40 72 66 73 67 74 75 75 68 76 74 77
REMARK SMILES IDX 76 78 73 79 69 80 70 81 71 82 72 83 51 84 52 85 60 86 53 87
REMARK SMILES IDX 59 88 61 89 58 90 54 91 55 92 56 93 57 94
REMARK H PARENT 18 4 22 28 81 47 49 58
REMARK Flexibility Score: inf
ROOT
ATOM      1  C   UNL A   1      33.957  28.953  26.122  1.00  0.00     0.224 C 
ATOM      2  O   UNL A   1      34.954  28.698  26.803  1.00  0.00    -0.275 OA
ATOM      3  N   UNL A   1      33.325  30.136  26.340  1.00  0.00    -0.356 N 
ATOM      4  H   UNL A   1      33.827  30.777  26.893  1.00  0.00     0.163 HD
ENDROOT
BRANCH   1   5
ATOM      5  C   UNL A   1      33.398  27.939  25.139  1.00  0.00     0.095 C 
ATOM      6  C   UNL A   1      33.911  28.267  23.733  1.00  0.00     0.020 C 
BRANCH   5   7
ATOM      7  C   UNL A   1      33.665  26.480  25.580  1.00  0.00     0.132 C 
BRANCH   7   8
ATOM      8  N   UNL A   1      32.533  25.555  25.452  1.00  0.00    -0.345 N 
ATOM      9  C   UNL A   1      31.313  25.972  26.130  1.00  0.00     0.146 C 
BRANCH   8  10
ATOM     10  C   UNL A   1      32.551  24.619  24.425  1.00  0.00     0.222 C 
ATOM     11  O   UNL A   1      33.179  24.813  23.383  1.00  0.00    -0.275 OA
BRANCH  10  12
ATOM     12  C   UNL A   1      31.846  23.286  24.617  1.00  0.00     0.105 C 
BRANCH  12  13
ATOM     13  C   UNL A   1      31.903  22.417  23.352  1.00  0.00     0.045 C 
BRANCH  13  14
ATOM     14  C   UNL A   1      32.314  20.991  23.641  1.00  0.00    -0.044 A 
ATOM     15  C   UNL A   1      32.567  18.282  24.316  1.00  0.00     0.154 A 
ATOM     16  C   UNL A   1      32.729  19.258  25.294  1.00  0.00     0.050 A 
ATOM     17  C   UNL A   1      32.349  18.662  22.991  1.00  0.00     0.165 A 
ATOM     18  C   UNL A   1      32.636  20.607  24.952  1.00  0.00     0.008 A 
ATOM     19  C   UNL A   1      32.225  20.007  22.649  1.00  0.00     0.047 A 
ATOM     20  F   UNL A   1      32.167  17.740  22.034  1.00  0.00    -0.203 F 
BRANCH  15  21
ATOM     21  O   UNL A   1      32.479  16.987  24.749  1.00  0.00    -0.494 OA
ATOM     22  C   UNL A   1      33.653  16.238  24.461  1.00  0.00     0.278 C 
ENDBRANCH  15  21
ENDBRANCH  13  14
ENDBRANCH  12  13
ENDBRANCH  10  12
ENDBRANCH   8  10
ENDBRANCH   7   8
ENDBRANCH   5   7
ENDBRANCH   1   5
BRANCH   3  23
ATOM     23  C   UNL A   1      32.027  30.609  25.888  1.00  0.00     0.117 C 
BRANCH  23  24
ATOM     24  C   UNL A   1      31.592  31.841  26.657  1.00  0.00     0.042 C 
BRANCH  24  25
ATOM     25  C   UNL A   1      32.734  32.490  27.417  1.00  0.00     0.118 C 
BRANCH  25  26
ATOM     26  N   UNL A   1      32.514  33.916  27.628  1.00  0.00    -0.352 N 
ATOM     27  C   UNL A   1      33.071  34.749  28.566  1.00  0.00     0.251 C 
ATOM     28  H   UNL A   1      31.876  34.341  27.012  1.00  0.00     0.163 HD
ATOM     29  O   UNL A   1      32.595  35.867  28.748  1.00  0.00    -0.269 OA
BRANCH  27  30
ATOM     30  C   UNL A   1      34.223  34.280  29.360  1.00  0.00     0.039 A 
ATOM     31  C   UNL A   1      34.003  33.734  30.625  1.00  0.00     0.014 A 
ATOM     32  C   UNL A   1      35.519  34.359  28.841  1.00  0.00     0.014 A 
ATOM     33  C   UNL A   1      35.079  33.205  31.339  1.00  0.00     0.010 A 
ATOM     34  C   UNL A   1      36.567  33.735  29.505  1.00  0.00     0.010 A 
ATOM     35  C   UNL A   1      36.361  33.162  30.765  1.00  0.00    -0.014 A 
BRANCH  35  36
ATOM     36  C   UNL A   1      37.507  32.540  31.476  1.00  0.00     0.031 A 
ATOM     37  C   UNL A   1      38.249  31.396  30.841  1.00  0.00     0.074 A 
ATOM     38  C   UNL A   1      37.845  32.974  32.707  1.00  0.00     0.049 A 
ATOM     39  N   UNL A   1      39.223  30.674  31.331  1.00  0.00    -0.248 NA
ATOM     40  C   UNL A   1      37.824  30.990  29.491  1.00  0.00     0.031 C 
ATOM     41  C   UNL A   1      37.176  34.056  33.435  1.00  0.00     0.029 A 
ATOM     42  N   UNL A   1      38.836  32.565  33.562  1.00  0.00    -0.354 N 
ATOM     43  C   UNL A   1      39.519  29.729  30.356  1.00  0.00     0.074 A 
ATOM     44  C   UNL A   1      38.581  29.925  29.274  1.00  0.00     0.031 C 
ATOM     45  C   UNL A   1      37.804  34.253  34.605  1.00  0.00     0.029 A 
ATOM     46  C   UNL A   1      38.885  33.280  34.737  1.00  0.00     0.049 A 
ATOM     47  H   UNL A   1      39.455  31.828  33.355  1.00  0.00     0.167 HD
ATOM     48  C   UNL A   1      40.505  28.800  30.352  1.00  0.00     0.034 A 
ATOM     49  C   UNL A   1      39.699  33.160  35.804  1.00  0.00     0.034 A 
ATOM     50  C   UNL A   1      41.451  28.633  31.423  1.00  0.00     0.049 A 
ATOM     51  C   UNL A   1      40.764  32.096  35.791  1.00  0.00     0.074 A 
ATOM     52  C   UNL A   1      42.519  27.756  31.495  1.00  0.00     0.029 A 
ATOM     53  N   UNL A   1      41.447  29.357  32.608  1.00  0.00    -0.354 N 
ATOM     54  N   UNL A   1      41.039  31.219  34.853  1.00  0.00    -0.248 NA
ATOM     55  C   UNL A   1      41.627  32.002  36.976  1.00  0.00     0.031 C 
ATOM     56  C   UNL A   1      43.118  27.902  32.749  1.00  0.00     0.029 A 
ATOM     57  C   UNL A   1      42.474  28.922  33.430  1.00  0.00     0.049 A 
ATOM     58  H   UNL A   1      40.809  30.072  32.831  1.00  0.00     0.167 HD
ATOM     59  C   UNL A   1      42.120  30.484  35.327  1.00  0.00     0.074 A 
ATOM     60  C   UNL A   1      42.451  31.022  36.631  1.00  0.00     0.031 C 
ATOM     61  C   UNL A   1      42.783  29.461  34.732  1.00  0.00     0.034 A 
BRANCH  48  62
ATOM     62  C   UNL A   1      40.609  27.890  29.157  1.00  0.00     0.023 A 
ATOM     63  C   UNL A   1      41.523  28.142  28.119  1.00  0.00     0.031 A 
ATOM     64  C   UNL A   1      39.809  26.737  29.070  1.00  0.00     0.131 A 
ATOM     65  C   UNL A   1      41.589  27.273  27.020  1.00  0.00     0.055 A 
ATOM     66  C   UNL A   1      39.925  25.842  28.006  1.00  0.00     0.041 A 
ATOM     67  F   UNL A   1      38.907  26.460  30.025  1.00  0.00    -0.206 F 
ATOM     68  C   UNL A   1      40.815  26.111  26.970  1.00  0.00     0.022 A 
BRANCH  65  69
ATOM     69  S   UNL A   1      42.649  27.721  25.620  1.00  0.00     0.124 S 
ATOM     70  O   UNL A   1      41.956  28.891  25.088  1.00  0.00    -0.237 OA
ATOM     71  O   UNL A   1      43.933  27.978  26.265  1.00  0.00    -0.237 OA
ATOM     72  O   UNL A   1      42.607  26.536  24.766  1.00  0.00    -0.744 OA
ENDBRANCH  65  69
ENDBRANCH  48  62
BRANCH  49  73
ATOM     73  C   UNL A   1      39.535  34.072  36.969  1.00  0.00     0.023 A 
ATOM     74  C   UNL A   1      38.956  33.620  38.164  1.00  0.00     0.031 A 
ATOM     75  C   UNL A   1      39.971  35.409  36.908  1.00  0.00     0.131 A 
ATOM     76  C   UNL A   1      38.810  34.501  39.247  1.00  0.00     0.055 A 
ATOM     77  C   UNL A   1      39.860  36.270  38.001  1.00  0.00     0.041 A 
ATOM     78  F   UNL A   1      40.541  35.886  35.790  1.00  0.00    -0.206 F 
ATOM     79  C   UNL A   1      39.271  35.818  39.178  1.00  0.00     0.022 A 
BRANCH  76  80
ATOM     80  S   UNL A   1      37.983  33.909  40.749  1.00  0.00     0.124 S 
ATOM     81  O   UNL A   1      39.032  33.103  41.365  1.00  0.00    -0.237 OA
ATOM     82  O   UNL A   1      37.648  35.157  41.426  1.00  0.00    -0.237 OA
ATOM     83  O   UNL A   1      36.839  33.158  40.233  1.00  0.00    -0.744 OA
ENDBRANCH  76  80
ENDBRANCH  49  73
BRANCH  61  84
ATOM     84  C   UNL A   1      43.956  28.867  35.466  1.00  0.00     0.023 A 
ATOM     85  C   UNL A   1      43.792  27.810  36.377  1.00  0.00     0.031 A 
ATOM     86  C   UNL A   1      45.258  29.320  35.196  1.00  0.00     0.131 A 
ATOM     87  C   UNL A   1      44.916  27.255  37.005  1.00  0.00     0.055 A 
ATOM     88  C   UNL A   1      46.376  28.731  35.786  1.00  0.00     0.041 A 
ATOM     89  F   UNL A   1      45.466  30.325  34.330  1.00  0.00    -0.206 F 
ATOM     90  C   UNL A   1      46.208  27.695  36.701  1.00  0.00     0.022 A 
BRANCH  87  91
ATOM     91  S   UNL A   1      44.669  25.963  38.252  1.00  0.00     0.124 S 
ATOM     92  O   UNL A   1      44.078  26.715  39.354  1.00  0.00    -0.237 OA
ATOM     93  O   UNL A   1      43.778  25.030  37.568  1.00  0.00    -0.237 OA
ATOM     94  O   UNL A   1      46.019  25.460  38.499  1.00  0.00    -0.744 OA
ENDBRANCH  87  91
ENDBRANCH  61  84
ENDBRANCH  35  36
ENDBRANCH  27  30
ENDBRANCH  25  26
ENDBRANCH  24  25
ENDBRANCH  23  24
ENDBRANCH   3  23
TORSDOF 20
ENDMDL
MODEL 2
REMARK VINA RESULT:     -11.2      3.190      8.558
REMARK SMILES COc1ccc(CCC(=O)N(C)C[C@H](C)C(=O)NCCCNC(=O)c2ccc(-c3c4nc(c(-c5cc(S(=O)(=O)[O-])ccc5F)c5ccc([nH]5)c(-c5cc(S(=O)(=O)[O-])ccc5F)c5nc(c(-c6cc(S(=O)(=O)[O-])ccc6F)c6ccc3[nH]6)C=C5)C=C4)cc2)cc1F
REMARK SMILES IDX 16 1 17 2 18 3 14 5 15 6 13 7 11 8 12 9 9 10 10 11 8 12 7 13
REMARK SMILES IDX 6 14 3 15 4 16 89 17 5 18 88 19 90 20 2 21 1 22 19 23 20 24
REMARK SMILES IDX 21 25 22 26 23 27 24 29 25 30 26 31 87 32 27 33 86 34 28 35
REMARK SMILES IDX 29 36 30 37 80 38 31 39 85 40 79 41 81 42 32 43 84 44 78 45
REMARK SMILES IDX 77 46 33 48 65 49 45 50 64 51 46 52 49 53 63 54 82 55 47 56
REMARK SMILES IDX 48 57 62 59 83 60 50 61 34 62 35 63 43 64 36 65 42 66 44 67
REMARK SMILES IDX 41 68 37 69 38 70 39 71 40 72 66 73 67 74 75 75 68 76 74 77
REMARK SMILES IDX 76 78 73 79 69 80 70 81 71 82 72 83 51 84 52 85 60 86 53 87
REMARK SMILES IDX 59 88 61 89 58 90 54 91 55 92 56 93 57 94
REMARK H PARENT 18 4 22 28 81 47 49 58
REMARK Flexibility Score: inf
ROOT
ATOM      1  C   UNL A   1      30.192  28.576  23.179  1.00  0.00     0.224 C 
ATOM      2  O   UNL A   1      29.849  28.691  22.000  1.00  0.00    -0.275 OA
ATOM      3  N   UNL A   1      30.724  29.664  23.796  1.00  0.00    -0.356 N 
ATOM      4  H   UNL A   1      30.617  30.511  23.305  1.00  0.00     0.163 HD
ENDROOT
BRANCH   1   5
ATOM      5  C   UNL A   1      30.111  27.237  23.893  1.00  0.00     0.095 C 
ATOM      6  C   UNL A   1      28.671  26.718  23.826  1.00  0.00     0.020 C 
BRANCH   5   7
ATOM      7  C   UNL A   1      31.166  26.229  23.378  1.00  0.00     0.132 C 
BRANCH   7   8
ATOM      8  N   UNL A   1      32.257  25.913  24.308  1.00  0.00    -0.345 N 
ATOM      9  C   UNL A   1      31.870  25.827  25.709  1.00  0.00     0.146 C 
BRANCH   8  10
ATOM     10  C   UNL A   1      33.417  25.340  23.802  1.00  0.00     0.222 C 
ATOM     11  O   UNL A   1      33.663  25.331  22.594  1.00  0.00    -0.275 OA
BRANCH  10  12
ATOM     12  C   UNL A   1      34.453  24.778  24.762  1.00  0.00     0.105 C 
BRANCH  12  13
ATOM     13  C   UNL A   1      35.353  23.730  24.091  1.00  0.00     0.045 C 
BRANCH  13  14
ATOM     14  C   UNL A   1      35.017  22.317  24.509  1.00  0.00    -0.044 A 
ATOM     15  C   UNL A   1      34.395  19.596  24.765  1.00  0.00     0.154 A 
ATOM     16  C   UNL A   1      33.374  20.528  24.604  1.00  0.00     0.050 A 
ATOM     17  C   UNL A   1      35.717  20.030  24.868  1.00  0.00     0.165 A 
ATOM     18  C   UNL A   1      33.683  21.886  24.511  1.00  0.00     0.008 A 
ATOM     19  C   UNL A   1      36.033  21.382  24.744  1.00  0.00     0.047 A 
ATOM     20  F   UNL A   1      36.720  19.149  24.999  1.00  0.00    -0.203 F 
BRANCH  15  21
ATOM     21  O   UNL A   1      34.044  18.278  24.656  1.00  0.00    -0.494 OA
ATOM     22  C   UNL A   1      32.786  18.000  25.260  1.00  0.00     0.278 C 
ENDBRANCH  15  21
ENDBRANCH  13  14
ENDBRANCH  12  13
ENDBRANCH  10  12
ENDBRANCH   8  10
ENDBRANCH   7   8
ENDBRANCH   5   7
ENDBRANCH   1   5
BRANCH   3  23
ATOM     23  C   UNL A   1      31.425  29.782  25.064  1.00  0.00     0.117 C 
BRANCH  23  24
ATOM     24  C   UNL A   1      32.870  29.341  24.937  1.00  0.00     0.042 C 
BRANCH  24  25
ATOM     25  C   UNL A   1      33.639  29.472  26.239  1.00  0.00     0.118 C 
BRANCH  25  26
ATOM     26  N   UNL A   1      33.579  30.825  26.780  1.00  0.00    -0.352 N 
ATOM     27  C   UNL A   1      34.362  31.407  27.745  1.00  0.00     0.251 C 
ATOM     28  H   UNL A   1      32.878  31.401  26.400  1.00  0.00     0.163 HD
ATOM     29  O   UNL A   1      34.021  32.477  28.243  1.00  0.00    -0.269 OA
BRANCH  27  30
ATOM     30  C   UNL A   1      35.596  30.727  28.186  1.00  0.00     0.039 A 
ATOM     31  C   UNL A   1      36.819  31.101  27.628  1.00  0.00     0.014 A 
ATOM     32  C   UNL A   1      35.543  29.736  29.170  1.00  0.00     0.014 A 
ATOM     33  C   UNL A   1      37.995  30.526  28.109  1.00  0.00     0.010 A 
ATOM     34  C   UNL A   1      36.720  29.247  29.721  1.00  0.00     0.010 A 
ATOM     35  C   UNL A   1      37.958  29.628  29.190  1.00  0.00    -0.014 A 
BRANCH  35  36
ATOM     36  C   UNL A   1      39.202  29.057  29.765  1.00  0.00     0.031 A 
ATOM     37  C   UNL A   1      39.792  29.657  31.013  1.00  0.00     0.074 A 
ATOM     38  C   UNL A   1      39.821  28.036  29.139  1.00  0.00     0.049 A 
ATOM     39  N   UNL A   1      40.906  29.351  31.625  1.00  0.00    -0.248 NA
ATOM     40  C   UNL A   1      39.048  30.762  31.640  1.00  0.00     0.031 C 
ATOM     41  C   UNL A   1      39.358  27.396  27.905  1.00  0.00     0.029 A 
ATOM     42  N   UNL A   1      40.968  27.353  29.455  1.00  0.00    -0.354 N 
ATOM     43  C   UNL A   1      40.999  30.229  32.699  1.00  0.00     0.074 A 
ATOM     44  C   UNL A   1      39.864  31.120  32.620  1.00  0.00     0.031 C 
ATOM     45  C   UNL A   1      40.188  26.387  27.595  1.00  0.00     0.029 A 
ATOM     46  C   UNL A   1      41.270  26.340  28.574  1.00  0.00     0.049 A 
ATOM     47  H   UNL A   1      41.524  27.569  30.238  1.00  0.00     0.167 HD
ATOM     48  C   UNL A   1      41.932  30.267  33.679  1.00  0.00     0.034 A 
ATOM     49  C   UNL A   1      42.304  25.477  28.551  1.00  0.00     0.034 A 
ATOM     50  C   UNL A   1      43.042  29.355  33.763  1.00  0.00     0.049 A 
ATOM     51  C   UNL A   1      43.349  25.563  29.632  1.00  0.00     0.074 A 
ATOM     52  C   UNL A   1      44.015  29.276  34.744  1.00  0.00     0.029 A 
ATOM     53  N   UNL A   1      43.329  28.363  32.835  1.00  0.00    -0.354 N 
ATOM     54  N   UNL A   1      43.413  26.391  30.649  1.00  0.00    -0.248 NA
ATOM     55  C   UNL A   1      44.459  24.604  29.564  1.00  0.00     0.031 C 
ATOM     56  C   UNL A   1      44.926  28.284  34.375  1.00  0.00     0.029 A 
ATOM     57  C   UNL A   1      44.482  27.690  33.205  1.00  0.00     0.049 A 
ATOM     58  H   UNL A   1      42.792  28.167  32.034  1.00  0.00     0.167 HD
ATOM     59  C   UNL A   1      44.558  26.037  31.354  1.00  0.00     0.074 A 
ATOM     60  C   UNL A   1      45.153  24.919  30.650  1.00  0.00     0.031 C 
ATOM     61  C   UNL A   1      45.068  26.585  32.486  1.00  0.00     0.034 A 
BRANCH  48  62
ATOM     62  C   UNL A   1      41.797  31.329  34.738  1.00  0.00     0.023 A 
ATOM     63  C   UNL A   1      40.717  31.337  35.637  1.00  0.00     0.031 A 
ATOM     64  C   UNL A   1      42.778  32.327  34.872  1.00  0.00     0.131 A 
ATOM     65  C   UNL A   1      40.624  32.345  36.608  1.00  0.00     0.055 A 
ATOM     66  C   UNL A   1      42.714  33.288  35.881  1.00  0.00     0.041 A 
ATOM     67  F   UNL A   1      43.820  32.376  34.027  1.00  0.00    -0.206 F 
ATOM     68  C   UNL A   1      41.628  33.305  36.752  1.00  0.00     0.022 A 
BRANCH  65  69
ATOM     69  S   UNL A   1      39.133  32.428  37.635  1.00  0.00     0.124 S 
ATOM     70  O   UNL A   1      38.430  31.213  37.232  1.00  0.00    -0.237 OA
ATOM     71  O   UNL A   1      39.679  32.431  38.987  1.00  0.00    -0.237 OA
ATOM     72  O   UNL A   1      38.497  33.676  37.217  1.00  0.00    -0.744 OA
ENDBRANCH  65  69
ENDBRANCH  48  62
BRANCH  49  73
ATOM     73  C   UNL A   1      42.401  24.462  27.466  1.00  0.00     0.023 A 
ATOM     74  C   UNL A   1      41.625  23.294  27.499  1.00  0.00     0.031 A 
ATOM     75  C   UNL A   1      43.262  24.655  26.370  1.00  0.00     0.131 A 
ATOM     76  C   UNL A   1      41.739  22.351  26.465  1.00  0.00     0.055 A 
ATOM     77  C   UNL A   1      43.342  23.734  25.324  1.00  0.00     0.041 A 
ATOM     78  F   UNL A   1      44.017  25.763  26.287  1.00  0.00    -0.206 F 
ATOM     79  C   UNL A   1      42.580  22.570  25.371  1.00  0.00     0.022 A 
BRANCH  76  80
ATOM     80  S   UNL A   1      40.785  20.813  26.578  1.00  0.00     0.124 S 
ATOM     81  O   UNL A   1      39.501  21.220  26.019  1.00  0.00    -0.237 OA
ATOM     82  O   UNL A   1      41.580  19.898  25.766  1.00  0.00    -0.237 OA
ATOM     83  O   UNL A   1      40.778  20.522  28.011  1.00  0.00    -0.744 OA
ENDBRANCH  76  80
ENDBRANCH  49  73
BRANCH  61  84
ATOM     84  C   UNL A   1      46.316  25.970  33.059  1.00  0.00     0.023 A 
ATOM     85  C   UNL A   1      46.261  24.846  33.900  1.00  0.00     0.031 A 
ATOM     86  C   UNL A   1      47.578  26.475  32.703  1.00  0.00     0.131 A 
ATOM     87  C   UNL A   1      47.450  24.276  34.376  1.00  0.00     0.055 A 
ATOM     88  C   UNL A   1      48.758  25.874  33.139  1.00  0.00     0.041 A 
ATOM     89  F   UNL A   1      47.682  27.545  31.899  1.00  0.00    -0.206 F 
ATOM     90  C   UNL A   1      48.698  24.770  33.985  1.00  0.00     0.022 A 
BRANCH  87  91
ATOM     91  S   UNL A   1      47.348  22.891  35.541  1.00  0.00     0.124 S 
ATOM     92  O   UNL A   1      46.273  22.091  34.965  1.00  0.00    -0.237 OA
ATOM     93  O   UNL A   1      48.686  22.311  35.462  1.00  0.00    -0.237 OA
ATOM     94  O   UNL A   1      47.028  23.535  36.814  1.00  0.00    -0.744 OA
ENDBRANCH  87  91
ENDBRANCH  61  84
ENDBRANCH  35  36
ENDBRANCH  27  30
ENDBRANCH  25  26
ENDBRANCH  24  25
ENDBRANCH  23  24
ENDBRANCH   3  23
TORSDOF 20
ENDMDL
MODEL 3
REMARK VINA RESULT:     -11.2      2.432      8.515
REMARK SMILES COc1ccc(CCC(=O)N(C)C[C@H](C)C(=O)NCCCNC(=O)c2ccc(-c3c4nc(c(-c5cc(S(=O)(=O)[O-])ccc5F)c5ccc([nH]5)c(-c5cc(S(=O)(=O)[O-])ccc5F)c5nc(c(-c6cc(S(=O)(=O)[O-])ccc6F)c6ccc3[nH]6)C=C5)C=C4)cc2)cc1F
REMARK SMILES IDX 16 1 17 2 18 3 14 5 15 6 13 7 11 8 12 9 9 10 10 11 8 12 7 13
REMARK SMILES IDX 6 14 3 15 4 16 89 17 5 18 88 19 90 20 2 21 1 22 19 23 20 24
REMARK SMILES IDX 21 25 22 26 23 27 24 29 25 30 26 31 87 32 27 33 86 34 28 35
REMARK SMILES IDX 29 36 30 37 80 38 31 39 85 40 79 41 81 42 32 43 84 44 78 45
REMARK SMILES IDX 77 46 33 48 65 49 45 50 64 51 46 52 49 53 63 54 82 55 47 56
REMARK SMILES IDX 48 57 62 59 83 60 50 61 34 62 35 63 43 64 36 65 42 66 44 67
REMARK SMILES IDX 41 68 37 69 38 70 39 71 40 72 66 73 67 74 75 75 68 76 74 77
REMARK SMILES IDX 76 78 73 79 69 80 70 81 71 82 72 83 51 84 52 85 60 86 53 87
REMARK SMILES IDX 59 88 61 89 58 90 54 91 55 92 56 93 57 94
REMARK H PARENT 18 4 22 28 81 47 49 58
REMARK Flexibility Score: inf
ROOT
ATOM      1  C   UNL A   1      33.889  29.356  26.587  1.00  0.00     0.224 C 
ATOM      2  O   UNL A   1      34.959  29.149  27.165  1.00  0.00    -0.275 OA
ATOM      3  N   UNL A   1      33.136  30.410  27.001  1.00  0.00    -0.356 N 
ATOM      4  H   UNL A   1      33.598  31.036  27.605  1.00  0.00     0.163 HD
ENDROOT
BRANCH   1   5
ATOM      5  C   UNL A   1      33.382  28.411  25.512  1.00  0.00     0.095 C 
ATOM      6  C   UNL A   1      33.930  28.857  24.152  1.00  0.00     0.020 C 
BRANCH   5   7
ATOM      7  C   UNL A   1      33.667  26.928  25.847  1.00  0.00     0.132 C 
BRANCH   7   8
ATOM      8  N   UNL A   1      32.488  26.067  26.000  1.00  0.00    -0.345 N 
ATOM      9  C   UNL A   1      31.357  26.682  26.681  1.00  0.00     0.146 C 
BRANCH   8  10
ATOM     10  C   UNL A   1      32.369  24.951  25.181  1.00  0.00     0.222 C 
ATOM     11  O   UNL A   1      32.584  23.813  25.601  1.00  0.00    -0.275 OA
BRANCH  10  12
ATOM     12  C   UNL A   1      31.883  25.123  23.751  1.00  0.00     0.105 C 
BRANCH  12  13
ATOM     13  C   UNL A   1      30.350  25.105  23.658  1.00  0.00     0.045 C 
BRANCH  13  14
ATOM     14  C   UNL A   1      29.758  26.488  23.514  1.00  0.00    -0.044 A 
ATOM     15  C   UNL A   1      28.526  28.891  22.760  1.00  0.00     0.154 A 
ATOM     16  C   UNL A   1      29.874  28.686  22.481  1.00  0.00     0.050 A 
ATOM     17  C   UNL A   1      27.814  27.927  23.476  1.00  0.00     0.165 A 
ATOM     18  C   UNL A   1      30.495  27.504  22.887  1.00  0.00     0.008 A 
ATOM     19  C   UNL A   1      28.422  26.732  23.855  1.00  0.00     0.047 A 
ATOM     20  F   UNL A   1      26.508  28.092  23.736  1.00  0.00    -0.203 F 
BRANCH  15  21
ATOM     21  O   UNL A   1      27.936  29.976  22.171  1.00  0.00    -0.494 OA
ATOM     22  C   UNL A   1      28.878  30.812  21.510  1.00  0.00     0.278 C 
ENDBRANCH  15  21
ENDBRANCH  13  14
ENDBRANCH  12  13
ENDBRANCH  10  12
ENDBRANCH   8  10
ENDBRANCH   7   8
ENDBRANCH   5   7
ENDBRANCH   1   5
BRANCH   3  23
ATOM     23  C   UNL A   1      31.759  30.763  26.697  1.00  0.00     0.117 C 
BRANCH  23  24
ATOM     24  C   UNL A   1      31.510  32.243  26.914  1.00  0.00     0.042 C 
BRANCH  24  25
ATOM     25  C   UNL A   1      32.795  33.043  27.027  1.00  0.00     0.118 C 
BRANCH  25  26
ATOM     26  N   UNL A   1      32.624  34.249  27.827  1.00  0.00    -0.352 N 
ATOM     27  C   UNL A   1      33.233  34.600  29.006  1.00  0.00     0.251 C 
ATOM     28  H   UNL A   1      31.982  34.904  27.471  1.00  0.00     0.163 HD
ATOM     29  O   UNL A   1      32.795  35.544  29.660  1.00  0.00    -0.269 OA
BRANCH  27  30
ATOM     30  C   UNL A   1      34.393  33.823  29.483  1.00  0.00     0.039 A 
ATOM     31  C   UNL A   1      35.679  34.221  29.117  1.00  0.00     0.014 A 
ATOM     32  C   UNL A   1      34.207  32.714  30.313  1.00  0.00     0.014 A 
ATOM     33  C   UNL A   1      36.781  33.545  29.642  1.00  0.00     0.010 A 
ATOM     34  C   UNL A   1      35.303  32.113  30.918  1.00  0.00     0.010 A 
ATOM     35  C   UNL A   1      36.602  32.514  30.581  1.00  0.00    -0.014 A 
BRANCH  35  36
ATOM     36  C   UNL A   1      37.760  31.828  31.206  1.00  0.00     0.031 A 
ATOM     37  C   UNL A   1      38.217  32.235  32.581  1.00  0.00     0.074 A 
ATOM     38  C   UNL A   1      38.424  30.877  30.519  1.00  0.00     0.049 A 
ATOM     39  N   UNL A   1      39.248  31.810  33.263  1.00  0.00    -0.248 NA
ATOM     40  C   UNL A   1      37.432  33.274  33.266  1.00  0.00     0.031 C 
ATOM     41  C   UNL A   1      38.090  30.423  29.166  1.00  0.00     0.029 A 
ATOM     42  N   UNL A   1      39.513  30.116  30.862  1.00  0.00    -0.354 N 
ATOM     43  C   UNL A   1      39.238  32.534  34.450  1.00  0.00     0.074 A 
ATOM     44  C   UNL A   1      38.139  33.469  34.369  1.00  0.00     0.031 C 
ATOM     45  C   UNL A   1      38.927  29.433  28.815  1.00  0.00     0.029 A 
ATOM     46  C   UNL A   1      39.891  29.218  29.891  1.00  0.00     0.049 A 
ATOM     47  H   UNL A   1      39.980  30.206  31.724  1.00  0.00     0.167 HD
ATOM     48  C   UNL A   1      40.055  32.408  35.523  1.00  0.00     0.034 A 
ATOM     49  C   UNL A   1      40.902  28.329  29.864  1.00  0.00     0.034 A 
ATOM     50  C   UNL A   1      41.128  31.453  35.603  1.00  0.00     0.049 A 
ATOM     51  C   UNL A   1      41.819  28.233  31.055  1.00  0.00     0.074 A 
ATOM     52  C   UNL A   1      41.982  31.210  36.665  1.00  0.00     0.029 A 
ATOM     53  N   UNL A   1      41.497  30.583  34.586  1.00  0.00    -0.354 N 
ATOM     54  N   UNL A   1      41.785  28.915  32.175  1.00  0.00    -0.248 NA
ATOM     55  C   UNL A   1      42.908  27.251  30.980  1.00  0.00     0.031 C 
ATOM     56  C   UNL A   1      42.907  30.242  36.267  1.00  0.00     0.029 A 
ATOM     57  C   UNL A   1      42.585  29.826  34.985  1.00  0.00     0.049 A 
ATOM     58  H   UNL A   1      41.050  30.514  33.712  1.00  0.00     0.167 HD
ATOM     59  C   UNL A   1      42.836  28.430  32.947  1.00  0.00     0.074 A 
ATOM     60  C   UNL A   1      43.482  27.394  32.167  1.00  0.00     0.031 C 
ATOM     61  C   UNL A   1      43.225  28.804  34.191  1.00  0.00     0.034 A 
BRANCH  48  62
ATOM     62  C   UNL A   1      39.824  33.326  36.695  1.00  0.00     0.023 A 
ATOM     63  C   UNL A   1      39.133  32.894  37.840  1.00  0.00     0.031 A 
ATOM     64  C   UNL A   1      40.330  34.637  36.680  1.00  0.00     0.131 A 
ATOM     65  C   UNL A   1      38.935  33.778  38.910  1.00  0.00     0.055 A 
ATOM     66  C   UNL A   1      40.186  35.491  37.774  1.00  0.00     0.041 A 
ATOM     67  F   UNL A   1      40.980  35.105  35.603  1.00  0.00    -0.206 F 
ATOM     68  C   UNL A   1      39.479  35.065  38.895  1.00  0.00     0.022 A 
BRANCH  65  69
ATOM     69  S   UNL A   1      37.892  33.248  40.295  1.00  0.00     0.124 S 
ATOM     70  O   UNL A   1      38.681  32.154  40.854  1.00  0.00    -0.237 OA
ATOM     71  O   UNL A   1      37.808  34.456  41.109  1.00  0.00    -0.237 OA
ATOM     72  O   UNL A   1      36.645  32.844  39.649  1.00  0.00    -0.744 OA
ENDBRANCH  65  69
ENDBRANCH  48  62
BRANCH  49  73
ATOM     73  C   UNL A   1      41.099  27.463  28.669  1.00  0.00     0.023 A 
ATOM     74  C   UNL A   1      42.088  27.757  27.719  1.00  0.00     0.031 A 
ATOM     75  C   UNL A   1      40.306  26.318  28.468  1.00  0.00     0.131 A 
ATOM     76  C   UNL A   1      42.249  26.927  26.599  1.00  0.00     0.055 A 
ATOM     77  C   UNL A   1      40.498  25.472  27.374  1.00  0.00     0.041 A 
ATOM     78  F   UNL A   1      39.353  25.988  29.354  1.00  0.00    -0.206 F 
ATOM     79  C   UNL A   1      41.471  25.779  26.428  1.00  0.00     0.022 A 
BRANCH  76  80
ATOM     80  S   UNL A   1      43.482  27.380  25.347  1.00  0.00     0.124 S 
ATOM     81  O   UNL A   1      44.134  26.099  25.098  1.00  0.00    -0.237 OA
ATOM     82  O   UNL A   1      42.646  27.898  24.269  1.00  0.00    -0.237 OA
ATOM     83  O   UNL A   1      44.305  28.378  26.027  1.00  0.00    -0.744 OA
ENDBRANCH  76  80
ENDBRANCH  49  73
BRANCH  61  84
ATOM     84  C   UNL A   1      44.387  28.074  34.809  1.00  0.00     0.023 A 
ATOM     85  C   UNL A   1      44.197  26.930  35.603  1.00  0.00     0.031 A 
ATOM     86  C   UNL A   1      45.703  28.489  34.542  1.00  0.00     0.131 A 
ATOM     87  C   UNL A   1      45.308  26.252  36.122  1.00  0.00     0.055 A 
ATOM     88  C   UNL A   1      46.806  27.782  35.020  1.00  0.00     0.041 A 
ATOM     89  F   UNL A   1      45.936  29.573  33.786  1.00  0.00    -0.206 F 
ATOM     90  C   UNL A   1      46.612  26.658  35.819  1.00  0.00     0.022 A 
BRANCH  87  91
ATOM     91  S   UNL A   1      45.032  24.841  37.226  1.00  0.00     0.124 S 
ATOM     92  O   UNL A   1      43.596  24.923  37.467  1.00  0.00    -0.237 OA
ATOM     93  O   UNL A   1      45.479  23.712  36.414  1.00  0.00    -0.237 OA
ATOM     94  O   UNL A   1      45.874  25.140  38.383  1.00  0.00    -0.744 OA
ENDBRANCH  87  91
ENDBRANCH  61  84
ENDBRANCH  35  36
ENDBRANCH  27  30
ENDBRANCH  25  26
ENDBRANCH  24  25
ENDBRANCH  23  24
ENDBRANCH   3  23
TORSDOF 20
ENDMDL
