MODEL 1
REMARK VINA RESULT:     -13.0      0.000      0.000
REMARK SMILES CC1=Nc2nc(NC(=O)CCC(=O)NCCCNC(=O)c3ccc(-c4c5nc(c(-c6cc(S(=O)(=O)[O-])ccc6F)c6ccc([nH]6)c(-c6cc(S(=O)(=O)[O-])ccc6F)c6nc(c(-c7cc(S(=O)(=O)[O-])ccc7F)c7ccc4[nH]7)C=C6)C=C5)cc3)nn2[C@@H](c2ccc(Cl)cc2)C1
REMARK SMILES IDX 15 1 14 2 12 3 13 4 11 6 10 7 8 8 7 9 9 11 6 12 1 13 2 14
REMARK SMILES IDX 3 15 94 16 4 17 86 18 5 19 85 20 84 21 87 22 88 23 93 24
REMARK SMILES IDX 89 25 92 26 90 27 91 28 16 29 17 30 18 31 19 32 20 34 21 35
REMARK SMILES IDX 22 36 83 37 23 38 82 39 24 40 25 41 26 42 76 43 27 44 81 45
REMARK SMILES IDX 75 46 77 47 28 48 80 49 74 50 73 51 29 53 61 54 41 55 60 56
REMARK SMILES IDX 42 57 45 58 59 59 78 60 43 61 44 62 58 64 79 65 46 66 30 67
REMARK SMILES IDX 31 68 39 69 32 70 38 71 40 72 37 73 33 74 34 75 35 76 36 77
REMARK SMILES IDX 62 78 63 79 71 80 64 81 70 82 72 83 69 84 65 85 66 86 67 87
REMARK SMILES IDX 68 88 47 89 48 90 56 91 49 92 55 93 57 94 54 95 50 96 51 97
REMARK SMILES IDX 52 98 53 99
REMARK H PARENT 14 5 7 10 18 33 77 52 45 63
REMARK Flexibility Score: inf
ROOT
ATOM      1  C   UNL A   1      36.139  24.066  25.527  1.00  0.00     0.117 C 
ENDROOT
BRANCH   1   2
ATOM      2  N   UNL A   1      35.757  23.827  24.142  1.00  0.00    -0.356 N 
ATOM      3  C   UNL A   1      34.818  22.971  23.645  1.00  0.00     0.220 C 
ATOM      4  O   UNL A   1      34.268  23.249  22.582  1.00  0.00    -0.275 OA
ATOM      5  H   UNL A   1      36.243  24.359  23.471  1.00  0.00     0.163 HD
BRANCH   3   6
ATOM      6  C   UNL A   1      34.483  21.686  24.359  1.00  0.00     0.110 C 
BRANCH   6   7
ATOM      7  C   UNL A   1      33.155  21.095  23.894  1.00  0.00     0.110 C 
BRANCH   7   8
ATOM      8  C   UNL A   1      32.290  20.692  25.064  1.00  0.00     0.227 C 
ATOM      9  N   UNL A   1      31.450  21.566  25.670  1.00  0.00    -0.293 N 
ATOM     10  H   UNL A   1      30.924  21.186  26.410  1.00  0.00     0.173 HD
ATOM     11  O   UNL A   1      32.257  19.505  25.411  1.00  0.00    -0.275 OA
BRANCH   9  12
ATOM     12  C   UNL A   1      31.216  22.884  25.420  1.00  0.00     0.250 A 
ATOM     13  C   UNL A   1      30.509  27.545  22.178  1.00  0.00     0.062 C 
ATOM     14  C   UNL A   1      30.601  26.592  23.320  1.00  0.00     0.021 C 
ATOM     15  N   UNL A   1      31.063  25.401  23.088  1.00  0.00    -0.221 NA
ATOM     16  C   UNL A   1      29.993  27.023  24.633  1.00  0.00     0.083 C 
ATOM     17  C   UNL A   1      31.055  24.533  24.117  1.00  0.00     0.250 A 
ATOM     18  C   UNL A   1      30.673  26.312  25.804  1.00  0.00     0.147 C 
ATOM     19  N   UNL A   1      31.108  23.221  24.103  1.00  0.00    -0.174 NA
ATOM     20  N   UNL A   1      31.015  24.945  25.423  1.00  0.00    -0.220 N 
ATOM     21  N   UNL A   1      31.128  23.903  26.277  1.00  0.00    -0.130 NA
BRANCH  18  22
ATOM     22  C   UNL A   1      31.826  27.147  26.347  1.00  0.00    -0.023 A 
ATOM     23  C   UNL A   1      31.671  28.171  27.288  1.00  0.00     0.007 A 
ATOM     24  C   UNL A   1      33.130  26.855  25.900  1.00  0.00     0.007 A 
ATOM     25  C   UNL A   1      32.757  28.968  27.666  1.00  0.00     0.021 A 
ATOM     26  C   UNL A   1      34.223  27.624  26.307  1.00  0.00     0.021 A 
ATOM     27  C   UNL A   1      34.025  28.702  27.163  1.00  0.00     0.041 A 
ATOM     28  Cl  UNL A   1      35.352  29.714  27.586  1.00  0.00    -0.084 Cl
ENDBRANCH  18  22
ENDBRANCH   9  12
ENDBRANCH   7   8
ENDBRANCH   6   7
ENDBRANCH   3   6
ENDBRANCH   1   2
BRANCH   1  29
ATOM     29  C   UNL A   1      37.411  23.355  25.992  1.00  0.00     0.042 C 
BRANCH  29  30
ATOM     30  C   UNL A   1      38.371  24.259  26.749  1.00  0.00     0.118 C 
BRANCH  30  31
ATOM     31  N   UNL A   1      39.609  24.543  26.029  1.00  0.00    -0.352 N 
ATOM     32  C   UNL A   1      40.399  25.685  26.095  1.00  0.00     0.251 C 
ATOM     33  H   UNL A   1      39.925  23.837  25.421  1.00  0.00     0.163 HD
ATOM     34  O   UNL A   1      41.229  25.891  25.221  1.00  0.00    -0.269 OA
BRANCH  32  35
ATOM     35  C   UNL A   1      40.230  26.638  27.224  1.00  0.00     0.039 A 
ATOM     36  C   UNL A   1      39.987  26.196  28.531  1.00  0.00     0.014 A 
ATOM     37  C   UNL A   1      40.289  28.004  26.968  1.00  0.00     0.014 A 
ATOM     38  C   UNL A   1      39.848  27.138  29.559  1.00  0.00     0.010 A 
ATOM     39  C   UNL A   1      40.306  28.916  27.991  1.00  0.00     0.010 A 
ATOM     40  C   UNL A   1      40.009  28.503  29.277  1.00  0.00    -0.014 A 
BRANCH  40  41
ATOM     41  C   UNL A   1      40.071  29.545  30.299  1.00  0.00     0.031 A 
ATOM     42  C   UNL A   1      38.774  30.214  30.512  1.00  0.00     0.074 A 
ATOM     43  C   UNL A   1      41.140  29.738  31.109  1.00  0.00     0.049 A 
ATOM     44  N   UNL A   1      38.461  31.381  30.059  1.00  0.00    -0.248 NA
ATOM     45  C   UNL A   1      37.634  29.472  31.066  1.00  0.00     0.031 C 
ATOM     46  C   UNL A   1      42.451  29.087  31.024  1.00  0.00     0.029 A 
ATOM     47  N   UNL A   1      41.273  30.525  32.222  1.00  0.00    -0.354 N 
ATOM     48  C   UNL A   1      37.196  31.648  30.553  1.00  0.00     0.074 A 
ATOM     49  C   UNL A   1      36.653  30.368  30.919  1.00  0.00     0.031 C 
ATOM     50  C   UNL A   1      43.196  29.403  32.110  1.00  0.00     0.029 A 
ATOM     51  C   UNL A   1      42.442  30.305  32.961  1.00  0.00     0.049 A 
ATOM     52  H   UNL A   1      40.600  31.194  32.483  1.00  0.00     0.167 HD
ATOM     53  C   UNL A   1      36.867  32.923  30.899  1.00  0.00     0.034 A 
ATOM     54  C   UNL A   1      42.886  30.949  34.081  1.00  0.00     0.034 A 
ATOM     55  C   UNL A   1      37.876  33.847  30.407  1.00  0.00     0.049 A 
ATOM     56  C   UNL A   1      42.325  32.307  33.978  1.00  0.00     0.074 A 
ATOM     57  C   UNL A   1      38.324  34.257  29.168  1.00  0.00     0.029 A 
ATOM     58  N   UNL A   1      38.867  34.169  31.306  1.00  0.00    -0.354 N 
ATOM     59  N   UNL A   1      42.696  33.137  33.044  1.00  0.00    -0.248 NA
ATOM     60  C   UNL A   1      41.044  32.601  34.599  1.00  0.00     0.031 C 
ATOM     61  C   UNL A   1      39.726  34.480  29.323  1.00  0.00     0.029 A 
ATOM     62  C   UNL A   1      40.071  34.280  30.661  1.00  0.00     0.049 A 
ATOM     63  H   UNL A   1      38.732  34.300  32.272  1.00  0.00     0.167 HD
ATOM     64  C   UNL A   1      41.518  33.725  32.626  1.00  0.00     0.074 A 
ATOM     65  C   UNL A   1      40.578  33.498  33.722  1.00  0.00     0.031 C 
ATOM     66  C   UNL A   1      41.352  34.080  31.318  1.00  0.00     0.034 A 
BRANCH  53  67
ATOM     67  C   UNL A   1      35.955  33.314  32.048  1.00  0.00     0.023 A 
ATOM     68  C   UNL A   1      34.841  34.115  31.724  1.00  0.00     0.031 A 
ATOM     69  C   UNL A   1      36.248  33.211  33.426  1.00  0.00     0.131 A 
ATOM     70  C   UNL A   1      34.165  34.855  32.708  1.00  0.00     0.055 A 
ATOM     71  C   UNL A   1      35.536  33.906  34.409  1.00  0.00     0.041 A 
ATOM     72  F   UNL A   1      37.280  32.511  33.905  1.00  0.00    -0.206 F 
ATOM     73  C   UNL A   1      34.510  34.761  34.051  1.00  0.00     0.022 A 
BRANCH  70  74
ATOM     74  S   UNL A   1      32.940  36.076  32.175  1.00  0.00     0.124 S 
ATOM     75  O   UNL A   1      31.690  35.401  32.507  1.00  0.00    -0.237 OA
ATOM     76  O   UNL A   1      33.291  37.230  32.995  1.00  0.00    -0.237 OA
ATOM     77  O   UNL A   1      33.209  36.222  30.746  1.00  0.00    -0.744 OA
ENDBRANCH  70  74
ENDBRANCH  53  67
BRANCH  54  78
ATOM     78  C   UNL A   1      43.355  30.378  35.384  1.00  0.00     0.023 A 
ATOM     79  C   UNL A   1      43.304  28.993  35.685  1.00  0.00     0.031 A 
ATOM     80  C   UNL A   1      44.124  31.173  36.261  1.00  0.00     0.131 A 
ATOM     81  C   UNL A   1      43.992  28.468  36.810  1.00  0.00     0.055 A 
ATOM     82  C   UNL A   1      44.795  30.653  37.376  1.00  0.00     0.041 A 
ATOM     83  F   UNL A   1      44.336  32.473  36.005  1.00  0.00    -0.206 F 
ATOM     84  C   UNL A   1      44.739  29.296  37.651  1.00  0.00     0.022 A 
BRANCH  81  85
ATOM     85  S   UNL A   1      44.005  26.673  37.163  1.00  0.00     0.124 S 
ATOM     86  O   UNL A   1      45.417  26.339  37.025  1.00  0.00    -0.237 OA
ATOM     87  O   UNL A   1      43.449  26.615  38.510  1.00  0.00    -0.237 OA
ATOM     88  O   UNL A   1      43.141  26.114  36.123  1.00  0.00    -0.744 OA
ENDBRANCH  81  85
ENDBRANCH  54  78
BRANCH  66  89
ATOM     89  C   UNL A   1      42.604  34.151  30.462  1.00  0.00     0.023 A 
ATOM     90  C   UNL A   1      43.033  33.160  29.548  1.00  0.00     0.031 A 
ATOM     91  C   UNL A   1      43.367  35.325  30.552  1.00  0.00     0.131 A 
ATOM     92  C   UNL A   1      44.195  33.363  28.776  1.00  0.00     0.055 A 
ATOM     93  C   UNL A   1      44.502  35.535  29.770  1.00  0.00     0.041 A 
ATOM     94  F   UNL A   1      43.006  36.308  31.394  1.00  0.00    -0.206 F 
ATOM     95  C   UNL A   1      44.924  34.552  28.883  1.00  0.00     0.022 A 
BRANCH  92  96
ATOM     96  S   UNL A   1      44.802  32.071  27.639  1.00  0.00     0.124 S 
ATOM     97  O   UNL A   1      46.254  32.214  27.699  1.00  0.00    -0.237 OA
ATOM     98  O   UNL A   1      44.261  30.848  28.226  1.00  0.00    -0.237 OA
ATOM     99  O   UNL A   1      44.208  32.442  26.353  1.00  0.00    -0.744 OA
ENDBRANCH  92  96
ENDBRANCH  66  89
ENDBRANCH  40  41
ENDBRANCH  32  35
ENDBRANCH  30  31
ENDBRANCH  29  30
ENDBRANCH   1  29
TORSDOF 17
ENDMDL
MODEL 2
REMARK VINA RESULT:     -13.0      4.702     10.261
REMARK SMILES CC1=Nc2nc(NC(=O)CCC(=O)NCCCNC(=O)c3ccc(-c4c5nc(c(-c6cc(S(=O)(=O)[O-])ccc6F)c6ccc([nH]6)c(-c6cc(S(=O)(=O)[O-])ccc6F)c6nc(c(-c7cc(S(=O)(=O)[O-])ccc7F)c7ccc4[nH]7)C=C6)C=C5)cc3)nn2[C@@H](c2ccc(Cl)cc2)C1
REMARK SMILES IDX 15 1 14 2 12 3 13 4 11 6 10 7 8 8 7 9 9 11 6 12 1 13 2 14
REMARK SMILES IDX 3 15 94 16 4 17 86 18 5 19 85 20 84 21 87 22 88 23 93 24
REMARK SMILES IDX 89 25 92 26 90 27 91 28 16 29 17 30 18 31 19 32 20 34 21 35
REMARK SMILES IDX 22 36 83 37 23 38 82 39 24 40 25 41 26 42 76 43 27 44 81 45
REMARK SMILES IDX 75 46 77 47 28 48 80 49 74 50 73 51 29 53 61 54 41 55 60 56
REMARK SMILES IDX 42 57 45 58 59 59 78 60 43 61 44 62 58 64 79 65 46 66 30 67
REMARK SMILES IDX 31 68 39 69 32 70 38 71 40 72 37 73 33 74 34 75 35 76 36 77
REMARK SMILES IDX 62 78 63 79 71 80 64 81 70 82 72 83 69 84 65 85 66 86 67 87
REMARK SMILES IDX 68 88 47 89 48 90 56 91 49 92 55 93 57 94 54 95 50 96 51 97
REMARK SMILES IDX 52 98 53 99
REMARK H PARENT 14 5 7 10 18 33 77 52 45 63
REMARK Flexibility Score: inf
ROOT
ATOM      1  C   UNL A   1      33.564  29.817  26.571  1.00  0.00     0.117 C 
ENDROOT
BRANCH   1   2
ATOM      2  N   UNL A   1      32.390  29.415  27.332  1.00  0.00    -0.356 N 
ATOM      3  C   UNL A   1      31.586  28.327  27.160  1.00  0.00     0.220 C 
ATOM      4  O   UNL A   1      31.001  27.863  28.137  1.00  0.00    -0.275 OA
ATOM      5  H   UNL A   1      32.142  30.012  28.075  1.00  0.00     0.163 HD
BRANCH   3   6
ATOM      6  C   UNL A   1      31.381  27.721  25.795  1.00  0.00     0.110 C 
BRANCH   6   7
ATOM      7  C   UNL A   1      30.339  26.605  25.808  1.00  0.00     0.110 C 
BRANCH   7   8
ATOM      8  C   UNL A   1      30.026  26.125  24.412  1.00  0.00     0.227 C 
ATOM      9  N   UNL A   1      30.724  25.123  23.824  1.00  0.00    -0.293 N 
ATOM     10  H   UNL A   1      30.419  24.885  22.919  1.00  0.00     0.173 HD
ATOM     11  O   UNL A   1      29.033  26.574  23.826  1.00  0.00    -0.275 OA
BRANCH   9  12
ATOM     12  C   UNL A   1      31.779  24.394  24.283  1.00  0.00     0.250 A 
ATOM     13  C   UNL A   1      37.297  23.066  25.000  1.00  0.00     0.062 C 
ATOM     14  C   UNL A   1      35.809  23.095  25.062  1.00  0.00     0.021 C 
ATOM     15  N   UNL A   1      35.178  23.904  24.267  1.00  0.00    -0.221 NA
ATOM     16  C   UNL A   1      35.145  22.304  26.165  1.00  0.00     0.083 C 
ATOM     17  C   UNL A   1      33.840  23.974  24.403  1.00  0.00     0.250 A 
ATOM     18  C   UNL A   1      33.726  21.902  25.764  1.00  0.00     0.147 C 
ATOM     19  N   UNL A   1      33.011  24.917  24.022  1.00  0.00    -0.174 NA
ATOM     20  N   UNL A   1      33.110  22.970  24.983  1.00  0.00    -0.220 N 
ATOM     21  N   UNL A   1      31.783  23.215  24.907  1.00  0.00    -0.130 NA
BRANCH  18  22
ATOM     22  C   UNL A   1      33.717  20.526  25.110  1.00  0.00    -0.023 A 
ATOM     23  C   UNL A   1      32.568  19.917  24.593  1.00  0.00     0.007 A 
ATOM     24  C   UNL A   1      34.939  19.836  24.991  1.00  0.00     0.007 A 
ATOM     25  C   UNL A   1      32.611  18.608  24.100  1.00  0.00     0.021 A 
ATOM     26  C   UNL A   1      34.992  18.544  24.461  1.00  0.00     0.021 A 
ATOM     27  C   UNL A   1      33.819  17.921  24.050  1.00  0.00     0.041 A 
ATOM     28  Cl  UNL A   1      33.864  16.293  23.492  1.00  0.00    -0.084 Cl
ENDBRANCH  18  22
ENDBRANCH   9  12
ENDBRANCH   7   8
ENDBRANCH   6   7
ENDBRANCH   3   6
ENDBRANCH   1   2
BRANCH   1  29
ATOM     29  C   UNL A   1      34.890  29.208  27.032  1.00  0.00     0.042 C 
BRANCH  29  30
ATOM     30  C   UNL A   1      35.813  30.205  27.713  1.00  0.00     0.118 C 
BRANCH  30  31
ATOM     31  N   UNL A   1      35.759  30.161  29.173  1.00  0.00    -0.352 N 
ATOM     32  C   UNL A   1      36.631  29.522  30.046  1.00  0.00     0.251 C 
ATOM     33  H   UNL A   1      35.011  30.647  29.589  1.00  0.00     0.163 HD
ATOM     34  O   UNL A   1      36.287  29.332  31.204  1.00  0.00    -0.269 OA
BRANCH  32  35
ATOM     35  C   UNL A   1      37.968  29.082  29.568  1.00  0.00     0.039 A 
ATOM     36  C   UNL A   1      38.623  29.729  28.512  1.00  0.00     0.014 A 
ATOM     37  C   UNL A   1      38.570  27.980  30.168  1.00  0.00     0.014 A 
ATOM     38  C   UNL A   1      39.888  29.279  28.110  1.00  0.00     0.010 A 
ATOM     39  C   UNL A   1      39.865  27.637  29.880  1.00  0.00     0.010 A 
ATOM     40  C   UNL A   1      40.503  28.226  28.804  1.00  0.00    -0.014 A 
BRANCH  40  41
ATOM     41  C   UNL A   1      41.886  27.808  28.590  1.00  0.00     0.031 A 
ATOM     42  C   UNL A   1      41.994  26.589  27.765  1.00  0.00     0.074 A 
ATOM     43  C   UNL A   1      42.960  28.561  28.931  1.00  0.00     0.049 A 
ATOM     44  N   UNL A   1      42.236  25.407  28.221  1.00  0.00    -0.248 NA
ATOM     45  C   UNL A   1      41.580  26.605  26.356  1.00  0.00     0.031 C 
ATOM     46  C   UNL A   1      42.962  29.813  29.695  1.00  0.00     0.029 A 
ATOM     47  N   UNL A   1      44.284  28.401  28.625  1.00  0.00    -0.354 N 
ATOM     48  C   UNL A   1      42.326  24.587  27.109  1.00  0.00     0.074 A 
ATOM     49  C   UNL A   1      41.661  25.305  26.054  1.00  0.00     0.031 C 
ATOM     50  C   UNL A   1      44.199  30.362  29.679  1.00  0.00     0.029 A 
ATOM     51  C   UNL A   1      45.097  29.497  28.937  1.00  0.00     0.049 A 
ATOM     52  H   UNL A   1      44.638  27.578  28.217  1.00  0.00     0.167 HD
ATOM     53  C   UNL A   1      43.215  23.556  27.107  1.00  0.00     0.034 A 
ATOM     54  C   UNL A   1      46.450  29.632  28.799  1.00  0.00     0.034 A 
ATOM     55  C   UNL A   1      43.735  23.347  28.447  1.00  0.00     0.049 A 
ATOM     56  C   UNL A   1      46.978  28.263  28.932  1.00  0.00     0.074 A 
ATOM     57  C   UNL A   1      43.215  22.947  29.661  1.00  0.00     0.029 A 
ATOM     58  N   UNL A   1      44.923  23.986  28.723  1.00  0.00    -0.354 N 
ATOM     59  N   UNL A   1      46.901  27.601  30.051  1.00  0.00    -0.248 NA
ATOM     60  C   UNL A   1      47.171  27.453  27.740  1.00  0.00     0.031 C 
ATOM     61  C   UNL A   1      43.937  23.686  30.648  1.00  0.00     0.029 A 
ATOM     62  C   UNL A   1      44.923  24.445  30.014  1.00  0.00     0.049 A 
ATOM     63  H   UNL A   1      45.665  24.098  28.086  1.00  0.00     0.167 HD
ATOM     64  C   UNL A   1      46.537  26.325  29.666  1.00  0.00     0.074 A 
ATOM     65  C   UNL A   1      46.892  26.248  28.250  1.00  0.00     0.031 C 
ATOM     66  C   UNL A   1      45.725  25.571  30.463  1.00  0.00     0.034 A 
BRANCH  53  67
ATOM     67  C   UNL A   1      43.979  23.059  25.892  1.00  0.00     0.023 A 
ATOM     68  C   UNL A   1      43.846  21.690  25.581  1.00  0.00     0.031 A 
ATOM     69  C   UNL A   1      45.021  23.736  25.220  1.00  0.00     0.131 A 
ATOM     70  C   UNL A   1      44.777  21.036  24.759  1.00  0.00     0.055 A 
ATOM     71  C   UNL A   1      45.913  23.091  24.357  1.00  0.00     0.041 A 
ATOM     72  F   UNL A   1      45.299  25.027  25.414  1.00  0.00    -0.206 F 
ATOM     73  C   UNL A   1      45.816  21.728  24.147  1.00  0.00     0.022 A 
BRANCH  70  74
ATOM     74  S   UNL A   1      44.705  19.231  24.644  1.00  0.00     0.124 S 
ATOM     75  O   UNL A   1      45.924  18.844  25.344  1.00  0.00    -0.237 OA
ATOM     76  O   UNL A   1      43.447  18.938  25.321  1.00  0.00    -0.237 OA
ATOM     77  O   UNL A   1      44.709  18.985  23.203  1.00  0.00    -0.744 OA
ENDBRANCH  70  74
ENDBRANCH  53  67
BRANCH  54  78
ATOM     78  C   UNL A   1      47.235  30.729  28.147  1.00  0.00     0.023 A 
ATOM     79  C   UNL A   1      46.637  31.742  27.354  1.00  0.00     0.031 A 
ATOM     80  C   UNL A   1      48.576  30.950  28.525  1.00  0.00     0.131 A 
ATOM     81  C   UNL A   1      47.372  32.897  26.977  1.00  0.00     0.055 A 
ATOM     82  C   UNL A   1      49.301  32.088  28.143  1.00  0.00     0.041 A 
ATOM     83  F   UNL A   1      49.201  30.115  29.369  1.00  0.00    -0.206 F 
ATOM     84  C   UNL A   1      48.699  33.071  27.375  1.00  0.00     0.022 A 
BRANCH  81  85
ATOM     85  S   UNL A   1      46.590  34.251  26.028  1.00  0.00     0.124 S 
ATOM     86  O   UNL A   1      45.434  33.589  25.436  1.00  0.00    -0.237 OA
ATOM     87  O   UNL A   1      46.316  35.241  27.063  1.00  0.00    -0.237 OA
ATOM     88  O   UNL A   1      47.626  34.641  25.071  1.00  0.00    -0.744 OA
ENDBRANCH  81  85
ENDBRANCH  54  78
BRANCH  66  89
ATOM     89  C   UNL A   1      45.562  26.026  31.902  1.00  0.00     0.023 A 
ATOM     90  C   UNL A   1      44.453  26.735  32.420  1.00  0.00     0.031 A 
ATOM     91  C   UNL A   1      46.577  25.661  32.801  1.00  0.00     0.131 A 
ATOM     92  C   UNL A   1      44.400  27.064  33.791  1.00  0.00     0.055 A 
ATOM     93  C   UNL A   1      46.511  25.965  34.159  1.00  0.00     0.041 A 
ATOM     94  F   UNL A   1      47.651  24.977  32.372  1.00  0.00    -0.206 F 
ATOM     95  C   UNL A   1      45.424  26.673  34.659  1.00  0.00     0.022 A 
BRANCH  92  96
ATOM     96  S   UNL A   1      43.010  28.035  34.467  1.00  0.00     0.124 S 
ATOM     97  O   UNL A   1      43.449  29.418  34.311  1.00  0.00    -0.237 OA
ATOM     98  O   UNL A   1      41.892  27.625  33.622  1.00  0.00    -0.237 OA
ATOM     99  O   UNL A   1      42.920  27.579  35.856  1.00  0.00    -0.744 OA
ENDBRANCH  92  96
ENDBRANCH  66  89
ENDBRANCH  40  41
ENDBRANCH  32  35
ENDBRANCH  30  31
ENDBRANCH  29  30
ENDBRANCH   1  29
TORSDOF 17
ENDMDL
MODEL 3
REMARK VINA RESULT:     -13.0      5.385     11.791
REMARK SMILES CC1=Nc2nc(NC(=O)CCC(=O)NCCCNC(=O)c3ccc(-c4c5nc(c(-c6cc(S(=O)(=O)[O-])ccc6F)c6ccc([nH]6)c(-c6cc(S(=O)(=O)[O-])ccc6F)c6nc(c(-c7cc(S(=O)(=O)[O-])ccc7F)c7ccc4[nH]7)C=C6)C=C5)cc3)nn2[C@@H](c2ccc(Cl)cc2)C1
REMARK SMILES IDX 15 1 14 2 12 3 13 4 11 6 10 7 8 8 7 9 9 11 6 12 1 13 2 14
REMARK SMILES IDX 3 15 94 16 4 17 86 18 5 19 85 20 84 21 87 22 88 23 93 24
REMARK SMILES IDX 89 25 92 26 90 27 91 28 16 29 17 30 18 31 19 32 20 34 21 35
REMARK SMILES IDX 22 36 83 37 23 38 82 39 24 40 25 41 26 42 76 43 27 44 81 45
REMARK SMILES IDX 75 46 77 47 28 48 80 49 74 50 73 51 29 53 61 54 41 55 60 56
REMARK SMILES IDX 42 57 45 58 59 59 78 60 43 61 44 62 58 64 79 65 46 66 30 67
REMARK SMILES IDX 31 68 39 69 32 70 38 71 40 72 37 73 33 74 34 75 35 76 36 77
REMARK SMILES IDX 62 78 63 79 71 80 64 81 70 82 72 83 69 84 65 85 66 86 67 87
REMARK SMILES IDX 68 88 47 89 48 90 56 91 49 92 55 93 57 94 54 95 50 96 51 97
REMARK SMILES IDX 52 98 53 99
REMARK H PARENT 14 5 7 10 18 33 77 52 45 63
REMARK Flexibility Score: inf
ROOT
ATOM      1  C   UNL A   1      35.553  33.099  28.327  1.00  0.00     0.117 C 
ENDROOT
BRANCH   1   2
ATOM      2  N   UNL A   1      35.043  34.346  27.773  1.00  0.00    -0.356 N 
ATOM      3  C   UNL A   1      34.335  35.334  28.392  1.00  0.00     0.220 C 
ATOM      4  O   UNL A   1      34.434  36.485  27.972  1.00  0.00    -0.275 OA
ATOM      5  H   UNL A   1      35.237  34.498  26.820  1.00  0.00     0.163 HD
BRANCH   3   6
ATOM      6  C   UNL A   1      33.414  35.025  29.545  1.00  0.00     0.110 C 
BRANCH   6   7
ATOM      7  C   UNL A   1      33.694  35.904  30.761  1.00  0.00     0.110 C 
BRANCH   7   8
ATOM      8  C   UNL A   1      32.773  35.569  31.909  1.00  0.00     0.227 C 
ATOM      9  N   UNL A   1      33.166  34.777  32.936  1.00  0.00    -0.293 N 
ATOM     10  H   UNL A   1      32.486  34.642  33.636  1.00  0.00     0.173 HD
ATOM     11  O   UNL A   1      31.668  36.122  31.980  1.00  0.00    -0.275 OA
BRANCH   9  12
ATOM     12  C   UNL A   1      34.348  34.137  33.156  1.00  0.00     0.250 A 
ATOM     13  C   UNL A   1      39.011  32.643  36.115  1.00  0.00     0.062 C 
ATOM     14  C   UNL A   1      37.950  32.769  35.075  1.00  0.00     0.021 C 
ATOM     15  N   UNL A   1      37.053  33.694  35.225  1.00  0.00    -0.221 NA
ATOM     16  C   UNL A   1      37.895  31.701  34.009  1.00  0.00     0.083 C 
ATOM     17  C   UNL A   1      36.057  33.731  34.320  1.00  0.00     0.250 A 
ATOM     18  C   UNL A   1      37.251  32.243  32.733  1.00  0.00     0.147 C 
ATOM     19  N   UNL A   1      34.869  34.282  34.408  1.00  0.00    -0.174 NA
ATOM     20  N   UNL A   1      36.179  33.173  33.074  1.00  0.00    -0.220 N 
ATOM     21  N   UNL A   1      35.097  33.431  32.306  1.00  0.00    -0.130 NA
BRANCH  18  22
ATOM     22  C   UNL A   1      38.310  32.789  31.783  1.00  0.00    -0.023 A 
ATOM     23  C   UNL A   1      39.447  32.074  31.391  1.00  0.00     0.007 A 
ATOM     24  C   UNL A   1      38.124  34.077  31.244  1.00  0.00     0.007 A 
ATOM     25  C   UNL A   1      40.433  32.673  30.599  1.00  0.00     0.021 A 
ATOM     26  C   UNL A   1      39.088  34.663  30.420  1.00  0.00     0.021 A 
ATOM     27  C   UNL A   1      40.258  33.969  30.129  1.00  0.00     0.041 A 
ATOM     28  Cl  UNL A   1      41.493  34.726  29.200  1.00  0.00    -0.084 Cl
ENDBRANCH  18  22
ENDBRANCH   9  12
ENDBRANCH   7   8
ENDBRANCH   6   7
ENDBRANCH   3   6
ENDBRANCH   1   2
BRANCH   1  29
ATOM     29  C   UNL A   1      35.019  31.822  27.677  1.00  0.00     0.042 C 
BRANCH  29  30
ATOM     30  C   UNL A   1      35.717  30.559  28.153  1.00  0.00     0.118 C 
BRANCH  30  31
ATOM     31  N   UNL A   1      35.712  30.390  29.604  1.00  0.00    -0.352 N 
ATOM     32  C   UNL A   1      36.578  29.634  30.384  1.00  0.00     0.251 C 
ATOM     33  H   UNL A   1      35.007  30.875  30.090  1.00  0.00     0.163 HD
ATOM     34  O   UNL A   1      36.266  29.361  31.534  1.00  0.00    -0.269 OA
BRANCH  32  35
ATOM     35  C   UNL A   1      37.873  29.170  29.817  1.00  0.00     0.039 A 
ATOM     36  C   UNL A   1      38.392  29.707  28.632  1.00  0.00     0.014 A 
ATOM     37  C   UNL A   1      38.570  28.157  30.469  1.00  0.00     0.014 A 
ATOM     38  C   UNL A   1      39.622  29.240  28.149  1.00  0.00     0.010 A 
ATOM     39  C   UNL A   1      39.839  27.811  30.083  1.00  0.00     0.010 A 
ATOM     40  C   UNL A   1      40.341  28.286  28.886  1.00  0.00    -0.014 A 
BRANCH  40  41
ATOM     41  C   UNL A   1      41.708  27.876  28.573  1.00  0.00     0.031 A 
ATOM     42  C   UNL A   1      41.763  26.636  27.775  1.00  0.00     0.074 A 
ATOM     43  C   UNL A   1      42.795  28.649  28.805  1.00  0.00     0.049 A 
ATOM     44  N   UNL A   1      42.055  25.469  28.242  1.00  0.00    -0.248 NA
ATOM     45  C   UNL A   1      41.237  26.608  26.404  1.00  0.00     0.031 C 
ATOM     46  C   UNL A   1      42.844  29.921  29.533  1.00  0.00     0.029 A 
ATOM     47  N   UNL A   1      44.093  28.493  28.398  1.00  0.00    -0.354 N 
ATOM     48  C   UNL A   1      42.065  24.620  27.148  1.00  0.00     0.074 A 
ATOM     49  C   UNL A   1      41.309  25.301  26.132  1.00  0.00     0.031 C 
ATOM     50  C   UNL A   1      44.070  30.482  29.403  1.00  0.00     0.029 A 
ATOM     51  C   UNL A   1      44.916  29.605  28.614  1.00  0.00     0.049 A 
ATOM     52  H   UNL A   1      44.423  27.662  27.985  1.00  0.00     0.167 HD
ATOM     53  C   UNL A   1      42.963  23.598  27.102  1.00  0.00     0.034 A 
ATOM     54  C   UNL A   1      46.251  29.749  28.364  1.00  0.00     0.034 A 
ATOM     55  C   UNL A   1      43.592  23.430  28.402  1.00  0.00     0.049 A 
ATOM     56  C   UNL A   1      46.804  28.390  28.491  1.00  0.00     0.074 A 
ATOM     57  C   UNL A   1      43.176  23.059  29.664  1.00  0.00     0.029 A 
ATOM     58  N   UNL A   1      44.791  24.088  28.564  1.00  0.00    -0.354 N 
ATOM     59  N   UNL A   1      46.825  27.758  29.630  1.00  0.00    -0.248 NA
ATOM     60  C   UNL A   1      46.910  27.549  27.310  1.00  0.00     0.031 C 
ATOM     61  C   UNL A   1      43.966  23.833  30.569  1.00  0.00     0.029 A 
ATOM     62  C   UNL A   1      44.888  24.584  29.838  1.00  0.00     0.049 A 
ATOM     63  H   UNL A   1      45.478  24.190  27.866  1.00  0.00     0.167 HD
ATOM     64  C   UNL A   1      46.447  26.469  29.310  1.00  0.00     0.074 A 
ATOM     65  C   UNL A   1      46.687  26.356  27.873  1.00  0.00     0.031 C 
ATOM     66  C   UNL A   1      45.711  25.729  30.190  1.00  0.00     0.034 A 
BRANCH  53  67
ATOM     67  C   UNL A   1      43.633  23.074  25.844  1.00  0.00     0.023 A 
ATOM     68  C   UNL A   1      43.598  21.678  25.646  1.00  0.00     0.031 A 
ATOM     69  C   UNL A   1      44.525  23.784  25.010  1.00  0.00     0.131 A 
ATOM     70  C   UNL A   1      44.492  21.045  24.768  1.00  0.00     0.055 A 
ATOM     71  C   UNL A   1      45.375  23.153  24.094  1.00  0.00     0.041 A 
ATOM     72  F   UNL A   1      44.698  25.106  25.080  1.00  0.00    -0.206 F 
ATOM     73  C   UNL A   1      45.387  21.774  23.992  1.00  0.00     0.022 A 
BRANCH  70  74
ATOM     74  S   UNL A   1      44.581  19.237  24.787  1.00  0.00     0.124 S 
ATOM     75  O   UNL A   1      43.372  18.892  25.526  1.00  0.00    -0.237 OA
ATOM     76  O   UNL A   1      44.582  18.922  23.362  1.00  0.00    -0.237 OA
ATOM     77  O   UNL A   1      45.837  18.969  25.485  1.00  0.00    -0.744 OA
ENDBRANCH  70  74
ENDBRANCH  53  67
BRANCH  54  78
ATOM     78  C   UNL A   1      46.969  30.835  27.621  1.00  0.00     0.023 A 
ATOM     79  C   UNL A   1      46.300  31.934  27.022  1.00  0.00     0.031 A 
ATOM     80  C   UNL A   1      48.371  30.946  27.726  1.00  0.00     0.131 A 
ATOM     81  C   UNL A   1      47.029  33.062  26.562  1.00  0.00     0.055 A 
ATOM     82  C   UNL A   1      49.087  32.058  27.262  1.00  0.00     0.041 A 
ATOM     83  F   UNL A   1      49.089  30.019  28.378  1.00  0.00    -0.206 F 
ATOM     84  C   UNL A   1      48.418  33.126  26.686  1.00  0.00     0.022 A 
BRANCH  81  85
ATOM     85  S   UNL A   1      46.175  34.523  25.865  1.00  0.00     0.124 S 
ATOM     86  O   UNL A   1      47.281  35.297  25.315  1.00  0.00    -0.237 OA
ATOM     87  O   UNL A   1      45.258  33.920  24.904  1.00  0.00    -0.237 OA
ATOM     88  O   UNL A   1      45.525  35.127  27.029  1.00  0.00    -0.744 OA
ENDBRANCH  81  85
ENDBRANCH  54  78
BRANCH  66  89
ATOM     89  C   UNL A   1      45.658  26.222  31.625  1.00  0.00     0.023 A 
ATOM     90  C   UNL A   1      44.574  26.910  32.220  1.00  0.00     0.031 A 
ATOM     91  C   UNL A   1      46.761  25.920  32.439  1.00  0.00     0.131 A 
ATOM     92  C   UNL A   1      44.629  27.278  33.580  1.00  0.00     0.055 A 
ATOM     93  C   UNL A   1      46.803  26.263  33.790  1.00  0.00     0.041 A 
ATOM     94  F   UNL A   1      47.816  25.260  31.936  1.00  0.00    -0.206 F 
ATOM     95  C   UNL A   1      45.739  26.949  34.364  1.00  0.00     0.022 A 
BRANCH  92  96
ATOM     96  S   UNL A   1      43.270  28.222  34.350  1.00  0.00     0.124 S 
ATOM     97  O   UNL A   1      43.828  28.647  35.630  1.00  0.00    -0.237 OA
ATOM     98  O   UNL A   1      43.029  29.286  33.379  1.00  0.00    -0.237 OA
ATOM     99  O   UNL A   1      42.188  27.240  34.454  1.00  0.00    -0.744 OA
ENDBRANCH  92  96
ENDBRANCH  66  89
ENDBRANCH  40  41
ENDBRANCH  32  35
ENDBRANCH  30  31
ENDBRANCH  29  30
ENDBRANCH   1  29
TORSDOF 17
ENDMDL
