MODEL 1
REMARK VINA RESULT:     -10.6      0.000      0.000
REMARK SMILES COc1ccc(C(=O)C[C@H](C)CC(=O)NCCCNC(=O)c2ccc(-c3c4nc(c(-c5cc(S(=O)(=O)[O-])ccc5F)c5ccc([nH]5)c(-c5cc(S(=O)(=O)[O-])ccc5F)c5nc(c(-c6cc(S(=O)(=O)[O-])ccc6F)c6ccc3[nH]6)C=C5)C=C4)cc2)c(OC)c1
REMARK SMILES IDX 16 1 15 2 13 3 14 4 12 6 10 7 11 8 9 9 7 10 8 11 6 12 3 13
REMARK SMILES IDX 4 14 88 15 5 16 85 17 2 18 1 19 86 20 87 21 17 22 18 23
REMARK SMILES IDX 19 24 20 25 21 27 22 28 23 29 84 30 24 31 83 32 25 33 26 34
REMARK SMILES IDX 27 35 77 36 28 37 82 38 76 39 78 40 29 41 81 42 75 43 74 44
REMARK SMILES IDX 30 46 62 47 42 48 61 49 43 50 46 51 60 52 79 53 44 54 45 55
REMARK SMILES IDX 59 57 80 58 47 59 31 60 32 61 40 62 33 63 39 64 41 65 38 66
REMARK SMILES IDX 34 67 35 68 36 69 37 70 63 71 64 72 72 73 65 74 71 75 73 76
REMARK SMILES IDX 70 77 66 78 67 79 68 80 69 81 48 82 49 83 57 84 50 85 56 86
REMARK SMILES IDX 58 87 55 88 51 89 52 90 53 91 54 92
REMARK H PARENT 15 5 19 26 78 45 46 56
REMARK Flexibility Score: inf
ROOT
ATOM      1  C   UNL A   1      33.405  28.517  23.015  1.00  0.00     0.117 C 
ENDROOT
BRANCH   1   2
ATOM      2  N   UNL A   1      32.288  29.278  22.469  1.00  0.00    -0.356 N 
ATOM      3  C   UNL A   1      30.983  28.925  22.246  1.00  0.00     0.220 C 
ATOM      4  O   UNL A   1      30.189  29.815  21.931  1.00  0.00    -0.275 OA
ATOM      5  H   UNL A   1      32.508  30.204  22.218  1.00  0.00     0.163 HD
BRANCH   3   6
ATOM      6  C   UNL A   1      30.540  27.461  22.265  1.00  0.00     0.103 C 
BRANCH   6   7
ATOM      7  C   UNL A   1      29.844  27.128  23.601  1.00  0.00     0.003 C 
ATOM      8  C   UNL A   1      28.366  27.434  23.503  1.00  0.00     0.008 C 
BRANCH   7   9
ATOM      9  C   UNL A   1      30.121  25.706  24.145  1.00  0.00     0.085 C 
BRANCH   9  10
ATOM     10  C   UNL A   1      30.581  25.530  25.593  1.00  0.00     0.166 C 
ATOM     11  O   UNL A   1      29.905  26.019  26.505  1.00  0.00    -0.294 OA
BRANCH  10  12
ATOM     12  C   UNL A   1      31.863  24.834  25.960  1.00  0.00     0.060 A 
ATOM     13  C   UNL A   1      34.280  23.443  26.098  1.00  0.00     0.122 A 
ATOM     14  C   UNL A   1      34.217  24.616  25.363  1.00  0.00     0.047 A 
ATOM     15  C   UNL A   1      33.198  23.025  26.871  1.00  0.00     0.093 A 
ATOM     16  C   UNL A   1      33.011  25.309  25.293  1.00  0.00     0.019 A 
ATOM     17  C   UNL A   1      31.978  23.712  26.809  1.00  0.00     0.133 A 
BRANCH  13  18
ATOM     18  O   UNL A   1      35.443  22.728  26.072  1.00  0.00    -0.497 OA
ATOM     19  C   UNL A   1      35.806  22.423  24.723  1.00  0.00     0.278 C 
ENDBRANCH  13  18
BRANCH  17  20
ATOM     20  O   UNL A   1      30.890  23.331  27.552  1.00  0.00    -0.496 OA
ATOM     21  C   UNL A   1      29.885  22.562  26.880  1.00  0.00     0.278 C 
ENDBRANCH  17  20
ENDBRANCH  10  12
ENDBRANCH   9  10
ENDBRANCH   7   9
ENDBRANCH   6   7
ENDBRANCH   3   6
ENDBRANCH   1   2
BRANCH   1  22
ATOM     22  C   UNL A   1      33.858  28.910  24.430  1.00  0.00     0.042 C 
BRANCH  22  23
ATOM     23  C   UNL A   1      32.764  29.038  25.485  1.00  0.00     0.118 C 
BRANCH  23  24
ATOM     24  N   UNL A   1      32.469  30.431  25.769  1.00  0.00    -0.352 N 
ATOM     25  C   UNL A   1      32.891  31.250  26.791  1.00  0.00     0.251 C 
ATOM     26  H   UNL A   1      31.866  30.862  25.122  1.00  0.00     0.163 HD
ATOM     27  O   UNL A   1      32.232  32.266  27.013  1.00  0.00    -0.269 OA
BRANCH  25  28
ATOM     28  C   UNL A   1      34.093  30.963  27.625  1.00  0.00     0.039 A 
ATOM     29  C   UNL A   1      35.039  31.985  27.797  1.00  0.00     0.014 A 
ATOM     30  C   UNL A   1      34.383  29.693  28.131  1.00  0.00     0.014 A 
ATOM     31  C   UNL A   1      36.243  31.743  28.473  1.00  0.00     0.010 A 
ATOM     32  C   UNL A   1      35.555  29.471  28.869  1.00  0.00     0.010 A 
ATOM     33  C   UNL A   1      36.512  30.487  29.033  1.00  0.00    -0.014 A 
BRANCH  33  34
ATOM     34  C   UNL A   1      37.790  30.211  29.757  1.00  0.00     0.031 A 
ATOM     35  C   UNL A   1      38.809  29.260  29.177  1.00  0.00     0.074 A 
ATOM     36  C   UNL A   1      38.023  30.767  30.963  1.00  0.00     0.049 A 
ATOM     37  N   UNL A   1      39.937  28.838  29.692  1.00  0.00    -0.248 NA
ATOM     38  C   UNL A   1      38.512  28.702  27.851  1.00  0.00     0.031 C 
ATOM     39  C   UNL A   1      37.129  31.706  31.639  1.00  0.00     0.029 A 
ATOM     40  N   UNL A   1      39.065  30.617  31.847  1.00  0.00    -0.354 N 
ATOM     41  C   UNL A   1      40.480  27.961  28.759  1.00  0.00     0.074 A 
ATOM     42  C   UNL A   1      39.526  27.868  27.674  1.00  0.00     0.031 C 
ATOM     43  C   UNL A   1      37.641  32.028  32.837  1.00  0.00     0.029 A 
ATOM     44  C   UNL A   1      38.893  31.305  33.029  1.00  0.00     0.049 A 
ATOM     45  H   UNL A   1      39.860  30.069  31.654  1.00  0.00     0.167 HD
ATOM     46  C   UNL A   1      41.674  27.314  28.790  1.00  0.00     0.034 A 
ATOM     47  C   UNL A   1      39.646  31.344  34.146  1.00  0.00     0.034 A 
ATOM     48  C   UNL A   1      42.627  27.429  29.868  1.00  0.00     0.049 A 
ATOM     49  C   UNL A   1      40.946  30.582  34.180  1.00  0.00     0.074 A 
ATOM     50  C   UNL A   1      43.894  26.877  29.962  1.00  0.00     0.029 A 
ATOM     51  N   UNL A   1      42.417  28.132  31.048  1.00  0.00    -0.354 N 
ATOM     52  N   UNL A   1      41.472  29.810  33.256  1.00  0.00    -0.248 NA
ATOM     53  C   UNL A   1      41.764  30.716  35.391  1.00  0.00     0.031 C 
ATOM     54  C   UNL A   1      44.418  27.185  31.222  1.00  0.00     0.029 A 
ATOM     55  C   UNL A   1      43.512  27.994  31.888  1.00  0.00     0.049 A 
ATOM     56  H   UNL A   1      41.608  28.653  31.257  1.00  0.00     0.167 HD
ATOM     57  C   UNL A   1      42.704  29.404  33.762  1.00  0.00     0.074 A 
ATOM     58  C   UNL A   1      42.842  30.019  35.065  1.00  0.00     0.031 C 
ATOM     59  C   UNL A   1      43.639  28.602  33.192  1.00  0.00     0.034 A 
BRANCH  46  60
ATOM     60  C   UNL A   1      42.005  26.404  27.629  1.00  0.00     0.023 A 
ATOM     61  C   UNL A   1      41.624  25.050  27.617  1.00  0.00     0.031 A 
ATOM     62  C   UNL A   1      42.721  26.894  26.523  1.00  0.00     0.131 A 
ATOM     63  C   UNL A   1      42.026  24.219  26.561  1.00  0.00     0.055 A 
ATOM     64  C   UNL A   1      43.048  26.079  25.436  1.00  0.00     0.041 A 
ATOM     65  F   UNL A   1      43.127  28.174  26.484  1.00  0.00    -0.206 F 
ATOM     66  C   UNL A   1      42.714  24.729  25.459  1.00  0.00     0.022 A 
BRANCH  63  67
ATOM     67  S   UNL A   1      41.758  22.431  26.718  1.00  0.00     0.124 S 
ATOM     68  O   UNL A   1      40.338  22.376  27.060  1.00  0.00    -0.237 OA
ATOM     69  O   UNL A   1      42.117  21.940  25.394  1.00  0.00    -0.237 OA
ATOM     70  O   UNL A   1      42.667  22.042  27.797  1.00  0.00    -0.744 OA
ENDBRANCH  63  67
ENDBRANCH  46  60
BRANCH  47  71
ATOM     71  C   UNL A   1      39.194  32.126  35.334  1.00  0.00     0.023 A 
ATOM     72  C   UNL A   1      39.633  33.441  35.550  1.00  0.00     0.031 A 
ATOM     73  C   UNL A   1      38.344  31.549  36.295  1.00  0.00     0.131 A 
ATOM     74  C   UNL A   1      39.265  34.120  36.721  1.00  0.00     0.055 A 
ATOM     75  C   UNL A   1      37.938  32.246  37.434  1.00  0.00     0.041 A 
ATOM     76  F   UNL A   1      37.887  30.296  36.133  1.00  0.00    -0.206 F 
ATOM     77  C   UNL A   1      38.410  33.535  37.660  1.00  0.00     0.022 A 
BRANCH  74  78
ATOM     78  S   UNL A   1      39.989  35.750  37.045  1.00  0.00     0.124 S 
ATOM     79  O   UNL A   1      39.653  36.472  35.823  1.00  0.00    -0.237 OA
ATOM     80  O   UNL A   1      39.278  36.163  38.250  1.00  0.00    -0.237 OA
ATOM     81  O   UNL A   1      41.409  35.461  37.229  1.00  0.00    -0.744 OA
ENDBRANCH  74  78
ENDBRANCH  47  71
BRANCH  59  82
ATOM     82  C   UNL A   1      44.920  28.390  33.963  1.00  0.00     0.023 A 
ATOM     83  C   UNL A   1      45.071  27.325  34.868  1.00  0.00     0.031 A 
ATOM     84  C   UNL A   1      45.997  29.280  33.802  1.00  0.00     0.131 A 
ATOM     85  C   UNL A   1      46.250  27.210  35.621  1.00  0.00     0.055 A 
ATOM     86  C   UNL A   1      47.190  29.125  34.510  1.00  0.00     0.041 A 
ATOM     87  F   UNL A   1      45.906  30.316  32.954  1.00  0.00    -0.206 F 
ATOM     88  C   UNL A   1      47.316  28.093  35.435  1.00  0.00     0.022 A 
BRANCH  85  89
ATOM     89  S   UNL A   1      46.334  25.944  36.917  1.00  0.00     0.124 S 
ATOM     90  O   UNL A   1      47.745  25.985  37.290  1.00  0.00    -0.237 OA
ATOM     91  O   UNL A   1      45.397  26.454  37.912  1.00  0.00    -0.237 OA
ATOM     92  O   UNL A   1      45.908  24.724  36.233  1.00  0.00    -0.744 OA
ENDBRANCH  85  89
ENDBRANCH  59  82
ENDBRANCH  33  34
ENDBRANCH  25  28
ENDBRANCH  23  24
ENDBRANCH  22  23
ENDBRANCH   1  22
TORSDOF 19
ENDMDL
MODEL 2
REMARK VINA RESULT:     -10.6      2.185      8.014
REMARK SMILES COc1ccc(C(=O)C[C@H](C)CC(=O)NCCCNC(=O)c2ccc(-c3c4nc(c(-c5cc(S(=O)(=O)[O-])ccc5F)c5ccc([nH]5)c(-c5cc(S(=O)(=O)[O-])ccc5F)c5nc(c(-c6cc(S(=O)(=O)[O-])ccc6F)c6ccc3[nH]6)C=C5)C=C4)cc2)c(OC)c1
REMARK SMILES IDX 16 1 15 2 13 3 14 4 12 6 10 7 11 8 9 9 7 10 8 11 6 12 3 13
REMARK SMILES IDX 4 14 88 15 5 16 85 17 2 18 1 19 86 20 87 21 17 22 18 23
REMARK SMILES IDX 19 24 20 25 21 27 22 28 23 29 84 30 24 31 83 32 25 33 26 34
REMARK SMILES IDX 27 35 77 36 28 37 82 38 76 39 78 40 29 41 81 42 75 43 74 44
REMARK SMILES IDX 30 46 62 47 42 48 61 49 43 50 46 51 60 52 79 53 44 54 45 55
REMARK SMILES IDX 59 57 80 58 47 59 31 60 32 61 40 62 33 63 39 64 41 65 38 66
REMARK SMILES IDX 34 67 35 68 36 69 37 70 63 71 64 72 72 73 65 74 71 75 73 76
REMARK SMILES IDX 70 77 66 78 67 79 68 80 69 81 48 82 49 83 57 84 50 85 56 86
REMARK SMILES IDX 58 87 55 88 51 89 52 90 53 91 54 92
REMARK H PARENT 15 5 19 26 78 45 46 56
REMARK Flexibility Score: inf
ROOT
ATOM      1  C   UNL A   1      33.609  28.672  24.523  1.00  0.00     0.117 C 
ENDROOT
BRANCH   1   2
ATOM      2  N   UNL A   1      32.352  29.356  24.242  1.00  0.00    -0.356 N 
ATOM      3  C   UNL A   1      31.105  28.865  23.959  1.00  0.00     0.220 C 
ATOM      4  O   UNL A   1      30.163  29.661  23.929  1.00  0.00    -0.275 OA
ATOM      5  H   UNL A   1      32.408  30.339  24.260  1.00  0.00     0.163 HD
BRANCH   3   6
ATOM      6  C   UNL A   1      30.895  27.400  23.573  1.00  0.00     0.103 C 
BRANCH   6   7
ATOM      7  C   UNL A   1      29.935  26.714  24.567  1.00  0.00     0.003 C 
ATOM      8  C   UNL A   1      28.566  26.565  23.942  1.00  0.00     0.008 C 
BRANCH   7   9
ATOM      9  C   UNL A   1      30.459  25.390  25.173  1.00  0.00     0.085 C 
BRANCH   9  10
ATOM     10  C   UNL A   1      31.222  24.406  24.284  1.00  0.00     0.166 C 
ATOM     11  O   UNL A   1      30.683  23.973  23.261  1.00  0.00    -0.294 OA
BRANCH  10  12
ATOM     12  C   UNL A   1      32.591  23.888  24.635  1.00  0.00     0.060 A 
ATOM     13  C   UNL A   1      35.296  23.234  24.859  1.00  0.00     0.122 A 
ATOM     14  C   UNL A   1      34.906  24.556  25.005  1.00  0.00     0.047 A 
ATOM     15  C   UNL A   1      34.349  22.219  24.737  1.00  0.00     0.093 A 
ATOM     16  C   UNL A   1      33.557  24.882  24.892  1.00  0.00     0.019 A 
ATOM     17  C   UNL A   1      32.987  22.533  24.620  1.00  0.00     0.133 A 
BRANCH  13  18
ATOM     18  O   UNL A   1      36.632  22.951  24.875  1.00  0.00    -0.497 OA
ATOM     19  C   UNL A   1      37.301  23.775  25.833  1.00  0.00     0.278 C 
ENDBRANCH  13  18
BRANCH  17  20
ATOM     20  O   UNL A   1      32.025  21.564  24.496  1.00  0.00    -0.496 OA
ATOM     21  C   UNL A   1      32.481  20.229  24.248  1.00  0.00     0.278 C 
ENDBRANCH  17  20
ENDBRANCH  10  12
ENDBRANCH   9  10
ENDBRANCH   7   9
ENDBRANCH   6   7
ENDBRANCH   3   6
ENDBRANCH   1   2
BRANCH   1  22
ATOM     22  C   UNL A   1      33.983  28.538  26.007  1.00  0.00     0.042 C 
BRANCH  22  23
ATOM     23  C   UNL A   1      33.032  29.183  27.011  1.00  0.00     0.118 C 
BRANCH  23  24
ATOM     24  N   UNL A   1      33.302  30.602  27.152  1.00  0.00    -0.352 N 
ATOM     25  C   UNL A   1      34.298  31.266  27.831  1.00  0.00     0.251 C 
ATOM     26  H   UNL A   1      32.666  31.189  26.683  1.00  0.00     0.163 HD
ATOM     27  O   UNL A   1      34.110  32.454  28.096  1.00  0.00    -0.269 OA
BRANCH  25  28
ATOM     28  C   UNL A   1      35.573  30.618  28.251  1.00  0.00     0.039 A 
ATOM     29  C   UNL A   1      35.578  29.881  29.445  1.00  0.00     0.014 A 
ATOM     30  C   UNL A   1      36.785  30.820  27.585  1.00  0.00     0.014 A 
ATOM     31  C   UNL A   1      36.770  29.344  29.953  1.00  0.00     0.010 A 
ATOM     32  C   UNL A   1      37.964  30.222  28.056  1.00  0.00     0.010 A 
ATOM     33  C   UNL A   1      37.978  29.494  29.257  1.00  0.00    -0.014 A 
BRANCH  33  34
ATOM     34  C   UNL A   1      39.258  28.930  29.784  1.00  0.00     0.031 A 
ATOM     35  C   UNL A   1      39.976  29.599  30.931  1.00  0.00     0.074 A 
ATOM     36  C   UNL A   1      39.814  27.846  29.204  1.00  0.00     0.049 A 
ATOM     37  N   UNL A   1      41.131  29.303  31.472  1.00  0.00    -0.248 NA
ATOM     38  C   UNL A   1      39.312  30.761  31.537  1.00  0.00     0.031 C 
ATOM     39  C   UNL A   1      39.228  27.099  28.093  1.00  0.00     0.029 A 
ATOM     40  N   UNL A   1      40.998  27.192  29.447  1.00  0.00    -0.354 N 
ATOM     41  C   UNL A   1      41.336  30.244  32.476  1.00  0.00     0.074 A 
ATOM     42  C   UNL A   1      40.212  31.155  32.426  1.00  0.00     0.031 C 
ATOM     43  C   UNL A   1      40.060  26.110  27.731  1.00  0.00     0.029 A 
ATOM     44  C   UNL A   1      41.251  26.160  28.571  1.00  0.00     0.049 A 
ATOM     45  H   UNL A   1      41.608  27.440  30.179  1.00  0.00     0.167 HD
ATOM     46  C   UNL A   1      42.353  30.325  33.373  1.00  0.00     0.034 A 
ATOM     47  C   UNL A   1      42.322  25.350  28.445  1.00  0.00     0.034 A 
ATOM     48  C   UNL A   1      43.459  29.400  33.427  1.00  0.00     0.049 A 
ATOM     49  C   UNL A   1      43.462  25.487  29.421  1.00  0.00     0.074 A 
ATOM     50  C   UNL A   1      44.497  29.349  34.342  1.00  0.00     0.029 A 
ATOM     51  N   UNL A   1      43.683  28.369  32.523  1.00  0.00    -0.354 N 
ATOM     52  N   UNL A   1      43.604  26.343  30.407  1.00  0.00    -0.248 NA
ATOM     53  C   UNL A   1      44.571  24.534  29.287  1.00  0.00     0.031 C 
ATOM     54  C   UNL A   1      45.383  28.339  33.951  1.00  0.00     0.029 A 
ATOM     55  C   UNL A   1      44.860  27.705  32.836  1.00  0.00     0.049 A 
ATOM     56  H   UNL A   1      43.090  28.142  31.770  1.00  0.00     0.167 HD
ATOM     57  C   UNL A   1      44.798  26.001  31.035  1.00  0.00     0.074 A 
ATOM     58  C   UNL A   1      45.331  24.860  30.321  1.00  0.00     0.031 C 
ATOM     59  C   UNL A   1      45.392  26.574  32.112  1.00  0.00     0.034 A 
BRANCH  46  60
ATOM     60  C   UNL A   1      42.324  31.473  34.358  1.00  0.00     0.023 A 
ATOM     61  C   UNL A   1      41.440  31.488  35.452  1.00  0.00     0.031 A 
ATOM     62  C   UNL A   1      43.184  32.572  34.194  1.00  0.00     0.131 A 
ATOM     63  C   UNL A   1      41.384  32.611  36.291  1.00  0.00     0.055 A 
ATOM     64  C   UNL A   1      43.180  33.651  35.081  1.00  0.00     0.041 A 
ATOM     65  F   UNL A   1      44.039  32.623  33.158  1.00  0.00    -0.206 F 
ATOM     66  C   UNL A   1      42.265  33.681  36.129  1.00  0.00     0.022 A 
BRANCH  63  67
ATOM     67  S   UNL A   1      40.046  32.711  37.513  1.00  0.00     0.124 S 
ATOM     68  O   UNL A   1      40.776  32.516  38.764  1.00  0.00    -0.237 OA
ATOM     69  O   UNL A   1      39.510  34.046  37.286  1.00  0.00    -0.237 OA
ATOM     70  O   UNL A   1      39.160  31.608  37.141  1.00  0.00    -0.744 OA
ENDBRANCH  63  67
ENDBRANCH  46  60
BRANCH  47  71
ATOM     71  C   UNL A   1      42.378  24.339  27.349  1.00  0.00     0.023 A 
ATOM     72  C   UNL A   1      41.632  23.152  27.415  1.00  0.00     0.031 A 
ATOM     73  C   UNL A   1      43.217  24.530  26.235  1.00  0.00     0.131 A 
ATOM     74  C   UNL A   1      41.775  22.179  26.414  1.00  0.00     0.055 A 
ATOM     75  C   UNL A   1      43.316  23.582  25.216  1.00  0.00     0.041 A 
ATOM     76  F   UNL A   1      43.946  25.651  26.119  1.00  0.00    -0.206 F 
ATOM     77  C   UNL A   1      42.603  22.390  25.309  1.00  0.00     0.022 A 
BRANCH  74  78
ATOM     78  S   UNL A   1      40.926  20.590  26.622  1.00  0.00     0.124 S 
ATOM     79  O   UNL A   1      41.820  19.681  25.914  1.00  0.00    -0.237 OA
ATOM     80  O   UNL A   1      40.892  20.454  28.075  1.00  0.00    -0.237 OA
ATOM     81  O   UNL A   1      39.629  20.812  25.988  1.00  0.00    -0.744 OA
ENDBRANCH  74  78
ENDBRANCH  47  71
BRANCH  59  82
ATOM     82  C   UNL A   1      46.666  25.936  32.611  1.00  0.00     0.023 A 
ATOM     83  C   UNL A   1      46.653  24.912  33.575  1.00  0.00     0.031 A 
ATOM     84  C   UNL A   1      47.912  26.374  32.129  1.00  0.00     0.131 A 
ATOM     85  C   UNL A   1      47.863  24.401  34.068  1.00  0.00     0.055 A 
ATOM     86  C   UNL A   1      49.111  25.820  32.579  1.00  0.00     0.041 A 
ATOM     87  F   UNL A   1      47.984  27.352  31.212  1.00  0.00    -0.206 F 
ATOM     88  C   UNL A   1      49.091  24.836  33.564  1.00  0.00     0.022 A 
BRANCH  85  89
ATOM     89  S   UNL A   1      47.813  23.223  35.447  1.00  0.00     0.124 S 
ATOM     90  O   UNL A   1      48.661  23.879  36.436  1.00  0.00    -0.237 OA
ATOM     91  O   UNL A   1      46.389  23.172  35.761  1.00  0.00    -0.237 OA
ATOM     92  O   UNL A   1      48.364  21.997  34.871  1.00  0.00    -0.744 OA
ENDBRANCH  85  89
ENDBRANCH  59  82
ENDBRANCH  33  34
ENDBRANCH  25  28
ENDBRANCH  23  24
ENDBRANCH  22  23
ENDBRANCH   1  22
TORSDOF 19
ENDMDL
MODEL 3
REMARK VINA RESULT:     -10.4      2.454      8.306
REMARK SMILES COc1ccc(C(=O)C[C@H](C)CC(=O)NCCCNC(=O)c2ccc(-c3c4nc(c(-c5cc(S(=O)(=O)[O-])ccc5F)c5ccc([nH]5)c(-c5cc(S(=O)(=O)[O-])ccc5F)c5nc(c(-c6cc(S(=O)(=O)[O-])ccc6F)c6ccc3[nH]6)C=C5)C=C4)cc2)c(OC)c1
REMARK SMILES IDX 16 1 15 2 13 3 14 4 12 6 10 7 11 8 9 9 7 10 8 11 6 12 3 13
REMARK SMILES IDX 4 14 88 15 5 16 85 17 2 18 1 19 86 20 87 21 17 22 18 23
REMARK SMILES IDX 19 24 20 25 21 27 22 28 23 29 84 30 24 31 83 32 25 33 26 34
REMARK SMILES IDX 27 35 77 36 28 37 82 38 76 39 78 40 29 41 81 42 75 43 74 44
REMARK SMILES IDX 30 46 62 47 42 48 61 49 43 50 46 51 60 52 79 53 44 54 45 55
REMARK SMILES IDX 59 57 80 58 47 59 31 60 32 61 40 62 33 63 39 64 41 65 38 66
REMARK SMILES IDX 34 67 35 68 36 69 37 70 63 71 64 72 72 73 65 74 71 75 73 76
REMARK SMILES IDX 70 77 66 78 67 79 68 80 69 81 48 82 49 83 57 84 50 85 56 86
REMARK SMILES IDX 58 87 55 88 51 89 52 90 53 91 54 92
REMARK H PARENT 15 5 19 26 78 45 46 56
REMARK Flexibility Score: inf
ROOT
ATOM      1  C   UNL A   1      33.026  28.677  23.307  1.00  0.00     0.117 C 
ENDROOT
BRANCH   1   2
ATOM      2  N   UNL A   1      33.589  27.572  22.539  1.00  0.00    -0.356 N 
ATOM      3  C   UNL A   1      32.992  26.480  21.966  1.00  0.00     0.220 C 
ATOM      4  O   UNL A   1      33.674  25.776  21.217  1.00  0.00    -0.275 OA
ATOM      5  H   UNL A   1      34.564  27.619  22.410  1.00  0.00     0.163 HD
BRANCH   3   6
ATOM      6  C   UNL A   1      31.564  26.071  22.329  1.00  0.00     0.103 C 
BRANCH   6   7
ATOM      7  C   UNL A   1      31.568  25.135  23.555  1.00  0.00     0.003 C 
ATOM      8  C   UNL A   1      30.485  24.089  23.409  1.00  0.00     0.008 C 
BRANCH   7   9
ATOM      9  C   UNL A   1      32.945  24.520  23.903  1.00  0.00     0.085 C 
BRANCH   9  10
ATOM     10  C   UNL A   1      33.038  23.451  24.994  1.00  0.00     0.166 C 
ATOM     11  O   UNL A   1      32.830  23.768  26.169  1.00  0.00    -0.294 OA
BRANCH  10  12
ATOM     12  C   UNL A   1      33.436  22.029  24.705  1.00  0.00     0.060 A 
ATOM     13  C   UNL A   1      33.772  19.263  24.526  1.00  0.00     0.122 A 
ATOM     14  C   UNL A   1      32.563  19.823  24.146  1.00  0.00     0.047 A 
ATOM     15  C   UNL A   1      34.857  20.069  24.866  1.00  0.00     0.093 A 
ATOM     16  C   UNL A   1      32.394  21.202  24.236  1.00  0.00     0.019 A 
ATOM     17  C   UNL A   1      34.701  21.459  24.963  1.00  0.00     0.133 A 
BRANCH  13  18
ATOM     18  O   UNL A   1      33.882  17.902  24.523  1.00  0.00    -0.497 OA
ATOM     19  C   UNL A   1      32.762  17.315  25.191  1.00  0.00     0.278 C 
ENDBRANCH  13  18
BRANCH  17  20
ATOM     20  O   UNL A   1      35.743  22.286  25.297  1.00  0.00    -0.496 OA
ATOM     21  C   UNL A   1      36.455  22.899  24.215  1.00  0.00     0.278 C 
ENDBRANCH  17  20
ENDBRANCH  10  12
ENDBRANCH   9  10
ENDBRANCH   7   9
ENDBRANCH   6   7
ENDBRANCH   3   6
ENDBRANCH   1   2
BRANCH   1  22
ATOM     22  C   UNL A   1      32.797  28.409  24.802  1.00  0.00     0.042 C 
BRANCH  22  23
ATOM     23  C   UNL A   1      33.935  28.787  25.745  1.00  0.00     0.118 C 
BRANCH  23  24
ATOM     24  N   UNL A   1      33.785  30.147  26.230  1.00  0.00    -0.352 N 
ATOM     25  C   UNL A   1      34.362  30.790  27.300  1.00  0.00     0.251 C 
ATOM     26  H   UNL A   1      33.168  30.703  25.702  1.00  0.00     0.163 HD
ATOM     27  O   UNL A   1      33.813  31.812  27.712  1.00  0.00    -0.269 OA
BRANCH  25  28
ATOM     28  C   UNL A   1      35.602  30.307  27.972  1.00  0.00     0.039 A 
ATOM     29  C   UNL A   1      36.826  30.484  27.310  1.00  0.00     0.014 A 
ATOM     30  C   UNL A   1      35.587  29.574  29.162  1.00  0.00     0.014 A 
ATOM     31  C   UNL A   1      38.012  29.951  27.835  1.00  0.00     0.010 A 
ATOM     32  C   UNL A   1      36.784  29.103  29.723  1.00  0.00     0.010 A 
ATOM     33  C   UNL A   1      38.010  29.265  29.058  1.00  0.00    -0.014 A 
BRANCH  33  34
ATOM     34  C   UNL A   1      39.264  28.690  29.632  1.00  0.00     0.031 A 
ATOM     35  C   UNL A   1      39.914  29.321  30.840  1.00  0.00     0.074 A 
ATOM     36  C   UNL A   1      39.859  27.632  29.045  1.00  0.00     0.049 A 
ATOM     37  N   UNL A   1      41.040  29.012  31.432  1.00  0.00    -0.248 NA
ATOM     38  C   UNL A   1      39.209  30.456  31.451  1.00  0.00     0.031 C 
ATOM     39  C   UNL A   1      39.340  26.922  27.877  1.00  0.00     0.029 A 
ATOM     40  N   UNL A   1      41.034  26.977  29.328  1.00  0.00    -0.354 N 
ATOM     41  C   UNL A   1      41.183  29.917  32.479  1.00  0.00     0.074 A 
ATOM     42  C   UNL A   1      40.056  30.823  32.401  1.00  0.00     0.031 C 
ATOM     43  C   UNL A   1      40.198  25.952  27.525  1.00  0.00     0.029 A 
ATOM     44  C   UNL A   1      41.342  25.979  28.430  1.00  0.00     0.049 A 
ATOM     45  H   UNL A   1      41.602  27.201  30.100  1.00  0.00     0.167 HD
ATOM     46  C   UNL A   1      42.149  29.972  33.433  1.00  0.00     0.034 A 
ATOM     47  C   UNL A   1      42.425  25.180  28.333  1.00  0.00     0.034 A 
ATOM     48  C   UNL A   1      43.259  29.052  33.513  1.00  0.00     0.049 A 
ATOM     49  C   UNL A   1      43.509  25.288  29.374  1.00  0.00     0.074 A 
ATOM     50  C   UNL A   1      44.246  28.974  34.480  1.00  0.00     0.029 A 
ATOM     51  N   UNL A   1      43.539  28.056  32.586  1.00  0.00    -0.354 N 
ATOM     52  N   UNL A   1      43.590  26.109  30.396  1.00  0.00    -0.248 NA
ATOM     53  C   UNL A   1      44.631  24.348  29.266  1.00  0.00     0.031 C 
ATOM     54  C   UNL A   1      45.160  27.984  34.102  1.00  0.00     0.029 A 
ATOM     55  C   UNL A   1      44.703  27.389  32.938  1.00  0.00     0.049 A 
ATOM     56  H   UNL A   1      42.990  27.853  31.793  1.00  0.00     0.167 HD
ATOM     57  C   UNL A   1      44.752  25.751  31.076  1.00  0.00     0.074 A 
ATOM     58  C   UNL A   1      45.332  24.640  30.351  1.00  0.00     0.031 C 
ATOM     59  C   UNL A   1      45.282  26.288  32.204  1.00  0.00     0.034 A 
BRANCH  46  60
ATOM     60  C   UNL A   1      42.058  31.082  34.455  1.00  0.00     0.023 A 
ATOM     61  C   UNL A   1      42.731  32.305  34.282  1.00  0.00     0.031 A 
ATOM     62  C   UNL A   1      41.297  30.912  35.624  1.00  0.00     0.131 A 
ATOM     63  C   UNL A   1      42.691  33.276  35.294  1.00  0.00     0.055 A 
ATOM     64  C   UNL A   1      41.195  31.915  36.591  1.00  0.00     0.041 A 
ATOM     65  F   UNL A   1      40.645  29.760  35.854  1.00  0.00    -0.206 F 
ATOM     66  C   UNL A   1      41.908  33.100  36.436  1.00  0.00     0.022 A 
BRANCH  63  67
ATOM     67  S   UNL A   1      43.791  34.713  35.157  1.00  0.00     0.124 S 
ATOM     68  O   UNL A   1      43.072  35.542  34.192  1.00  0.00    -0.237 OA
ATOM     69  O   UNL A   1      43.830  35.211  36.526  1.00  0.00    -0.237 OA
ATOM     70  O   UNL A   1      45.043  34.139  34.664  1.00  0.00    -0.744 OA
ENDBRANCH  63  67
ENDBRANCH  46  60
BRANCH  47  71
ATOM     71  C   UNL A   1      42.548  24.210  27.206  1.00  0.00     0.023 A 
ATOM     72  C   UNL A   1      41.973  22.932  27.280  1.00  0.00     0.031 A 
ATOM     73  C   UNL A   1      43.283  24.537  26.051  1.00  0.00     0.131 A 
ATOM     74  C   UNL A   1      42.183  22.009  26.244  1.00  0.00     0.055 A 
ATOM     75  C   UNL A   1      43.445  23.634  25.000  1.00  0.00     0.041 A 
ATOM     76  F   UNL A   1      43.847  25.750  25.926  1.00  0.00    -0.206 F 
ATOM     77  C   UNL A   1      42.906  22.355  25.099  1.00  0.00     0.022 A 
BRANCH  74  78
ATOM     78  S   UNL A   1      41.569  20.316  26.453  1.00  0.00     0.124 S 
ATOM     79  O   UNL A   1      42.076  19.978  27.778  1.00  0.00    -0.237 OA
ATOM     80  O   UNL A   1      40.126  20.503  26.347  1.00  0.00    -0.237 OA
ATOM     81  O   UNL A   1      42.186  19.591  25.345  1.00  0.00    -0.744 OA
ENDBRANCH  74  78
ENDBRANCH  47  71
BRANCH  59  82
ATOM     82  C   UNL A   1      46.532  25.639  32.748  1.00  0.00     0.023 A 
ATOM     83  C   UNL A   1      46.476  24.612  33.707  1.00  0.00     0.031 A 
ATOM     84  C   UNL A   1      47.799  26.071  32.314  1.00  0.00     0.131 A 
ATOM     85  C   UNL A   1      47.664  24.091  34.242  1.00  0.00     0.055 A 
ATOM     86  C   UNL A   1      48.976  25.507  32.806  1.00  0.00     0.041 A 
ATOM     87  F   UNL A   1      47.911  27.050  31.403  1.00  0.00    -0.206 F 
ATOM     88  C   UNL A   1      48.913  24.520  33.786  1.00  0.00     0.022 A 
BRANCH  85  89
ATOM     89  S   UNL A   1      47.554  22.910  35.615  1.00  0.00     0.124 S 
ATOM     90  O   UNL A   1      47.969  23.727  36.751  1.00  0.00    -0.237 OA
ATOM     91  O   UNL A   1      46.147  22.527  35.585  1.00  0.00    -0.237 OA
ATOM     92  O   UNL A   1      48.491  21.854  35.235  1.00  0.00    -0.744 OA
ENDBRANCH  85  89
ENDBRANCH  59  82
ENDBRANCH  33  34
ENDBRANCH  25  28
ENDBRANCH  23  24
ENDBRANCH  22  23
ENDBRANCH   1  22
TORSDOF 19
ENDMDL
