MODEL 1
REMARK VINA RESULT:      -9.4      0.000      0.000
REMARK SMILES O=C(/C=C/c1ccc(S(=O)(=O)Nc2ccc3c(c2)OCCO3)cc1)NCCCNC(=O)c1ccc(-c2c3nc(c(-c4cc(S(=O)(=O)[O-])ccc4F)c4ccc([nH]4)c(-c4cc(S(=O)(=O)[O-])ccc4F)c4nc(c(-c5cc(S(=O)(=O)[O-])ccc5F)c5ccc2[nH]5)C=C4)C=C3)cc1
REMARK SMILES IDX 26 1 25 2 1 3 2 4 3 6 4 7 5 8 6 9 24 10 7 11 23 12 8 13 9 14
REMARK SMILES IDX 10 15 11 16 12 17 13 19 14 20 18 21 15 22 17 23 16 24 19 25
REMARK SMILES IDX 22 26 20 27 21 28 27 29 28 30 29 31 30 32 31 34 32 35 33 36
REMARK SMILES IDX 94 37 34 38 93 39 35 40 36 41 37 42 87 43 38 44 92 45 86 46
REMARK SMILES IDX 88 47 39 48 91 49 85 50 84 51 40 53 72 54 52 55 71 56 53 57
REMARK SMILES IDX 56 58 70 59 89 60 54 61 55 62 69 64 90 65 57 66 41 67 42 68
REMARK SMILES IDX 50 69 43 70 49 71 51 72 48 73 44 74 45 75 46 76 47 77 73 78
REMARK SMILES IDX 74 79 82 80 75 81 81 82 83 83 80 84 76 85 77 86 78 87 79 88
REMARK SMILES IDX 58 89 59 90 67 91 60 92 66 93 68 94 65 95 61 96 62 97 63 98
REMARK SMILES IDX 64 99
REMARK H PARENT 25 5 12 18 29 33 88 52 56 63
REMARK Flexibility Score: inf
ROOT
ATOM      1  C   UNL A   1      33.455  36.284  31.909  1.00  0.00     0.118 C 
ENDROOT
BRANCH   1   2
ATOM      2  N   UNL A   1      34.577  35.374  32.061  1.00  0.00    -0.352 N 
ATOM      3  O   UNL A   1      34.754  35.628  34.334  1.00  0.00    -0.270 OA
ATOM      4  C   UNL A   1      35.142  35.125  33.284  1.00  0.00     0.244 C 
ATOM      5  H   UNL A   1      34.942  34.923  31.266  1.00  0.00     0.163 HD
BRANCH   4   6
ATOM      6  C   UNL A   1      36.237  34.118  33.333  1.00  0.00     0.072 C 
ATOM      7  C   UNL A   1      36.211  32.908  33.918  1.00  0.00     0.014 C 
BRANCH   7   8
ATOM      8  C   UNL A   1      37.334  31.940  33.936  1.00  0.00    -0.025 A 
ATOM      9  C   UNL A   1      38.436  32.199  34.764  1.00  0.00     0.009 A 
ATOM     10  C   UNL A   1      37.368  30.773  33.158  1.00  0.00     0.009 A 
ATOM     11  C   UNL A   1      39.562  31.359  34.761  1.00  0.00     0.023 A 
ATOM     12  C   UNL A   1      38.469  29.901  33.191  1.00  0.00     0.023 A 
ATOM     13  C   UNL A   1      39.590  30.218  33.951  1.00  0.00     0.087 A 
BRANCH  13  14
ATOM     14  S   UNL A   1      41.079  29.232  33.924  1.00  0.00     0.261 S 
ATOM     15  O   UNL A   1      41.423  29.032  32.523  1.00  0.00    -0.201 OA
ATOM     16  O   UNL A   1      42.023  29.838  34.826  1.00  0.00    -0.201 OA
BRANCH  14  17
ATOM     17  N   UNL A   1      40.762  27.640  34.519  1.00  0.00    -0.279 N 
ATOM     18  H   UNL A   1      39.842  27.299  34.610  1.00  0.00     0.180 HD
BRANCH  17  19
ATOM     19  C   UNL A   1      41.896  26.839  34.874  1.00  0.00     0.053 A 
ATOM     20  C   UNL A   1      41.868  26.219  36.129  1.00  0.00     0.031 A 
ATOM     21  C   UNL A   1      42.909  26.564  33.963  1.00  0.00     0.077 A 
ATOM     22  C   UNL A   1      42.719  25.146  36.383  1.00  0.00     0.052 A 
ATOM     23  C   UNL A   1      43.705  25.450  34.186  1.00  0.00     0.163 A 
ATOM     24  C   UNL A   1      43.559  24.710  35.366  1.00  0.00     0.161 A 
ATOM     25  O   UNL A   1      44.498  25.058  33.141  1.00  0.00    -0.486 OA
ATOM     26  O   UNL A   1      44.128  23.468  35.507  1.00  0.00    -0.486 OA
ATOM     27  C   UNL A   1      44.994  23.719  33.271  1.00  0.00     0.271 C 
ATOM     28  C   UNL A   1      44.149  22.863  34.204  1.00  0.00     0.271 C 
ENDBRANCH  17  19
ENDBRANCH  14  17
ENDBRANCH  13  14
ENDBRANCH   7   8
ENDBRANCH   4   6
ENDBRANCH   1   2
BRANCH   1  29
ATOM     29  C   UNL A   1      32.826  36.225  30.519  1.00  0.00     0.042 C 
BRANCH  29  30
ATOM     30  C   UNL A   1      33.727  35.633  29.438  1.00  0.00     0.118 C 
BRANCH  30  31
ATOM     31  N   UNL A   1      33.104  34.534  28.719  1.00  0.00    -0.352 N 
ATOM     32  C   UNL A   1      33.624  33.344  28.275  1.00  0.00     0.251 C 
ATOM     33  H   UNL A   1      32.148  34.664  28.517  1.00  0.00     0.163 HD
ATOM     34  O   UNL A   1      32.924  32.635  27.554  1.00  0.00    -0.269 OA
BRANCH  32  35
ATOM     35  C   UNL A   1      35.000  32.913  28.625  1.00  0.00     0.039 A 
ATOM     36  C   UNL A   1      35.158  31.977  29.655  1.00  0.00     0.014 A 
ATOM     37  C   UNL A   1      36.132  33.452  28.007  1.00  0.00     0.014 A 
ATOM     38  C   UNL A   1      36.437  31.563  30.036  1.00  0.00     0.010 A 
ATOM     39  C   UNL A   1      37.404  32.980  28.338  1.00  0.00     0.010 A 
ATOM     40  C   UNL A   1      37.573  32.044  29.368  1.00  0.00    -0.014 A 
BRANCH  40  41
ATOM     41  C   UNL A   1      38.937  31.600  29.771  1.00  0.00     0.031 A 
ATOM     42  C   UNL A   1      39.712  32.372  30.808  1.00  0.00     0.074 A 
ATOM     43  C   UNL A   1      39.487  30.515  29.191  1.00  0.00     0.049 A 
ATOM     44  N   UNL A   1      40.910  32.147  31.287  1.00  0.00    -0.248 NA
ATOM     45  C   UNL A   1      39.065  33.572  31.358  1.00  0.00     0.031 C 
ATOM     46  C   UNL A   1      38.858  29.709  28.143  1.00  0.00     0.029 A 
ATOM     47  N   UNL A   1      40.696  29.899  29.401  1.00  0.00    -0.354 N 
ATOM     48  C   UNL A   1      41.164  33.179  32.185  1.00  0.00     0.074 A 
ATOM     49  C   UNL A   1      40.021  34.067  32.128  1.00  0.00     0.031 C 
ATOM     50  C   UNL A   1      39.671  28.689  27.825  1.00  0.00     0.029 A 
ATOM     51  C   UNL A   1      40.893  28.785  28.618  1.00  0.00     0.049 A 
ATOM     52  H   UNL A   1      41.360  30.225  30.050  1.00  0.00     0.167 HD
ATOM     53  C   UNL A   1      42.234  33.357  33.000  1.00  0.00     0.034 A 
ATOM     54  C   UNL A   1      41.937  27.936  28.548  1.00  0.00     0.034 A 
ATOM     55  C   UNL A   1      43.362  32.458  33.052  1.00  0.00     0.049 A 
ATOM     56  C   UNL A   1      43.114  28.150  29.468  1.00  0.00     0.074 A 
ATOM     57  C   UNL A   1      44.482  32.522  33.865  1.00  0.00     0.029 A 
ATOM     58  N   UNL A   1      43.518  31.329  32.258  1.00  0.00    -0.354 N 
ATOM     59  N   UNL A   1      43.315  29.103  30.348  1.00  0.00    -0.248 NA
ATOM     60  C   UNL A   1      44.193  27.156  29.399  1.00  0.00     0.031 C 
ATOM     61  C   UNL A   1      45.340  31.472  33.519  1.00  0.00     0.029 A 
ATOM     62  C   UNL A   1      44.722  30.702  32.546  1.00  0.00     0.049 A 
ATOM     63  H   UNL A   1      42.869  31.018  31.585  1.00  0.00     0.167 HD
ATOM     64  C   UNL A   1      44.526  28.799  30.965  1.00  0.00     0.074 A 
ATOM     65  C   UNL A   1      44.997  27.567  30.367  1.00  0.00     0.031 C 
ATOM     66  C   UNL A   1      45.187  29.475  31.941  1.00  0.00     0.034 A 
BRANCH  53  67
ATOM     67  C   UNL A   1      42.238  34.588  33.879  1.00  0.00     0.023 A 
ATOM     68  C   UNL A   1      41.734  34.559  35.193  1.00  0.00     0.031 A 
ATOM     69  C   UNL A   1      42.720  35.815  33.391  1.00  0.00     0.131 A 
ATOM     70  C   UNL A   1      41.643  35.745  35.937  1.00  0.00     0.055 A 
ATOM     71  C   UNL A   1      42.708  36.975  34.170  1.00  0.00     0.041 A 
ATOM     72  F   UNL A   1      43.194  35.914  32.139  1.00  0.00    -0.206 F 
ATOM     73  C   UNL A   1      42.151  36.948  35.445  1.00  0.00     0.022 A 
BRANCH  70  74
ATOM     74  S   UNL A   1      40.707  35.722  37.491  1.00  0.00     0.124 S 
ATOM     75  O   UNL A   1      39.746  36.801  37.272  1.00  0.00    -0.237 OA
ATOM     76  O   UNL A   1      40.158  34.371  37.509  1.00  0.00    -0.237 OA
ATOM     77  O   UNL A   1      41.721  35.997  38.506  1.00  0.00    -0.744 OA
ENDBRANCH  70  74
ENDBRANCH  53  67
BRANCH  54  78
ATOM     78  C   UNL A   1      41.922  26.796  27.587  1.00  0.00     0.023 A 
ATOM     79  C   UNL A   1      41.695  25.481  28.024  1.00  0.00     0.031 A 
ATOM     80  C   UNL A   1      42.182  27.001  26.220  1.00  0.00     0.131 A 
ATOM     81  C   UNL A   1      41.785  24.415  27.115  1.00  0.00     0.055 A 
ATOM     82  C   UNL A   1      42.217  25.943  25.309  1.00  0.00     0.041 A 
ATOM     83  F   UNL A   1      42.399  28.239  25.748  1.00  0.00    -0.206 F 
ATOM     84  C   UNL A   1      42.033  24.639  25.759  1.00  0.00     0.022 A 
BRANCH  81  85
ATOM     85  S   UNL A   1      41.662  22.721  27.749  1.00  0.00     0.124 S 
ATOM     86  O   UNL A   1      42.509  21.991  26.813  1.00  0.00    -0.237 OA
ATOM     87  O   UNL A   1      42.180  22.866  29.104  1.00  0.00    -0.237 OA
ATOM     88  O   UNL A   1      40.233  22.426  27.658  1.00  0.00    -0.744 OA
ENDBRANCH  81  85
ENDBRANCH  54  78
BRANCH  66  89
ATOM     89  C   UNL A   1      46.461  28.853  32.460  1.00  0.00     0.023 A 
ATOM     90  C   UNL A   1      46.476  28.012  33.587  1.00  0.00     0.031 A 
ATOM     91  C   UNL A   1      47.691  29.141  31.839  1.00  0.00     0.131 A 
ATOM     92  C   UNL A   1      47.697  27.553  34.104  1.00  0.00     0.055 A 
ATOM     93  C   UNL A   1      48.896  28.625  32.315  1.00  0.00     0.041 A 
ATOM     94  F   UNL A   1      47.740  29.938  30.759  1.00  0.00    -0.206 F 
ATOM     95  C   UNL A   1      48.906  27.842  33.466  1.00  0.00     0.022 A 
BRANCH  92  96
ATOM     96  S   UNL A   1      47.697  26.682  35.695  1.00  0.00     0.124 S 
ATOM     97  O   UNL A   1      47.180  25.369  35.323  1.00  0.00    -0.237 OA
ATOM     98  O   UNL A   1      49.104  26.730  36.076  1.00  0.00    -0.237 OA
ATOM     99  O   UNL A   1      46.802  27.486  36.526  1.00  0.00    -0.744 OA
ENDBRANCH  92  96
ENDBRANCH  66  89
ENDBRANCH  40  41
ENDBRANCH  32  35
ENDBRANCH  30  31
ENDBRANCH  29  30
ENDBRANCH   1  29
TORSDOF 17
ENDMDL
MODEL 2
REMARK VINA RESULT:      -9.2      4.781      7.960
REMARK SMILES O=C(/C=C/c1ccc(S(=O)(=O)Nc2ccc3c(c2)OCCO3)cc1)NCCCNC(=O)c1ccc(-c2c3nc(c(-c4cc(S(=O)(=O)[O-])ccc4F)c4ccc([nH]4)c(-c4cc(S(=O)(=O)[O-])ccc4F)c4nc(c(-c5cc(S(=O)(=O)[O-])ccc5F)c5ccc2[nH]5)C=C4)C=C3)cc1
REMARK SMILES IDX 26 1 25 2 1 3 2 4 3 6 4 7 5 8 6 9 24 10 7 11 23 12 8 13 9 14
REMARK SMILES IDX 10 15 11 16 12 17 13 19 14 20 18 21 15 22 17 23 16 24 19 25
REMARK SMILES IDX 22 26 20 27 21 28 27 29 28 30 29 31 30 32 31 34 32 35 33 36
REMARK SMILES IDX 94 37 34 38 93 39 35 40 36 41 37 42 87 43 38 44 92 45 86 46
REMARK SMILES IDX 88 47 39 48 91 49 85 50 84 51 40 53 72 54 52 55 71 56 53 57
REMARK SMILES IDX 56 58 70 59 89 60 54 61 55 62 69 64 90 65 57 66 41 67 42 68
REMARK SMILES IDX 50 69 43 70 49 71 51 72 48 73 44 74 45 75 46 76 47 77 73 78
REMARK SMILES IDX 74 79 82 80 75 81 81 82 83 83 80 84 76 85 77 86 78 87 79 88
REMARK SMILES IDX 58 89 59 90 67 91 60 92 66 93 68 94 65 95 61 96 62 97 63 98
REMARK SMILES IDX 64 99
REMARK H PARENT 25 5 12 18 29 33 88 52 56 63
REMARK Flexibility Score: inf
ROOT
ATOM      1  C   UNL A   1      34.429  34.087  28.589  1.00  0.00     0.118 C 
ENDROOT
BRANCH   1   2
ATOM      2  N   UNL A   1      33.798  32.804  28.333  1.00  0.00    -0.352 N 
ATOM      3  O   UNL A   1      35.705  31.768  27.591  1.00  0.00    -0.270 OA
ATOM      4  C   UNL A   1      34.505  31.738  27.843  1.00  0.00     0.244 C 
ATOM      5  H   UNL A   1      32.837  32.696  28.517  1.00  0.00     0.163 HD
BRANCH   4   6
ATOM      6  C   UNL A   1      33.773  30.451  27.691  1.00  0.00     0.072 C 
ATOM      7  C   UNL A   1      34.007  29.477  26.795  1.00  0.00     0.014 C 
BRANCH   7   8
ATOM      8  C   UNL A   1      33.245  28.209  26.689  1.00  0.00    -0.025 A 
ATOM      9  C   UNL A   1      33.887  27.078  26.161  1.00  0.00     0.009 A 
ATOM     10  C   UNL A   1      31.904  28.070  27.078  1.00  0.00     0.009 A 
ATOM     11  C   UNL A   1      33.192  25.874  25.963  1.00  0.00     0.023 A 
ATOM     12  C   UNL A   1      31.220  26.852  26.931  1.00  0.00     0.023 A 
ATOM     13  C   UNL A   1      31.844  25.767  26.325  1.00  0.00     0.087 A 
BRANCH  13  14
ATOM     14  S   UNL A   1      30.988  24.239  25.974  1.00  0.00     0.261 S 
ATOM     15  O   UNL A   1      31.985  23.178  26.033  1.00  0.00    -0.201 OA
ATOM     16  O   UNL A   1      29.820  24.188  26.815  1.00  0.00    -0.201 OA
BRANCH  14  17
ATOM     17  N   UNL A   1      30.434  24.218  24.337  1.00  0.00    -0.279 N 
ATOM     18  H   UNL A   1      29.958  23.440  23.966  1.00  0.00     0.180 HD
BRANCH  17  19
ATOM     19  C   UNL A   1      30.698  25.382  23.545  1.00  0.00     0.053 A 
ATOM     20  C   UNL A   1      29.822  26.464  23.694  1.00  0.00     0.031 A 
ATOM     21  C   UNL A   1      31.850  25.497  22.776  1.00  0.00     0.077 A 
ATOM     22  C   UNL A   1      30.216  27.730  23.271  1.00  0.00     0.052 A 
ATOM     23  C   UNL A   1      32.276  26.768  22.421  1.00  0.00     0.163 A 
ATOM     24  C   UNL A   1      31.487  27.883  22.729  1.00  0.00     0.161 A 
ATOM     25  O   UNL A   1      33.543  26.856  21.910  1.00  0.00    -0.486 OA
ATOM     26  O   UNL A   1      31.985  29.159  22.638  1.00  0.00    -0.486 OA
ATOM     27  C   UNL A   1      34.072  28.189  21.922  1.00  0.00     0.271 C 
ATOM     28  C   UNL A   1      33.387  29.088  22.942  1.00  0.00     0.271 C 
ENDBRANCH  17  19
ENDBRANCH  14  17
ENDBRANCH  13  14
ENDBRANCH   7   8
ENDBRANCH   4   6
ENDBRANCH   1   2
BRANCH   1  29
ATOM     29  C   UNL A   1      33.474  35.265  28.416  1.00  0.00     0.042 C 
BRANCH  29  30
ATOM     30  C   UNL A   1      33.606  36.352  29.479  1.00  0.00     0.118 C 
BRANCH  30  31
ATOM     31  N   UNL A   1      32.661  36.196  30.573  1.00  0.00    -0.352 N 
ATOM     32  C   UNL A   1      32.732  35.442  31.718  1.00  0.00     0.251 C 
ATOM     33  H   UNL A   1      31.831  36.718  30.476  1.00  0.00     0.163 HD
ATOM     34  O   UNL A   1      31.729  35.362  32.425  1.00  0.00    -0.269 OA
BRANCH  32  35
ATOM     35  C   UNL A   1      33.968  34.718  32.102  1.00  0.00     0.039 A 
ATOM     36  C   UNL A   1      35.158  35.449  32.202  1.00  0.00     0.014 A 
ATOM     37  C   UNL A   1      33.992  33.335  32.305  1.00  0.00     0.014 A 
ATOM     38  C   UNL A   1      36.353  34.803  32.535  1.00  0.00     0.010 A 
ATOM     39  C   UNL A   1      35.171  32.705  32.711  1.00  0.00     0.010 A 
ATOM     40  C   UNL A   1      36.368  33.428  32.814  1.00  0.00    -0.014 A 
BRANCH  40  41
ATOM     41  C   UNL A   1      37.639  32.739  33.172  1.00  0.00     0.031 A 
ATOM     42  C   UNL A   1      38.315  33.028  34.488  1.00  0.00     0.074 A 
ATOM     43  C   UNL A   1      38.196  31.869  32.307  1.00  0.00     0.049 A 
ATOM     44  N   UNL A   1      39.425  32.533  34.977  1.00  0.00    -0.248 NA
ATOM     45  C   UNL A   1      37.672  34.025  35.355  1.00  0.00     0.031 C 
ATOM     46  C   UNL A   1      37.664  31.537  30.983  1.00  0.00     0.029 A 
ATOM     47  N   UNL A   1      39.330  31.101  32.409  1.00  0.00    -0.354 N 
ATOM     48  C   UNL A   1      39.619  33.165  36.202  1.00  0.00     0.074 A 
ATOM     49  C   UNL A   1      38.546  34.128  36.345  1.00  0.00     0.031 C 
ATOM     50  C   UNL A   1      38.451  30.612  30.412  1.00  0.00     0.029 A 
ATOM     51  C   UNL A   1      39.562  30.308  31.310  1.00  0.00     0.049 A 
ATOM     52  H   UNL A   1      39.921  31.116  33.196  1.00  0.00     0.167 HD
ATOM     53  C   UNL A   1      40.581  32.945  37.132  1.00  0.00     0.034 A 
ATOM     54  C   UNL A   1      40.556  29.434  31.052  1.00  0.00     0.034 A 
ATOM     55  C   UNL A   1      41.638  31.974  36.980  1.00  0.00     0.049 A 
ATOM     56  C   UNL A   1      41.612  29.202  32.104  1.00  0.00     0.074 A 
ATOM     57  C   UNL A   1      42.644  31.643  37.874  1.00  0.00     0.029 A 
ATOM     58  N   UNL A   1      41.832  31.176  35.860  1.00  0.00    -0.354 N 
ATOM     59  N   UNL A   1      41.751  29.770  33.278  1.00  0.00    -0.248 NA
ATOM     60  C   UNL A   1      42.631  28.188  31.801  1.00  0.00     0.031 C 
ATOM     61  C   UNL A   1      43.478  30.695  37.271  1.00  0.00     0.029 A 
ATOM     62  C   UNL A   1      42.949  30.371  36.031  1.00  0.00     0.049 A 
ATOM     63  H   UNL A   1      41.259  31.181  35.058  1.00  0.00     0.167 HD
ATOM     64  C   UNL A   1      42.851  29.154  33.870  1.00  0.00     0.074 A 
ATOM     65  C   UNL A   1      43.324  28.161  32.928  1.00  0.00     0.031 C 
ATOM     66  C   UNL A   1      43.417  29.385  35.083  1.00  0.00     0.034 A 
BRANCH  53  67
ATOM     67  C   UNL A   1      40.541  33.793  38.384  1.00  0.00     0.023 A 
ATOM     68  C   UNL A   1      39.688  33.484  39.459  1.00  0.00     0.031 A 
ATOM     69  C   UNL A   1      41.340  34.945  38.494  1.00  0.00     0.131 A 
ATOM     70  C   UNL A   1      39.589  34.358  40.552  1.00  0.00     0.055 A 
ATOM     71  C   UNL A   1      41.302  35.763  39.626  1.00  0.00     0.041 A 
ATOM     72  F   UNL A   1      42.160  35.307  37.495  1.00  0.00    -0.206 F 
ATOM     73  C   UNL A   1      40.410  35.482  40.655  1.00  0.00     0.022 A 
BRANCH  70  74
ATOM     74  S   UNL A   1      38.260  34.089  41.759  1.00  0.00     0.124 S 
ATOM     75  O   UNL A   1      38.979  33.431  42.847  1.00  0.00    -0.237 OA
ATOM     76  O   UNL A   1      37.798  35.446  42.026  1.00  0.00    -0.237 OA
ATOM     77  O   UNL A   1      37.314  33.237  41.042  1.00  0.00    -0.744 OA
ENDBRANCH  70  74
ENDBRANCH  53  67
BRANCH  54  78
ATOM     78  C   UNL A   1      40.601  28.700  29.755  1.00  0.00     0.023 A 
ATOM     79  C   UNL A   1      41.571  29.000  28.785  1.00  0.00     0.031 A 
ATOM     80  C   UNL A   1      39.643  27.718  29.447  1.00  0.00     0.131 A 
ATOM     81  C   UNL A   1      41.531  28.366  27.534  1.00  0.00     0.055 A 
ATOM     82  C   UNL A   1      39.639  27.050  28.221  1.00  0.00     0.041 A 
ATOM     83  F   UNL A   1      38.698  27.387  30.341  1.00  0.00    -0.206 F 
ATOM     84  C   UNL A   1      40.579  27.384  27.250  1.00  0.00     0.022 A 
BRANCH  81  85
ATOM     85  S   UNL A   1      42.689  28.907  26.247  1.00  0.00     0.124 S 
ATOM     86  O   UNL A   1      43.022  30.254  26.695  1.00  0.00    -0.237 OA
ATOM     87  O   UNL A   1      43.750  27.913  26.358  1.00  0.00    -0.237 OA
ATOM     88  O   UNL A   1      41.895  28.835  25.023  1.00  0.00    -0.744 OA
ENDBRANCH  81  85
ENDBRANCH  54  78
BRANCH  66  89
ATOM     89  C   UNL A   1      44.574  28.499  35.479  1.00  0.00     0.023 A 
ATOM     90  C   UNL A   1      44.380  27.246  36.088  1.00  0.00     0.031 A 
ATOM     91  C   UNL A   1      45.897  28.935  35.278  1.00  0.00     0.131 A 
ATOM     92  C   UNL A   1      45.485  26.511  36.545  1.00  0.00     0.055 A 
ATOM     93  C   UNL A   1      46.993  28.168  35.671  1.00  0.00     0.041 A 
ATOM     94  F   UNL A   1      46.145  30.122  34.702  1.00  0.00    -0.206 F 
ATOM     95  C   UNL A   1      46.791  26.956  36.326  1.00  0.00     0.022 A 
BRANCH  92  96
ATOM     96  S   UNL A   1      45.188  25.026  37.544  1.00  0.00     0.124 S 
ATOM     97  O   UNL A   1      44.574  25.585  38.744  1.00  0.00    -0.237 OA
ATOM     98  O   UNL A   1      44.310  24.242  36.683  1.00  0.00    -0.237 OA
ATOM     99  O   UNL A   1      46.526  24.469  37.736  1.00  0.00    -0.744 OA
ENDBRANCH  92  96
ENDBRANCH  66  89
ENDBRANCH  40  41
ENDBRANCH  32  35
ENDBRANCH  30  31
ENDBRANCH  29  30
ENDBRANCH   1  29
TORSDOF 17
ENDMDL
MODEL 3
REMARK VINA RESULT:      -9.2      5.339      7.864
REMARK SMILES O=C(/C=C/c1ccc(S(=O)(=O)Nc2ccc3c(c2)OCCO3)cc1)NCCCNC(=O)c1ccc(-c2c3nc(c(-c4cc(S(=O)(=O)[O-])ccc4F)c4ccc([nH]4)c(-c4cc(S(=O)(=O)[O-])ccc4F)c4nc(c(-c5cc(S(=O)(=O)[O-])ccc5F)c5ccc2[nH]5)C=C4)C=C3)cc1
REMARK SMILES IDX 26 1 25 2 1 3 2 4 3 6 4 7 5 8 6 9 24 10 7 11 23 12 8 13 9 14
REMARK SMILES IDX 10 15 11 16 12 17 13 19 14 20 18 21 15 22 17 23 16 24 19 25
REMARK SMILES IDX 22 26 20 27 21 28 27 29 28 30 29 31 30 32 31 34 32 35 33 36
REMARK SMILES IDX 94 37 34 38 93 39 35 40 36 41 37 42 87 43 38 44 92 45 86 46
REMARK SMILES IDX 88 47 39 48 91 49 85 50 84 51 40 53 72 54 52 55 71 56 53 57
REMARK SMILES IDX 56 58 70 59 89 60 54 61 55 62 69 64 90 65 57 66 41 67 42 68
REMARK SMILES IDX 50 69 43 70 49 71 51 72 48 73 44 74 45 75 46 76 47 77 73 78
REMARK SMILES IDX 74 79 82 80 75 81 81 82 83 83 80 84 76 85 77 86 78 87 79 88
REMARK SMILES IDX 58 89 59 90 67 91 60 92 66 93 68 94 65 95 61 96 62 97 63 98
REMARK SMILES IDX 64 99
REMARK H PARENT 25 5 12 18 29 33 88 52 56 63
REMARK Flexibility Score: inf
ROOT
ATOM      1  C   UNL A   1      34.360  32.759  28.555  1.00  0.00     0.118 C 
ENDROOT
BRANCH   1   2
ATOM      2  N   UNL A   1      33.999  31.445  28.051  1.00  0.00    -0.352 N 
ATOM      3  O   UNL A   1      36.151  30.784  27.608  1.00  0.00    -0.270 OA
ATOM      4  C   UNL A   1      34.945  30.559  27.609  1.00  0.00     0.244 C 
ATOM      5  H   UNL A   1      33.050  31.185  28.026  1.00  0.00     0.163 HD
BRANCH   4   6
ATOM      6  C   UNL A   1      34.468  29.214  27.185  1.00  0.00     0.072 C 
ATOM      7  C   UNL A   1      33.468  28.931  26.333  1.00  0.00     0.014 C 
BRANCH   7   8
ATOM      8  C   UNL A   1      33.034  27.567  25.943  1.00  0.00    -0.025 A 
ATOM      9  C   UNL A   1      33.430  27.064  24.694  1.00  0.00     0.009 A 
ATOM     10  C   UNL A   1      32.235  26.743  26.749  1.00  0.00     0.009 A 
ATOM     11  C   UNL A   1      32.983  25.814  24.239  1.00  0.00     0.023 A 
ATOM     12  C   UNL A   1      31.829  25.468  26.321  1.00  0.00     0.023 A 
ATOM     13  C   UNL A   1      32.157  25.022  25.045  1.00  0.00     0.087 A 
BRANCH  13  14
ATOM     14  S   UNL A   1      31.551  23.477  24.383  1.00  0.00     0.261 S 
ATOM     15  O   UNL A   1      30.645  22.921  25.379  1.00  0.00    -0.201 OA
ATOM     16  O   UNL A   1      31.093  23.725  23.040  1.00  0.00    -0.201 OA
BRANCH  14  17
ATOM     17  N   UNL A   1      32.832  22.321  24.274  1.00  0.00    -0.279 N 
ATOM     18  H   UNL A   1      33.772  22.583  24.406  1.00  0.00     0.180 HD
BRANCH  17  19
ATOM     19  C   UNL A   1      32.464  20.967  23.985  1.00  0.00     0.053 A 
ATOM     20  C   UNL A   1      32.182  20.656  22.649  1.00  0.00     0.031 A 
ATOM     21  C   UNL A   1      32.529  19.970  24.952  1.00  0.00     0.077 A 
ATOM     22  C   UNL A   1      32.199  19.327  22.235  1.00  0.00     0.052 A 
ATOM     23  C   UNL A   1      32.620  18.653  24.529  1.00  0.00     0.163 A 
ATOM     24  C   UNL A   1      32.520  18.346  23.166  1.00  0.00     0.161 A 
ATOM     25  O   UNL A   1      32.956  17.735  25.488  1.00  0.00    -0.486 OA
ATOM     26  O   UNL A   1      32.866  17.108  22.684  1.00  0.00    -0.486 OA
ATOM     27  C   UNL A   1      33.409  16.486  24.949  1.00  0.00     0.271 C 
ATOM     28  C   UNL A   1      33.921  16.609  23.520  1.00  0.00     0.271 C 
ENDBRANCH  17  19
ENDBRANCH  14  17
ENDBRANCH  13  14
ENDBRANCH   7   8
ENDBRANCH   4   6
ENDBRANCH   1   2
BRANCH   1  29
ATOM     29  C   UNL A   1      33.277  33.807  28.314  1.00  0.00     0.042 C 
BRANCH  29  30
ATOM     30  C   UNL A   1      33.571  35.177  28.919  1.00  0.00     0.118 C 
BRANCH  30  31
ATOM     31  N   UNL A   1      32.906  35.390  30.194  1.00  0.00    -0.352 N 
ATOM     32  C   UNL A   1      33.222  34.949  31.455  1.00  0.00     0.251 C 
ATOM     33  H   UNL A   1      32.092  35.944  30.145  1.00  0.00     0.163 HD
ATOM     34  O   UNL A   1      32.411  35.142  32.359  1.00  0.00    -0.269 OA
BRANCH  32  35
ATOM     35  C   UNL A   1      34.491  34.236  31.738  1.00  0.00     0.039 A 
ATOM     36  C   UNL A   1      34.423  32.992  32.376  1.00  0.00     0.014 A 
ATOM     37  C   UNL A   1      35.741  34.792  31.447  1.00  0.00     0.014 A 
ATOM     38  C   UNL A   1      35.596  32.297  32.687  1.00  0.00     0.010 A 
ATOM     39  C   UNL A   1      36.907  34.063  31.690  1.00  0.00     0.010 A 
ATOM     40  C   UNL A   1      36.850  32.815  32.329  1.00  0.00    -0.014 A 
BRANCH  40  41
ATOM     41  C   UNL A   1      38.100  32.075  32.656  1.00  0.00     0.031 A 
ATOM     42  C   UNL A   1      38.846  32.370  33.932  1.00  0.00     0.074 A 
ATOM     43  C   UNL A   1      38.575  31.151  31.798  1.00  0.00     0.049 A 
ATOM     44  N   UNL A   1      39.950  31.835  34.390  1.00  0.00    -0.248 NA
ATOM     45  C   UNL A   1      38.292  33.424  34.792  1.00  0.00     0.031 C 
ATOM     46  C   UNL A   1      37.970  30.806  30.509  1.00  0.00     0.029 A 
ATOM     47  N   UNL A   1      39.674  30.330  31.878  1.00  0.00    -0.354 N 
ATOM     48  C   UNL A   1      40.228  32.494  35.584  1.00  0.00     0.074 A 
ATOM     49  C   UNL A   1      39.212  33.514  35.740  1.00  0.00     0.031 C 
ATOM     50  C   UNL A   1      38.686  29.824  29.937  1.00  0.00     0.029 A 
ATOM     51  C   UNL A   1      39.819  29.493  30.796  1.00  0.00     0.049 A 
ATOM     52  H   UNL A   1      40.298  30.341  32.638  1.00  0.00     0.167 HD
ATOM     53  C   UNL A   1      41.219  32.255  36.480  1.00  0.00     0.034 A 
ATOM     54  C   UNL A   1      40.756  28.562  30.526  1.00  0.00     0.034 A 
ATOM     55  C   UNL A   1      42.219  31.228  36.316  1.00  0.00     0.049 A 
ATOM     56  C   UNL A   1      41.845  28.310  31.540  1.00  0.00     0.074 A 
ATOM     57  C   UNL A   1      43.246  30.875  37.177  1.00  0.00     0.029 A 
ATOM     58  N   UNL A   1      42.324  30.386  35.216  1.00  0.00    -0.354 N 
ATOM     59  N   UNL A   1      42.062  28.907  32.688  1.00  0.00    -0.248 NA
ATOM     60  C   UNL A   1      42.799  27.238  31.228  1.00  0.00     0.031 C 
ATOM     61  C   UNL A   1      44.005  29.867  36.571  1.00  0.00     0.029 A 
ATOM     62  C   UNL A   1      43.407  29.532  35.366  1.00  0.00     0.049 A 
ATOM     63  H   UNL A   1      41.718  30.395  34.439  1.00  0.00     0.167 HD
ATOM     64  C   UNL A   1      43.156  28.255  33.253  1.00  0.00     0.074 A 
ATOM     65  C   UNL A   1      43.538  27.210  32.326  1.00  0.00     0.031 C 
ATOM     66  C   UNL A   1      43.784  28.494  34.434  1.00  0.00     0.034 A 
BRANCH  53  67
ATOM     67  C   UNL A   1      41.275  33.143  37.704  1.00  0.00     0.023 A 
ATOM     68  C   UNL A   1      40.615  32.798  38.898  1.00  0.00     0.031 A 
ATOM     69  C   UNL A   1      41.968  34.366  37.669  1.00  0.00     0.131 A 
ATOM     70  C   UNL A   1      40.589  33.700  39.972  1.00  0.00     0.055 A 
ATOM     71  C   UNL A   1      42.012  35.219  38.775  1.00  0.00     0.041 A 
ATOM     72  F   UNL A   1      42.601  34.762  36.554  1.00  0.00    -0.206 F 
ATOM     73  C   UNL A   1      41.305  34.897  39.928  1.00  0.00     0.022 A 
BRANCH  70  74
ATOM     74  S   UNL A   1      39.475  33.357  41.363  1.00  0.00     0.124 S 
ATOM     75  O   UNL A   1      38.215  33.914  40.875  1.00  0.00    -0.237 OA
ATOM     76  O   UNL A   1      39.535  31.904  41.465  1.00  0.00    -0.237 OA
ATOM     77  O   UNL A   1      40.080  34.087  42.475  1.00  0.00    -0.744 OA
ENDBRANCH  70  74
ENDBRANCH  53  67
BRANCH  54  78
ATOM     78  C   UNL A   1      40.708  27.787  29.254  1.00  0.00     0.023 A 
ATOM     79  C   UNL A   1      41.593  28.068  28.200  1.00  0.00     0.031 A 
ATOM     80  C   UNL A   1      39.744  26.783  29.055  1.00  0.00     0.131 A 
ATOM     81  C   UNL A   1      41.462  27.393  26.977  1.00  0.00     0.055 A 
ATOM     82  C   UNL A   1      39.653  26.075  27.855  1.00  0.00     0.041 A 
ATOM     83  F   UNL A   1      38.879  26.470  30.033  1.00  0.00    -0.206 F 
ATOM     84  C   UNL A   1      40.506  26.390  26.801  1.00  0.00     0.022 A 
BRANCH  81  85
ATOM     85  S   UNL A   1      42.505  27.907  25.585  1.00  0.00     0.124 S 
ATOM     86  O   UNL A   1      43.817  27.998  26.214  1.00  0.00    -0.237 OA
ATOM     87  O   UNL A   1      42.319  26.806  24.645  1.00  0.00    -0.237 OA
ATOM     88  O   UNL A   1      41.919  29.180  25.173  1.00  0.00    -0.744 OA
ENDBRANCH  81  85
ENDBRANCH  54  78
BRANCH  66  89
ATOM     89  C   UNL A   1      44.913  27.564  34.809  1.00  0.00     0.023 A 
ATOM     90  C   UNL A   1      44.685  26.346  35.475  1.00  0.00     0.031 A 
ATOM     91  C   UNL A   1      46.245  27.922  34.530  1.00  0.00     0.131 A 
ATOM     92  C   UNL A   1      45.772  25.571  35.908  1.00  0.00     0.055 A 
ATOM     93  C   UNL A   1      47.319  27.113  34.901  1.00  0.00     0.041 A 
ATOM     94  F   UNL A   1      46.524  29.073  33.897  1.00  0.00    -0.206 F 
ATOM     95  C   UNL A   1      47.087  25.939  35.613  1.00  0.00     0.022 A 
BRANCH  92  96
ATOM     96  S   UNL A   1      45.449  24.142  36.978  1.00  0.00     0.124 S 
ATOM     97  O   UNL A   1      44.648  24.734  38.045  1.00  0.00    -0.237 OA
ATOM     98  O   UNL A   1      44.745  23.234  36.080  1.00  0.00    -0.237 OA
ATOM     99  O   UNL A   1      46.785  23.704  37.379  1.00  0.00    -0.744 OA
ENDBRANCH  92  96
ENDBRANCH  66  89
ENDBRANCH  40  41
ENDBRANCH  32  35
ENDBRANCH  30  31
ENDBRANCH  29  30
ENDBRANCH   1  29
TORSDOF 17
ENDMDL
