MODEL 1
REMARK VINA RESULT:     -12.8      0.000      0.000
REMARK SMILES Cc1cc2c(c(C)c1Cl)C=C(C(=O)NCCCNC(=O)c1ccc(-c3c4nc(c(-c5cc(S(=O)(=O)[O-])ccc5F)c5ccc([nH]5)c(-c5cc(S(=O)(=O)[O-])ccc5F)c5nc(c(-c6cc(S(=O)(=O)[O-])ccc6F)c6ccc3[nH]6)C=C5)C=C4)cc1)[C@@H](C(F)(F)F)O2
REMARK SMILES IDX 17 1 16 2 15 3 14 4 12 5 13 6 11 8 1 9 2 10 3 11 8 12 4 13
REMARK SMILES IDX 6 14 9 15 5 16 89 17 7 18 10 19 84 20 85 21 86 22 87 23
REMARK SMILES IDX 88 24 18 25 19 26 20 28 21 29 22 30 83 31 23 32 82 33 24 34
REMARK SMILES IDX 25 35 26 36 76 37 27 38 81 39 75 40 77 41 28 42 80 43 74 44
REMARK SMILES IDX 73 45 29 47 61 48 41 49 60 50 42 51 45 52 59 53 78 54 43 55
REMARK SMILES IDX 44 56 58 58 79 59 46 60 30 61 31 62 39 63 32 64 38 65 40 66
REMARK SMILES IDX 37 67 33 68 34 69 35 70 36 71 62 72 63 73 71 74 64 75 70 76
REMARK SMILES IDX 72 77 69 78 65 79 66 80 67 81 68 82 47 83 48 84 56 85 49 86
REMARK SMILES IDX 55 87 57 88 54 89 50 90 51 91 52 92 53 93
REMARK H PARENT 14 7 18 27 77 46 45 57
REMARK Flexibility Score: inf
ROOT
ATOM      1  C   UNL A   1      32.704  32.172  27.189  1.00  0.00     0.118 C 
ENDROOT
BRANCH   1   2
ATOM      2  C   UNL A   1      31.411  31.622  26.603  1.00  0.00     0.042 C 
BRANCH   2   3
ATOM      3  C   UNL A   1      31.658  30.455  25.659  1.00  0.00     0.118 C 
BRANCH   3   4
ATOM      4  N   UNL A   1      30.715  30.442  24.550  1.00  0.00    -0.352 N 
ATOM      5  C   UNL A   1      30.318  29.572  23.593  1.00  0.00     0.251 C 
ATOM      6  O   UNL A   1      29.440  29.991  22.831  1.00  0.00    -0.270 OA
ATOM      7  H   UNL A   1      30.236  31.300  24.474  1.00  0.00     0.163 HD
BRANCH   5   8
ATOM      8  C   UNL A   1      30.850  28.189  23.417  1.00  0.00     0.067 C 
ATOM      9  C   UNL A   1      32.272  21.842  23.504  1.00  0.00     0.046 C 
ATOM     10  C   UNL A   1      31.742  23.226  23.759  1.00  0.00    -0.028 A 
ATOM     11  C   UNL A   1      32.054  24.232  22.843  1.00  0.00     0.052 A 
ATOM     12  C   UNL A   1      30.972  23.553  24.895  1.00  0.00     0.047 A 
ATOM     13  C   UNL A   1      31.605  25.532  23.043  1.00  0.00     0.128 A 
ATOM     14  C   UNL A   1      30.492  24.871  25.100  1.00  0.00    -0.021 A 
ATOM     15  Cl  UNL A   1      30.625  22.295  26.043  1.00  0.00    -0.084 Cl
ATOM     16  C   UNL A   1      30.816  25.867  24.147  1.00  0.00     0.022 A 
ATOM     17  O   UNL A   1      31.953  26.421  22.068  1.00  0.00    -0.475 OA
ATOM     18  C   UNL A   1      29.644  25.235  26.297  1.00  0.00     0.047 C 
ATOM     19  C   UNL A   1      30.334  27.250  24.233  1.00  0.00     0.026 C 
ATOM     20  C   UNL A   1      31.913  27.824  22.428  1.00  0.00     0.314 C 
BRANCH  20  21
ATOM     21  C   UNL A   1      33.317  28.279  22.874  1.00  0.00     0.429 C 
ATOM     22  F   UNL A   1      33.590  27.826  24.122  1.00  0.00    -0.167 F 
ATOM     23  F   UNL A   1      34.300  27.807  22.071  1.00  0.00    -0.167 F 
ATOM     24  F   UNL A   1      33.446  29.625  22.893  1.00  0.00    -0.167 F 
ENDBRANCH  20  21
ENDBRANCH   5   8
ENDBRANCH   3   4
ENDBRANCH   2   3
ENDBRANCH   1   2
BRANCH   1  25
ATOM     25  N   UNL A   1      32.614  33.609  27.437  1.00  0.00    -0.352 N 
ATOM     26  C   UNL A   1      33.187  34.372  28.422  1.00  0.00     0.251 C 
ATOM     27  H   UNL A   1      32.055  34.107  26.797  1.00  0.00     0.163 HD
ATOM     28  O   UNL A   1      32.747  35.500  28.645  1.00  0.00    -0.269 OA
BRANCH  26  29
ATOM     29  C   UNL A   1      34.317  33.840  29.206  1.00  0.00     0.039 A 
ATOM     30  C   UNL A   1      34.072  32.943  30.247  1.00  0.00     0.014 A 
ATOM     31  C   UNL A   1      35.622  34.252  28.925  1.00  0.00     0.014 A 
ATOM     32  C   UNL A   1      35.146  32.410  30.962  1.00  0.00     0.010 A 
ATOM     33  C   UNL A   1      36.693  33.645  29.566  1.00  0.00     0.010 A 
ATOM     34  C   UNL A   1      36.466  32.731  30.603  1.00  0.00    -0.014 A 
BRANCH  34  35
ATOM     35  C   UNL A   1      37.626  32.154  31.323  1.00  0.00     0.031 A 
ATOM     36  C   UNL A   1      38.416  31.042  30.685  1.00  0.00     0.074 A 
ATOM     37  C   UNL A   1      37.933  32.594  32.559  1.00  0.00     0.049 A 
ATOM     38  N   UNL A   1      39.408  30.349  31.179  1.00  0.00    -0.248 NA
ATOM     39  C   UNL A   1      38.018  30.635  29.327  1.00  0.00     0.031 C 
ATOM     40  C   UNL A   1      37.214  33.645  33.284  1.00  0.00     0.029 A 
ATOM     41  N   UNL A   1      38.928  32.217  33.424  1.00  0.00    -0.354 N 
ATOM     42  C   UNL A   1      39.746  29.423  30.198  1.00  0.00     0.074 A 
ATOM     43  C   UNL A   1      38.812  29.597  29.109  1.00  0.00     0.031 C 
ATOM     44  C   UNL A   1      37.818  33.856  34.464  1.00  0.00     0.029 A 
ATOM     45  C   UNL A   1      38.934  32.927  34.602  1.00  0.00     0.049 A 
ATOM     46  H   UNL A   1      39.577  31.505  33.220  1.00  0.00     0.167 HD
ATOM     47  C   UNL A   1      40.764  28.532  30.194  1.00  0.00     0.034 A 
ATOM     48  C   UNL A   1      39.745  32.833  35.675  1.00  0.00     0.034 A 
ATOM     49  C   UNL A   1      41.708  28.394  31.271  1.00  0.00     0.049 A 
ATOM     50  C   UNL A   1      40.853  31.812  35.658  1.00  0.00     0.074 A 
ATOM     51  C   UNL A   1      42.807  27.559  31.349  1.00  0.00     0.029 A 
ATOM     52  N   UNL A   1      41.667  29.115  32.457  1.00  0.00    -0.354 N 
ATOM     53  N   UNL A   1      41.169  30.957  34.713  1.00  0.00    -0.248 NA
ATOM     54  C   UNL A   1      41.712  31.742  36.846  1.00  0.00     0.031 C 
ATOM     55  C   UNL A   1      43.395  27.729  32.605  1.00  0.00     0.029 A 
ATOM     56  C   UNL A   1      42.704  28.721  33.285  1.00  0.00     0.049 A 
ATOM     57  H   UNL A   1      40.999  29.803  32.678  1.00  0.00     0.167 HD
ATOM     58  C   UNL A   1      42.276  30.260  35.187  1.00  0.00     0.074 A 
ATOM     59  C   UNL A   1      42.578  30.801  36.496  1.00  0.00     0.031 C 
ATOM     60  C   UNL A   1      42.979  29.266  34.592  1.00  0.00     0.034 A 
BRANCH  47  61
ATOM     61  C   UNL A   1      40.911  27.639  28.990  1.00  0.00     0.023 A 
ATOM     62  C   UNL A   1      41.896  27.878  28.017  1.00  0.00     0.031 A 
ATOM     63  C   UNL A   1      40.074  26.522  28.826  1.00  0.00     0.131 A 
ATOM     64  C   UNL A   1      41.993  27.035  26.900  1.00  0.00     0.055 A 
ATOM     65  C   UNL A   1      40.217  25.650  27.746  1.00  0.00     0.041 A 
ATOM     66  F   UNL A   1      39.103  26.261  29.716  1.00  0.00    -0.206 F 
ATOM     67  C   UNL A   1      41.178  25.908  26.772  1.00  0.00     0.022 A 
BRANCH  64  68
ATOM     68  S   UNL A   1      43.151  27.476  25.578  1.00  0.00     0.124 S 
ATOM     69  O   UNL A   1      42.297  28.255  24.686  1.00  0.00    -0.237 OA
ATOM     70  O   UNL A   1      44.180  28.223  26.291  1.00  0.00    -0.237 OA
ATOM     71  O   UNL A   1      43.577  26.180  25.050  1.00  0.00    -0.744 OA
ENDBRANCH  64  68
ENDBRANCH  47  61
BRANCH  48  72
ATOM     72  C   UNL A   1      39.540  33.727  36.847  1.00  0.00     0.023 A 
ATOM     73  C   UNL A   1      38.923  33.254  38.015  1.00  0.00     0.031 A 
ATOM     74  C   UNL A   1      39.963  35.068  36.820  1.00  0.00     0.131 A 
ATOM     75  C   UNL A   1      38.724  34.121  39.101  1.00  0.00     0.055 A 
ATOM     76  C   UNL A   1      39.800  35.916  37.917  1.00  0.00     0.041 A 
ATOM     77  F   UNL A   1      40.569  35.566  35.729  1.00  0.00    -0.206 F 
ATOM     78  C   UNL A   1      39.170  35.445  39.064  1.00  0.00     0.022 A 
BRANCH  75  79
ATOM     79  S   UNL A   1      37.841  33.503  40.559  1.00  0.00     0.124 S 
ATOM     80  O   UNL A   1      37.778  34.696  41.396  1.00  0.00    -0.237 OA
ATOM     81  O   UNL A   1      36.577  33.054  39.983  1.00  0.00    -0.237 OA
ATOM     82  O   UNL A   1      38.708  32.435  41.055  1.00  0.00    -0.744 OA
ENDBRANCH  75  79
ENDBRANCH  48  72
BRANCH  60  83
ATOM     83  C   UNL A   1      44.159  28.707  35.340  1.00  0.00     0.023 A 
ATOM     84  C   UNL A   1      44.005  27.675  36.280  1.00  0.00     0.031 A 
ATOM     85  C   UNL A   1      45.458  29.170  35.063  1.00  0.00     0.131 A 
ATOM     86  C   UNL A   1      45.131  27.153  36.930  1.00  0.00     0.055 A 
ATOM     87  C   UNL A   1      46.579  28.613  35.677  1.00  0.00     0.041 A 
ATOM     88  F   UNL A   1      45.655  30.151  34.168  1.00  0.00    -0.206 F 
ATOM     89  C   UNL A   1      46.419  27.602  36.619  1.00  0.00     0.022 A 
BRANCH  86  90
ATOM     90  S   UNL A   1      44.891  25.897  38.214  1.00  0.00     0.124 S 
ATOM     91  O   UNL A   1      46.266  25.570  38.578  1.00  0.00    -0.237 OA
ATOM     92  O   UNL A   1      44.121  26.619  39.221  1.00  0.00    -0.237 OA
ATOM     93  O   UNL A   1      44.162  24.835  37.523  1.00  0.00    -0.744 OA
ENDBRANCH  86  90
ENDBRANCH  60  83
ENDBRANCH  34  35
ENDBRANCH  26  29
ENDBRANCH   1  25
TORSDOF 14
ENDMDL
MODEL 2
REMARK VINA RESULT:     -12.7      5.797     10.736
REMARK SMILES Cc1cc2c(c(C)c1Cl)C=C(C(=O)NCCCNC(=O)c1ccc(-c3c4nc(c(-c5cc(S(=O)(=O)[O-])ccc5F)c5ccc([nH]5)c(-c5cc(S(=O)(=O)[O-])ccc5F)c5nc(c(-c6cc(S(=O)(=O)[O-])ccc6F)c6ccc3[nH]6)C=C5)C=C4)cc1)[C@@H](C(F)(F)F)O2
REMARK SMILES IDX 17 1 16 2 15 3 14 4 12 5 13 6 11 8 1 9 2 10 3 11 8 12 4 13
REMARK SMILES IDX 6 14 9 15 5 16 89 17 7 18 10 19 84 20 85 21 86 22 87 23
REMARK SMILES IDX 88 24 18 25 19 26 20 28 21 29 22 30 83 31 23 32 82 33 24 34
REMARK SMILES IDX 25 35 26 36 76 37 27 38 81 39 75 40 77 41 28 42 80 43 74 44
REMARK SMILES IDX 73 45 29 47 61 48 41 49 60 50 42 51 45 52 59 53 78 54 43 55
REMARK SMILES IDX 44 56 58 58 79 59 46 60 30 61 31 62 39 63 32 64 38 65 40 66
REMARK SMILES IDX 37 67 33 68 34 69 35 70 36 71 62 72 63 73 71 74 64 75 70 76
REMARK SMILES IDX 72 77 69 78 65 79 66 80 67 81 68 82 47 83 48 84 56 85 49 86
REMARK SMILES IDX 55 87 57 88 54 89 50 90 51 91 52 92 53 93
REMARK H PARENT 14 7 18 27 77 46 45 57
REMARK Flexibility Score: inf
ROOT
ATOM      1  C   UNL A   1      35.796  22.156  26.502  1.00  0.00     0.118 C 
ENDROOT
BRANCH   1   2
ATOM      2  C   UNL A   1      34.377  21.602  26.524  1.00  0.00     0.042 C 
BRANCH   2   3
ATOM      3  C   UNL A   1      33.551  22.091  25.345  1.00  0.00     0.118 C 
BRANCH   3   4
ATOM      4  N   UNL A   1      34.387  22.565  24.252  1.00  0.00    -0.352 N 
ATOM      5  C   UNL A   1      34.398  23.605  23.387  1.00  0.00     0.251 C 
ATOM      6  O   UNL A   1      35.348  23.625  22.597  1.00  0.00    -0.270 OA
ATOM      7  H   UNL A   1      35.154  21.966  24.100  1.00  0.00     0.163 HD
BRANCH   5   8
ATOM      8  C   UNL A   1      33.376  24.691  23.339  1.00  0.00     0.067 C 
ATOM      9  C   UNL A   1      29.783  30.095  23.791  1.00  0.00     0.046 C 
ATOM     10  C   UNL A   1      30.819  29.013  23.917  1.00  0.00    -0.028 A 
ATOM     11  C   UNL A   1      30.727  27.908  23.069  1.00  0.00     0.052 A 
ATOM     12  C   UNL A   1      31.857  29.054  24.872  1.00  0.00     0.047 A 
ATOM     13  C   UNL A   1      31.648  26.872  23.157  1.00  0.00     0.128 A 
ATOM     14  C   UNL A   1      32.814  28.012  24.960  1.00  0.00    -0.021 A 
ATOM     15  Cl  UNL A   1      31.933  30.419  25.945  1.00  0.00    -0.084 Cl
ATOM     16  C   UNL A   1      32.700  26.909  24.078  1.00  0.00     0.022 A 
ATOM     17  O   UNL A   1      31.469  25.859  22.260  1.00  0.00    -0.475 OA
ATOM     18  C   UNL A   1      33.947  28.049  25.959  1.00  0.00     0.047 C 
ATOM     19  C   UNL A   1      33.660  25.800  24.048  1.00  0.00     0.026 C 
ATOM     20  C   UNL A   1      32.086  24.590  22.586  1.00  0.00     0.314 C 
BRANCH  20  21
ATOM     21  C   UNL A   1      31.056  23.688  23.296  1.00  0.00     0.429 C 
ATOM     22  F   UNL A   1      29.800  23.977  22.876  1.00  0.00    -0.167 F 
ATOM     23  F   UNL A   1      31.251  22.372  23.045  1.00  0.00    -0.167 F 
ATOM     24  F   UNL A   1      31.076  23.832  24.641  1.00  0.00    -0.167 F 
ENDBRANCH  20  21
ENDBRANCH   5   8
ENDBRANCH   3   4
ENDBRANCH   2   3
ENDBRANCH   1   2
BRANCH   1  25
ATOM     25  N   UNL A   1      36.767  21.132  26.124  1.00  0.00    -0.352 N 
ATOM     26  C   UNL A   1      38.108  21.243  25.860  1.00  0.00     0.251 C 
ATOM     27  H   UNL A   1      36.402  20.222  26.047  1.00  0.00     0.163 HD
ATOM     28  O   UNL A   1      38.684  20.334  25.263  1.00  0.00    -0.269 OA
BRANCH  26  29
ATOM     29  C   UNL A   1      38.849  22.445  26.288  1.00  0.00     0.039 A 
ATOM     30  C   UNL A   1      39.978  22.307  27.097  1.00  0.00     0.014 A 
ATOM     31  C   UNL A   1      38.408  23.715  25.906  1.00  0.00     0.014 A 
ATOM     32  C   UNL A   1      40.701  23.443  27.467  1.00  0.00     0.010 A 
ATOM     33  C   UNL A   1      39.183  24.830  26.189  1.00  0.00     0.010 A 
ATOM     34  C   UNL A   1      40.328  24.709  26.987  1.00  0.00    -0.014 A 
BRANCH  34  35
ATOM     35  C   UNL A   1      41.096  25.927  27.336  1.00  0.00     0.031 A 
ATOM     36  C   UNL A   1      40.461  26.982  28.203  1.00  0.00     0.074 A 
ATOM     37  C   UNL A   1      42.335  26.103  26.836  1.00  0.00     0.049 A 
ATOM     38  N   UNL A   1      40.929  28.150  28.555  1.00  0.00    -0.248 NA
ATOM     39  C   UNL A   1      39.110  26.698  28.716  1.00  0.00     0.031 C 
ATOM     40  C   UNL A   1      43.034  25.160  25.960  1.00  0.00     0.029 A 
ATOM     41  N   UNL A   1      43.227  27.132  26.993  1.00  0.00    -0.354 N 
ATOM     42  C   UNL A   1      39.931  28.741  29.321  1.00  0.00     0.074 A 
ATOM     43  C   UNL A   1      38.806  27.833  29.328  1.00  0.00     0.031 C 
ATOM     44  C   UNL A   1      44.261  25.635  25.692  1.00  0.00     0.029 A 
ATOM     45  C   UNL A   1      44.420  26.935  26.335  1.00  0.00     0.049 A 
ATOM     46  H   UNL A   1      43.034  27.936  27.526  1.00  0.00     0.167 HD
ATOM     47  C   UNL A   1      39.963  29.920  29.985  1.00  0.00     0.034 A 
ATOM     48  C   UNL A   1      45.514  27.718  26.255  1.00  0.00     0.034 A 
ATOM     49  C   UNL A   1      41.103  30.797  29.997  1.00  0.00     0.049 A 
ATOM     50  C   UNL A   1      45.514  29.038  26.979  1.00  0.00     0.074 A 
ATOM     51  C   UNL A   1      41.261  31.990  30.677  1.00  0.00     0.029 A 
ATOM     52  N   UNL A   1      42.282  30.573  29.300  1.00  0.00    -0.354 N 
ATOM     53  N   UNL A   1      44.566  29.573  27.714  1.00  0.00    -0.248 NA
ATOM     54  C   UNL A   1      46.725  29.861  26.864  1.00  0.00     0.031 C 
ATOM     55  C   UNL A   1      42.511  32.519  30.344  1.00  0.00     0.029 A 
ATOM     56  C   UNL A   1      43.161  31.622  29.510  1.00  0.00     0.049 A 
ATOM     57  H   UNL A   1      42.467  29.786  28.739  1.00  0.00     0.167 HD
ATOM     58  C   UNL A   1      45.075  30.787  28.165  1.00  0.00     0.074 A 
ATOM     59  C   UNL A   1      46.416  30.901  27.628  1.00  0.00     0.031 C 
ATOM     60  C   UNL A   1      44.489  31.720  28.954  1.00  0.00     0.034 A 
BRANCH  47  61
ATOM     61  C   UNL A   1      38.733  30.328  30.752  1.00  0.00     0.023 A 
ATOM     62  C   UNL A   1      37.701  31.063  30.145  1.00  0.00     0.031 A 
ATOM     63  C   UNL A   1      38.579  29.956  32.099  1.00  0.00     0.131 A 
ATOM     64  C   UNL A   1      36.578  31.440  30.896  1.00  0.00     0.055 A 
ATOM     65  C   UNL A   1      37.429  30.278  32.822  1.00  0.00     0.041 A 
ATOM     66  F   UNL A   1      39.544  29.270  32.732  1.00  0.00    -0.206 F 
ATOM     67  C   UNL A   1      36.423  31.030  32.222  1.00  0.00     0.022 A 
BRANCH  64  68
ATOM     68  S   UNL A   1      35.354  32.540  30.135  1.00  0.00     0.124 S 
ATOM     69  O   UNL A   1      34.953  31.766  28.962  1.00  0.00    -0.237 OA
ATOM     70  O   UNL A   1      34.351  32.675  31.184  1.00  0.00    -0.237 OA
ATOM     71  O   UNL A   1      36.118  33.752  29.843  1.00  0.00    -0.744 OA
ENDBRANCH  64  68
ENDBRANCH  47  61
BRANCH  48  72
ATOM     72  C   UNL A   1      46.694  27.274  25.463  1.00  0.00     0.023 A 
ATOM     73  C   UNL A   1      46.904  27.742  24.158  1.00  0.00     0.031 A 
ATOM     74  C   UNL A   1      47.635  26.378  26.004  1.00  0.00     0.131 A 
ATOM     75  C   UNL A   1      48.014  27.295  23.425  1.00  0.00     0.055 A 
ATOM     76  C   UNL A   1      48.759  25.968  25.286  1.00  0.00     0.041 A 
ATOM     77  F   UNL A   1      47.485  25.910  27.254  1.00  0.00    -0.206 F 
ATOM     78  C   UNL A   1      48.950  26.422  23.985  1.00  0.00     0.022 A 
BRANCH  75  79
ATOM     79  S   UNL A   1      48.204  27.847  21.708  1.00  0.00     0.124 S 
ATOM     80  O   UNL A   1      48.441  26.586  21.015  1.00  0.00    -0.237 OA
ATOM     81  O   UNL A   1      46.921  28.492  21.450  1.00  0.00    -0.237 OA
ATOM     82  O   UNL A   1      49.351  28.753  21.766  1.00  0.00    -0.744 OA
ENDBRANCH  75  79
ENDBRANCH  48  72
BRANCH  60  83
ATOM     83  C   UNL A   1      45.296  32.941  29.302  1.00  0.00     0.023 A 
ATOM     84  C   UNL A   1      45.238  34.103  28.517  1.00  0.00     0.031 A 
ATOM     85  C   UNL A   1      46.083  32.960  30.468  1.00  0.00     0.131 A 
ATOM     86  C   UNL A   1      45.975  35.234  28.894  1.00  0.00     0.055 A 
ATOM     87  C   UNL A   1      46.775  34.104  30.864  1.00  0.00     0.041 A 
ATOM     88  F   UNL A   1      46.165  31.875  31.254  1.00  0.00    -0.206 F 
ATOM     89  C   UNL A   1      46.727  35.248  30.073  1.00  0.00     0.022 A 
BRANCH  86  90
ATOM     90  S   UNL A   1      45.965  36.682  27.804  1.00  0.00     0.124 S 
ATOM     91  O   UNL A   1      46.790  36.228  26.690  1.00  0.00    -0.237 OA
ATOM     92  O   UNL A   1      44.544  36.851  27.517  1.00  0.00    -0.237 OA
ATOM     93  O   UNL A   1      46.557  37.735  28.627  1.00  0.00    -0.744 OA
ENDBRANCH  86  90
ENDBRANCH  60  83
ENDBRANCH  34  35
ENDBRANCH  26  29
ENDBRANCH   1  25
TORSDOF 14
ENDMDL
MODEL 3
REMARK VINA RESULT:     -12.7      5.975     11.708
REMARK SMILES Cc1cc2c(c(C)c1Cl)C=C(C(=O)NCCCNC(=O)c1ccc(-c3c4nc(c(-c5cc(S(=O)(=O)[O-])ccc5F)c5ccc([nH]5)c(-c5cc(S(=O)(=O)[O-])ccc5F)c5nc(c(-c6cc(S(=O)(=O)[O-])ccc6F)c6ccc3[nH]6)C=C5)C=C4)cc1)[C@@H](C(F)(F)F)O2
REMARK SMILES IDX 17 1 16 2 15 3 14 4 12 5 13 6 11 8 1 9 2 10 3 11 8 12 4 13
REMARK SMILES IDX 6 14 9 15 5 16 89 17 7 18 10 19 84 20 85 21 86 22 87 23
REMARK SMILES IDX 88 24 18 25 19 26 20 28 21 29 22 30 83 31 23 32 82 33 24 34
REMARK SMILES IDX 25 35 26 36 76 37 27 38 81 39 75 40 77 41 28 42 80 43 74 44
REMARK SMILES IDX 73 45 29 47 61 48 41 49 60 50 42 51 45 52 59 53 78 54 43 55
REMARK SMILES IDX 44 56 58 58 79 59 46 60 30 61 31 62 39 63 32 64 38 65 40 66
REMARK SMILES IDX 37 67 33 68 34 69 35 70 36 71 62 72 63 73 71 74 64 75 70 76
REMARK SMILES IDX 72 77 69 78 65 79 66 80 67 81 68 82 47 83 48 84 56 85 49 86
REMARK SMILES IDX 55 87 57 88 54 89 50 90 51 91 52 92 53 93
REMARK H PARENT 14 7 18 27 77 46 45 57
REMARK Flexibility Score: inf
ROOT
ATOM      1  C   UNL A   1      38.998  20.436  25.726  1.00  0.00     0.118 C 
ENDROOT
BRANCH   1   2
ATOM      2  C   UNL A   1      37.869  19.877  24.869  1.00  0.00     0.042 C 
BRANCH   2   3
ATOM      3  C   UNL A   1      36.538  20.550  25.162  1.00  0.00     0.118 C 
BRANCH   3   4
ATOM      4  N   UNL A   1      35.415  19.641  24.980  1.00  0.00    -0.352 N 
ATOM      5  C   UNL A   1      34.069  19.732  24.888  1.00  0.00     0.251 C 
ATOM      6  O   UNL A   1      33.480  18.659  24.713  1.00  0.00    -0.270 OA
ATOM      7  H   UNL A   1      35.718  18.707  24.905  1.00  0.00     0.163 HD
BRANCH   5   8
ATOM      8  C   UNL A   1      33.286  20.999  24.972  1.00  0.00     0.067 C 
ATOM      9  C   UNL A   1      30.020  26.551  24.068  1.00  0.00     0.046 C 
ATOM     10  C   UNL A   1      30.862  25.312  23.939  1.00  0.00    -0.028 A 
ATOM     11  C   UNL A   1      30.891  24.419  25.012  1.00  0.00     0.052 A 
ATOM     12  C   UNL A   1      31.642  25.032  22.798  1.00  0.00     0.047 A 
ATOM     13  C   UNL A   1      31.668  23.269  24.952  1.00  0.00     0.128 A 
ATOM     14  C   UNL A   1      32.424  23.853  22.717  1.00  0.00    -0.021 A 
ATOM     15  Cl  UNL A   1      31.622  26.174  21.488  1.00  0.00    -0.084 Cl
ATOM     16  C   UNL A   1      32.425  22.961  23.817  1.00  0.00     0.022 A 
ATOM     17  O   UNL A   1      31.596  22.463  26.050  1.00  0.00    -0.475 OA
ATOM     18  C   UNL A   1      33.247  23.522  21.493  1.00  0.00     0.047 C 
ATOM     19  C   UNL A   1      33.158  21.690  23.823  1.00  0.00     0.026 C 
ATOM     20  C   UNL A   1      32.685  21.526  26.237  1.00  0.00     0.314 C 
BRANCH  20  21
ATOM     21  C   UNL A   1      33.737  22.145  27.179  1.00  0.00     0.429 C 
ATOM     22  F   UNL A   1      34.448  21.173  27.801  1.00  0.00    -0.167 F 
ATOM     23  F   UNL A   1      34.636  22.918  26.524  1.00  0.00    -0.167 F 
ATOM     24  F   UNL A   1      33.185  22.920  28.139  1.00  0.00    -0.167 F 
ENDBRANCH  20  21
ENDBRANCH   5   8
ENDBRANCH   3   4
ENDBRANCH   2   3
ENDBRANCH   1   2
BRANCH   1  25
ATOM     25  N   UNL A   1      40.020  19.427  25.996  1.00  0.00    -0.352 N 
ATOM     26  C   UNL A   1      41.377  19.562  26.136  1.00  0.00     0.251 C 
ATOM     27  H   UNL A   1      39.681  18.508  26.092  1.00  0.00     0.163 HD
ATOM     28  O   UNL A   1      42.094  18.566  26.051  1.00  0.00    -0.269 OA
BRANCH  26  29
ATOM     29  C   UNL A   1      41.967  20.891  26.383  1.00  0.00     0.039 A 
ATOM     30  C   UNL A   1      42.285  21.715  25.302  1.00  0.00     0.014 A 
ATOM     31  C   UNL A   1      42.229  21.312  27.689  1.00  0.00     0.014 A 
ATOM     32  C   UNL A   1      42.806  22.989  25.539  1.00  0.00     0.010 A 
ATOM     33  C   UNL A   1      42.649  22.612  27.926  1.00  0.00     0.010 A 
ATOM     34  C   UNL A   1      42.959  23.459  26.854  1.00  0.00    -0.014 A 
BRANCH  34  35
ATOM     35  C   UNL A   1      43.478  24.819  27.135  1.00  0.00     0.031 A 
ATOM     36  C   UNL A   1      42.553  25.863  27.700  1.00  0.00     0.074 A 
ATOM     37  C   UNL A   1      44.756  25.121  26.836  1.00  0.00     0.049 A 
ATOM     38  N   UNL A   1      42.786  27.127  27.939  1.00  0.00    -0.248 NA
ATOM     39  C   UNL A   1      41.177  25.439  28.009  1.00  0.00     0.031 C 
ATOM     40  C   UNL A   1      45.731  24.194  26.255  1.00  0.00     0.029 A 
ATOM     41  N   UNL A   1      45.458  26.290  26.980  1.00  0.00    -0.354 N 
ATOM     42  C   UNL A   1      41.589  27.647  28.416  1.00  0.00     0.074 A 
ATOM     43  C   UNL A   1      40.613  26.581  28.371  1.00  0.00     0.031 C 
ATOM     44  C   UNL A   1      46.913  24.818  26.133  1.00  0.00     0.029 A 
ATOM     45  C   UNL A   1      46.771  26.200  26.579  1.00  0.00     0.049 A 
ATOM     46  H   UNL A   1      45.060  27.117  27.338  1.00  0.00     0.167 HD
ATOM     47  C   UNL A   1      41.336  28.893  28.881  1.00  0.00     0.034 A 
ATOM     48  C   UNL A   1      47.747  27.129  26.568  1.00  0.00     0.034 A 
ATOM     49  C   UNL A   1      42.326  29.934  28.952  1.00  0.00     0.049 A 
ATOM     50  C   UNL A   1      47.433  28.516  27.062  1.00  0.00     0.074 A 
ATOM     51  C   UNL A   1      42.190  31.216  29.452  1.00  0.00     0.029 A 
ATOM     52  N   UNL A   1      43.638  29.810  28.514  1.00  0.00    -0.354 N 
ATOM     53  N   UNL A   1      46.298  28.986  27.528  1.00  0.00    -0.248 NA
ATOM     54  C   UNL A   1      48.524  29.498  27.031  1.00  0.00     0.031 C 
ATOM     55  C   UNL A   1      43.401  31.888  29.261  1.00  0.00     0.029 A 
ATOM     56  C   UNL A   1      44.314  31.004  28.706  1.00  0.00     0.049 A 
ATOM     57  H   UNL A   1      44.030  28.996  28.126  1.00  0.00     0.167 HD
ATOM     58  C   UNL A   1      46.546  30.313  27.862  1.00  0.00     0.074 A 
ATOM     59  C   UNL A   1      47.939  30.567  27.555  1.00  0.00     0.031 C 
ATOM     60  C   UNL A   1      45.699  31.237  28.380  1.00  0.00     0.034 A 
BRANCH  47  61
ATOM     61  C   UNL A   1      39.937  29.198  29.349  1.00  0.00     0.023 A 
ATOM     62  C   UNL A   1      39.594  29.151  30.710  1.00  0.00     0.031 A 
ATOM     63  C   UNL A   1      38.942  29.564  28.426  1.00  0.00     0.131 A 
ATOM     64  C   UNL A   1      38.277  29.424  31.108  1.00  0.00     0.055 A 
ATOM     65  C   UNL A   1      37.649  29.898  28.834  1.00  0.00     0.041 A 
ATOM     66  F   UNL A   1      39.212  29.605  27.112  1.00  0.00    -0.206 F 
ATOM     67  C   UNL A   1      37.309  29.823  30.182  1.00  0.00     0.022 A 
BRANCH  64  68
ATOM     68  S   UNL A   1      37.826  29.178  32.846  1.00  0.00     0.124 S 
ATOM     69  O   UNL A   1      36.573  29.924  32.934  1.00  0.00    -0.237 OA
ATOM     70  O   UNL A   1      37.713  27.727  32.944  1.00  0.00    -0.237 OA
ATOM     71  O   UNL A   1      38.947  29.765  33.577  1.00  0.00    -0.744 OA
ENDBRANCH  64  68
ENDBRANCH  47  61
BRANCH  48  72
ATOM     72  C   UNL A   1      49.107  26.778  26.073  1.00  0.00     0.023 A 
ATOM     73  C   UNL A   1      49.560  27.232  24.825  1.00  0.00     0.031 A 
ATOM     74  C   UNL A   1      49.978  25.988  26.845  1.00  0.00     0.131 A 
ATOM     75  C   UNL A   1      50.839  26.872  24.373  1.00  0.00     0.055 A 
ATOM     76  C   UNL A   1      51.265  25.667  26.409  1.00  0.00     0.041 A 
ATOM     77  F   UNL A   1      49.596  25.539  28.052  1.00  0.00    -0.206 F 
ATOM     78  C   UNL A   1      51.699  26.104  25.162  1.00  0.00     0.022 A 
BRANCH  75  79
ATOM     79  S   UNL A   1      51.356  27.397  22.716  1.00  0.00     0.124 S 
ATOM     80  O   UNL A   1      51.300  28.850  22.833  1.00  0.00    -0.237 OA
ATOM     81  O   UNL A   1      52.688  26.811  22.612  1.00  0.00    -0.237 OA
ATOM     82  O   UNL A   1      50.348  26.801  21.840  1.00  0.00    -0.744 OA
ENDBRANCH  75  79
ENDBRANCH  48  72
BRANCH  60  83
ATOM     83  C   UNL A   1      46.256  32.606  28.665  1.00  0.00     0.023 A 
ATOM     84  C   UNL A   1      46.160  33.643  27.725  1.00  0.00     0.031 A 
ATOM     85  C   UNL A   1      46.833  32.888  29.917  1.00  0.00     0.131 A 
ATOM     86  C   UNL A   1      46.656  34.916  28.041  1.00  0.00     0.055 A 
ATOM     87  C   UNL A   1      47.280  34.168  30.244  1.00  0.00     0.041 A 
ATOM     88  F   UNL A   1      46.941  31.929  30.850  1.00  0.00    -0.206 F 
ATOM     89  C   UNL A   1      47.197  35.189  29.302  1.00  0.00     0.022 A 
BRANCH  86  90
ATOM     90  S   UNL A   1      46.615  36.206  26.770  1.00  0.00     0.124 S 
ATOM     91  O   UNL A   1      46.394  35.428  25.556  1.00  0.00    -0.237 OA
ATOM     92  O   UNL A   1      45.499  37.040  27.203  1.00  0.00    -0.237 OA
ATOM     93  O   UNL A   1      47.931  36.833  26.875  1.00  0.00    -0.744 OA
ENDBRANCH  86  90
ENDBRANCH  60  83
ENDBRANCH  34  35
ENDBRANCH  26  29
ENDBRANCH   1  25
TORSDOF 14
ENDMDL
