MODEL 1
REMARK VINA RESULT:     -14.3      0.000      0.000
REMARK SMILES Cc1cccc(OC2(C(=O)NCCCNC(=O)c3ccc(-c4c5nc(c(-c6cc(S(=O)(=O)[O-])ccc6F)c6ccc([nH]6)c(-c6cc(S(=O)(=O)[O-])ccc6F)c6nc(c(-c7cc(S(=O)(=O)[O-])ccc7F)c7ccc4[nH]7)C=C6)C=C5)cc3)CCN(C(=O)c3cnc[nH]c3=O)CC2)c1
REMARK SMILES IDX 13 1 12 2 11 3 9 4 10 5 8 7 81 8 94 9 82 10 93 11 83 12
REMARK SMILES IDX 84 13 85 14 7 15 6 16 1 17 2 18 3 19 95 20 4 21 5 22 86 23
REMARK SMILES IDX 87 24 91 25 88 26 90 27 92 28 89 29 14 31 15 32 16 33 17 35
REMARK SMILES IDX 18 36 19 37 80 38 20 39 79 40 21 41 22 42 23 43 73 44 24 45
REMARK SMILES IDX 78 46 72 47 74 48 25 49 77 50 71 51 70 52 26 54 58 55 38 56
REMARK SMILES IDX 57 57 39 58 42 59 56 60 75 61 40 62 41 63 55 65 76 66 43 67
REMARK SMILES IDX 27 68 28 69 36 70 29 71 35 72 37 73 34 74 30 75 31 76 32 77
REMARK SMILES IDX 33 78 59 79 60 80 68 81 61 82 67 83 69 84 66 85 62 86 63 87
REMARK SMILES IDX 64 88 65 89 44 90 45 91 53 92 46 93 52 94 54 95 51 96 47 97
REMARK SMILES IDX 48 98 49 99 50 100
REMARK H PARENT 11 6 90 30 15 34 74 53 42 64
REMARK Flexibility Score: inf
ROOT
ATOM      1  C   UNL A   1      33.747  30.478  27.629  1.00  0.00     0.042 C 
ENDROOT
BRANCH   1   2
ATOM      2  C   UNL A   1      33.799  29.151  26.869  1.00  0.00     0.118 C 
BRANCH   2   3
ATOM      3  N   UNL A   1      32.732  28.212  27.237  1.00  0.00    -0.353 N 
ATOM      4  C   UNL A   1      31.781  27.517  26.543  1.00  0.00     0.264 C 
ATOM      5  O   UNL A   1      31.118  26.701  27.198  1.00  0.00    -0.270 OA
ATOM      6  H   UNL A   1      32.692  28.046  28.207  1.00  0.00     0.163 HD
BRANCH   4   7
ATOM      7  C   UNL A   1      31.534  27.673  25.002  1.00  0.00     0.190 C 
ATOM      8  C   UNL A   1      30.314  26.876  24.539  1.00  0.00     0.080 C 
ATOM      9  C   UNL A   1      31.296  29.182  24.694  1.00  0.00     0.080 C 
ATOM     10  C   UNL A   1      29.923  27.140  23.103  1.00  0.00     0.124 C 
ATOM     11  C   UNL A   1      30.868  29.393  23.232  1.00  0.00     0.124 C 
ATOM     12  N   UNL A   1      29.699  28.563  22.948  1.00  0.00    -0.338 N 
ATOM     13  C   UNL A   1      28.399  29.032  22.912  1.00  0.00     0.261 C 
ATOM     14  O   UNL A   1      27.430  28.399  23.321  1.00  0.00    -0.269 OA
BRANCH   7  15
ATOM     15  O   UNL A   1      32.776  27.423  24.305  1.00  0.00    -0.477 OA
BRANCH  15  16
ATOM     16  C   UNL A   1      33.502  26.289  24.148  1.00  0.00     0.121 A 
ATOM     17  C   UNL A   1      35.664  23.693  25.903  1.00  0.00     0.044 C 
ATOM     18  C   UNL A   1      34.850  24.377  24.842  1.00  0.00    -0.047 A 
ATOM     19  C   UNL A   1      34.538  23.711  23.656  1.00  0.00     0.003 A 
ATOM     20  C   UNL A   1      34.357  25.676  25.056  1.00  0.00     0.049 A 
ATOM     21  C   UNL A   1      33.734  24.332  22.707  1.00  0.00     0.004 A 
ATOM     22  C   UNL A   1      33.213  25.604  22.962  1.00  0.00     0.046 A 
ENDBRANCH  15  16
ENDBRANCH   7  15
BRANCH  13  23
ATOM     23  C   UNL A   1      28.205  30.322  22.239  1.00  0.00     0.123 A 
ATOM     24  C   UNL A   1      27.978  30.387  20.919  1.00  0.00     0.132 A 
ATOM     25  C   UNL A   1      28.342  31.591  22.973  1.00  0.00     0.263 A 
ATOM     26  N   UNL A   1      27.819  31.556  20.208  1.00  0.00    -0.246 NA
ATOM     27  N   UNL A   1      28.194  32.715  22.211  1.00  0.00    -0.312 N 
ATOM     28  O   UNL A   1      28.582  31.667  24.173  1.00  0.00    -0.269 OA
ATOM     29  C   UNL A   1      27.938  32.654  20.874  1.00  0.00     0.199 A 
ATOM     30  H   UNL A   1      28.273  33.597  22.641  1.00  0.00     0.171 HD
ENDBRANCH  13  23
ENDBRANCH   4   7
ENDBRANCH   2   3
ENDBRANCH   1   2
BRANCH   1  31
ATOM     31  C   UNL A   1      35.037  31.284  27.623  1.00  0.00     0.118 C 
BRANCH  31  32
ATOM     32  N   UNL A   1      35.432  31.747  28.958  1.00  0.00    -0.352 N 
ATOM     33  C   UNL A   1      36.269  31.123  29.871  1.00  0.00     0.251 C 
ATOM     34  H   UNL A   1      35.052  32.610  29.242  1.00  0.00     0.163 HD
ATOM     35  O   UNL A   1      36.598  31.625  30.931  1.00  0.00    -0.269 OA
BRANCH  33  36
ATOM     36  C   UNL A   1      36.836  29.823  29.458  1.00  0.00     0.039 A 
ATOM     37  C   UNL A   1      37.233  28.965  30.485  1.00  0.00     0.014 A 
ATOM     38  C   UNL A   1      37.331  29.694  28.159  1.00  0.00     0.014 A 
ATOM     39  C   UNL A   1      38.329  28.140  30.277  1.00  0.00     0.010 A 
ATOM     40  C   UNL A   1      38.459  28.910  27.972  1.00  0.00     0.010 A 
ATOM     41  C   UNL A   1      39.014  28.217  29.059  1.00  0.00    -0.014 A 
BRANCH  41  42
ATOM     42  C   UNL A   1      40.413  27.801  28.950  1.00  0.00     0.031 A 
ATOM     43  C   UNL A   1      40.779  26.462  28.454  1.00  0.00     0.074 A 
ATOM     44  C   UNL A   1      41.408  28.624  29.361  1.00  0.00     0.049 A 
ATOM     45  N   UNL A   1      41.810  25.805  28.871  1.00  0.00    -0.248 NA
ATOM     46  C   UNL A   1      39.986  25.738  27.467  1.00  0.00     0.031 C 
ATOM     47  C   UNL A   1      42.844  28.424  29.184  1.00  0.00     0.029 A 
ATOM     48  N   UNL A   1      41.313  29.699  30.251  1.00  0.00    -0.354 N 
ATOM     49  C   UNL A   1      41.967  24.717  28.053  1.00  0.00     0.074 A 
ATOM     50  C   UNL A   1      40.774  24.682  27.233  1.00  0.00     0.031 C 
ATOM     51  C   UNL A   1      43.495  29.121  30.126  1.00  0.00     0.029 A 
ATOM     52  C   UNL A   1      42.504  29.712  31.006  1.00  0.00     0.049 A 
ATOM     53  H   UNL A   1      40.559  30.327  30.333  1.00  0.00     0.167 HD
ATOM     54  C   UNL A   1      43.133  24.015  28.056  1.00  0.00     0.034 A 
ATOM     55  C   UNL A   1      42.485  29.615  32.365  1.00  0.00     0.034 A 
ATOM     56  C   UNL A   1      44.124  24.558  28.979  1.00  0.00     0.049 A 
ATOM     57  C   UNL A   1      43.193  28.393  32.919  1.00  0.00     0.074 A 
ATOM     58  C   UNL A   1      45.261  25.337  28.835  1.00  0.00     0.029 A 
ATOM     59  N   UNL A   1      43.868  24.511  30.337  1.00  0.00    -0.354 N 
ATOM     60  N   UNL A   1      43.816  27.498  32.201  1.00  0.00    -0.248 NA
ATOM     61  C   UNL A   1      43.150  28.033  34.338  1.00  0.00     0.031 C 
ATOM     62  C   UNL A   1      45.686  25.750  30.131  1.00  0.00     0.029 A 
ATOM     63  C   UNL A   1      44.817  25.208  31.059  1.00  0.00     0.049 A 
ATOM     64  H   UNL A   1      43.103  24.039  30.739  1.00  0.00     0.167 HD
ATOM     65  C   UNL A   1      44.146  26.430  32.999  1.00  0.00     0.074 A 
ATOM     66  C   UNL A   1      43.723  26.820  34.331  1.00  0.00     0.031 C 
ATOM     67  C   UNL A   1      44.679  25.272  32.505  1.00  0.00     0.034 A 
BRANCH  54  68
ATOM     68  C   UNL A   1      43.445  22.967  27.023  1.00  0.00     0.023 A 
ATOM     69  C   UNL A   1      42.816  21.710  27.095  1.00  0.00     0.031 A 
ATOM     70  C   UNL A   1      44.356  23.144  25.966  1.00  0.00     0.131 A 
ATOM     71  C   UNL A   1      43.171  20.670  26.220  1.00  0.00     0.055 A 
ATOM     72  C   UNL A   1      44.756  22.092  25.132  1.00  0.00     0.041 A 
ATOM     73  F   UNL A   1      44.878  24.350  25.691  1.00  0.00    -0.206 F 
ATOM     74  C   UNL A   1      44.172  20.840  25.266  1.00  0.00     0.022 A 
BRANCH  71  75
ATOM     75  S   UNL A   1      42.298  19.085  26.347  1.00  0.00     0.124 S 
ATOM     76  O   UNL A   1      40.970  19.420  25.846  1.00  0.00    -0.237 OA
ATOM     77  O   UNL A   1      43.109  18.220  25.498  1.00  0.00    -0.237 OA
ATOM     78  O   UNL A   1      42.359  18.780  27.776  1.00  0.00    -0.744 OA
ENDBRANCH  71  75
ENDBRANCH  54  68
BRANCH  55  79
ATOM     79  C   UNL A   1      41.305  30.275  32.987  1.00  0.00     0.023 A 
ATOM     80  C   UNL A   1      41.289  31.685  33.051  1.00  0.00     0.031 A 
ATOM     81  C   UNL A   1      40.101  29.593  33.196  1.00  0.00     0.131 A 
ATOM     82  C   UNL A   1      40.076  32.370  33.205  1.00  0.00     0.055 A 
ATOM     83  C   UNL A   1      38.897  30.280  33.384  1.00  0.00     0.041 A 
ATOM     84  F   UNL A   1      40.048  28.256  33.108  1.00  0.00    -0.206 F 
ATOM     85  C   UNL A   1      38.874  31.672  33.350  1.00  0.00     0.022 A 
BRANCH  82  86
ATOM     86  S   UNL A   1      40.020  34.171  33.001  1.00  0.00     0.124 S 
ATOM     87  O   UNL A   1      38.766  34.366  32.287  1.00  0.00    -0.237 OA
ATOM     88  O   UNL A   1      40.057  34.665  34.377  1.00  0.00    -0.237 OA
ATOM     89  O   UNL A   1      41.236  34.448  32.236  1.00  0.00    -0.744 OA
ENDBRANCH  82  86
ENDBRANCH  55  79
BRANCH  67  90
ATOM     90  C   UNL A   1      45.059  24.083  33.359  1.00  0.00     0.023 A 
ATOM     91  C   UNL A   1      46.374  23.875  33.810  1.00  0.00     0.031 A 
ATOM     92  C   UNL A   1      44.124  23.076  33.695  1.00  0.00     0.131 A 
ATOM     93  C   UNL A   1      46.691  22.775  34.629  1.00  0.00     0.055 A 
ATOM     94  C   UNL A   1      44.462  21.942  34.440  1.00  0.00     0.041 A 
ATOM     95  F   UNL A   1      42.833  23.162  33.346  1.00  0.00    -0.206 F 
ATOM     96  C   UNL A   1      45.748  21.795  34.930  1.00  0.00     0.022 A 
BRANCH  93  97
ATOM     97  S   UNL A   1      48.345  22.691  35.362  1.00  0.00     0.124 S 
ATOM     98  O   UNL A   1      48.734  24.096  35.431  1.00  0.00    -0.237 OA
ATOM     99  O   UNL A   1      48.069  22.045  36.642  1.00  0.00    -0.237 OA
ATOM    100  O   UNL A   1      49.104  21.882  34.410  1.00  0.00    -0.744 OA
ENDBRANCH  93  97
ENDBRANCH  67  90
ENDBRANCH  41  42
ENDBRANCH  33  36
ENDBRANCH  31  32
ENDBRANCH   1  31
TORSDOF 16
ENDMDL
MODEL 2
REMARK VINA RESULT:     -13.9      1.764      4.217
REMARK SMILES Cc1cccc(OC2(C(=O)NCCCNC(=O)c3ccc(-c4c5nc(c(-c6cc(S(=O)(=O)[O-])ccc6F)c6ccc([nH]6)c(-c6cc(S(=O)(=O)[O-])ccc6F)c6nc(c(-c7cc(S(=O)(=O)[O-])ccc7F)c7ccc4[nH]7)C=C6)C=C5)cc3)CCN(C(=O)c3cnc[nH]c3=O)CC2)c1
REMARK SMILES IDX 13 1 12 2 11 3 9 4 10 5 8 7 81 8 94 9 82 10 93 11 83 12
REMARK SMILES IDX 84 13 85 14 7 15 6 16 1 17 2 18 3 19 95 20 4 21 5 22 86 23
REMARK SMILES IDX 87 24 91 25 88 26 90 27 92 28 89 29 14 31 15 32 16 33 17 35
REMARK SMILES IDX 18 36 19 37 80 38 20 39 79 40 21 41 22 42 23 43 73 44 24 45
REMARK SMILES IDX 78 46 72 47 74 48 25 49 77 50 71 51 70 52 26 54 58 55 38 56
REMARK SMILES IDX 57 57 39 58 42 59 56 60 75 61 40 62 41 63 55 65 76 66 43 67
REMARK SMILES IDX 27 68 28 69 36 70 29 71 35 72 37 73 34 74 30 75 31 76 32 77
REMARK SMILES IDX 33 78 59 79 60 80 68 81 61 82 67 83 69 84 66 85 62 86 63 87
REMARK SMILES IDX 64 88 65 89 44 90 45 91 53 92 46 93 52 94 54 95 51 96 47 97
REMARK SMILES IDX 48 98 49 99 50 100
REMARK H PARENT 11 6 90 30 15 34 74 53 42 64
REMARK Flexibility Score: inf
ROOT
ATOM      1  C   UNL A   1      33.535  30.755  26.879  1.00  0.00     0.042 C 
ENDROOT
BRANCH   1   2
ATOM      2  C   UNL A   1      32.925  29.708  25.945  1.00  0.00     0.118 C 
BRANCH   2   3
ATOM      3  N   UNL A   1      33.681  29.507  24.703  1.00  0.00    -0.353 N 
ATOM      4  C   UNL A   1      33.616  28.610  23.672  1.00  0.00     0.264 C 
ATOM      5  O   UNL A   1      34.358  28.837  22.706  1.00  0.00    -0.270 OA
ATOM      6  H   UNL A   1      34.400  30.169  24.586  1.00  0.00     0.163 HD
BRANCH   4   7
ATOM      7  C   UNL A   1      32.647  27.378  23.644  1.00  0.00     0.190 C 
ATOM      8  C   UNL A   1      32.514  26.792  22.238  1.00  0.00     0.080 C 
ATOM      9  C   UNL A   1      33.217  26.284  24.595  1.00  0.00     0.080 C 
ATOM     10  C   UNL A   1      31.740  25.494  22.190  1.00  0.00     0.124 C 
ATOM     11  C   UNL A   1      32.418  24.974  24.482  1.00  0.00     0.124 C 
ATOM     12  N   UNL A   1      32.380  24.551  23.084  1.00  0.00    -0.338 N 
ATOM     13  C   UNL A   1      33.186  23.565  22.545  1.00  0.00     0.261 C 
ATOM     14  O   UNL A   1      33.664  23.611  21.416  1.00  0.00    -0.269 OA
BRANCH   7  15
ATOM     15  O   UNL A   1      31.417  27.740  24.316  1.00  0.00    -0.477 OA
BRANCH  15  16
ATOM     16  C   UNL A   1      30.296  28.353  23.864  1.00  0.00     0.121 A 
ATOM     17  C   UNL A   1      28.926  31.364  21.982  1.00  0.00     0.044 C 
ATOM     18  C   UNL A   1      28.987  30.032  22.673  1.00  0.00    -0.047 A 
ATOM     19  C   UNL A   1      27.891  29.170  22.637  1.00  0.00     0.003 A 
ATOM     20  C   UNL A   1      30.166  29.626  23.320  1.00  0.00     0.049 A 
ATOM     21  C   UNL A   1      27.980  27.915  23.231  1.00  0.00     0.004 A 
ATOM     22  C   UNL A   1      29.179  27.511  23.825  1.00  0.00     0.046 A 
ENDBRANCH  15  16
ENDBRANCH   7  15
BRANCH  13  23
ATOM     23  C   UNL A   1      33.361  22.364  23.372  1.00  0.00     0.123 A 
ATOM     24  C   UNL A   1      32.362  21.485  23.537  1.00  0.00     0.132 A 
ATOM     25  C   UNL A   1      34.609  22.129  24.116  1.00  0.00     0.263 A 
ATOM     26  N   UNL A   1      32.434  20.354  24.320  1.00  0.00    -0.246 NA
ATOM     27  N   UNL A   1      34.613  21.003  24.890  1.00  0.00    -0.312 N 
ATOM     28  O   UNL A   1      35.582  22.873  24.077  1.00  0.00    -0.269 OA
ATOM     29  C   UNL A   1      33.539  20.168  24.958  1.00  0.00     0.199 A 
ATOM     30  H   UNL A   1      35.419  20.787  25.414  1.00  0.00     0.171 HD
ENDBRANCH  13  23
ENDBRANCH   4   7
ENDBRANCH   2   3
ENDBRANCH   1   2
BRANCH   1  31
ATOM     31  C   UNL A   1      34.128  30.211  28.170  1.00  0.00     0.118 C 
BRANCH  31  32
ATOM     32  N   UNL A   1      34.992  31.177  28.858  1.00  0.00    -0.352 N 
ATOM     33  C   UNL A   1      36.302  31.009  29.281  1.00  0.00     0.251 C 
ATOM     34  H   UNL A   1      34.589  32.057  29.043  1.00  0.00     0.163 HD
ATOM     35  O   UNL A   1      36.966  31.900  29.779  1.00  0.00    -0.269 OA
BRANCH  33  36
ATOM     36  C   UNL A   1      36.912  29.690  29.016  1.00  0.00     0.039 A 
ATOM     37  C   UNL A   1      37.323  28.960  30.133  1.00  0.00     0.014 A 
ATOM     38  C   UNL A   1      37.424  29.437  27.743  1.00  0.00     0.014 A 
ATOM     39  C   UNL A   1      38.446  28.152  30.023  1.00  0.00     0.010 A 
ATOM     40  C   UNL A   1      38.578  28.672  27.650  1.00  0.00     0.010 A 
ATOM     41  C   UNL A   1      39.141  28.118  28.810  1.00  0.00    -0.014 A 
BRANCH  41  42
ATOM     42  C   UNL A   1      40.553  27.736  28.757  1.00  0.00     0.031 A 
ATOM     43  C   UNL A   1      40.970  26.404  28.281  1.00  0.00     0.074 A 
ATOM     44  C   UNL A   1      41.510  28.585  29.202  1.00  0.00     0.049 A 
ATOM     45  N   UNL A   1      42.000  25.775  28.740  1.00  0.00    -0.248 NA
ATOM     46  C   UNL A   1      40.235  25.658  27.267  1.00  0.00     0.031 C 
ATOM     47  C   UNL A   1      42.957  28.419  29.082  1.00  0.00     0.029 A 
ATOM     48  N   UNL A   1      41.355  29.660  30.083  1.00  0.00    -0.354 N 
ATOM     49  C   UNL A   1      42.216  24.688  27.934  1.00  0.00     0.074 A 
ATOM     50  C   UNL A   1      41.056  24.621  27.068  1.00  0.00     0.031 C 
ATOM     51  C   UNL A   1      43.554  29.136  30.046  1.00  0.00     0.029 A 
ATOM     52  C   UNL A   1      42.515  29.704  30.884  1.00  0.00     0.049 A 
ATOM     53  H   UNL A   1      40.584  30.270  30.134  1.00  0.00     0.167 HD
ATOM     54  C   UNL A   1      43.398  24.015  27.985  1.00  0.00     0.034 A 
ATOM     55  C   UNL A   1      42.446  29.612  32.242  1.00  0.00     0.034 A 
ATOM     56  C   UNL A   1      44.338  24.585  28.944  1.00  0.00     0.049 A 
ATOM     57  C   UNL A   1      43.161  28.409  32.829  1.00  0.00     0.074 A 
ATOM     58  C   UNL A   1      45.460  25.391  28.841  1.00  0.00     0.029 A 
ATOM     59  N   UNL A   1      44.030  24.536  30.291  1.00  0.00    -0.354 N 
ATOM     60  N   UNL A   1      43.833  27.528  32.139  1.00  0.00    -0.248 NA
ATOM     61  C   UNL A   1      43.071  28.053  34.246  1.00  0.00     0.031 C 
ATOM     62  C   UNL A   1      45.824  25.818  30.150  1.00  0.00     0.029 A 
ATOM     63  C   UNL A   1      44.933  25.258  31.046  1.00  0.00     0.049 A 
ATOM     64  H   UNL A   1      43.262  24.047  30.665  1.00  0.00     0.167 HD
ATOM     65  C   UNL A   1      44.158  26.470  32.954  1.00  0.00     0.074 A 
ATOM     66  C   UNL A   1      43.674  26.854  34.266  1.00  0.00     0.031 C 
ATOM     67  C   UNL A   1      44.738  25.324  32.486  1.00  0.00     0.034 A 
BRANCH  54  68
ATOM     68  C   UNL A   1      43.774  22.971  26.970  1.00  0.00     0.023 A 
ATOM     69  C   UNL A   1      43.111  21.730  26.967  1.00  0.00     0.031 A 
ATOM     70  C   UNL A   1      44.781  23.137  26.001  1.00  0.00     0.131 A 
ATOM     71  C   UNL A   1      43.517  20.692  26.113  1.00  0.00     0.055 A 
ATOM     72  C   UNL A   1      45.228  22.085  25.191  1.00  0.00     0.041 A 
ATOM     73  F   UNL A   1      45.355  24.332  25.791  1.00  0.00    -0.206 F 
ATOM     74  C   UNL A   1      44.603  20.847  25.255  1.00  0.00     0.022 A 
BRANCH  71  75
ATOM     75  S   UNL A   1      42.597  19.129  26.139  1.00  0.00     0.124 S 
ATOM     76  O   UNL A   1      43.514  18.217  25.464  1.00  0.00    -0.237 OA
ATOM     77  O   UNL A   1      42.405  18.911  27.569  1.00  0.00    -0.237 OA
ATOM     78  O   UNL A   1      41.379  19.441  25.393  1.00  0.00    -0.744 OA
ENDBRANCH  71  75
ENDBRANCH  54  68
BRANCH  55  79
ATOM     79  C   UNL A   1      41.227  30.245  32.814  1.00  0.00     0.023 A 
ATOM     80  C   UNL A   1      41.158  31.654  32.839  1.00  0.00     0.031 A 
ATOM     81  C   UNL A   1      40.042  29.525  33.012  1.00  0.00     0.131 A 
ATOM     82  C   UNL A   1      39.918  32.298  32.943  1.00  0.00     0.055 A 
ATOM     83  C   UNL A   1      38.810  30.173  33.150  1.00  0.00     0.041 A 
ATOM     84  F   UNL A   1      40.039  28.185  32.960  1.00  0.00    -0.206 F 
ATOM     85  C   UNL A   1      38.739  31.562  33.076  1.00  0.00     0.022 A 
BRANCH  82  86
ATOM     86  S   UNL A   1      39.804  34.091  32.687  1.00  0.00     0.124 S 
ATOM     87  O   UNL A   1      38.610  34.212  31.862  1.00  0.00    -0.237 OA
ATOM     88  O   UNL A   1      39.698  34.616  34.047  1.00  0.00    -0.237 OA
ATOM     89  O   UNL A   1      41.069  34.405  32.023  1.00  0.00    -0.744 OA
ENDBRANCH  82  86
ENDBRANCH  55  79
BRANCH  67  90
ATOM     90  C   UNL A   1      45.113  24.148  33.358  1.00  0.00     0.023 A 
ATOM     91  C   UNL A   1      46.369  24.048  33.981  1.00  0.00     0.031 A 
ATOM     92  C   UNL A   1      44.244  23.047  33.542  1.00  0.00     0.131 A 
ATOM     93  C   UNL A   1      46.678  22.956  34.814  1.00  0.00     0.055 A 
ATOM     94  C   UNL A   1      44.587  21.925  34.303  1.00  0.00     0.041 A 
ATOM     95  F   UNL A   1      43.010  23.023  33.021  1.00  0.00    -0.206 F 
ATOM     96  C   UNL A   1      45.803  21.882  34.962  1.00  0.00     0.022 A 
BRANCH  93  97
ATOM     97  S   UNL A   1      48.219  23.003  35.765  1.00  0.00     0.124 S 
ATOM     98  O   UNL A   1      49.227  23.194  34.727  1.00  0.00    -0.237 OA
ATOM     99  O   UNL A   1      47.988  24.145  36.645  1.00  0.00    -0.237 OA
ATOM    100  O   UNL A   1      48.252  21.703  36.433  1.00  0.00    -0.744 OA
ENDBRANCH  93  97
ENDBRANCH  67  90
ENDBRANCH  41  42
ENDBRANCH  33  36
ENDBRANCH  31  32
ENDBRANCH   1  31
TORSDOF 16
ENDMDL
MODEL 3
REMARK VINA RESULT:     -13.7      1.786      2.143
REMARK SMILES Cc1cccc(OC2(C(=O)NCCCNC(=O)c3ccc(-c4c5nc(c(-c6cc(S(=O)(=O)[O-])ccc6F)c6ccc([nH]6)c(-c6cc(S(=O)(=O)[O-])ccc6F)c6nc(c(-c7cc(S(=O)(=O)[O-])ccc7F)c7ccc4[nH]7)C=C6)C=C5)cc3)CCN(C(=O)c3cnc[nH]c3=O)CC2)c1
REMARK SMILES IDX 13 1 12 2 11 3 9 4 10 5 8 7 81 8 94 9 82 10 93 11 83 12
REMARK SMILES IDX 84 13 85 14 7 15 6 16 1 17 2 18 3 19 95 20 4 21 5 22 86 23
REMARK SMILES IDX 87 24 91 25 88 26 90 27 92 28 89 29 14 31 15 32 16 33 17 35
REMARK SMILES IDX 18 36 19 37 80 38 20 39 79 40 21 41 22 42 23 43 73 44 24 45
REMARK SMILES IDX 78 46 72 47 74 48 25 49 77 50 71 51 70 52 26 54 58 55 38 56
REMARK SMILES IDX 57 57 39 58 42 59 56 60 75 61 40 62 41 63 55 65 76 66 43 67
REMARK SMILES IDX 27 68 28 69 36 70 29 71 35 72 37 73 34 74 30 75 31 76 32 77
REMARK SMILES IDX 33 78 59 79 60 80 68 81 61 82 67 83 69 84 66 85 62 86 63 87
REMARK SMILES IDX 64 88 65 89 44 90 45 91 53 92 46 93 52 94 54 95 51 96 47 97
REMARK SMILES IDX 48 98 49 99 50 100
REMARK H PARENT 11 6 90 30 15 34 74 53 42 64
REMARK Flexibility Score: inf
ROOT
ATOM      1  C   UNL A   1      33.434  30.950  27.618  1.00  0.00     0.042 C 
ENDROOT
BRANCH   1   2
ATOM      2  C   UNL A   1      33.530  29.692  26.752  1.00  0.00     0.118 C 
BRANCH   2   3
ATOM      3  N   UNL A   1      32.607  28.623  27.151  1.00  0.00    -0.353 N 
ATOM      4  C   UNL A   1      31.755  27.788  26.482  1.00  0.00     0.264 C 
ATOM      5  O   UNL A   1      31.217  26.902  27.160  1.00  0.00    -0.270 OA
ATOM      6  H   UNL A   1      32.599  28.473  28.124  1.00  0.00     0.163 HD
BRANCH   4   7
ATOM      7  C   UNL A   1      31.476  27.876  24.941  1.00  0.00     0.190 C 
ATOM      8  C   UNL A   1      30.247  27.059  24.540  1.00  0.00     0.080 C 
ATOM      9  C   UNL A   1      31.230  29.370  24.572  1.00  0.00     0.080 C 
ATOM     10  C   UNL A   1      29.826  27.259  23.102  1.00  0.00     0.124 C 
ATOM     11  C   UNL A   1      30.770  29.516  23.112  1.00  0.00     0.124 C 
ATOM     12  N   UNL A   1      29.597  28.674  22.889  1.00  0.00    -0.338 N 
ATOM     13  C   UNL A   1      28.296  29.141  22.860  1.00  0.00     0.261 C 
ATOM     14  O   UNL A   1      27.336  28.527  23.317  1.00  0.00    -0.269 OA
BRANCH   7  15
ATOM     15  O   UNL A   1      32.703  27.595  24.230  1.00  0.00    -0.477 OA
BRANCH  15  16
ATOM     16  C   UNL A   1      33.411  26.448  24.082  1.00  0.00     0.121 A 
ATOM     17  C   UNL A   1      35.466  23.793  25.875  1.00  0.00     0.044 C 
ATOM     18  C   UNL A   1      34.699  24.503  24.797  1.00  0.00    -0.047 A 
ATOM     19  C   UNL A   1      34.409  23.854  23.595  1.00  0.00     0.003 A 
ATOM     20  C   UNL A   1      34.225  25.809  25.009  1.00  0.00     0.049 A 
ATOM     21  C   UNL A   1      33.647  24.502  22.629  1.00  0.00     0.004 A 
ATOM     22  C   UNL A   1      33.144  25.781  22.881  1.00  0.00     0.046 A 
ENDBRANCH  15  16
ENDBRANCH   7  15
BRANCH  13  23
ATOM     23  C   UNL A   1      28.087  30.400  22.135  1.00  0.00     0.123 A 
ATOM     24  C   UNL A   1      27.937  30.416  20.803  1.00  0.00     0.132 A 
ATOM     25  C   UNL A   1      28.122  31.695  22.834  1.00  0.00     0.263 A 
ATOM     26  N   UNL A   1      27.771  31.554  20.046  1.00  0.00    -0.246 NA
ATOM     27  N   UNL A   1      27.971  32.788  22.028  1.00  0.00    -0.312 N 
ATOM     28  O   UNL A   1      28.286  31.818  24.043  1.00  0.00    -0.269 OA
ATOM     29  C   UNL A   1      27.801  32.675  20.681  1.00  0.00     0.199 A 
ATOM     30  H   UNL A   1      27.985  33.686  22.434  1.00  0.00     0.171 HD
ENDBRANCH  13  23
ENDBRANCH   4   7
ENDBRANCH   2   3
ENDBRANCH   1   2
BRANCH   1  31
ATOM     31  C   UNL A   1      34.679  31.824  27.639  1.00  0.00     0.118 C 
BRANCH  31  32
ATOM     32  N   UNL A   1      35.114  32.171  28.996  1.00  0.00    -0.352 N 
ATOM     33  C   UNL A   1      35.981  31.473  29.825  1.00  0.00     0.251 C 
ATOM     34  H   UNL A   1      34.743  33.004  29.367  1.00  0.00     0.163 HD
ATOM     35  O   UNL A   1      36.343  31.882  30.914  1.00  0.00    -0.269 OA
BRANCH  33  36
ATOM     36  C   UNL A   1      36.537  30.217  29.283  1.00  0.00     0.039 A 
ATOM     37  C   UNL A   1      37.045  29.310  30.214  1.00  0.00     0.014 A 
ATOM     38  C   UNL A   1      36.914  30.180  27.940  1.00  0.00     0.014 A 
ATOM     39  C   UNL A   1      38.136  28.530  29.858  1.00  0.00     0.010 A 
ATOM     40  C   UNL A   1      38.038  29.440  27.604  1.00  0.00     0.010 A 
ATOM     41  C   UNL A   1      38.705  28.699  28.591  1.00  0.00    -0.014 A 
BRANCH  41  42
ATOM     42  C   UNL A   1      40.097  28.329  28.332  1.00  0.00     0.031 A 
ATOM     43  C   UNL A   1      40.480  26.935  28.043  1.00  0.00     0.074 A 
ATOM     44  C   UNL A   1      41.080  29.259  28.409  1.00  0.00     0.049 A 
ATOM     45  N   UNL A   1      41.609  26.419  28.399  1.00  0.00    -0.248 NA
ATOM     46  C   UNL A   1      39.600  25.997  27.355  1.00  0.00     0.031 C 
ATOM     47  C   UNL A   1      42.483  29.089  28.037  1.00  0.00     0.029 A 
ATOM     48  N   UNL A   1      41.045  30.483  29.083  1.00  0.00    -0.354 N 
ATOM     49  C   UNL A   1      41.718  25.197  27.786  1.00  0.00     0.074 A 
ATOM     50  C   UNL A   1      40.418  24.951  27.197  1.00  0.00     0.031 C 
ATOM     51  C   UNL A   1      43.218  29.986  28.709  1.00  0.00     0.029 A 
ATOM     52  C   UNL A   1      42.334  30.696  29.614  1.00  0.00     0.049 A 
ATOM     53  H   UNL A   1      40.268  31.083  29.170  1.00  0.00     0.167 HD
ATOM     54  C   UNL A   1      42.919  24.560  27.727  1.00  0.00     0.034 A 
ATOM     55  C   UNL A   1      42.533  30.870  30.951  1.00  0.00     0.034 A 
ATOM     56  C   UNL A   1      43.997  25.316  28.355  1.00  0.00     0.049 A 
ATOM     57  C   UNL A   1      43.407  29.813  31.600  1.00  0.00     0.074 A 
ATOM     58  C   UNL A   1      45.037  26.099  27.879  1.00  0.00     0.029 A 
ATOM     59  N   UNL A   1      43.958  25.528  29.720  1.00  0.00    -0.354 N 
ATOM     60  N   UNL A   1      43.975  28.821  30.970  1.00  0.00    -0.248 NA
ATOM     61  C   UNL A   1      43.609  29.739  33.048  1.00  0.00     0.031 C 
ATOM     62  C   UNL A   1      45.626  26.778  28.985  1.00  0.00     0.029 A 
ATOM     63  C   UNL A   1      44.954  26.394  30.130  1.00  0.00     0.049 A 
ATOM     64  H   UNL A   1      43.302  25.113  30.325  1.00  0.00     0.167 HD
ATOM     65  C   UNL A   1      44.503  27.946  31.889  1.00  0.00     0.074 A 
ATOM     66  C   UNL A   1      44.263  28.574  33.175  1.00  0.00     0.031 C 
ATOM     67  C   UNL A   1      45.037  26.737  31.540  1.00  0.00     0.034 A 
BRANCH  54  68
ATOM     68  C   UNL A   1      43.143  23.343  26.874  1.00  0.00     0.023 A 
ATOM     69  C   UNL A   1      42.453  22.150  27.165  1.00  0.00     0.031 A 
ATOM     70  C   UNL A   1      44.029  23.294  25.781  1.00  0.00     0.131 A 
ATOM     71  C   UNL A   1      42.727  20.965  26.464  1.00  0.00     0.055 A 
ATOM     72  C   UNL A   1      44.347  22.100  25.122  1.00  0.00     0.041 A 
ATOM     73  F   UNL A   1      44.603  24.409  25.301  1.00  0.00    -0.206 F 
ATOM     74  C   UNL A   1      43.705  20.921  25.473  1.00  0.00     0.022 A 
BRANCH  71  75
ATOM     75  S   UNL A   1      41.778  19.473  26.869  1.00  0.00     0.124 S 
ATOM     76  O   UNL A   1      42.597  18.855  27.906  1.00  0.00    -0.237 OA
ATOM     77  O   UNL A   1      40.501  20.029  27.301  1.00  0.00    -0.237 OA
ATOM     78  O   UNL A   1      41.737  18.744  25.601  1.00  0.00    -0.744 OA
ENDBRANCH  71  75
ENDBRANCH  54  68
BRANCH  55  79
ATOM     79  C   UNL A   1      41.418  31.589  31.624  1.00  0.00     0.023 A 
ATOM     80  C   UNL A   1      40.347  30.826  32.137  1.00  0.00     0.031 A 
ATOM     81  C   UNL A   1      41.545  32.916  32.054  1.00  0.00     0.131 A 
ATOM     82  C   UNL A   1      39.516  31.357  33.133  1.00  0.00     0.055 A 
ATOM     83  C   UNL A   1      40.691  33.453  33.022  1.00  0.00     0.041 A 
ATOM     84  F   UNL A   1      42.564  33.677  31.631  1.00  0.00    -0.206 F 
ATOM     85  C   UNL A   1      39.697  32.662  33.594  1.00  0.00     0.022 A 
BRANCH  82  86
ATOM     86  S   UNL A   1      38.330  30.284  33.990  1.00  0.00     0.124 S 
ATOM     87  O   UNL A   1      37.055  30.906  33.663  1.00  0.00    -0.237 OA
ATOM     88  O   UNL A   1      38.574  28.972  33.393  1.00  0.00    -0.237 OA
ATOM     89  O   UNL A   1      38.749  30.390  35.388  1.00  0.00    -0.744 OA
ENDBRANCH  82  86
ENDBRANCH  55  79
BRANCH  67  90
ATOM     90  C   UNL A   1      45.631  25.758  32.527  1.00  0.00     0.023 A 
ATOM     91  C   UNL A   1      44.834  24.990  33.392  1.00  0.00     0.031 A 
ATOM     92  C   UNL A   1      47.030  25.611  32.683  1.00  0.00     0.131 A 
ATOM     93  C   UNL A   1      45.415  24.064  34.279  1.00  0.00     0.055 A 
ATOM     94  C   UNL A   1      47.605  24.750  33.623  1.00  0.00     0.041 A 
ATOM     95  F   UNL A   1      47.903  26.269  31.908  1.00  0.00    -0.206 F 
ATOM     96  C   UNL A   1      46.797  23.954  34.416  1.00  0.00     0.022 A 
BRANCH  93  97
ATOM     97  S   UNL A   1      44.325  22.946  35.198  1.00  0.00     0.124 S 
ATOM     98  O   UNL A   1      44.472  23.416  36.571  1.00  0.00    -0.237 OA
ATOM     99  O   UNL A   1      43.033  23.210  34.570  1.00  0.00    -0.237 OA
ATOM    100  O   UNL A   1      44.884  21.621  34.930  1.00  0.00    -0.744 OA
ENDBRANCH  93  97
ENDBRANCH  67  90
ENDBRANCH  41  42
ENDBRANCH  33  36
ENDBRANCH  31  32
ENDBRANCH   1  31
TORSDOF 16
ENDMDL
