MODEL 1
REMARK VINA RESULT:     -12.7      0.000      0.000
REMARK SMILES O=C(NCCCNC(=O)c1ccc(-c2c3nc(c(-c4cc(S(=O)(=O)[O-])ccc4F)c4ccc([nH]4)c(-c4cc(S(=O)(=O)[O-])ccc4F)c4nc(c(-c5cc(S(=O)(=O)[O-])ccc5F)c5ccc2[nH]5)C=C4)C=C3)cc1)C1=Cc2cc(S(F)(F)(F)(F)F)ccc2O[C@@H]1C(F)(F)F
REMARK SMILES IDX 6 1 5 2 4 3 3 4 1 5 2 6 73 8 74 9 88 10 75 11 87 12 76 13
REMARK SMILES IDX 86 14 77 15 85 16 84 17 89 18 90 19 91 20 92 21 78 22 79 23
REMARK SMILES IDX 80 24 81 25 82 26 83 27 7 28 8 29 9 31 10 32 11 33 72 34
REMARK SMILES IDX 12 35 71 36 13 37 14 38 15 39 65 40 16 41 70 42 64 43 66 44
REMARK SMILES IDX 17 45 69 46 63 47 62 48 18 50 50 51 30 52 49 53 31 54 34 55
REMARK SMILES IDX 48 56 67 57 32 58 33 59 47 61 68 62 35 63 19 64 20 65 28 66
REMARK SMILES IDX 21 67 27 68 29 69 26 70 22 71 23 72 24 73 25 74 51 75 52 76
REMARK SMILES IDX 60 77 53 78 59 79 61 80 58 81 54 82 55 83 56 84 57 85 36 86
REMARK SMILES IDX 37 87 45 88 38 89 44 90 46 91 43 92 39 93 40 94 41 95 42 96
REMARK H PARENT 3 7 7 30 66 49 34 60
REMARK Flexibility Score: inf
ROOT
ATOM      1  C   UNL A   1      33.057  30.621  27.465  1.00  0.00     0.118 C 
ENDROOT
BRANCH   1   2
ATOM      2  C   UNL A   1      33.754  30.092  26.223  1.00  0.00     0.042 C 
BRANCH   2   3
ATOM      3  C   UNL A   1      33.888  28.581  26.320  1.00  0.00     0.118 C 
BRANCH   3   4
ATOM      4  N   UNL A   1      32.798  28.045  27.148  1.00  0.00    -0.352 N 
ATOM      5  O   UNL A   1      30.653  27.026  27.227  1.00  0.00    -0.270 OA
ATOM      6  C   UNL A   1      31.596  27.489  26.511  1.00  0.00     0.251 C 
ATOM      7  H   UNL A   1      32.873  28.058  28.131  1.00  0.00     0.163 HD
BRANCH   6   8
ATOM      8  C   UNL A   1      31.479  27.469  24.995  1.00  0.00     0.067 C 
ATOM      9  C   UNL A   1      32.110  26.501  24.278  1.00  0.00     0.025 C 
ATOM     10  C   UNL A   1      30.658  28.531  24.282  1.00  0.00     0.314 C 
ATOM     11  C   UNL A   1      32.930  25.438  24.991  1.00  0.00     0.019 A 
ATOM     12  O   UNL A   1      31.276  25.204  26.682  1.00  0.00    -0.475 OA
ATOM     13  C   UNL A   1      34.188  25.188  24.468  1.00  0.00     0.036 A 
ATOM     14  C   UNL A   1      32.500  24.810  26.079  1.00  0.00     0.128 A 
ATOM     15  C   UNL A   1      34.813  24.036  25.000  1.00  0.00     0.107 A 
ATOM     16  C   UNL A   1      33.229  23.782  26.627  1.00  0.00     0.048 A 
ATOM     17  C   UNL A   1      34.453  23.441  26.123  1.00  0.00     0.028 A 
BRANCH  10  18
ATOM     18  C   UNL A   1      29.538  27.865  23.501  1.00  0.00     0.429 C 
ATOM     19  F   UNL A   1      30.000  27.454  22.324  1.00  0.00    -0.167 F 
ATOM     20  F   UNL A   1      29.080  26.820  24.185  1.00  0.00    -0.167 F 
ATOM     21  F   UNL A   1      28.552  28.736  23.310  1.00  0.00    -0.167 F 
ENDBRANCH  10  18
BRANCH  15  22
ATOM     22  S   UNL A   1      36.201  23.328  24.079  1.00  0.00     0.310 S 
ATOM     23  F   UNL A   1      36.205  22.025  24.982  1.00  0.00    -0.094 F 
ATOM     24  F   UNL A   1      37.189  23.972  25.125  1.00  0.00    -0.094 F 
ATOM     25  F   UNL A   1      37.391  22.712  23.291  1.00  0.00    -0.094 F 
ATOM     26  F   UNL A   1      35.190  22.577  23.126  1.00  0.00    -0.094 F 
ATOM     27  F   UNL A   1      34.980  23.854  24.935  1.00  0.00    -0.094 F 
ENDBRANCH  15  22
ENDBRANCH   6   8
ENDBRANCH   3   4
ENDBRANCH   2   3
ENDBRANCH   1   2
BRANCH   1  28
ATOM     28  N   UNL A   1      32.713  32.036  27.268  1.00  0.00    -0.352 N 
ATOM     29  C   UNL A   1      33.595  33.087  27.796  1.00  0.00     0.251 C 
ATOM     30  H   UNL A   1      31.892  32.281  26.783  1.00  0.00     0.163 HD
ATOM     31  O   UNL A   1      33.297  34.311  27.626  1.00  0.00    -0.269 OA
BRANCH  29  32
ATOM     32  C   UNL A   1      34.863  32.710  28.545  1.00  0.00     0.039 A 
ATOM     33  C   UNL A   1      36.090  33.090  28.029  1.00  0.00     0.014 A 
ATOM     34  C   UNL A   1      34.778  31.886  29.584  1.00  0.00     0.014 A 
ATOM     35  C   UNL A   1      37.176  32.315  28.499  1.00  0.00     0.010 A 
ATOM     36  C   UNL A   1      35.899  31.267  30.079  1.00  0.00     0.010 A 
ATOM     37  C   UNL A   1      37.139  31.552  29.576  1.00  0.00    -0.014 A 
BRANCH  37  38
ATOM     38  C   UNL A   1      38.406  31.018  30.224  1.00  0.00     0.031 A 
ATOM     39  C   UNL A   1      38.759  31.430  31.510  1.00  0.00     0.074 A 
ATOM     40  C   UNL A   1      39.060  30.016  29.527  1.00  0.00     0.049 A 
ATOM     41  N   UNL A   1      39.724  30.938  32.287  1.00  0.00    -0.248 NA
ATOM     42  C   UNL A   1      38.088  32.517  32.239  1.00  0.00     0.031 C 
ATOM     43  C   UNL A   1      38.705  29.587  28.233  1.00  0.00     0.029 A 
ATOM     44  N   UNL A   1      40.142  29.268  29.936  1.00  0.00    -0.354 N 
ATOM     45  C   UNL A   1      39.747  31.579  33.458  1.00  0.00     0.074 A 
ATOM     46  C   UNL A   1      38.698  32.607  33.441  1.00  0.00     0.031 C 
ATOM     47  C   UNL A   1      39.568  28.604  27.862  1.00  0.00     0.029 A 
ATOM     48  C   UNL A   1      40.475  28.401  28.919  1.00  0.00     0.049 A 
ATOM     49  H   UNL A   1      40.598  29.342  30.805  1.00  0.00     0.167 HD
ATOM     50  C   UNL A   1      40.597  31.343  34.538  1.00  0.00     0.034 A 
ATOM     51  C   UNL A   1      41.510  27.479  28.896  1.00  0.00     0.034 A 
ATOM     52  C   UNL A   1      41.605  30.391  34.530  1.00  0.00     0.049 A 
ATOM     53  C   UNL A   1      42.399  27.284  29.955  1.00  0.00     0.074 A 
ATOM     54  C   UNL A   1      42.467  30.137  35.614  1.00  0.00     0.029 A 
ATOM     55  N   UNL A   1      41.954  29.541  33.505  1.00  0.00    -0.354 N 
ATOM     56  N   UNL A   1      42.396  27.897  31.139  1.00  0.00    -0.248 NA
ATOM     57  C   UNL A   1      43.518  26.333  29.929  1.00  0.00     0.031 C 
ATOM     58  C   UNL A   1      43.329  29.153  35.245  1.00  0.00     0.029 A 
ATOM     59  C   UNL A   1      43.021  28.778  33.923  1.00  0.00     0.049 A 
ATOM     60  H   UNL A   1      41.516  29.489  32.624  1.00  0.00     0.167 HD
ATOM     61  C   UNL A   1      43.388  27.432  31.901  1.00  0.00     0.074 A 
ATOM     62  C   UNL A   1      44.129  26.426  31.130  1.00  0.00     0.031 C 
ATOM     63  C   UNL A   1      43.703  27.805  33.208  1.00  0.00     0.034 A 
BRANCH  50  64
ATOM     64  C   UNL A   1      40.410  32.178  35.795  1.00  0.00     0.023 A 
ATOM     65  C   UNL A   1      39.480  31.813  36.754  1.00  0.00     0.031 A 
ATOM     66  C   UNL A   1      41.176  33.252  35.951  1.00  0.00     0.131 A 
ATOM     67  C   UNL A   1      39.230  32.815  37.720  1.00  0.00     0.055 A 
ATOM     68  C   UNL A   1      40.961  34.116  36.997  1.00  0.00     0.041 A 
ATOM     69  F   UNL A   1      42.159  33.491  35.089  1.00  0.00    -0.206 F 
ATOM     70  C   UNL A   1      40.019  33.848  37.950  1.00  0.00     0.022 A 
BRANCH  67  71
ATOM     71  S   UNL A   1      37.721  32.671  38.711  1.00  0.00     0.124 S 
ATOM     72  O   UNL A   1      37.576  31.234  39.215  1.00  0.00    -0.237 OA
ATOM     73  O   UNL A   1      37.802  33.625  39.906  1.00  0.00    -0.237 OA
ATOM     74  O   UNL A   1      36.366  33.078  37.750  1.00  0.00    -0.744 OA
ENDBRANCH  67  71
ENDBRANCH  50  64
BRANCH  51  75
ATOM     75  C   UNL A   1      41.687  26.632  27.645  1.00  0.00     0.023 A 
ATOM     76  C   UNL A   1      41.112  25.375  27.560  1.00  0.00     0.031 A 
ATOM     77  C   UNL A   1      42.423  27.123  26.655  1.00  0.00     0.131 A 
ATOM     78  C   UNL A   1      41.614  24.587  26.497  1.00  0.00     0.055 A 
ATOM     79  C   UNL A   1      42.763  26.335  25.581  1.00  0.00     0.041 A 
ATOM     80  F   UNL A   1      42.835  28.386  26.703  1.00  0.00    -0.206 F 
ATOM     81  C   UNL A   1      42.278  25.063  25.461  1.00  0.00     0.022 A 
BRANCH  78  82
ATOM     82  S   UNL A   1      41.325  22.802  26.565  1.00  0.00     0.124 S 
ATOM     83  O   UNL A   1      41.707  22.274  27.950  1.00  0.00    -0.237 OA
ATOM     84  O   UNL A   1      39.845  22.514  26.300  1.00  0.00    -0.237 OA
ATOM     85  O   UNL A   1      42.278  22.025  25.376  1.00  0.00    -0.744 OA
ENDBRANCH  78  82
ENDBRANCH  51  75
BRANCH  63  86
ATOM     86  C   UNL A   1      44.865  27.102  33.891  1.00  0.00     0.023 A 
ATOM     87  C   UNL A   1      44.595  25.949  34.609  1.00  0.00     0.031 A 
ATOM     88  C   UNL A   1      46.067  27.667  33.922  1.00  0.00     0.131 A 
ATOM     89  C   UNL A   1      45.585  25.624  35.567  1.00  0.00     0.055 A 
ATOM     90  C   UNL A   1      47.032  27.211  34.788  1.00  0.00     0.041 A 
ATOM     91  F   UNL A   1      46.339  28.683  33.107  1.00  0.00    -0.206 F 
ATOM     92  C   UNL A   1      46.812  26.112  35.569  1.00  0.00     0.022 A 
BRANCH  89  93
ATOM     93  S   UNL A   1      45.137  24.460  36.878  1.00  0.00     0.124 S 
ATOM     94  O   UNL A   1      46.271  24.385  37.903  1.00  0.00    -0.237 OA
ATOM     95  O   UNL A   1      43.856  24.936  37.567  1.00  0.00    -0.237 OA
ATOM     96  O   UNL A   1      44.878  22.911  36.201  1.00  0.00    -0.744 OA
ENDBRANCH  89  93
ENDBRANCH  63  86
ENDBRANCH  37  38
ENDBRANCH  29  32
ENDBRANCH   1  28
TORSDOF 15
ENDMDL
MODEL 2
REMARK VINA RESULT:     -12.6      1.597      3.604
REMARK SMILES O=C(NCCCNC(=O)c1ccc(-c2c3nc(c(-c4cc(S(=O)(=O)[O-])ccc4F)c4ccc([nH]4)c(-c4cc(S(=O)(=O)[O-])ccc4F)c4nc(c(-c5cc(S(=O)(=O)[O-])ccc5F)c5ccc2[nH]5)C=C4)C=C3)cc1)C1=Cc2cc(S(F)(F)(F)(F)F)ccc2O[C@@H]1C(F)(F)F
REMARK SMILES IDX 6 1 5 2 4 3 3 4 1 5 2 6 73 8 74 9 88 10 75 11 87 12 76 13
REMARK SMILES IDX 86 14 77 15 85 16 84 17 89 18 90 19 91 20 92 21 78 22 79 23
REMARK SMILES IDX 80 24 81 25 82 26 83 27 7 28 8 29 9 31 10 32 11 33 72 34
REMARK SMILES IDX 12 35 71 36 13 37 14 38 15 39 65 40 16 41 70 42 64 43 66 44
REMARK SMILES IDX 17 45 69 46 63 47 62 48 18 50 50 51 30 52 49 53 31 54 34 55
REMARK SMILES IDX 48 56 67 57 32 58 33 59 47 61 68 62 35 63 19 64 20 65 28 66
REMARK SMILES IDX 21 67 27 68 29 69 26 70 22 71 23 72 24 73 25 74 51 75 52 76
REMARK SMILES IDX 60 77 53 78 59 79 61 80 58 81 54 82 55 83 56 84 57 85 36 86
REMARK SMILES IDX 37 87 45 88 38 89 44 90 46 91 43 92 39 93 40 94 41 95 42 96
REMARK H PARENT 3 7 7 30 66 49 34 60
REMARK Flexibility Score: inf
ROOT
ATOM      1  C   UNL A   1      32.907  30.247  26.608  1.00  0.00     0.118 C 
ENDROOT
BRANCH   1   2
ATOM      2  C   UNL A   1      31.704  29.375  26.927  1.00  0.00     0.042 C 
BRANCH   2   3
ATOM      3  C   UNL A   1      32.176  28.051  27.506  1.00  0.00     0.118 C 
BRANCH   3   4
ATOM      4  N   UNL A   1      33.353  27.582  26.761  1.00  0.00    -0.352 N 
ATOM      5  O   UNL A   1      34.298  25.935  25.333  1.00  0.00    -0.270 OA
ATOM      6  C   UNL A   1      33.281  26.340  25.978  1.00  0.00     0.251 C 
ATOM      7  H   UNL A   1      34.191  28.100  26.785  1.00  0.00     0.163 HD
BRANCH   6   8
ATOM      8  C   UNL A   1      31.989  25.540  25.940  1.00  0.00     0.067 C 
ATOM      9  C   UNL A   1      30.960  25.946  25.148  1.00  0.00     0.025 C 
ATOM     10  C   UNL A   1      31.847  24.285  26.785  1.00  0.00     0.314 C 
ATOM     11  C   UNL A   1      31.102  27.201  24.302  1.00  0.00     0.019 A 
ATOM     12  O   UNL A   1      33.318  26.609  23.680  1.00  0.00    -0.475 OA
ATOM     13  C   UNL A   1      30.044  28.093  24.354  1.00  0.00     0.036 A 
ATOM     14  C   UNL A   1      32.189  27.463  23.585  1.00  0.00     0.128 A 
ATOM     15  C   UNL A   1      30.104  29.113  23.375  1.00  0.00     0.107 A 
ATOM     16  C   UNL A   1      32.229  28.555  22.751  1.00  0.00     0.048 A 
ATOM     17  C   UNL A   1      31.193  29.446  22.706  1.00  0.00     0.028 A 
BRANCH  10  18
ATOM     18  C   UNL A   1      31.586  23.092  25.882  1.00  0.00     0.429 C 
ATOM     19  F   UNL A   1      30.277  22.866  25.812  1.00  0.00    -0.167 F 
ATOM     20  F   UNL A   1      32.056  23.346  24.664  1.00  0.00    -0.167 F 
ATOM     21  F   UNL A   1      32.194  22.019  26.377  1.00  0.00    -0.167 F 
ENDBRANCH  10  18
BRANCH  15  22
ATOM     22  S   UNL A   1      28.582  30.025  23.014  1.00  0.00     0.310 S 
ATOM     23  F   UNL A   1      29.260  30.778  21.794  1.00  0.00    -0.094 F 
ATOM     24  F   UNL A   1      29.097  31.197  23.934  1.00  0.00    -0.094 F 
ATOM     25  F   UNL A   1      27.278  30.810  22.696  1.00  0.00    -0.094 F 
ATOM     26  F   UNL A   1      28.149  28.905  21.989  1.00  0.00    -0.094 F 
ATOM     27  F   UNL A   1      29.952  29.268  23.240  1.00  0.00    -0.094 F 
ENDBRANCH  15  22
ENDBRANCH   6   8
ENDBRANCH   3   4
ENDBRANCH   2   3
ENDBRANCH   1   2
BRANCH   1  28
ATOM     28  N   UNL A   1      32.568  31.656  26.849  1.00  0.00    -0.352 N 
ATOM     29  C   UNL A   1      33.507  32.526  27.571  1.00  0.00     0.251 C 
ATOM     30  H   UNL A   1      31.710  32.018  26.526  1.00  0.00     0.163 HD
ATOM     31  O   UNL A   1      33.213  33.745  27.779  1.00  0.00    -0.269 OA
BRANCH  29  32
ATOM     32  C   UNL A   1      34.830  31.968  28.068  1.00  0.00     0.039 A 
ATOM     33  C   UNL A   1      34.844  30.748  28.724  1.00  0.00     0.014 A 
ATOM     34  C   UNL A   1      35.915  32.732  28.012  1.00  0.00     0.014 A 
ATOM     35  C   UNL A   1      35.980  30.550  29.544  1.00  0.00     0.010 A 
ATOM     36  C   UNL A   1      37.038  32.405  28.733  1.00  0.00     0.010 A 
ATOM     37  C   UNL A   1      37.099  31.243  29.452  1.00  0.00    -0.014 A 
BRANCH  37  38
ATOM     38  C   UNL A   1      38.388  30.776  30.108  1.00  0.00     0.031 A 
ATOM     39  C   UNL A   1      38.720  31.224  31.388  1.00  0.00     0.074 A 
ATOM     40  C   UNL A   1      39.085  29.792  29.429  1.00  0.00     0.049 A 
ATOM     41  N   UNL A   1      39.705  30.788  32.173  1.00  0.00    -0.248 NA
ATOM     42  C   UNL A   1      38.002  32.293  32.099  1.00  0.00     0.031 C 
ATOM     43  C   UNL A   1      38.751  29.327  28.141  1.00  0.00     0.029 A 
ATOM     44  N   UNL A   1      40.198  29.099  29.851  1.00  0.00    -0.354 N 
ATOM     45  C   UNL A   1      39.698  31.447  33.334  1.00  0.00     0.074 A 
ATOM     46  C   UNL A   1      38.605  32.429  33.300  1.00  0.00     0.031 C 
ATOM     47  C   UNL A   1      39.657  28.377  27.788  1.00  0.00     0.029 A 
ATOM     48  C   UNL A   1      40.570  28.231  28.848  1.00  0.00     0.049 A 
ATOM     49  H   UNL A   1      40.649  29.207  30.719  1.00  0.00     0.167 HD
ATOM     50  C   UNL A   1      40.557  31.267  34.418  1.00  0.00     0.034 A 
ATOM     51  C   UNL A   1      41.645  27.355  28.841  1.00  0.00     0.034 A 
ATOM     52  C   UNL A   1      41.605  30.360  34.427  1.00  0.00     0.049 A 
ATOM     53  C   UNL A   1      42.540  27.216  29.903  1.00  0.00     0.074 A 
ATOM     54  C   UNL A   1      42.476  30.161  35.515  1.00  0.00     0.029 A 
ATOM     55  N   UNL A   1      41.992  29.510  33.416  1.00  0.00    -0.354 N 
ATOM     56  N   UNL A   1      42.508  27.847  31.078  1.00  0.00    -0.248 NA
ATOM     57  C   UNL A   1      43.700  26.315  29.893  1.00  0.00     0.031 C 
ATOM     58  C   UNL A   1      43.381  29.210  35.162  1.00  0.00     0.029 A 
ATOM     59  C   UNL A   1      43.091  28.801  33.847  1.00  0.00     0.049 A 
ATOM     60  H   UNL A   1      41.558  29.424  32.536  1.00  0.00     0.167 HD
ATOM     61  C   UNL A   1      43.519  27.439  31.848  1.00  0.00     0.074 A 
ATOM     62  C   UNL A   1      44.305  26.453  31.093  1.00  0.00     0.031 C 
ATOM     63  C   UNL A   1      43.816  27.847  33.149  1.00  0.00     0.034 A 
BRANCH  50  64
ATOM     64  C   UNL A   1      40.331  32.114  35.661  1.00  0.00     0.023 A 
ATOM     65  C   UNL A   1      39.408  31.730  36.619  1.00  0.00     0.031 A 
ATOM     66  C   UNL A   1      41.058  33.216  35.806  1.00  0.00     0.131 A 
ATOM     67  C   UNL A   1      39.116  32.737  37.569  1.00  0.00     0.055 A 
ATOM     68  C   UNL A   1      40.807  34.088  36.838  1.00  0.00     0.041 A 
ATOM     69  F   UNL A   1      42.039  33.476  34.947  1.00  0.00    -0.206 F 
ATOM     70  C   UNL A   1      39.867  33.801  37.788  1.00  0.00     0.022 A 
BRANCH  67  71
ATOM     71  S   UNL A   1      37.607  32.556  38.551  1.00  0.00     0.124 S 
ATOM     72  O   UNL A   1      36.411  33.078  37.752  1.00  0.00    -0.237 OA
ATOM     73  O   UNL A   1      37.390  31.078  38.887  1.00  0.00    -0.237 OA
ATOM     74  O   UNL A   1      37.758  33.451  40.001  1.00  0.00    -0.744 OA
ENDBRANCH  67  71
ENDBRANCH  50  64
BRANCH  51  75
ATOM     75  C   UNL A   1      41.860  26.496  27.604  1.00  0.00     0.023 A 
ATOM     76  C   UNL A   1      41.312  25.226  27.525  1.00  0.00     0.031 A 
ATOM     77  C   UNL A   1      42.604  26.989  26.621  1.00  0.00     0.131 A 
ATOM     78  C   UNL A   1      41.847  24.436  26.482  1.00  0.00     0.055 A 
ATOM     79  C   UNL A   1      42.977  26.195  25.562  1.00  0.00     0.041 A 
ATOM     80  F   UNL A   1      42.989  28.261  26.659  1.00  0.00    -0.206 F 
ATOM     81  C   UNL A   1      42.520  24.912  25.450  1.00  0.00     0.022 A 
BRANCH  78  82
ATOM     82  S   UNL A   1      41.593  22.646  26.568  1.00  0.00     0.124 S 
ATOM     83  O   UNL A   1      42.278  21.974  25.376  1.00  0.00    -0.237 OA
ATOM     84  O   UNL A   1      42.190  22.107  27.870  1.00  0.00    -0.237 OA
ATOM     85  O   UNL A   1      39.916  22.306  26.526  1.00  0.00    -0.744 OA
ENDBRANCH  78  82
ENDBRANCH  51  75
BRANCH  63  86
ATOM     86  C   UNL A   1      45.007  27.207  33.843  1.00  0.00     0.023 A 
ATOM     87  C   UNL A   1      44.783  26.064  34.594  1.00  0.00     0.031 A 
ATOM     88  C   UNL A   1      46.187  27.816  33.851  1.00  0.00     0.131 A 
ATOM     89  C   UNL A   1      45.789  25.803  35.555  1.00  0.00     0.055 A 
ATOM     90  C   UNL A   1      47.173  27.421  34.724  1.00  0.00     0.041 A 
ATOM     91  F   UNL A   1      46.417  28.818  33.007  1.00  0.00    -0.206 F 
ATOM     92  C   UNL A   1      46.997  26.336  35.537  1.00  0.00     0.022 A 
BRANCH  89  93
ATOM     93  S   UNL A   1      45.391  24.660  36.900  1.00  0.00     0.124 S 
ATOM     94  O   UNL A   1      45.298  23.235  36.349  1.00  0.00    -0.237 OA
ATOM     95  O   UNL A   1      46.487  24.725  37.966  1.00  0.00    -0.237 OA
ATOM     96  O   UNL A   1      43.893  25.100  37.597  1.00  0.00    -0.744 OA
ENDBRANCH  89  93
ENDBRANCH  63  86
ENDBRANCH  37  38
ENDBRANCH  29  32
ENDBRANCH   1  28
TORSDOF 15
ENDMDL
MODEL 3
REMARK VINA RESULT:     -12.6      2.236      2.737
REMARK SMILES O=C(NCCCNC(=O)c1ccc(-c2c3nc(c(-c4cc(S(=O)(=O)[O-])ccc4F)c4ccc([nH]4)c(-c4cc(S(=O)(=O)[O-])ccc4F)c4nc(c(-c5cc(S(=O)(=O)[O-])ccc5F)c5ccc2[nH]5)C=C4)C=C3)cc1)C1=Cc2cc(S(F)(F)(F)(F)F)ccc2O[C@@H]1C(F)(F)F
REMARK SMILES IDX 6 1 5 2 4 3 3 4 1 5 2 6 73 8 74 9 88 10 75 11 87 12 76 13
REMARK SMILES IDX 86 14 77 15 85 16 84 17 89 18 90 19 91 20 92 21 78 22 79 23
REMARK SMILES IDX 80 24 81 25 82 26 83 27 7 28 8 29 9 31 10 32 11 33 72 34
REMARK SMILES IDX 12 35 71 36 13 37 14 38 15 39 65 40 16 41 70 42 64 43 66 44
REMARK SMILES IDX 17 45 69 46 63 47 62 48 18 50 50 51 30 52 49 53 31 54 34 55
REMARK SMILES IDX 48 56 67 57 32 58 33 59 47 61 68 62 35 63 19 64 20 65 28 66
REMARK SMILES IDX 21 67 27 68 29 69 26 70 22 71 23 72 24 73 25 74 51 75 52 76
REMARK SMILES IDX 60 77 53 78 59 79 61 80 58 81 54 82 55 83 56 84 57 85 36 86
REMARK SMILES IDX 37 87 45 88 38 89 44 90 46 91 43 92 39 93 40 94 41 95 42 96
REMARK H PARENT 3 7 7 30 66 49 34 60
REMARK Flexibility Score: inf
ROOT
ATOM      1  C   UNL A   1      33.538  28.943  25.260  1.00  0.00     0.118 C 
ENDROOT
BRANCH   1   2
ATOM      2  C   UNL A   1      34.010  28.964  23.816  1.00  0.00     0.042 C 
BRANCH   2   3
ATOM      3  C   UNL A   1      32.929  28.381  22.920  1.00  0.00     0.118 C 
BRANCH   3   4
ATOM      4  N   UNL A   1      33.499  27.297  22.107  1.00  0.00    -0.352 N 
ATOM      5  O   UNL A   1      33.276  25.082  21.276  1.00  0.00    -0.270 OA
ATOM      6  C   UNL A   1      32.783  26.020  21.979  1.00  0.00     0.251 C 
ATOM      7  H   UNL A   1      34.362  27.426  21.649  1.00  0.00     0.163 HD
BRANCH   6   8
ATOM      8  C   UNL A   1      31.453  25.820  22.687  1.00  0.00     0.067 C 
ATOM      9  C   UNL A   1      31.270  24.744  23.498  1.00  0.00     0.025 C 
ATOM     10  C   UNL A   1      30.329  26.823  22.489  1.00  0.00     0.314 C 
ATOM     11  C   UNL A   1      32.395  23.741  23.697  1.00  0.00     0.019 A 
ATOM     12  O   UNL A   1      34.003  25.482  23.870  1.00  0.00    -0.475 OA
ATOM     13  C   UNL A   1      32.045  22.405  23.584  1.00  0.00     0.036 A 
ATOM     14  C   UNL A   1      33.651  24.108  23.920  1.00  0.00     0.128 A 
ATOM     15  C   UNL A   1      33.053  21.510  24.015  1.00  0.00     0.107 A 
ATOM     16  C   UNL A   1      34.614  23.168  24.201  1.00  0.00     0.048 A 
ATOM     17  C   UNL A   1      34.325  21.832  24.167  1.00  0.00     0.028 A 
BRANCH  10  18
ATOM     18  C   UNL A   1      29.952  27.433  23.829  1.00  0.00     0.429 C 
ATOM     19  F   UNL A   1      28.803  26.911  24.247  1.00  0.00    -0.167 F 
ATOM     20  F   UNL A   1      30.906  27.173  24.719  1.00  0.00    -0.167 F 
ATOM     21  F   UNL A   1      29.818  28.749  23.695  1.00  0.00    -0.167 F 
ENDBRANCH  10  18
BRANCH  15  22
ATOM     22  S   UNL A   1      32.566  19.806  24.382  1.00  0.00     0.310 S 
ATOM     23  F   UNL A   1      34.061  19.294  24.253  1.00  0.00    -0.094 F 
ATOM     24  F   UNL A   1      32.415  19.543  22.835  1.00  0.00    -0.094 F 
ATOM     25  F   UNL A   1      32.155  18.340  24.700  1.00  0.00    -0.094 F 
ATOM     26  F   UNL A   1      32.858  20.049  25.915  1.00  0.00    -0.094 F 
ATOM     27  F   UNL A   1      33.093  21.263  24.066  1.00  0.00    -0.094 F 
ENDBRANCH  15  22
ENDBRANCH   6   8
ENDBRANCH   3   4
ENDBRANCH   2   3
ENDBRANCH   1   2
BRANCH   1  28
ATOM     28  N   UNL A   1      32.575  30.030  25.477  1.00  0.00    -0.352 N 
ATOM     29  C   UNL A   1      32.766  30.973  26.589  1.00  0.00     0.251 C 
ATOM     30  H   UNL A   1      31.799  30.128  24.878  1.00  0.00     0.163 HD
ATOM     31  O   UNL A   1      31.932  31.913  26.776  1.00  0.00    -0.269 OA
BRANCH  29  32
ATOM     32  C   UNL A   1      33.963  30.822  27.514  1.00  0.00     0.039 A 
ATOM     33  C   UNL A   1      34.808  31.902  27.706  1.00  0.00     0.014 A 
ATOM     34  C   UNL A   1      34.267  29.618  27.986  1.00  0.00     0.014 A 
ATOM     35  C   UNL A   1      36.099  31.547  28.164  1.00  0.00     0.010 A 
ATOM     36  C   UNL A   1      35.498  29.376  28.544  1.00  0.00     0.010 A 
ATOM     37  C   UNL A   1      36.405  30.386  28.711  1.00  0.00    -0.014 A 
BRANCH  37  38
ATOM     38  C   UNL A   1      37.697  30.180  29.485  1.00  0.00     0.031 A 
ATOM     39  C   UNL A   1      37.856  30.765  30.743  1.00  0.00     0.074 A 
ATOM     40  C   UNL A   1      38.590  29.279  28.933  1.00  0.00     0.049 A 
ATOM     41  N   UNL A   1      38.834  30.550  31.623  1.00  0.00    -0.248 NA
ATOM     42  C   UNL A   1      36.926  31.749  31.317  1.00  0.00     0.031 C 
ATOM     43  C   UNL A   1      38.433  28.677  27.669  1.00  0.00     0.029 A 
ATOM     44  N   UNL A   1      39.763  28.807  29.481  1.00  0.00    -0.354 N 
ATOM     45  C   UNL A   1      38.635  31.278  32.723  1.00  0.00     0.074 A 
ATOM     46  C   UNL A   1      37.407  32.064  32.540  1.00  0.00     0.031 C 
ATOM     47  C   UNL A   1      39.501  27.865  27.452  1.00  0.00     0.029 A 
ATOM     48  C   UNL A   1      40.343  27.943  28.578  1.00  0.00     0.049 A 
ATOM     49  H   UNL A   1      40.124  29.046  30.365  1.00  0.00     0.167 HD
ATOM     50  C   UNL A   1      39.425  31.315  33.872  1.00  0.00     0.034 A 
ATOM     51  C   UNL A   1      41.539  27.255  28.710  1.00  0.00     0.034 A 
ATOM     52  C   UNL A   1      40.599  30.594  34.021  1.00  0.00     0.049 A 
ATOM     53  C   UNL A   1      42.360  27.337  29.836  1.00  0.00     0.074 A 
ATOM     54  C   UNL A   1      41.405  30.615  35.176  1.00  0.00     0.029 A 
ATOM     55  N   UNL A   1      41.191  29.749  33.109  1.00  0.00    -0.354 N 
ATOM     56  N   UNL A   1      42.140  28.035  30.951  1.00  0.00    -0.248 NA
ATOM     57  C   UNL A   1      43.645  26.638  29.973  1.00  0.00     0.031 C 
ATOM     58  C   UNL A   1      42.473  29.801  34.960  1.00  0.00     0.029 A 
ATOM     59  C   UNL A   1      42.352  29.260  33.666  1.00  0.00     0.049 A 
ATOM     60  H   UNL A   1      40.845  29.533  32.213  1.00  0.00     0.167 HD
ATOM     61  C   UNL A   1      43.141  27.851  31.815  1.00  0.00     0.074 A 
ATOM     62  C   UNL A   1      44.127  26.956  31.195  1.00  0.00     0.031 C 
ATOM     63  C   UNL A   1      43.269  28.391  33.095  1.00  0.00     0.034 A 
BRANCH  50  64
ATOM     64  C   UNL A   1      38.975  32.198  35.025  1.00  0.00     0.023 A 
ATOM     65  C   UNL A   1      39.319  33.539  35.064  1.00  0.00     0.031 A 
ATOM     66  C   UNL A   1      38.229  31.650  35.977  1.00  0.00     0.131 A 
ATOM     67  C   UNL A   1      39.065  34.159  36.310  1.00  0.00     0.055 A 
ATOM     68  C   UNL A   1      37.905  32.361  37.107  1.00  0.00     0.041 A 
ATOM     69  F   UNL A   1      37.791  30.403  35.834  1.00  0.00    -0.206 F 
ATOM     70  C   UNL A   1      38.263  33.673  37.240  1.00  0.00     0.022 A 
BRANCH  67  71
ATOM     71  S   UNL A   1      39.899  35.728  36.655  1.00  0.00     0.124 S 
ATOM     72  O   UNL A   1      41.402  35.486  36.808  1.00  0.00    -0.237 OA
ATOM     73  O   UNL A   1      39.654  36.702  35.499  1.00  0.00    -0.237 OA
ATOM     74  O   UNL A   1      39.280  36.398  38.102  1.00  0.00    -0.744 OA
ENDBRANCH  67  71
ENDBRANCH  50  64
BRANCH  51  75
ATOM     75  C   UNL A   1      41.981  26.359  27.563  1.00  0.00     0.023 A 
ATOM     76  C   UNL A   1      41.465  25.080  27.430  1.00  0.00     0.031 A 
ATOM     77  C   UNL A   1      42.886  26.829  26.714  1.00  0.00     0.131 A 
ATOM     78  C   UNL A   1      42.186  24.263  26.529  1.00  0.00     0.055 A 
ATOM     79  C   UNL A   1      43.450  26.006  25.768  1.00  0.00     0.041 A 
ATOM     80  F   UNL A   1      43.250  28.106  26.777  1.00  0.00    -0.206 F 
ATOM     81  C   UNL A   1      43.031  24.714  25.620  1.00  0.00     0.022 A 
BRANCH  78  82
ATOM     82  S   UNL A   1      41.932  22.474  26.629  1.00  0.00     0.124 S 
ATOM     83  O   UNL A   1      42.504  21.806  25.378  1.00  0.00    -0.237 OA
ATOM     84  O   UNL A   1      42.642  21.926  27.870  1.00  0.00    -0.237 OA
ATOM     85  O   UNL A   1      40.258  22.141  26.738  1.00  0.00    -0.744 OA
ENDBRANCH  78  82
ENDBRANCH  51  75
BRANCH  63  86
ATOM     86  C   UNL A   1      44.489  28.002  33.914  1.00  0.00     0.023 A 
ATOM     87  C   UNL A   1      44.368  26.940  34.795  1.00  0.00     0.031 A 
ATOM     88  C   UNL A   1      45.580  28.759  33.894  1.00  0.00     0.131 A 
ATOM     89  C   UNL A   1      45.342  26.932  35.822  1.00  0.00     0.055 A 
ATOM     90  C   UNL A   1      46.556  28.606  34.849  1.00  0.00     0.041 A 
ATOM     91  F   UNL A   1      45.731  29.673  32.939  1.00  0.00    -0.206 F 
ATOM     92  C   UNL A   1      46.472  27.614  35.786  1.00  0.00     0.022 A 
BRANCH  89  93
ATOM     93  S   UNL A   1      45.014  25.918  37.284  1.00  0.00     0.124 S 
ATOM     94  O   UNL A   1      46.225  25.025  37.568  1.00  0.00    -0.237 OA
ATOM     95  O   UNL A   1      44.758  26.827  38.488  1.00  0.00    -0.237 OA
ATOM     96  O   UNL A   1      43.639  24.942  37.005  1.00  0.00    -0.744 OA
ENDBRANCH  89  93
ENDBRANCH  63  86
ENDBRANCH  37  38
ENDBRANCH  29  32
ENDBRANCH   1  28
TORSDOF 15
ENDMDL
