MODEL 1
REMARK VINA RESULT:     -11.8      0.000      0.000
REMARK SMILES O=C(Cc1ccn(C(F)F)c(=O)c1)NCCCNC(=O)c1ccc(-c2c3nc(c(-c4cc(S(=O)(=O)[O-])ccc4F)c4ccc([nH]4)c(-c4cc(S(=O)(=O)[O-])ccc4F)c4nc(c(-c5cc(S(=O)(=O)[O-])ccc5F)c5ccc2[nH]5)C=C4)C=C3)cc1
REMARK SMILES IDX 16 1 15 2 14 3 1 4 2 5 3 7 4 8 5 9 13 10 6 11 11 12 7 13
REMARK SMILES IDX 12 14 8 15 9 16 10 17 17 18 18 19 19 20 20 22 21 23 22 24
REMARK SMILES IDX 83 25 23 26 82 27 24 28 25 29 26 30 76 31 27 32 81 33 75 34
REMARK SMILES IDX 77 35 28 36 80 37 74 38 73 39 29 41 61 42 41 43 60 44 42 45
REMARK SMILES IDX 45 46 59 47 78 48 43 49 44 50 58 52 79 53 46 54 30 55 31 56
REMARK SMILES IDX 39 57 32 58 38 59 40 60 37 61 33 62 34 63 35 64 36 65 62 66
REMARK SMILES IDX 63 67 71 68 64 69 70 70 72 71 69 72 65 73 66 74 67 75 68 76
REMARK SMILES IDX 47 77 48 78 56 79 49 80 55 81 57 82 54 83 50 84 51 85 52 86
REMARK SMILES IDX 53 87
REMARK H PARENT 14 6 18 21 77 40 45 51
REMARK Flexibility Score: inf
ROOT
ATOM      1  C   UNL A   1      31.761  29.134  27.252  1.00  0.00     0.042 C 
ENDROOT
BRANCH   1   2
ATOM      2  C   UNL A   1      31.749  27.682  26.807  1.00  0.00     0.117 C 
BRANCH   2   3
ATOM      3  N   UNL A   1      31.107  27.503  25.520  1.00  0.00    -0.356 N 
ATOM      4  O   UNL A   1      32.656  26.034  24.660  1.00  0.00    -0.275 OA
ATOM      5  C   UNL A   1      31.601  26.651  24.554  1.00  0.00     0.224 C 
ATOM      6  H   UNL A   1      30.285  28.010  25.328  1.00  0.00     0.163 HD
BRANCH   5   7
ATOM      7  C   UNL A   1      30.674  26.485  23.355  1.00  0.00     0.135 C 
BRANCH   7   8
ATOM      8  C   UNL A   1      29.891  27.724  22.974  1.00  0.00    -0.032 A 
ATOM      9  C   UNL A   1      30.529  28.875  22.362  1.00  0.00     0.022 A 
ATOM     10  C   UNL A   1      28.565  27.776  23.204  1.00  0.00     0.076 A 
ATOM     11  C   UNL A   1      29.813  29.952  22.016  1.00  0.00     0.095 A 
ATOM     12  C   UNL A   1      27.760  28.981  22.857  1.00  0.00     0.255 A 
ATOM     13  N   UNL A   1      28.454  30.013  22.250  1.00  0.00    -0.258 N 
ATOM     14  O   UNL A   1      26.562  28.983  23.127  1.00  0.00    -0.269 OA
BRANCH  13  15
ATOM     15  C   UNL A   1      27.717  31.208  21.936  1.00  0.00     0.451 C 
ATOM     16  F   UNL A   1      27.560  32.000  23.023  1.00  0.00    -0.185 F 
ATOM     17  F   UNL A   1      28.357  31.929  20.981  1.00  0.00    -0.185 F 
ENDBRANCH  13  15
ENDBRANCH   7   8
ENDBRANCH   5   7
ENDBRANCH   2   3
ENDBRANCH   1   2
BRANCH   1  18
ATOM     18  C   UNL A   1      32.345  30.104  26.232  1.00  0.00     0.118 C 
BRANCH  18  19
ATOM     19  N   UNL A   1      32.182  31.507  26.592  1.00  0.00    -0.352 N 
ATOM     20  C   UNL A   1      33.000  32.327  27.337  1.00  0.00     0.251 C 
ATOM     21  H   UNL A   1      31.362  31.933  26.251  1.00  0.00     0.163 HD
ATOM     22  O   UNL A   1      32.618  33.460  27.619  1.00  0.00    -0.269 OA
BRANCH  20  23
ATOM     23  C   UNL A   1      34.306  31.831  27.834  1.00  0.00     0.039 A 
ATOM     24  C   UNL A   1      34.497  30.481  28.130  1.00  0.00     0.014 A 
ATOM     25  C   UNL A   1      35.347  32.741  28.038  1.00  0.00     0.014 A 
ATOM     26  C   UNL A   1      35.635  30.082  28.823  1.00  0.00     0.010 A 
ATOM     27  C   UNL A   1      36.539  32.313  28.636  1.00  0.00     0.010 A 
ATOM     28  C   UNL A   1      36.670  30.993  29.093  1.00  0.00    -0.014 A 
BRANCH  28  29
ATOM     29  C   UNL A   1      37.869  30.538  29.853  1.00  0.00     0.031 A 
ATOM     30  C   UNL A   1      38.106  30.987  31.271  1.00  0.00     0.074 A 
ATOM     31  C   UNL A   1      38.722  29.668  29.275  1.00  0.00     0.049 A 
ATOM     32  N   UNL A   1      39.072  30.652  32.089  1.00  0.00    -0.248 NA
ATOM     33  C   UNL A   1      37.143  31.940  31.849  1.00  0.00     0.031 C 
ATOM     34  C   UNL A   1      38.599  29.164  27.908  1.00  0.00     0.029 A 
ATOM     35  N   UNL A   1      39.842  29.039  29.762  1.00  0.00    -0.354 N 
ATOM     36  C   UNL A   1      38.844  31.358  33.266  1.00  0.00     0.074 A 
ATOM     37  C   UNL A   1      37.673  32.176  33.042  1.00  0.00     0.031 C 
ATOM     38  C   UNL A   1      39.563  28.262  27.683  1.00  0.00     0.029 A 
ATOM     39  C   UNL A   1      40.426  28.179  28.859  1.00  0.00     0.049 A 
ATOM     40  H   UNL A   1      40.192  29.187  30.669  1.00  0.00     0.167 HD
ATOM     41  C   UNL A   1      39.534  31.312  34.430  1.00  0.00     0.034 A 
ATOM     42  C   UNL A   1      41.535  27.418  28.953  1.00  0.00     0.034 A 
ATOM     43  C   UNL A   1      40.687  30.473  34.647  1.00  0.00     0.049 A 
ATOM     44  C   UNL A   1      42.306  27.410  30.247  1.00  0.00     0.074 A 
ATOM     45  C   UNL A   1      41.428  30.326  35.807  1.00  0.00     0.029 A 
ATOM     46  N   UNL A   1      41.269  29.643  33.699  1.00  0.00    -0.354 N 
ATOM     47  N   UNL A   1      42.037  28.034  31.369  1.00  0.00    -0.248 NA
ATOM     48  C   UNL A   1      43.526  26.592  30.296  1.00  0.00     0.031 C 
ATOM     49  C   UNL A   1      42.498  29.475  35.539  1.00  0.00     0.029 A 
ATOM     50  C   UNL A   1      42.379  29.013  34.239  1.00  0.00     0.049 A 
ATOM     51  H   UNL A   1      40.941  29.520  32.779  1.00  0.00     0.167 HD
ATOM     52  C   UNL A   1      43.041  27.671  32.262  1.00  0.00     0.074 A 
ATOM     53  C   UNL A   1      43.905  26.746  31.559  1.00  0.00     0.031 C 
ATOM     54  C   UNL A   1      43.232  28.076  33.543  1.00  0.00     0.034 A 
BRANCH  41  55
ATOM     55  C   UNL A   1      39.076  32.169  35.589  1.00  0.00     0.023 A 
ATOM     56  C   UNL A   1      39.560  33.484  35.723  1.00  0.00     0.031 A 
ATOM     57  C   UNL A   1      38.292  31.641  36.630  1.00  0.00     0.131 A 
ATOM     58  C   UNL A   1      39.295  34.210  36.892  1.00  0.00     0.055 A 
ATOM     59  C   UNL A   1      37.988  32.387  37.771  1.00  0.00     0.041 A 
ATOM     60  F   UNL A   1      37.809  30.390  36.555  1.00  0.00    -0.206 F 
ATOM     61  C   UNL A   1      38.505  33.671  37.913  1.00  0.00     0.022 A 
BRANCH  58  62
ATOM     62  S   UNL A   1      40.034  35.842  37.173  1.00  0.00     0.124 S 
ATOM     63  O   UNL A   1      39.264  36.326  38.317  1.00  0.00    -0.237 OA
ATOM     64  O   UNL A   1      41.425  35.502  37.457  1.00  0.00    -0.237 OA
ATOM     65  O   UNL A   1      39.800  36.553  35.921  1.00  0.00    -0.744 OA
ENDBRANCH  58  62
ENDBRANCH  41  55
BRANCH  42  66
ATOM     66  C   UNL A   1      41.938  26.578  27.786  1.00  0.00     0.023 A 
ATOM     67  C   UNL A   1      41.515  25.240  27.681  1.00  0.00     0.031 A 
ATOM     68  C   UNL A   1      42.843  27.059  26.825  1.00  0.00     0.131 A 
ATOM     69  C   UNL A   1      42.063  24.408  26.696  1.00  0.00     0.055 A 
ATOM     70  C   UNL A   1      43.322  26.250  25.793  1.00  0.00     0.041 A 
ATOM     71  F   UNL A   1      43.288  28.324  26.888  1.00  0.00    -0.206 F 
ATOM     72  C   UNL A   1      42.947  24.911  25.737  1.00  0.00     0.022 A 
BRANCH  69  73
ATOM     73  S   UNL A   1      41.765  22.619  26.723  1.00  0.00     0.124 S 
ATOM     74  O   UNL A   1      40.328  22.552  26.964  1.00  0.00    -0.237 OA
ATOM     75  O   UNL A   1      42.200  22.226  25.384  1.00  0.00    -0.237 OA
ATOM     76  O   UNL A   1      42.611  22.144  27.813  1.00  0.00    -0.744 OA
ENDBRANCH  69  73
ENDBRANCH  42  66
BRANCH  54  77
ATOM     77  C   UNL A   1      44.418  27.537  34.309  1.00  0.00     0.023 A 
ATOM     78  C   UNL A   1      44.310  26.317  35.006  1.00  0.00     0.031 A 
ATOM     79  C   UNL A   1      45.587  28.299  34.486  1.00  0.00     0.131 A 
ATOM     80  C   UNL A   1      45.325  25.923  35.887  1.00  0.00     0.055 A 
ATOM     81  C   UNL A   1      46.622  27.871  35.320  1.00  0.00     0.041 A 
ATOM     82  F   UNL A   1      45.736  29.475  33.857  1.00  0.00    -0.206 F 
ATOM     83  C   UNL A   1      46.485  26.688  36.039  1.00  0.00     0.022 A 
BRANCH  80  84
ATOM     84  S   UNL A   1      45.132  24.460  36.944  1.00  0.00     0.124 S 
ATOM     85  O   UNL A   1      44.166  23.666  36.189  1.00  0.00    -0.237 OA
ATOM     86  O   UNL A   1      46.490  23.924  36.977  1.00  0.00    -0.237 OA
ATOM     87  O   UNL A   1      44.639  25.001  38.207  1.00  0.00    -0.744 OA
ENDBRANCH  80  84
ENDBRANCH  54  77
ENDBRANCH  28  29
ENDBRANCH  20  23
ENDBRANCH  18  19
ENDBRANCH   1  18
TORSDOF 15
ENDMDL
MODEL 2
REMARK VINA RESULT:     -11.6      1.640      8.004
REMARK SMILES O=C(Cc1ccn(C(F)F)c(=O)c1)NCCCNC(=O)c1ccc(-c2c3nc(c(-c4cc(S(=O)(=O)[O-])ccc4F)c4ccc([nH]4)c(-c4cc(S(=O)(=O)[O-])ccc4F)c4nc(c(-c5cc(S(=O)(=O)[O-])ccc5F)c5ccc2[nH]5)C=C4)C=C3)cc1
REMARK SMILES IDX 16 1 15 2 14 3 1 4 2 5 3 7 4 8 5 9 13 10 6 11 11 12 7 13
REMARK SMILES IDX 12 14 8 15 9 16 10 17 17 18 18 19 19 20 20 22 21 23 22 24
REMARK SMILES IDX 83 25 23 26 82 27 24 28 25 29 26 30 76 31 27 32 81 33 75 34
REMARK SMILES IDX 77 35 28 36 80 37 74 38 73 39 29 41 61 42 41 43 60 44 42 45
REMARK SMILES IDX 45 46 59 47 78 48 43 49 44 50 58 52 79 53 46 54 30 55 31 56
REMARK SMILES IDX 39 57 32 58 38 59 40 60 37 61 33 62 34 63 35 64 36 65 62 66
REMARK SMILES IDX 63 67 71 68 64 69 70 70 72 71 69 72 65 73 66 74 67 75 68 76
REMARK SMILES IDX 47 77 48 78 56 79 49 80 55 81 57 82 54 83 50 84 51 85 52 86
REMARK SMILES IDX 53 87
REMARK H PARENT 14 6 18 21 77 40 45 51
REMARK Flexibility Score: inf
ROOT
ATOM      1  C   UNL A   1      31.773  28.979  27.219  1.00  0.00     0.042 C 
ENDROOT
BRANCH   1   2
ATOM      2  C   UNL A   1      31.784  27.501  26.868  1.00  0.00     0.117 C 
BRANCH   2   3
ATOM      3  N   UNL A   1      31.337  27.251  25.512  1.00  0.00    -0.356 N 
ATOM      4  O   UNL A   1      29.955  25.482  26.017  1.00  0.00    -0.275 OA
ATOM      5  C   UNL A   1      30.417  26.272  25.201  1.00  0.00     0.224 C 
ATOM      6  H   UNL A   1      31.707  27.802  24.784  1.00  0.00     0.163 HD
BRANCH   5   7
ATOM      7  C   UNL A   1      29.962  26.304  23.745  1.00  0.00     0.135 C 
BRANCH   7   8
ATOM      8  C   UNL A   1      29.628  27.680  23.209  1.00  0.00    -0.032 A 
ATOM      9  C   UNL A   1      30.601  28.477  22.486  1.00  0.00     0.022 A 
ATOM     10  C   UNL A   1      28.397  28.192  23.399  1.00  0.00     0.076 A 
ATOM     11  C   UNL A   1      30.277  29.683  22.004  1.00  0.00     0.095 A 
ATOM     12  C   UNL A   1      28.031  29.548  22.899  1.00  0.00     0.255 A 
ATOM     13  N   UNL A   1      29.018  30.216  22.197  1.00  0.00    -0.258 N 
ATOM     14  O   UNL A   1      26.905  29.976  23.139  1.00  0.00    -0.269 OA
BRANCH  13  15
ATOM     15  C   UNL A   1      28.714  31.543  21.732  1.00  0.00     0.451 C 
ATOM     16  F   UNL A   1      27.678  31.543  20.860  1.00  0.00    -0.185 F 
ATOM     17  F   UNL A   1      28.387  32.352  22.772  1.00  0.00    -0.185 F 
ENDBRANCH  13  15
ENDBRANCH   7   8
ENDBRANCH   5   7
ENDBRANCH   2   3
ENDBRANCH   1   2
BRANCH   1  18
ATOM     18  C   UNL A   1      32.851  29.803  26.525  1.00  0.00     0.118 C 
BRANCH  18  19
ATOM     19  N   UNL A   1      32.845  31.212  26.895  1.00  0.00    -0.352 N 
ATOM     20  C   UNL A   1      33.782  31.945  27.591  1.00  0.00     0.251 C 
ATOM     21  H   UNL A   1      32.052  31.718  26.605  1.00  0.00     0.163 HD
ATOM     22  O   UNL A   1      33.529  33.107  27.896  1.00  0.00    -0.269 OA
BRANCH  20  23
ATOM     23  C   UNL A   1      35.061  31.322  28.009  1.00  0.00     0.039 A 
ATOM     24  C   UNL A   1      35.111  29.990  28.422  1.00  0.00     0.014 A 
ATOM     25  C   UNL A   1      36.225  32.096  28.019  1.00  0.00     0.014 A 
ATOM     26  C   UNL A   1      36.258  29.503  29.040  1.00  0.00     0.010 A 
ATOM     27  C   UNL A   1      37.410  31.564  28.540  1.00  0.00     0.010 A 
ATOM     28  C   UNL A   1      37.422  30.285  29.114  1.00  0.00    -0.014 A 
BRANCH  28  29
ATOM     29  C   UNL A   1      38.630  29.740  29.799  1.00  0.00     0.031 A 
ATOM     30  C   UNL A   1      39.506  28.714  29.127  1.00  0.00     0.074 A 
ATOM     31  C   UNL A   1      38.967  30.215  31.015  1.00  0.00     0.049 A 
ATOM     32  N   UNL A   1      40.615  28.170  29.561  1.00  0.00    -0.248 NA
ATOM     33  C   UNL A   1      39.087  28.229  27.802  1.00  0.00     0.031 C 
ATOM     34  C   UNL A   1      38.196  31.206  31.765  1.00  0.00     0.029 A 
ATOM     35  N   UNL A   1      40.046  29.953  31.822  1.00  0.00    -0.354 N 
ATOM     36  C   UNL A   1      41.017  27.273  28.577  1.00  0.00     0.074 A 
ATOM     37  C   UNL A   1      40.009  27.312  27.541  1.00  0.00     0.031 C 
ATOM     38  C   UNL A   1      38.852  31.512  32.891  1.00  0.00     0.029 A 
ATOM     39  C   UNL A   1      40.050  30.683  32.989  1.00  0.00     0.049 A 
ATOM     40  H   UNL A   1      40.750  29.305  31.589  1.00  0.00     0.167 HD
ATOM     41  C   UNL A   1      42.132  26.506  28.532  1.00  0.00     0.034 A 
ATOM     42  C   UNL A   1      40.908  30.682  34.030  1.00  0.00     0.034 A 
ATOM     43  C   UNL A   1      43.140  26.494  29.563  1.00  0.00     0.049 A 
ATOM     44  C   UNL A   1      42.124  29.794  33.972  1.00  0.00     0.074 A 
ATOM     45  C   UNL A   1      44.326  25.781  29.586  1.00  0.00     0.029 A 
ATOM     46  N   UNL A   1      43.092  27.221  30.744  1.00  0.00    -0.354 N 
ATOM     47  N   UNL A   1      42.519  29.002  33.003  1.00  0.00    -0.248 NA
ATOM     48  C   UNL A   1      43.015  29.799  35.141  1.00  0.00     0.031 C 
ATOM     49  C   UNL A   1      44.953  26.013  30.810  1.00  0.00     0.029 A 
ATOM     50  C   UNL A   1      44.209  26.943  31.517  1.00  0.00     0.049 A 
ATOM     51  H   UNL A   1      42.371  27.842  30.996  1.00  0.00     0.167 HD
ATOM     52  C   UNL A   1      43.712  28.431  33.436  1.00  0.00     0.074 A 
ATOM     53  C   UNL A   1      43.991  28.994  34.741  1.00  0.00     0.031 C 
ATOM     54  C   UNL A   1      44.497  27.517  32.811  1.00  0.00     0.034 A 
BRANCH  41  55
ATOM     55  C   UNL A   1      42.360  25.614  27.333  1.00  0.00     0.023 A 
ATOM     56  C   UNL A   1      41.913  24.278  27.355  1.00  0.00     0.031 A 
ATOM     57  C   UNL A   1      43.144  26.032  26.243  1.00  0.00     0.131 A 
ATOM     58  C   UNL A   1      42.293  23.398  26.334  1.00  0.00     0.055 A 
ATOM     59  C   UNL A   1      43.477  25.164  25.201  1.00  0.00     0.041 A 
ATOM     60  F   UNL A   1      43.599  27.294  26.173  1.00  0.00    -0.206 F 
ATOM     61  C   UNL A   1      43.065  23.835  25.253  1.00  0.00     0.022 A 
BRANCH  58  62
ATOM     62  S   UNL A   1      41.875  21.634  26.411  1.00  0.00     0.124 S 
ATOM     63  O   UNL A   1      42.245  21.298  27.784  1.00  0.00    -0.237 OA
ATOM     64  O   UNL A   1      40.441  21.650  26.139  1.00  0.00    -0.237 OA
ATOM     65  O   UNL A   1      42.708  21.030  25.378  1.00  0.00    -0.744 OA
ENDBRANCH  58  62
ENDBRANCH  41  55
BRANCH  42  66
ATOM     66  C   UNL A   1      40.646  31.591  35.185  1.00  0.00     0.023 A 
ATOM     67  C   UNL A   1      39.636  31.297  36.120  1.00  0.00     0.031 A 
ATOM     68  C   UNL A   1      41.316  32.820  35.306  1.00  0.00     0.131 A 
ATOM     69  C   UNL A   1      39.266  32.253  37.074  1.00  0.00     0.055 A 
ATOM     70  C   UNL A   1      41.002  33.735  36.313  1.00  0.00     0.041 A 
ATOM     71  F   UNL A   1      42.279  33.154  34.432  1.00  0.00    -0.206 F 
ATOM     72  C   UNL A   1      39.958  33.462  37.191  1.00  0.00     0.022 A 
BRANCH  69  73
ATOM     73  S   UNL A   1      37.781  32.023  38.090  1.00  0.00     0.124 S 
ATOM     74  O   UNL A   1      37.403  30.650  37.772  1.00  0.00    -0.237 OA
ATOM     75  O   UNL A   1      38.306  32.238  39.436  1.00  0.00    -0.237 OA
ATOM     76  O   UNL A   1      36.869  33.056  37.608  1.00  0.00    -0.744 OA
ENDBRANCH  69  73
ENDBRANCH  42  66
BRANCH  54  77
ATOM     77  C   UNL A   1      45.754  27.041  33.503  1.00  0.00     0.023 A 
ATOM     78  C   UNL A   1      45.700  25.945  34.387  1.00  0.00     0.031 A 
ATOM     79  C   UNL A   1      46.957  27.764  33.419  1.00  0.00     0.131 A 
ATOM     80  C   UNL A   1      46.805  25.639  35.189  1.00  0.00     0.055 A 
ATOM     81  C   UNL A   1      48.076  27.417  34.178  1.00  0.00     0.041 A 
ATOM     82  F   UNL A   1      47.059  28.825  32.603  1.00  0.00    -0.206 F 
ATOM     83  C   UNL A   1      47.997  26.362  35.082  1.00  0.00     0.022 A 
BRANCH  80  84
ATOM     84  S   UNL A   1      46.705  24.361  36.475  1.00  0.00     0.124 S 
ATOM     85  O   UNL A   1      45.565  23.567  36.023  1.00  0.00    -0.237 OA
ATOM     86  O   UNL A   1      48.007  23.707  36.359  1.00  0.00    -0.237 OA
ATOM     87  O   UNL A   1      46.488  25.115  37.705  1.00  0.00    -0.744 OA
ENDBRANCH  80  84
ENDBRANCH  54  77
ENDBRANCH  28  29
ENDBRANCH  20  23
ENDBRANCH  18  19
ENDBRANCH   1  18
TORSDOF 15
ENDMDL
MODEL 3
REMARK VINA RESULT:     -11.5      2.191      3.102
REMARK SMILES O=C(Cc1ccn(C(F)F)c(=O)c1)NCCCNC(=O)c1ccc(-c2c3nc(c(-c4cc(S(=O)(=O)[O-])ccc4F)c4ccc([nH]4)c(-c4cc(S(=O)(=O)[O-])ccc4F)c4nc(c(-c5cc(S(=O)(=O)[O-])ccc5F)c5ccc2[nH]5)C=C4)C=C3)cc1
REMARK SMILES IDX 16 1 15 2 14 3 1 4 2 5 3 7 4 8 5 9 13 10 6 11 11 12 7 13
REMARK SMILES IDX 12 14 8 15 9 16 10 17 17 18 18 19 19 20 20 22 21 23 22 24
REMARK SMILES IDX 83 25 23 26 82 27 24 28 25 29 26 30 76 31 27 32 81 33 75 34
REMARK SMILES IDX 77 35 28 36 80 37 74 38 73 39 29 41 61 42 41 43 60 44 42 45
REMARK SMILES IDX 45 46 59 47 78 48 43 49 44 50 58 52 79 53 46 54 30 55 31 56
REMARK SMILES IDX 39 57 32 58 38 59 40 60 37 61 33 62 34 63 35 64 36 65 62 66
REMARK SMILES IDX 63 67 71 68 64 69 70 70 72 71 69 72 65 73 66 74 67 75 68 76
REMARK SMILES IDX 47 77 48 78 56 79 49 80 55 81 57 82 54 83 50 84 51 85 52 86
REMARK SMILES IDX 53 87
REMARK H PARENT 14 6 18 21 77 40 45 51
REMARK Flexibility Score: inf
ROOT
ATOM      1  C   UNL A   1      32.318  29.733  25.224  1.00  0.00     0.042 C 
ENDROOT
BRANCH   1   2
ATOM      2  C   UNL A   1      31.146  29.504  24.285  1.00  0.00     0.117 C 
BRANCH   2   3
ATOM      3  N   UNL A   1      30.527  28.208  24.479  1.00  0.00    -0.356 N 
ATOM      4  O   UNL A   1      30.309  27.689  22.248  1.00  0.00    -0.275 OA
ATOM      5  C   UNL A   1      30.190  27.380  23.428  1.00  0.00     0.224 C 
ATOM      6  H   UNL A   1      30.339  27.907  25.397  1.00  0.00     0.163 HD
BRANCH   5   7
ATOM      7  C   UNL A   1      29.717  25.998  23.869  1.00  0.00     0.135 C 
BRANCH   7   8
ATOM      8  C   UNL A   1      30.757  25.164  24.587  1.00  0.00    -0.032 A 
ATOM      9  C   UNL A   1      32.059  24.895  24.005  1.00  0.00     0.022 A 
ATOM     10  C   UNL A   1      30.481  24.650  25.800  1.00  0.00     0.076 A 
ATOM     11  C   UNL A   1      32.969  24.171  24.667  1.00  0.00     0.095 A 
ATOM     12  C   UNL A   1      31.471  23.812  26.536  1.00  0.00     0.255 A 
ATOM     13  N   UNL A   1      32.693  23.638  25.910  1.00  0.00    -0.258 N 
ATOM     14  O   UNL A   1      31.146  23.338  27.621  1.00  0.00    -0.269 OA
BRANCH  13  15
ATOM     15  C   UNL A   1      33.660  22.804  26.572  1.00  0.00     0.451 C 
ATOM     16  F   UNL A   1      34.052  21.772  25.787  1.00  0.00    -0.185 F 
ATOM     17  F   UNL A   1      34.764  23.519  26.906  1.00  0.00    -0.185 F 
ENDBRANCH  13  15
ENDBRANCH   7   8
ENDBRANCH   5   7
ENDBRANCH   2   3
ENDBRANCH   1   2
BRANCH   1  18
ATOM     18  C   UNL A   1      31.927  30.186  26.625  1.00  0.00     0.118 C 
BRANCH  18  19
ATOM     19  N   UNL A   1      31.853  31.633  26.778  1.00  0.00    -0.352 N 
ATOM     20  C   UNL A   1      32.764  32.511  27.325  1.00  0.00     0.251 C 
ATOM     21  H   UNL A   1      31.026  32.048  26.439  1.00  0.00     0.163 HD
ATOM     22  O   UNL A   1      32.454  33.692  27.458  1.00  0.00    -0.269 OA
BRANCH  20  23
ATOM     23  C   UNL A   1      34.084  32.025  27.791  1.00  0.00     0.039 A 
ATOM     24  C   UNL A   1      34.304  30.670  28.043  1.00  0.00     0.014 A 
ATOM     25  C   UNL A   1      35.110  32.948  28.013  1.00  0.00     0.014 A 
ATOM     26  C   UNL A   1      35.457  30.272  28.710  1.00  0.00     0.010 A 
ATOM     27  C   UNL A   1      36.317  32.524  28.584  1.00  0.00     0.010 A 
ATOM     28  C   UNL A   1      36.478  31.194  28.997  1.00  0.00    -0.014 A 
BRANCH  28  29
ATOM     29  C   UNL A   1      37.694  30.738  29.729  1.00  0.00     0.031 A 
ATOM     30  C   UNL A   1      37.966  31.190  31.141  1.00  0.00     0.074 A 
ATOM     31  C   UNL A   1      38.533  29.866  29.133  1.00  0.00     0.049 A 
ATOM     32  N   UNL A   1      38.950  30.855  31.936  1.00  0.00    -0.248 NA
ATOM     33  C   UNL A   1      37.018  32.145  31.739  1.00  0.00     0.031 C 
ATOM     34  C   UNL A   1      38.376  29.360  27.770  1.00  0.00     0.029 A 
ATOM     35  N   UNL A   1      39.662  29.237  29.594  1.00  0.00    -0.354 N 
ATOM     36  C   UNL A   1      38.751  31.563  33.117  1.00  0.00     0.074 A 
ATOM     37  C   UNL A   1      37.576  32.383  32.919  1.00  0.00     0.031 C 
ATOM     38  C   UNL A   1      39.334  28.456  27.524  1.00  0.00     0.029 A 
ATOM     39  C   UNL A   1      40.224  28.374  28.679  1.00  0.00     0.049 A 
ATOM     40  H   UNL A   1      40.034  29.386  30.493  1.00  0.00     0.167 HD
ATOM     41  C   UNL A   1      39.469  31.518  34.264  1.00  0.00     0.034 A 
ATOM     42  C   UNL A   1      41.334  27.612  28.748  1.00  0.00     0.034 A 
ATOM     43  C   UNL A   1      40.626  30.679  34.455  1.00  0.00     0.049 A 
ATOM     44  C   UNL A   1      42.135  27.605  30.024  1.00  0.00     0.074 A 
ATOM     45  C   UNL A   1      41.394  30.533  35.597  1.00  0.00     0.029 A 
ATOM     46  N   UNL A   1      41.183  29.846  33.495  1.00  0.00    -0.354 N 
ATOM     47  N   UNL A   1      41.894  28.232  31.151  1.00  0.00    -0.248 NA
ATOM     48  C   UNL A   1      43.355  26.786  30.045  1.00  0.00     0.031 C 
ATOM     49  C   UNL A   1      42.456  29.679  35.305  1.00  0.00     0.029 A 
ATOM     50  C   UNL A   1      42.305  29.215  34.009  1.00  0.00     0.049 A 
ATOM     51  H   UNL A   1      40.834  29.722  32.583  1.00  0.00     0.167 HD
ATOM     52  C   UNL A   1      42.918  27.869  32.021  1.00  0.00     0.074 A 
ATOM     53  C   UNL A   1      43.764  26.941  31.298  1.00  0.00     0.031 C 
ATOM     54  C   UNL A   1      43.140  28.276  33.295  1.00  0.00     0.034 A 
BRANCH  41  55
ATOM     55  C   UNL A   1      39.040  32.378  35.432  1.00  0.00     0.023 A 
ATOM     56  C   UNL A   1      39.525  33.695  35.550  1.00  0.00     0.031 A 
ATOM     57  C   UNL A   1      38.284  31.853  36.494  1.00  0.00     0.131 A 
ATOM     58  C   UNL A   1      39.290  34.423  36.723  1.00  0.00     0.055 A 
ATOM     59  C   UNL A   1      38.008  32.601  37.640  1.00  0.00     0.041 A 
ATOM     60  F   UNL A   1      37.799  30.601  36.435  1.00  0.00    -0.206 F 
ATOM     61  C   UNL A   1      38.527  33.887  37.765  1.00  0.00     0.022 A 
BRANCH  58  62
ATOM     62  S   UNL A   1      40.034  36.057  36.980  1.00  0.00     0.124 S 
ATOM     63  O   UNL A   1      41.429  35.712  37.250  1.00  0.00    -0.237 OA
ATOM     64  O   UNL A   1      39.791  36.707  35.696  1.00  0.00    -0.237 OA
ATOM     65  O   UNL A   1      39.299  36.603  38.115  1.00  0.00    -0.744 OA
ENDBRANCH  58  62
ENDBRANCH  41  55
BRANCH  42  66
ATOM     66  C   UNL A   1      41.708  26.769  27.573  1.00  0.00     0.023 A 
ATOM     67  C   UNL A   1      41.334  25.414  27.510  1.00  0.00     0.031 A 
ATOM     68  C   UNL A   1      42.542  27.269  26.560  1.00  0.00     0.131 A 
ATOM     69  C   UNL A   1      41.861  24.588  26.509  1.00  0.00     0.055 A 
ATOM     70  C   UNL A   1      42.997  26.462  25.515  1.00  0.00     0.041 A 
ATOM     71  F   UNL A   1      42.938  28.551  26.580  1.00  0.00    -0.206 F 
ATOM     72  C   UNL A   1      42.673  25.109  25.498  1.00  0.00     0.022 A 
BRANCH  69  73
ATOM     73  S   UNL A   1      41.636  22.789  26.578  1.00  0.00     0.124 S 
ATOM     74  O   UNL A   1      40.184  22.660  26.525  1.00  0.00    -0.237 OA
ATOM     75  O   UNL A   1      42.353  22.356  25.381  1.00  0.00    -0.237 OA
ATOM     76  O   UNL A   1      42.258  22.411  27.843  1.00  0.00    -0.744 OA
ENDBRANCH  69  73
ENDBRANCH  42  66
BRANCH  54  77
ATOM     77  C   UNL A   1      44.344  27.736  34.034  1.00  0.00     0.023 A 
ATOM     78  C   UNL A   1      44.217  26.591  34.844  1.00  0.00     0.031 A 
ATOM     79  C   UNL A   1      45.560  28.440  34.070  1.00  0.00     0.131 A 
ATOM     80  C   UNL A   1      45.264  26.216  35.694  1.00  0.00     0.055 A 
ATOM     81  C   UNL A   1      46.624  28.027  34.875  1.00  0.00     0.041 A 
ATOM     82  F   UNL A   1      45.730  29.547  33.328  1.00  0.00    -0.206 F 
ATOM     83  C   UNL A   1      46.471  26.921  35.706  1.00  0.00     0.022 A 
BRANCH  80  84
ATOM     84  S   UNL A   1      45.064  24.865  36.890  1.00  0.00     0.124 S 
ATOM     85  O   UNL A   1      43.665  25.017  37.286  1.00  0.00    -0.237 OA
ATOM     86  O   UNL A   1      45.357  23.688  36.076  1.00  0.00    -0.237 OA
ATOM     87  O   UNL A   1      46.040  25.168  37.931  1.00  0.00    -0.744 OA
ENDBRANCH  80  84
ENDBRANCH  54  77
ENDBRANCH  28  29
ENDBRANCH  20  23
ENDBRANCH  18  19
ENDBRANCH   1  18
TORSDOF 15
ENDMDL
