MODEL 1
REMARK VINA RESULT:     -12.4      0.000      0.000
REMARK SMILES CC(C)(C)OC(=O)N1C[C@@H](c2cccc(Cl)c2)CC[C@H]1C(=O)NCCCNC(=O)c1ccc(-c2c3nc(c(-c4cc(S(=O)(=O)[O-])ccc4F)c4ccc([nH]4)c(-c4cc(S(=O)(=O)[O-])ccc4F)c4nc(c(-c5cc(S(=O)(=O)[O-])ccc5F)c5ccc2[nH]5)C=C4)C=C3)cc1
REMARK SMILES IDX 25 1 24 2 23 3 21 4 22 5 20 7 8 8 9 9 10 10 19 11 18 12 6 13
REMARK SMILES IDX 7 14 5 15 2 16 1 17 3 18 4 19 11 20 12 21 17 22 13 23 15 24
REMARK SMILES IDX 14 25 16 26 26 27 27 28 28 29 29 31 30 32 31 33 92 34 32 35
REMARK SMILES IDX 91 36 33 37 34 38 35 39 85 40 36 41 90 42 84 43 86 44 37 45
REMARK SMILES IDX 89 46 83 47 82 48 38 50 70 51 50 52 69 53 51 54 54 55 68 56
REMARK SMILES IDX 87 57 52 58 53 59 67 61 88 62 55 63 39 64 40 65 48 66 41 67
REMARK SMILES IDX 47 68 49 69 46 70 42 71 43 72 44 73 45 74 71 75 72 76 80 77
REMARK SMILES IDX 73 78 79 79 81 80 78 81 74 82 75 83 76 84 77 85 56 86 57 87
REMARK SMILES IDX 65 88 58 89 64 90 66 91 63 92 59 93 60 94 61 95 62 96
REMARK H PARENT 23 6 27 30 86 49 54 60
REMARK Flexibility Score: inf
ROOT
ATOM      1  C   UNL A   1      32.196  31.764  27.078  1.00  0.00     0.042 C 
ENDROOT
BRANCH   1   2
ATOM      2  C   UNL A   1      32.800  30.372  27.235  1.00  0.00     0.117 C 
BRANCH   2   3
ATOM      3  N   UNL A   1      33.369  29.864  26.000  1.00  0.00    -0.354 N 
ATOM      4  C   UNL A   1      32.794  29.142  24.995  1.00  0.00     0.242 C 
ATOM      5  O   UNL A   1      33.502  28.869  24.022  1.00  0.00    -0.273 OA
ATOM      6  H   UNL A   1      34.322  30.074  25.867  1.00  0.00     0.163 HD
BRANCH   4   7
ATOM      7  C   UNL A   1      31.339  28.634  25.138  1.00  0.00     0.177 C 
ATOM      8  N   UNL A   1      30.835  28.039  23.892  1.00  0.00    -0.296 N 
ATOM      9  C   UNL A   1      31.295  26.701  23.532  1.00  0.00     0.132 C 
ATOM     10  C   UNL A   1      31.321  25.682  24.690  1.00  0.00     0.039 C 
ATOM     11  C   UNL A   1      31.204  27.643  26.293  1.00  0.00     0.036 C 
ATOM     12  C   UNL A   1      31.879  26.311  25.981  1.00  0.00     0.013 C 
BRANCH   8  13
ATOM     13  C   UNL A   1      30.265  28.822  22.900  1.00  0.00     0.410 C 
ATOM     14  O   UNL A   1      30.518  28.690  21.709  1.00  0.00    -0.224 OA
BRANCH  13  15
ATOM     15  O   UNL A   1      29.428  29.757  23.414  1.00  0.00    -0.444 OA
BRANCH  15  16
ATOM     16  C   UNL A   1      28.097  30.006  22.892  1.00  0.00     0.106 C 
ATOM     17  C   UNL A   1      27.582  31.207  23.700  1.00  0.00     0.056 C 
ATOM     18  C   UNL A   1      27.238  28.778  23.196  1.00  0.00     0.056 C 
ATOM     19  C   UNL A   1      28.038  30.373  21.404  1.00  0.00     0.056 C 
ENDBRANCH  15  16
ENDBRANCH  13  15
ENDBRANCH   8  13
BRANCH  10  20
ATOM     20  C   UNL A   1      32.066  24.378  24.397  1.00  0.00    -0.042 A 
ATOM     21  C   UNL A   1      31.412  23.154  24.629  1.00  0.00     0.004 A 
ATOM     22  C   UNL A   1      33.401  24.333  23.960  1.00  0.00     0.024 A 
ATOM     23  C   UNL A   1      32.069  21.934  24.450  1.00  0.00     0.002 A 
ATOM     24  C   UNL A   1      34.052  23.111  23.772  1.00  0.00     0.041 A 
ATOM     25  C   UNL A   1      33.394  21.912  24.022  1.00  0.00     0.020 A 
ATOM     26  Cl  UNL A   1      35.689  23.089  23.237  1.00  0.00    -0.084 Cl
ENDBRANCH  10  20
ENDBRANCH   4   7
ENDBRANCH   2   3
ENDBRANCH   1   2
BRANCH   1  27
ATOM     27  C   UNL A   1      33.209  32.901  26.973  1.00  0.00     0.118 C 
BRANCH  27  28
ATOM     28  N   UNL A   1      32.771  34.119  27.636  1.00  0.00    -0.352 N 
ATOM     29  C   UNL A   1      33.192  34.695  28.810  1.00  0.00     0.251 C 
ATOM     30  H   UNL A   1      32.057  34.609  27.168  1.00  0.00     0.163 HD
ATOM     31  O   UNL A   1      32.561  35.647  29.261  1.00  0.00    -0.269 OA
BRANCH  29  32
ATOM     32  C   UNL A   1      34.365  34.167  29.544  1.00  0.00     0.039 A 
ATOM     33  C   UNL A   1      34.146  33.314  30.630  1.00  0.00     0.014 A 
ATOM     34  C   UNL A   1      35.670  34.524  29.196  1.00  0.00     0.014 A 
ATOM     35  C   UNL A   1      35.231  32.768  31.320  1.00  0.00     0.010 A 
ATOM     36  C   UNL A   1      36.753  33.925  29.840  1.00  0.00     0.010 A 
ATOM     37  C   UNL A   1      36.545  33.039  30.908  1.00  0.00    -0.014 A 
BRANCH  37  38
ATOM     38  C   UNL A   1      37.711  32.405  31.579  1.00  0.00     0.031 A 
ATOM     39  C   UNL A   1      38.448  31.274  30.912  1.00  0.00     0.074 A 
ATOM     40  C   UNL A   1      38.063  32.801  32.819  1.00  0.00     0.049 A 
ATOM     41  N   UNL A   1      39.427  30.538  31.372  1.00  0.00    -0.248 NA
ATOM     42  C   UNL A   1      38.002  30.908  29.560  1.00  0.00     0.031 C 
ATOM     43  C   UNL A   1      37.400  33.857  33.588  1.00  0.00     0.029 A 
ATOM     44  N   UNL A   1      39.055  32.356  33.655  1.00  0.00    -0.354 N 
ATOM     45  C   UNL A   1      39.704  29.609  30.374  1.00  0.00     0.074 A 
ATOM     46  C   UNL A   1      38.751  29.845  29.310  1.00  0.00     0.031 C 
ATOM     47  C   UNL A   1      38.014  33.987  34.775  1.00  0.00     0.029 A 
ATOM     48  C   UNL A   1      39.085  33.000  34.870  1.00  0.00     0.049 A 
ATOM     49  H   UNL A   1      39.687  31.641  33.409  1.00  0.00     0.167 HD
ATOM     50  C   UNL A   1      40.674  28.660  30.342  1.00  0.00     0.034 A 
ATOM     51  C   UNL A   1      39.876  32.811  35.944  1.00  0.00     0.034 A 
ATOM     52  C   UNL A   1      41.628  28.447  31.404  1.00  0.00     0.049 A 
ATOM     53  C   UNL A   1      40.945  31.751  35.886  1.00  0.00     0.074 A 
ATOM     54  C   UNL A   1      42.685  27.555  31.448  1.00  0.00     0.029 A 
ATOM     55  N   UNL A   1      41.638  29.133  32.612  1.00  0.00    -0.354 N 
ATOM     56  N   UNL A   1      41.222  30.909  34.918  1.00  0.00    -0.248 NA
ATOM     57  C   UNL A   1      41.815  31.624  37.064  1.00  0.00     0.031 C 
ATOM     58  C   UNL A   1      43.299  27.661  32.703  1.00  0.00     0.029 A 
ATOM     59  C   UNL A   1      42.666  28.665  33.417  1.00  0.00     0.049 A 
ATOM     60  H   UNL A   1      41.007  29.846  32.861  1.00  0.00     0.167 HD
ATOM     61  C   UNL A   1      42.316  30.171  35.359  1.00  0.00     0.074 A 
ATOM     62  C   UNL A   1      42.655  30.676  36.675  1.00  0.00     0.031 C 
ATOM     63  C   UNL A   1      42.983  29.169  34.733  1.00  0.00     0.034 A 
BRANCH  50  64
ATOM     64  C   UNL A   1      40.727  27.768  29.124  1.00  0.00     0.023 A 
ATOM     65  C   UNL A   1      41.661  27.980  28.096  1.00  0.00     0.031 A 
ATOM     66  C   UNL A   1      39.811  26.712  28.973  1.00  0.00     0.131 A 
ATOM     67  C   UNL A   1      41.606  27.203  26.928  1.00  0.00     0.055 A 
ATOM     68  C   UNL A   1      39.814  25.890  27.844  1.00  0.00     0.041 A 
ATOM     69  F   UNL A   1      38.883  26.472  29.914  1.00  0.00    -0.206 F 
ATOM     70  C   UNL A   1      40.704  26.144  26.805  1.00  0.00     0.022 A 
BRANCH  67  71
ATOM     71  S   UNL A   1      42.632  27.692  25.515  1.00  0.00     0.124 S 
ATOM     72  O   UNL A   1      42.558  26.502  24.671  1.00  0.00    -0.237 OA
ATOM     73  O   UNL A   1      41.939  28.874  25.016  1.00  0.00    -0.237 OA
ATOM     74  O   UNL A   1      43.943  27.943  26.112  1.00  0.00    -0.744 OA
ENDBRANCH  67  71
ENDBRANCH  50  64
BRANCH  51  75
ATOM     75  C   UNL A   1      39.688  33.633  37.172  1.00  0.00     0.023 A 
ATOM     76  C   UNL A   1      38.938  33.150  38.256  1.00  0.00     0.031 A 
ATOM     77  C   UNL A   1      40.228  34.928  37.265  1.00  0.00     0.131 A 
ATOM     78  C   UNL A   1      38.711  33.973  39.369  1.00  0.00     0.055 A 
ATOM     79  C   UNL A   1      40.038  35.726  38.395  1.00  0.00     0.041 A 
ATOM     80  F   UNL A   1      40.962  35.431  36.259  1.00  0.00    -0.206 F 
ATOM     81  C   UNL A   1      39.266  35.253  39.450  1.00  0.00     0.022 A 
BRANCH  78  82
ATOM     82  S   UNL A   1      37.620  33.370  40.686  1.00  0.00     0.124 S 
ATOM     83  O   UNL A   1      36.449  32.940  39.930  1.00  0.00    -0.237 OA
ATOM     84  O   UNL A   1      38.425  32.310  41.283  1.00  0.00    -0.237 OA
ATOM     85  O   UNL A   1      37.422  34.548  41.529  1.00  0.00    -0.744 OA
ENDBRANCH  78  82
ENDBRANCH  51  75
BRANCH  63  86
ATOM     86  C   UNL A   1      44.173  28.588  35.456  1.00  0.00     0.023 A 
ATOM     87  C   UNL A   1      44.031  27.561  36.404  1.00  0.00     0.031 A 
ATOM     88  C   UNL A   1      45.463  29.086  35.205  1.00  0.00     0.131 A 
ATOM     89  C   UNL A   1      45.155  27.100  37.108  1.00  0.00     0.055 A 
ATOM     90  C   UNL A   1      46.585  28.588  35.869  1.00  0.00     0.041 A 
ATOM     91  F   UNL A   1      45.654  30.069  34.309  1.00  0.00    -0.206 F 
ATOM     92  C   UNL A   1      46.431  27.598  36.836  1.00  0.00     0.022 A 
BRANCH  89  93
ATOM     93  S   UNL A   1      44.912  25.902  38.448  1.00  0.00     0.124 S 
ATOM     94  O   UNL A   1      44.053  26.643  39.367  1.00  0.00    -0.237 OA
ATOM     95  O   UNL A   1      44.288  24.781  37.754  1.00  0.00    -0.237 OA
ATOM     96  O   UNL A   1      46.268  25.652  38.933  1.00  0.00    -0.744 OA
ENDBRANCH  89  93
ENDBRANCH  63  86
ENDBRANCH  37  38
ENDBRANCH  29  32
ENDBRANCH  27  28
ENDBRANCH   1  27
TORSDOF 17
ENDMDL
MODEL 2
REMARK VINA RESULT:     -12.1      6.539     11.677
REMARK SMILES CC(C)(C)OC(=O)N1C[C@@H](c2cccc(Cl)c2)CC[C@H]1C(=O)NCCCNC(=O)c1ccc(-c2c3nc(c(-c4cc(S(=O)(=O)[O-])ccc4F)c4ccc([nH]4)c(-c4cc(S(=O)(=O)[O-])ccc4F)c4nc(c(-c5cc(S(=O)(=O)[O-])ccc5F)c5ccc2[nH]5)C=C4)C=C3)cc1
REMARK SMILES IDX 25 1 24 2 23 3 21 4 22 5 20 7 8 8 9 9 10 10 19 11 18 12 6 13
REMARK SMILES IDX 7 14 5 15 2 16 1 17 3 18 4 19 11 20 12 21 17 22 13 23 15 24
REMARK SMILES IDX 14 25 16 26 26 27 27 28 28 29 29 31 30 32 31 33 92 34 32 35
REMARK SMILES IDX 91 36 33 37 34 38 35 39 85 40 36 41 90 42 84 43 86 44 37 45
REMARK SMILES IDX 89 46 83 47 82 48 38 50 70 51 50 52 69 53 51 54 54 55 68 56
REMARK SMILES IDX 87 57 52 58 53 59 67 61 88 62 55 63 39 64 40 65 48 66 41 67
REMARK SMILES IDX 47 68 49 69 46 70 42 71 43 72 44 73 45 74 71 75 72 76 80 77
REMARK SMILES IDX 73 78 79 79 81 80 78 81 74 82 75 83 76 84 77 85 56 86 57 87
REMARK SMILES IDX 65 88 58 89 64 90 66 91 63 92 59 93 60 94 61 95 62 96
REMARK H PARENT 23 6 27 30 86 49 54 60
REMARK Flexibility Score: inf
ROOT
ATOM      1  C   UNL A   1      42.125  20.667  27.429  1.00  0.00     0.042 C 
ENDROOT
BRANCH   1   2
ATOM      2  C   UNL A   1      42.584  20.833  25.984  1.00  0.00     0.117 C 
BRANCH   2   3
ATOM      3  N   UNL A   1      44.025  20.960  25.863  1.00  0.00    -0.354 N 
ATOM      4  C   UNL A   1      44.841  22.028  26.103  1.00  0.00     0.242 C 
ATOM      5  O   UNL A   1      46.053  21.853  25.959  1.00  0.00    -0.273 OA
ATOM      6  H   UNL A   1      44.488  20.146  25.558  1.00  0.00     0.163 HD
BRANCH   4   7
ATOM      7  C   UNL A   1      44.231  23.405  26.462  1.00  0.00     0.177 C 
ATOM      8  N   UNL A   1      44.902  24.024  27.614  1.00  0.00    -0.296 N 
ATOM      9  C   UNL A   1      46.214  24.630  27.404  1.00  0.00     0.132 C 
ATOM     10  C   UNL A   1      46.344  25.489  26.129  1.00  0.00     0.039 C 
ATOM     11  C   UNL A   1      44.249  24.353  25.263  1.00  0.00     0.036 C 
ATOM     12  C   UNL A   1      45.663  24.813  24.924  1.00  0.00     0.013 C 
BRANCH   8  13
ATOM     13  C   UNL A   1      44.520  23.728  28.913  1.00  0.00     0.410 C 
ATOM     14  O   UNL A   1      44.586  22.604  29.395  1.00  0.00    -0.224 OA
BRANCH  13  15
ATOM     15  O   UNL A   1      44.043  24.820  29.561  1.00  0.00    -0.444 OA
BRANCH  15  16
ATOM     16  C   UNL A   1      44.669  25.378  30.745  1.00  0.00     0.106 C 
ATOM     17  C   UNL A   1      44.446  24.320  31.837  1.00  0.00     0.056 C 
ATOM     18  C   UNL A   1      43.918  26.659  31.112  1.00  0.00     0.056 C 
ATOM     19  C   UNL A   1      46.177  25.630  30.628  1.00  0.00     0.056 C 
ENDBRANCH  15  16
ENDBRANCH  13  15
ENDBRANCH   8  13
BRANCH  10  20
ATOM     20  C   UNL A   1      47.773  25.882  25.749  1.00  0.00    -0.042 A 
ATOM     21  C   UNL A   1      47.987  26.594  24.555  1.00  0.00     0.004 A 
ATOM     22  C   UNL A   1      48.901  25.519  26.505  1.00  0.00     0.024 A 
ATOM     23  C   UNL A   1      49.277  26.914  24.121  1.00  0.00     0.002 A 
ATOM     24  C   UNL A   1      50.188  25.849  26.074  1.00  0.00     0.041 A 
ATOM     25  C   UNL A   1      50.381  26.540  24.882  1.00  0.00     0.020 A 
ATOM     26  Cl  UNL A   1      51.551  25.389  27.022  1.00  0.00    -0.084 Cl
ENDBRANCH  10  20
ENDBRANCH   4   7
ENDBRANCH   2   3
ENDBRANCH   1   2
BRANCH   1  27
ATOM     27  C   UNL A   1      40.978  21.580  27.852  1.00  0.00     0.118 C 
BRANCH  27  28
ATOM     28  N   UNL A   1      39.907  21.643  26.871  1.00  0.00    -0.352 N 
ATOM     29  C   UNL A   1      39.170  22.712  26.423  1.00  0.00     0.251 C 
ATOM     30  H   UNL A   1      39.672  20.779  26.461  1.00  0.00     0.163 HD
ATOM     31  O   UNL A   1      38.199  22.501  25.702  1.00  0.00    -0.269 OA
BRANCH  29  32
ATOM     32  C   UNL A   1      39.511  24.097  26.823  1.00  0.00     0.039 A 
ATOM     33  C   UNL A   1      39.179  24.522  28.113  1.00  0.00     0.014 A 
ATOM     34  C   UNL A   1      40.123  24.987  25.936  1.00  0.00     0.014 A 
ATOM     35  C   UNL A   1      39.521  25.810  28.535  1.00  0.00     0.010 A 
ATOM     36  C   UNL A   1      40.525  26.247  26.380  1.00  0.00     0.010 A 
ATOM     37  C   UNL A   1      40.231  26.671  27.684  1.00  0.00    -0.014 A 
BRANCH  37  38
ATOM     38  C   UNL A   1      40.673  28.016  28.142  1.00  0.00     0.031 A 
ATOM     39  C   UNL A   1      42.135  28.375  28.140  1.00  0.00     0.074 A 
ATOM     40  C   UNL A   1      39.765  28.888  28.622  1.00  0.00     0.049 A 
ATOM     41  N   UNL A   1      42.723  29.457  28.581  1.00  0.00    -0.248 NA
ATOM     42  C   UNL A   1      43.057  27.368  27.595  1.00  0.00     0.031 C 
ATOM     43  C   UNL A   1      38.324  28.641  28.716  1.00  0.00     0.029 A 
ATOM     44  N   UNL A   1      39.918  30.152  29.135  1.00  0.00    -0.354 N 
ATOM     45  C   UNL A   1      44.085  29.256  28.384  1.00  0.00     0.074 A 
ATOM     46  C   UNL A   1      44.234  27.926  27.833  1.00  0.00     0.031 C 
ATOM     47  C   UNL A   1      37.726  29.724  29.239  1.00  0.00     0.029 A 
ATOM     48  C   UNL A   1      38.740  30.725  29.555  1.00  0.00     0.049 A 
ATOM     49  H   UNL A   1      40.790  30.606  29.197  1.00  0.00     0.167 HD
ATOM     50  C   UNL A   1      45.114  30.109  28.624  1.00  0.00     0.034 A 
ATOM     51  C   UNL A   1      38.503  31.915  30.139  1.00  0.00     0.034 A 
ATOM     52  C   UNL A   1      44.948  31.440  29.158  1.00  0.00     0.049 A 
ATOM     53  C   UNL A   1      39.660  32.845  30.397  1.00  0.00     0.074 A 
ATOM     54  C   UNL A   1      45.914  32.405  29.384  1.00  0.00     0.029 A 
ATOM     55  N   UNL A   1      43.737  31.992  29.554  1.00  0.00    -0.354 N 
ATOM     56  N   UNL A   1      40.939  32.657  30.165  1.00  0.00    -0.248 NA
ATOM     57  C   UNL A   1      39.339  34.152  30.986  1.00  0.00     0.031 C 
ATOM     58  C   UNL A   1      45.296  33.518  29.969  1.00  0.00     0.029 A 
ATOM     59  C   UNL A   1      43.935  33.274  30.047  1.00  0.00     0.049 A 
ATOM     60  H   UNL A   1      42.864  31.540  29.495  1.00  0.00     0.167 HD
ATOM     61  C   UNL A   1      41.571  33.834  30.555  1.00  0.00     0.074 A 
ATOM     62  C   UNL A   1      40.532  34.728  31.025  1.00  0.00     0.031 C 
ATOM     63  C   UNL A   1      42.890  34.149  30.524  1.00  0.00     0.034 A 
BRANCH  50  64
ATOM     64  C   UNL A   1      46.508  29.609  28.331  1.00  0.00     0.023 A 
ATOM     65  C   UNL A   1      47.261  28.916  29.295  1.00  0.00     0.031 A 
ATOM     66  C   UNL A   1      47.107  29.858  27.084  1.00  0.00     0.131 A 
ATOM     67  C   UNL A   1      48.593  28.569  29.027  1.00  0.00     0.055 A 
ATOM     68  C   UNL A   1      48.407  29.437  26.794  1.00  0.00     0.041 A 
ATOM     69  F   UNL A   1      46.445  30.531  26.129  1.00  0.00    -0.206 F 
ATOM     70  C   UNL A   1      49.165  28.804  27.774  1.00  0.00     0.022 A 
BRANCH  67  71
ATOM     71  S   UNL A   1      49.614  27.939  30.388  1.00  0.00     0.124 S 
ATOM     72  O   UNL A   1      49.979  26.613  29.893  1.00  0.00    -0.237 OA
ATOM     73  O   UNL A   1      50.694  28.917  30.450  1.00  0.00    -0.237 OA
ATOM     74  O   UNL A   1      48.702  27.942  31.530  1.00  0.00    -0.744 OA
ENDBRANCH  67  71
ENDBRANCH  50  64
BRANCH  51  75
ATOM     75  C   UNL A   1      37.118  32.299  30.532  1.00  0.00     0.023 A 
ATOM     76  C   UNL A   1      36.243  32.890  29.609  1.00  0.00     0.031 A 
ATOM     77  C   UNL A   1      36.663  32.111  31.849  1.00  0.00     0.131 A 
ATOM     78  C   UNL A   1      34.971  33.312  30.024  1.00  0.00     0.055 A 
ATOM     79  C   UNL A   1      35.380  32.490  32.246  1.00  0.00     0.041 A 
ATOM     80  F   UNL A   1      37.459  31.539  32.768  1.00  0.00    -0.206 F 
ATOM     81  C   UNL A   1      34.530  33.106  31.333  1.00  0.00     0.022 A 
BRANCH  78  82
ATOM     82  S   UNL A   1      33.922  34.200  28.841  1.00  0.00     0.124 S 
ATOM     83  O   UNL A   1      33.551  33.135  27.914  1.00  0.00    -0.237 OA
ATOM     84  O   UNL A   1      32.856  34.704  29.700  1.00  0.00    -0.237 OA
ATOM     85  O   UNL A   1      34.814  35.221  28.295  1.00  0.00    -0.744 OA
ENDBRANCH  78  82
ENDBRANCH  51  75
BRANCH  63  86
ATOM     86  C   UNL A   1      43.269  35.537  30.975  1.00  0.00     0.023 A 
ATOM     87  C   UNL A   1      43.425  36.594  30.062  1.00  0.00     0.031 A 
ATOM     88  C   UNL A   1      43.498  35.799  32.338  1.00  0.00     0.131 A 
ATOM     89  C   UNL A   1      43.851  37.852  30.515  1.00  0.00     0.055 A 
ATOM     90  C   UNL A   1      43.870  37.066  32.790  1.00  0.00     0.041 A 
ATOM     91  F   UNL A   1      43.364  34.824  33.252  1.00  0.00    -0.206 F 
ATOM     92  C   UNL A   1      44.061  38.097  31.874  1.00  0.00     0.022 A 
BRANCH  89  93
ATOM     93  S   UNL A   1      44.214  39.142  29.292  1.00  0.00     0.124 S 
ATOM     94  O   UNL A   1      42.883  39.465  28.787  1.00  0.00    -0.237 OA
ATOM     95  O   UNL A   1      44.855  40.170  30.104  1.00  0.00    -0.237 OA
ATOM     96  O   UNL A   1      45.093  38.470  28.336  1.00  0.00    -0.744 OA
ENDBRANCH  89  93
ENDBRANCH  63  86
ENDBRANCH  37  38
ENDBRANCH  29  32
ENDBRANCH  27  28
ENDBRANCH   1  27
TORSDOF 17
ENDMDL
MODEL 3
REMARK VINA RESULT:     -12.0      6.103     11.919
REMARK SMILES CC(C)(C)OC(=O)N1C[C@@H](c2cccc(Cl)c2)CC[C@H]1C(=O)NCCCNC(=O)c1ccc(-c2c3nc(c(-c4cc(S(=O)(=O)[O-])ccc4F)c4ccc([nH]4)c(-c4cc(S(=O)(=O)[O-])ccc4F)c4nc(c(-c5cc(S(=O)(=O)[O-])ccc5F)c5ccc2[nH]5)C=C4)C=C3)cc1
REMARK SMILES IDX 25 1 24 2 23 3 21 4 22 5 20 7 8 8 9 9 10 10 19 11 18 12 6 13
REMARK SMILES IDX 7 14 5 15 2 16 1 17 3 18 4 19 11 20 12 21 17 22 13 23 15 24
REMARK SMILES IDX 14 25 16 26 26 27 27 28 28 29 29 31 30 32 31 33 92 34 32 35
REMARK SMILES IDX 91 36 33 37 34 38 35 39 85 40 36 41 90 42 84 43 86 44 37 45
REMARK SMILES IDX 89 46 83 47 82 48 38 50 70 51 50 52 69 53 51 54 54 55 68 56
REMARK SMILES IDX 87 57 52 58 53 59 67 61 88 62 55 63 39 64 40 65 48 66 41 67
REMARK SMILES IDX 47 68 49 69 46 70 42 71 43 72 44 73 45 74 71 75 72 76 80 77
REMARK SMILES IDX 73 78 79 79 81 80 78 81 74 82 75 83 76 84 77 85 56 86 57 87
REMARK SMILES IDX 65 88 58 89 64 90 66 91 63 92 59 93 60 94 61 95 62 96
REMARK H PARENT 23 6 27 30 86 49 54 60
REMARK Flexibility Score: inf
ROOT
ATOM      1  C   UNL A   1      38.457  19.835  25.318  1.00  0.00     0.042 C 
ENDROOT
BRANCH   1   2
ATOM      2  C   UNL A   1      37.901  21.192  24.895  1.00  0.00     0.117 C 
BRANCH   2   3
ATOM      3  N   UNL A   1      36.995  21.758  25.877  1.00  0.00    -0.354 N 
ATOM      4  C   UNL A   1      35.664  22.047  25.786  1.00  0.00     0.242 C 
ATOM      5  O   UNL A   1      35.114  22.491  26.797  1.00  0.00    -0.273 OA
ATOM      6  H   UNL A   1      37.405  21.966  26.748  1.00  0.00     0.163 HD
BRANCH   4   7
ATOM      7  C   UNL A   1      34.926  21.890  24.435  1.00  0.00     0.177 C 
ATOM      8  N   UNL A   1      33.471  21.769  24.609  1.00  0.00    -0.296 N 
ATOM      9  C   UNL A   1      32.710  22.978  24.914  1.00  0.00     0.132 C 
ATOM     10  C   UNL A   1      33.092  24.221  24.082  1.00  0.00     0.039 C 
ATOM     11  C   UNL A   1      35.253  23.039  23.482  1.00  0.00     0.036 C 
ATOM     12  C   UNL A   1      34.620  24.351  23.934  1.00  0.00     0.013 C 
BRANCH   8  13
ATOM     13  C   UNL A   1      32.876  20.543  24.862  1.00  0.00     0.410 C 
ATOM     14  O   UNL A   1      31.739  20.422  25.298  1.00  0.00    -0.224 OA
BRANCH  13  15
ATOM     15  O   UNL A   1      33.716  19.511  24.596  1.00  0.00    -0.444 OA
BRANCH  15  16
ATOM     16  C   UNL A   1      33.255  18.199  24.178  1.00  0.00     0.106 C 
ATOM     17  C   UNL A   1      34.542  17.413  23.881  1.00  0.00     0.056 C 
ATOM     18  C   UNL A   1      32.452  18.373  22.889  1.00  0.00     0.056 C 
ATOM     19  C   UNL A   1      32.457  17.423  25.233  1.00  0.00     0.056 C 
ENDBRANCH  15  16
ENDBRANCH  13  15
ENDBRANCH   8  13
BRANCH  10  20
ATOM     20  C   UNL A   1      32.516  25.545  24.587  1.00  0.00    -0.042 A 
ATOM     21  C   UNL A   1      32.300  25.710  25.968  1.00  0.00     0.004 A 
ATOM     22  C   UNL A   1      32.135  26.596  23.736  1.00  0.00     0.024 A 
ATOM     23  C   UNL A   1      31.707  26.869  26.477  1.00  0.00     0.002 A 
ATOM     24  C   UNL A   1      31.553  27.758  24.249  1.00  0.00     0.041 A 
ATOM     25  C   UNL A   1      31.331  27.896  25.615  1.00  0.00     0.020 A 
ATOM     26  Cl  UNL A   1      31.094  29.028  23.180  1.00  0.00    -0.084 Cl
ENDBRANCH  10  20
ENDBRANCH   4   7
ENDBRANCH   2   3
ENDBRANCH   1   2
BRANCH   1  27
ATOM     27  C   UNL A   1      39.521  19.885  26.411  1.00  0.00     0.118 C 
BRANCH  27  28
ATOM     28  N   UNL A   1      40.735  19.164  26.059  1.00  0.00    -0.352 N 
ATOM     29  C   UNL A   1      42.020  19.616  25.881  1.00  0.00     0.251 C 
ATOM     30  H   UNL A   1      40.615  18.196  25.926  1.00  0.00     0.163 HD
ATOM     31  O   UNL A   1      42.860  18.847  25.424  1.00  0.00    -0.269 OA
BRANCH  29  32
ATOM     32  C   UNL A   1      42.389  21.014  26.202  1.00  0.00     0.039 A 
ATOM     33  C   UNL A   1      42.668  21.344  27.532  1.00  0.00     0.014 A 
ATOM     34  C   UNL A   1      42.434  22.006  25.219  1.00  0.00     0.014 A 
ATOM     35  C   UNL A   1      43.057  22.645  27.863  1.00  0.00     0.010 A 
ATOM     36  C   UNL A   1      42.888  23.286  25.538  1.00  0.00     0.010 A 
ATOM     37  C   UNL A   1      43.206  23.619  26.864  1.00  0.00    -0.014 A 
BRANCH  37  38
ATOM     38  C   UNL A   1      43.695  24.986  27.185  1.00  0.00     0.031 A 
ATOM     39  C   UNL A   1      42.750  26.019  27.738  1.00  0.00     0.074 A 
ATOM     40  C   UNL A   1      44.974  25.317  26.916  1.00  0.00     0.049 A 
ATOM     41  N   UNL A   1      42.964  27.284  27.997  1.00  0.00    -0.248 NA
ATOM     42  C   UNL A   1      41.374  25.573  28.007  1.00  0.00     0.031 C 
ATOM     43  C   UNL A   1      45.976  24.418  26.340  1.00  0.00     0.029 A 
ATOM     44  N   UNL A   1      45.647  26.502  27.078  1.00  0.00    -0.354 N 
ATOM     45  C   UNL A   1      41.747  27.791  28.442  1.00  0.00     0.074 A 
ATOM     46  C   UNL A   1      40.791  26.706  28.365  1.00  0.00     0.031 C 
ATOM     47  C   UNL A   1      47.137  25.079  26.212  1.00  0.00     0.029 A 
ATOM     48  C   UNL A   1      46.955  26.456  26.656  1.00  0.00     0.049 A 
ATOM     49  H   UNL A   1      45.232  27.310  27.460  1.00  0.00     0.167 HD
ATOM     50  C   UNL A   1      41.459  29.039  28.890  1.00  0.00     0.034 A 
ATOM     51  C   UNL A   1      47.899  27.418  26.619  1.00  0.00     0.034 A 
ATOM     52  C   UNL A   1      42.427  30.106  28.978  1.00  0.00     0.049 A 
ATOM     53  C   UNL A   1      47.557  28.797  27.120  1.00  0.00     0.074 A 
ATOM     54  C   UNL A   1      42.257  31.388  29.471  1.00  0.00     0.029 A 
ATOM     55  N   UNL A   1      43.748  30.017  28.558  1.00  0.00    -0.354 N 
ATOM     56  N   UNL A   1      46.412  29.249  27.579  1.00  0.00    -0.248 NA
ATOM     57  C   UNL A   1      48.638  29.791  27.108  1.00  0.00     0.031 C 
ATOM     58  C   UNL A   1      43.456  32.090  29.297  1.00  0.00     0.029 A 
ATOM     59  C   UNL A   1      44.395  31.228  28.757  1.00  0.00     0.049 A 
ATOM     60  H   UNL A   1      44.165  29.211  28.175  1.00  0.00     0.167 HD
ATOM     61  C   UNL A   1      46.644  30.573  27.935  1.00  0.00     0.074 A 
ATOM     62  C   UNL A   1      48.039  30.843  27.650  1.00  0.00     0.031 C 
ATOM     63  C   UNL A   1      45.784  31.485  28.455  1.00  0.00     0.034 A 
BRANCH  50  64
ATOM     64  C   UNL A   1      40.031  29.316  29.295  1.00  0.00     0.023 A 
ATOM     65  C   UNL A   1      39.645  29.373  30.645  1.00  0.00     0.031 A 
ATOM     66  C   UNL A   1      39.035  29.492  28.318  1.00  0.00     0.131 A 
ATOM     67  C   UNL A   1      38.290  29.517  30.981  1.00  0.00     0.055 A 
ATOM     68  C   UNL A   1      37.699  29.717  28.661  1.00  0.00     0.041 A 
ATOM     69  F   UNL A   1      39.339  29.431  27.012  1.00  0.00    -0.206 F 
ATOM     70  C   UNL A   1      37.317  29.714  29.999  1.00  0.00     0.022 A 
BRANCH  67  71
ATOM     71  S   UNL A   1      37.801  29.297  32.714  1.00  0.00     0.124 S 
ATOM     72  O   UNL A   1      37.716  27.841  32.813  1.00  0.00    -0.237 OA
ATOM     73  O   UNL A   1      38.903  29.924  33.435  1.00  0.00    -0.237 OA
ATOM     74  O   UNL A   1      36.520  29.996  32.801  1.00  0.00    -0.744 OA
ENDBRANCH  67  71
ENDBRANCH  50  64
BRANCH  51  75
ATOM     75  C   UNL A   1      49.256  27.120  26.081  1.00  0.00     0.023 A 
ATOM     76  C   UNL A   1      49.615  27.499  24.779  1.00  0.00     0.031 A 
ATOM     77  C   UNL A   1      50.202  26.422  26.852  1.00  0.00     0.131 A 
ATOM     78  C   UNL A   1      50.872  27.141  24.269  1.00  0.00     0.055 A 
ATOM     79  C   UNL A   1      51.468  26.108  26.357  1.00  0.00     0.041 A 
ATOM     80  F   UNL A   1      49.910  26.047  28.109  1.00  0.00    -0.206 F 
ATOM     81  C   UNL A   1      51.805  26.457  25.054  1.00  0.00     0.022 A 
BRANCH  78  82
ATOM     82  S   UNL A   1      51.247  27.522  22.537  1.00  0.00     0.124 S 
ATOM     83  O   UNL A   1      52.584  26.956  22.389  1.00  0.00    -0.237 OA
ATOM     84  O   UNL A   1      50.173  26.827  21.835  1.00  0.00    -0.237 OA
ATOM     85  O   UNL A   1      51.178  28.981  22.487  1.00  0.00    -0.744 OA
ENDBRANCH  78  82
ENDBRANCH  51  75
BRANCH  63  86
ATOM     86  C   UNL A   1      46.349  32.844  28.785  1.00  0.00     0.023 A 
ATOM     87  C   UNL A   1      46.263  33.918  27.884  1.00  0.00     0.031 A 
ATOM     88  C   UNL A   1      47.002  33.057  30.011  1.00  0.00     0.131 A 
ATOM     89  C   UNL A   1      46.867  35.145  28.199  1.00  0.00     0.055 A 
ATOM     90  C   UNL A   1      47.555  34.295  30.343  1.00  0.00     0.041 A 
ATOM     91  F   UNL A   1      47.114  32.063  30.908  1.00  0.00    -0.206 F 
ATOM     92  C   UNL A   1      47.501  35.343  29.428  1.00  0.00     0.022 A 
BRANCH  89  93
ATOM     93  S   UNL A   1      46.891  36.453  26.942  1.00  0.00     0.124 S 
ATOM     94  O   UNL A   1      45.478  36.806  26.844  1.00  0.00    -0.237 OA
ATOM     95  O   UNL A   1      47.758  37.455  27.553  1.00  0.00    -0.237 OA
ATOM     96  O   UNL A   1      47.448  35.787  25.766  1.00  0.00    -0.744 OA
ENDBRANCH  89  93
ENDBRANCH  63  86
ENDBRANCH  37  38
ENDBRANCH  29  32
ENDBRANCH  27  28
ENDBRANCH   1  27
TORSDOF 17
ENDMDL
