MODEL 1
REMARK VINA RESULT:     -11.7      0.000      0.000
REMARK SMILES CC(C)([NH2+]C[C@@H]1COc2ccccc21)C(=O)NCCCNC(=O)c1ccc(-c2c3nc(c(-c4cc(S(=O)(=O)[O-])ccc4F)c4ccc([nH]4)c(-c4cc(S(=O)(=O)[O-])ccc4F)c4nc(c(-c5cc(S(=O)(=O)[O-])ccc5F)c5ccc2[nH]5)C=C4)C=C3)cc1
REMARK SMILES IDX 19 1 18 2 17 3 15 4 16 5 2 7 1 8 3 9 4 10 5 13 6 14 7 15
REMARK SMILES IDX 14 16 8 17 9 18 13 19 10 20 12 21 11 22 20 23 21 24 22 25
REMARK SMILES IDX 23 27 24 28 25 29 86 30 26 31 85 32 27 33 28 34 29 35 79 36
REMARK SMILES IDX 30 37 84 38 78 39 80 40 31 41 83 42 77 43 76 44 32 46 64 47
REMARK SMILES IDX 44 48 63 49 45 50 48 51 62 52 81 53 46 54 47 55 61 57 82 58
REMARK SMILES IDX 49 59 33 60 34 61 42 62 35 63 41 64 43 65 40 66 36 67 37 68
REMARK SMILES IDX 38 69 39 70 65 71 66 72 74 73 67 74 73 75 75 76 72 77 68 78
REMARK SMILES IDX 69 79 70 80 71 81 50 82 51 83 59 84 52 85 58 86 60 87 57 88
REMARK SMILES IDX 53 89 54 90 55 91 56 92
REMARK H PARENT 17 6 4 11 4 12 21 26 80 45 48 56
REMARK Flexibility Score: inf
ROOT
ATOM      1  C   UNL A   1      31.170  32.095  26.458  1.00  0.00     0.042 C 
ENDROOT
BRANCH   1   2
ATOM      2  C   UNL A   1      31.238  30.812  25.633  1.00  0.00     0.118 C 
BRANCH   2   3
ATOM      3  N   UNL A   1      32.572  30.256  25.629  1.00  0.00    -0.351 N 
ATOM      4  C   UNL A   1      33.074  29.027  25.922  1.00  0.00     0.280 C 
ATOM      5  O   UNL A   1      34.312  28.971  25.854  1.00  0.00    -0.268 OA
ATOM      6  H   UNL A   1      33.262  30.903  25.356  1.00  0.00     0.163 HD
BRANCH   4   7
ATOM      7  C   UNL A   1      32.220  27.744  26.246  1.00  0.00     0.169 C 
ATOM      8  C   UNL A   1      31.676  27.977  27.692  1.00  0.00     0.090 C 
ATOM      9  C   UNL A   1      33.061  26.469  26.333  1.00  0.00     0.090 C 
BRANCH   7  10
ATOM     10  N   UNL A   1      30.973  27.634  25.449  1.00  0.00    -0.333 N 
ATOM     11  H   UNL A   1      30.731  28.587  25.178  1.00  0.00     0.347 HD
ATOM     12  H   UNL A   1      30.374  27.112  26.088  1.00  0.00     0.347 HD
BRANCH  10  13
ATOM     13  C   UNL A   1      30.861  26.832  24.237  1.00  0.00     0.273 C 
BRANCH  13  14
ATOM     14  C   UNL A   1      30.697  27.571  22.896  1.00  0.00     0.116 C 
ATOM     15  C   UNL A   1      31.778  28.637  22.621  1.00  0.00     0.244 C 
ATOM     16  C   UNL A   1      29.523  28.491  22.799  1.00  0.00     0.006 A 
ATOM     17  O   UNL A   1      31.223  29.650  21.752  1.00  0.00    -0.492 OA
ATOM     18  C   UNL A   1      29.900  29.638  22.108  1.00  0.00     0.123 A 
ATOM     19  C   UNL A   1      28.216  28.335  23.227  1.00  0.00     0.008 A 
ATOM     20  C   UNL A   1      29.016  30.654  21.818  1.00  0.00     0.047 A 
ATOM     21  C   UNL A   1      27.305  29.362  22.965  1.00  0.00     0.001 A 
ATOM     22  C   UNL A   1      27.702  30.513  22.262  1.00  0.00     0.004 A 
ENDBRANCH  13  14
ENDBRANCH  10  13
ENDBRANCH   7  10
ENDBRANCH   4   7
ENDBRANCH   2   3
ENDBRANCH   1   2
BRANCH   1  23
ATOM     23  C   UNL A   1      32.496  32.526  27.051  1.00  0.00     0.118 C 
BRANCH  23  24
ATOM     24  N   UNL A   1      32.451  33.890  27.560  1.00  0.00    -0.352 N 
ATOM     25  C   UNL A   1      33.170  34.502  28.557  1.00  0.00     0.251 C 
ATOM     26  H   UNL A   1      31.793  34.471  27.113  1.00  0.00     0.163 HD
ATOM     27  O   UNL A   1      32.805  35.614  28.944  1.00  0.00    -0.269 OA
BRANCH  25  28
ATOM     28  C   UNL A   1      34.340  33.845  29.185  1.00  0.00     0.039 A 
ATOM     29  C   UNL A   1      35.622  34.325  28.895  1.00  0.00     0.014 A 
ATOM     30  C   UNL A   1      34.199  32.745  30.032  1.00  0.00     0.014 A 
ATOM     31  C   UNL A   1      36.741  33.745  29.503  1.00  0.00     0.010 A 
ATOM     32  C   UNL A   1      35.297  32.251  30.729  1.00  0.00     0.010 A 
ATOM     33  C   UNL A   1      36.585  32.730  30.459  1.00  0.00    -0.014 A 
BRANCH  33  34
ATOM     34  C   UNL A   1      37.754  32.136  31.164  1.00  0.00     0.031 A 
ATOM     35  C   UNL A   1      38.523  31.007  30.523  1.00  0.00     0.074 A 
ATOM     36  C   UNL A   1      38.076  32.563  32.403  1.00  0.00     0.049 A 
ATOM     37  N   UNL A   1      39.510  30.299  31.008  1.00  0.00    -0.248 NA
ATOM     38  C   UNL A   1      38.104  30.596  29.172  1.00  0.00     0.031 C 
ATOM     39  C   UNL A   1      37.371  33.610  33.145  1.00  0.00     0.029 A 
ATOM     40  N   UNL A   1      39.068  32.163  33.263  1.00  0.00    -0.354 N 
ATOM     41  C   UNL A   1      39.807  29.346  30.038  1.00  0.00     0.074 A 
ATOM     42  C   UNL A   1      38.862  29.530  28.961  1.00  0.00     0.031 C 
ATOM     43  C   UNL A   1      37.968  33.788  34.334  1.00  0.00     0.029 A 
ATOM     44  C   UNL A   1      39.060  32.832  34.468  1.00  0.00     0.049 A 
ATOM     45  H   UNL A   1      39.726  31.465  33.040  1.00  0.00     0.167 HD
ATOM     46  C   UNL A   1      40.793  28.415  30.040  1.00  0.00     0.034 A 
ATOM     47  C   UNL A   1      39.832  32.677  35.564  1.00  0.00     0.034 A 
ATOM     48  C   UNL A   1      41.750  28.271  31.109  1.00  0.00     0.049 A 
ATOM     49  C   UNL A   1      40.925  31.636  35.534  1.00  0.00     0.074 A 
ATOM     50  C   UNL A   1      42.844  27.427  31.172  1.00  0.00     0.029 A 
ATOM     51  N   UNL A   1      41.724  28.980  32.303  1.00  0.00    -0.354 N 
ATOM     52  N   UNL A   1      41.241  30.797  34.573  1.00  0.00    -0.248 NA
ATOM     53  C   UNL A   1      41.773  31.528  36.728  1.00  0.00     0.031 C 
ATOM     54  C   UNL A   1      43.427  27.562  32.434  1.00  0.00     0.029 A 
ATOM     55  C   UNL A   1      42.756  28.560  33.125  1.00  0.00     0.049 A 
ATOM     56  H   UNL A   1      41.068  29.678  32.531  1.00  0.00     0.167 HD
ATOM     57  C   UNL A   1      42.345  30.087  35.039  1.00  0.00     0.074 A 
ATOM     58  C   UNL A   1      42.652  30.611  36.352  1.00  0.00     0.031 C 
ATOM     59  C   UNL A   1      43.044  29.092  34.436  1.00  0.00     0.034 A 
BRANCH  46  60
ATOM     60  C   UNL A   1      40.872  27.462  28.872  1.00  0.00     0.023 A 
ATOM     61  C   UNL A   1      41.835  27.600  27.857  1.00  0.00     0.031 A 
ATOM     62  C   UNL A   1      39.974  26.382  28.782  1.00  0.00     0.131 A 
ATOM     63  C   UNL A   1      41.844  26.707  26.773  1.00  0.00     0.055 A 
ATOM     64  C   UNL A   1      40.038  25.453  27.742  1.00  0.00     0.041 A 
ATOM     65  F   UNL A   1      39.017  26.212  29.708  1.00  0.00    -0.206 F 
ATOM     66  C   UNL A   1      40.970  25.619  26.724  1.00  0.00     0.022 A 
BRANCH  63  67
ATOM     67  S   UNL A   1      42.938  27.056  25.369  1.00  0.00     0.124 S 
ATOM     68  O   UNL A   1      44.190  27.389  26.046  1.00  0.00    -0.237 OA
ATOM     69  O   UNL A   1      42.925  25.795  24.637  1.00  0.00    -0.237 OA
ATOM     70  O   UNL A   1      42.285  28.176  24.695  1.00  0.00    -0.744 OA
ENDBRANCH  63  67
ENDBRANCH  46  60
BRANCH  47  71
ATOM     71  C   UNL A   1      39.591  33.495  36.790  1.00  0.00     0.023 A 
ATOM     72  C   UNL A   1      38.938  32.955  37.910  1.00  0.00     0.031 A 
ATOM     73  C   UNL A   1      39.947  34.855  36.833  1.00  0.00     0.131 A 
ATOM     74  C   UNL A   1      38.604  33.782  38.994  1.00  0.00     0.055 A 
ATOM     75  C   UNL A   1      39.675  35.658  37.942  1.00  0.00     0.041 A 
ATOM     76  F   UNL A   1      40.573  35.428  35.792  1.00  0.00    -0.206 F 
ATOM     77  C   UNL A   1      38.981  35.126  39.024  1.00  0.00     0.022 A 
BRANCH  74  78
ATOM     78  S   UNL A   1      37.554  33.107  40.311  1.00  0.00     0.124 S 
ATOM     79  O   UNL A   1      36.326  32.808  39.585  1.00  0.00    -0.237 OA
ATOM     80  O   UNL A   1      38.333  31.956  40.758  1.00  0.00    -0.237 OA
ATOM     81  O   UNL A   1      37.461  34.206  41.269  1.00  0.00    -0.744 OA
ENDBRANCH  74  78
ENDBRANCH  47  71
BRANCH  59  82
ATOM     82  C   UNL A   1      44.239  28.544  35.177  1.00  0.00     0.023 A 
ATOM     83  C   UNL A   1      44.115  27.518  36.131  1.00  0.00     0.031 A 
ATOM     84  C   UNL A   1      45.523  29.062  34.927  1.00  0.00     0.131 A 
ATOM     85  C   UNL A   1      45.243  27.086  36.842  1.00  0.00     0.055 A 
ATOM     86  C   UNL A   1      46.653  28.578  35.587  1.00  0.00     0.041 A 
ATOM     87  F   UNL A   1      45.701  30.045  34.030  1.00  0.00    -0.206 F 
ATOM     88  C   UNL A   1      46.514  27.594  36.562  1.00  0.00     0.022 A 
BRANCH  85  89
ATOM     89  S   UNL A   1      45.013  25.922  38.213  1.00  0.00     0.124 S 
ATOM     90  O   UNL A   1      44.100  24.944  37.630  1.00  0.00    -0.237 OA
ATOM     91  O   UNL A   1      46.374  25.455  38.459  1.00  0.00    -0.237 OA
ATOM     92  O   UNL A   1      44.441  26.750  39.274  1.00  0.00    -0.744 OA
ENDBRANCH  85  89
ENDBRANCH  59  82
ENDBRANCH  33  34
ENDBRANCH  25  28
ENDBRANCH  23  24
ENDBRANCH   1  23
TORSDOF 16
ENDMDL
MODEL 2
REMARK VINA RESULT:     -11.7      1.471      2.560
REMARK SMILES CC(C)([NH2+]C[C@@H]1COc2ccccc21)C(=O)NCCCNC(=O)c1ccc(-c2c3nc(c(-c4cc(S(=O)(=O)[O-])ccc4F)c4ccc([nH]4)c(-c4cc(S(=O)(=O)[O-])ccc4F)c4nc(c(-c5cc(S(=O)(=O)[O-])ccc5F)c5ccc2[nH]5)C=C4)C=C3)cc1
REMARK SMILES IDX 19 1 18 2 17 3 15 4 16 5 2 7 1 8 3 9 4 10 5 13 6 14 7 15
REMARK SMILES IDX 14 16 8 17 9 18 13 19 10 20 12 21 11 22 20 23 21 24 22 25
REMARK SMILES IDX 23 27 24 28 25 29 86 30 26 31 85 32 27 33 28 34 29 35 79 36
REMARK SMILES IDX 30 37 84 38 78 39 80 40 31 41 83 42 77 43 76 44 32 46 64 47
REMARK SMILES IDX 44 48 63 49 45 50 48 51 62 52 81 53 46 54 47 55 61 57 82 58
REMARK SMILES IDX 49 59 33 60 34 61 42 62 35 63 41 64 43 65 40 66 36 67 37 68
REMARK SMILES IDX 38 69 39 70 65 71 66 72 74 73 67 74 73 75 75 76 72 77 68 78
REMARK SMILES IDX 69 79 70 80 71 81 50 82 51 83 59 84 52 85 58 86 60 87 57 88
REMARK SMILES IDX 53 89 54 90 55 91 56 92
REMARK H PARENT 17 6 4 11 4 12 21 26 80 45 48 56
REMARK Flexibility Score: inf
ROOT
ATOM      1  C   UNL A   1      31.522  31.985  26.452  1.00  0.00     0.042 C 
ENDROOT
BRANCH   1   2
ATOM      2  C   UNL A   1      31.664  30.557  25.929  1.00  0.00     0.118 C 
BRANCH   2   3
ATOM      3  N   UNL A   1      31.566  29.590  26.999  1.00  0.00    -0.351 N 
ATOM      4  C   UNL A   1      31.719  28.240  27.057  1.00  0.00     0.280 C 
ATOM      5  O   UNL A   1      31.482  27.765  28.178  1.00  0.00    -0.268 OA
ATOM      6  H   UNL A   1      31.340  29.994  27.868  1.00  0.00     0.163 HD
BRANCH   4   7
ATOM      7  C   UNL A   1      32.221  27.326  25.877  1.00  0.00     0.169 C 
ATOM      8  C   UNL A   1      32.151  25.869  26.439  1.00  0.00     0.090 C 
ATOM      9  C   UNL A   1      33.693  27.551  25.528  1.00  0.00     0.090 C 
BRANCH   7  10
ATOM     10  N   UNL A   1      31.291  27.268  24.723  1.00  0.00    -0.333 N 
ATOM     11  H   UNL A   1      30.806  28.165  24.710  1.00  0.00     0.347 HD
ATOM     12  H   UNL A   1      30.781  26.408  24.921  1.00  0.00     0.347 HD
BRANCH  10  13
ATOM     13  C   UNL A   1      31.726  27.030  23.351  1.00  0.00     0.273 C 
BRANCH  13  14
ATOM     14  C   UNL A   1      31.539  25.616  22.771  1.00  0.00     0.116 C 
ATOM     15  C   UNL A   1      30.369  24.824  23.391  1.00  0.00     0.244 C 
ATOM     16  C   UNL A   1      32.609  24.628  23.106  1.00  0.00     0.006 A 
ATOM     17  O   UNL A   1      30.655  23.412  23.286  1.00  0.00    -0.492 OA
ATOM     18  C   UNL A   1      32.023  23.392  23.357  1.00  0.00     0.123 A 
ATOM     19  C   UNL A   1      33.986  24.767  23.143  1.00  0.00     0.008 A 
ATOM     20  C   UNL A   1      32.762  22.266  23.648  1.00  0.00     0.047 A 
ATOM     21  C   UNL A   1      34.756  23.644  23.457  1.00  0.00     0.001 A 
ATOM     22  C   UNL A   1      34.149  22.401  23.705  1.00  0.00     0.004 A 
ENDBRANCH  13  14
ENDBRANCH  10  13
ENDBRANCH   7  10
ENDBRANCH   4   7
ENDBRANCH   2   3
ENDBRANCH   1   2
BRANCH   1  23
ATOM     23  C   UNL A   1      32.674  32.447  27.322  1.00  0.00     0.118 C 
BRANCH  23  24
ATOM     24  N   UNL A   1      32.566  33.858  27.666  1.00  0.00    -0.352 N 
ATOM     25  C   UNL A   1      33.227  34.606  28.611  1.00  0.00     0.251 C 
ATOM     26  H   UNL A   1      31.909  34.361  27.133  1.00  0.00     0.163 HD
ATOM     27  O   UNL A   1      32.813  35.742  28.852  1.00  0.00    -0.269 OA
BRANCH  25  28
ATOM     28  C   UNL A   1      34.392  34.068  29.351  1.00  0.00     0.039 A 
ATOM     29  C   UNL A   1      34.169  33.200  30.426  1.00  0.00     0.014 A 
ATOM     30  C   UNL A   1      35.701  34.426  29.024  1.00  0.00     0.014 A 
ATOM     31  C   UNL A   1      35.253  32.650  31.119  1.00  0.00     0.010 A 
ATOM     32  C   UNL A   1      36.776  33.785  29.630  1.00  0.00     0.010 A 
ATOM     33  C   UNL A   1      36.568  32.904  30.700  1.00  0.00    -0.014 A 
BRANCH  33  34
ATOM     34  C   UNL A   1      37.738  32.286  31.381  1.00  0.00     0.031 A 
ATOM     35  C   UNL A   1      38.495  31.169  30.706  1.00  0.00     0.074 A 
ATOM     36  C   UNL A   1      38.073  32.682  32.626  1.00  0.00     0.049 A 
ATOM     37  N   UNL A   1      39.481  30.442  31.166  1.00  0.00    -0.248 NA
ATOM     38  C   UNL A   1      38.062  30.792  29.349  1.00  0.00     0.031 C 
ATOM     39  C   UNL A   1      37.381  33.716  33.399  1.00  0.00     0.029 A 
ATOM     40  N   UNL A   1      39.070  32.256  33.468  1.00  0.00    -0.354 N 
ATOM     41  C   UNL A   1      39.764  29.511  30.171  1.00  0.00     0.074 A 
ATOM     42  C   UNL A   1      38.811  29.727  29.107  1.00  0.00     0.031 C 
ATOM     43  C   UNL A   1      37.989  33.861  34.587  1.00  0.00     0.029 A 
ATOM     44  C   UNL A   1      39.077  32.895  34.689  1.00  0.00     0.049 A 
ATOM     45  H   UNL A   1      39.721  31.559  33.223  1.00  0.00     0.167 HD
ATOM     46  C   UNL A   1      40.744  28.574  30.142  1.00  0.00     0.034 A 
ATOM     47  C   UNL A   1      39.856  32.709  35.774  1.00  0.00     0.034 A 
ATOM     48  C   UNL A   1      41.709  28.399  31.200  1.00  0.00     0.049 A 
ATOM     49  C   UNL A   1      40.942  31.662  35.710  1.00  0.00     0.074 A 
ATOM     50  C   UNL A   1      42.798  27.547  31.234  1.00  0.00     0.029 A 
ATOM     51  N   UNL A   1      41.697  29.079  32.410  1.00  0.00    -0.354 N 
ATOM     52  N   UNL A   1      41.245  30.845  34.727  1.00  0.00    -0.248 NA
ATOM     53  C   UNL A   1      41.799  31.521  36.895  1.00  0.00     0.031 C 
ATOM     54  C   UNL A   1      43.393  27.648  32.494  1.00  0.00     0.029 A 
ATOM     55  C   UNL A   1      42.733  28.633  33.214  1.00  0.00     0.049 A 
ATOM     56  H   UNL A   1      41.048  29.776  32.660  1.00  0.00     0.167 HD
ATOM     57  C   UNL A   1      42.348  30.117  35.167  1.00  0.00     0.074 A 
ATOM     58  C   UNL A   1      42.669  30.608  36.490  1.00  0.00     0.031 C 
ATOM     59  C   UNL A   1      43.036  29.132  34.535  1.00  0.00     0.034 A 
BRANCH  46  60
ATOM     60  C   UNL A   1      40.807  27.648  28.952  1.00  0.00     0.023 A 
ATOM     61  C   UNL A   1      41.753  27.814  27.925  1.00  0.00     0.031 A 
ATOM     62  C   UNL A   1      39.912  26.567  28.852  1.00  0.00     0.131 A 
ATOM     63  C   UNL A   1      41.747  26.947  26.820  1.00  0.00     0.055 A 
ATOM     64  C   UNL A   1      39.962  25.663  27.790  1.00  0.00     0.041 A 
ATOM     65  F   UNL A   1      38.971  26.372  29.789  1.00  0.00    -0.206 F 
ATOM     66  C   UNL A   1      40.877  25.856  26.760  1.00  0.00     0.022 A 
BRANCH  63  67
ATOM     67  S   UNL A   1      42.816  27.332  25.406  1.00  0.00     0.124 S 
ATOM     68  O   UNL A   1      42.807  26.066  24.676  1.00  0.00    -0.237 OA
ATOM     69  O   UNL A   1      42.113  28.440  24.771  1.00  0.00    -0.237 OA
ATOM     70  O   UNL A   1      44.094  27.676  26.026  1.00  0.00    -0.744 OA
ENDBRANCH  63  67
ENDBRANCH  46  60
BRANCH  47  71
ATOM     71  C   UNL A   1      39.631  33.499  37.021  1.00  0.00     0.023 A 
ATOM     72  C   UNL A   1      38.968  32.942  38.127  1.00  0.00     0.031 A 
ATOM     73  C   UNL A   1      40.013  34.851  37.100  1.00  0.00     0.131 A 
ATOM     74  C   UNL A   1      38.650  33.748  39.232  1.00  0.00     0.055 A 
ATOM     75  C   UNL A   1      39.755  35.630  38.230  1.00  0.00     0.041 A 
ATOM     76  F   UNL A   1      40.649  35.439  36.073  1.00  0.00    -0.206 F 
ATOM     77  C   UNL A   1      39.052  35.083  39.298  1.00  0.00     0.022 A 
BRANCH  74  78
ATOM     78  S   UNL A   1      37.587  33.058  40.532  1.00  0.00     0.124 S 
ATOM     79  O   UNL A   1      36.348  32.815  39.802  1.00  0.00    -0.237 OA
ATOM     80  O   UNL A   1      38.336  31.873  40.937  1.00  0.00    -0.237 OA
ATOM     81  O   UNL A   1      37.527  34.128  41.526  1.00  0.00    -0.744 OA
ENDBRANCH  74  78
ENDBRANCH  47  71
BRANCH  59  82
ATOM     82  C   UNL A   1      44.233  28.559  35.253  1.00  0.00     0.023 A 
ATOM     83  C   UNL A   1      44.109  27.516  36.187  1.00  0.00     0.031 A 
ATOM     84  C   UNL A   1      45.519  29.070  34.999  1.00  0.00     0.131 A 
ATOM     85  C   UNL A   1      45.241  27.060  36.878  1.00  0.00     0.055 A 
ATOM     86  C   UNL A   1      46.651  28.564  35.638  1.00  0.00     0.041 A 
ATOM     87  F   UNL A   1      45.697  30.070  34.120  1.00  0.00    -0.206 F 
ATOM     88  C   UNL A   1      46.514  27.562  36.595  1.00  0.00     0.022 A 
BRANCH  85  89
ATOM     89  S   UNL A   1      45.014  25.871  38.228  1.00  0.00     0.124 S 
ATOM     90  O   UNL A   1      46.382  25.687  38.703  1.00  0.00    -0.237 OA
ATOM     91  O   UNL A   1      44.119  26.588  39.130  1.00  0.00    -0.237 OA
ATOM     92  O   UNL A   1      44.425  24.708  37.566  1.00  0.00    -0.744 OA
ENDBRANCH  85  89
ENDBRANCH  59  82
ENDBRANCH  33  34
ENDBRANCH  25  28
ENDBRANCH  23  24
ENDBRANCH   1  23
TORSDOF 16
ENDMDL
MODEL 3
REMARK VINA RESULT:     -11.5      3.711      8.890
REMARK SMILES CC(C)([NH2+]C[C@@H]1COc2ccccc21)C(=O)NCCCNC(=O)c1ccc(-c2c3nc(c(-c4cc(S(=O)(=O)[O-])ccc4F)c4ccc([nH]4)c(-c4cc(S(=O)(=O)[O-])ccc4F)c4nc(c(-c5cc(S(=O)(=O)[O-])ccc5F)c5ccc2[nH]5)C=C4)C=C3)cc1
REMARK SMILES IDX 19 1 18 2 17 3 15 4 16 5 2 7 1 8 3 9 4 10 5 13 6 14 7 15
REMARK SMILES IDX 14 16 8 17 9 18 13 19 10 20 12 21 11 22 20 23 21 24 22 25
REMARK SMILES IDX 23 27 24 28 25 29 86 30 26 31 85 32 27 33 28 34 29 35 79 36
REMARK SMILES IDX 30 37 84 38 78 39 80 40 31 41 83 42 77 43 76 44 32 46 64 47
REMARK SMILES IDX 44 48 63 49 45 50 48 51 62 52 81 53 46 54 47 55 61 57 82 58
REMARK SMILES IDX 49 59 33 60 34 61 42 62 35 63 41 64 43 65 40 66 36 67 37 68
REMARK SMILES IDX 38 69 39 70 65 71 66 72 74 73 67 74 73 75 75 76 72 77 68 78
REMARK SMILES IDX 69 79 70 80 71 81 50 82 51 83 59 84 52 85 58 86 60 87 57 88
REMARK SMILES IDX 53 89 54 90 55 91 56 92
REMARK H PARENT 17 6 4 11 4 12 21 26 80 45 48 56
REMARK Flexibility Score: inf
ROOT
ATOM      1  C   UNL A   1      32.583  28.229  26.408  1.00  0.00     0.042 C 
ENDROOT
BRANCH   1   2
ATOM      2  C   UNL A   1      32.808  26.725  26.266  1.00  0.00     0.118 C 
BRANCH   2   3
ATOM      3  N   UNL A   1      31.610  25.979  26.577  1.00  0.00    -0.351 N 
ATOM      4  C   UNL A   1      31.243  24.682  26.401  1.00  0.00     0.280 C 
ATOM      5  O   UNL A   1      30.077  24.446  26.753  1.00  0.00    -0.268 OA
ATOM      6  H   UNL A   1      30.912  26.526  27.005  1.00  0.00     0.163 HD
BRANCH   4   7
ATOM      7  C   UNL A   1      32.183  23.529  25.882  1.00  0.00     0.169 C 
ATOM      8  C   UNL A   1      31.278  22.255  25.853  1.00  0.00     0.090 C 
ATOM      9  C   UNL A   1      33.316  23.194  26.854  1.00  0.00     0.090 C 
BRANCH   7  10
ATOM     10  N   UNL A   1      32.581  23.671  24.460  1.00  0.00    -0.333 N 
ATOM     11  H   UNL A   1      33.016  22.786  24.203  1.00  0.00     0.347 HD
ATOM     12  H   UNL A   1      33.134  24.527  24.493  1.00  0.00     0.347 HD
BRANCH  10  13
ATOM     13  C   UNL A   1      31.642  23.981  23.389  1.00  0.00     0.273 C 
BRANCH  13  14
ATOM     14  C   UNL A   1      31.977  25.155  22.453  1.00  0.00     0.116 C 
ATOM     15  C   UNL A   1      33.453  25.603  22.498  1.00  0.00     0.244 C 
ATOM     16  C   UNL A   1      31.388  26.477  22.829  1.00  0.00     0.006 A 
ATOM     17  O   UNL A   1      33.528  27.001  22.139  1.00  0.00    -0.492 OA
ATOM     18  C   UNL A   1      32.325  27.477  22.591  1.00  0.00     0.123 A 
ATOM     19  C   UNL A   1      30.125  26.802  23.292  1.00  0.00     0.008 A 
ATOM     20  C   UNL A   1      32.055  28.811  22.798  1.00  0.00     0.047 A 
ATOM     21  C   UNL A   1      29.833  28.148  23.530  1.00  0.00     0.001 A 
ATOM     22  C   UNL A   1      30.791  29.146  23.282  1.00  0.00     0.004 A 
ENDBRANCH  13  14
ENDBRANCH  10  13
ENDBRANCH   7  10
ENDBRANCH   4   7
ENDBRANCH   2   3
ENDBRANCH   1   2
BRANCH   1  23
ATOM     23  C   UNL A   1      33.792  29.074  26.062  1.00  0.00     0.118 C 
BRANCH  23  24
ATOM     24  N   UNL A   1      33.726  30.397  26.670  1.00  0.00    -0.352 N 
ATOM     25  C   UNL A   1      34.493  30.974  27.653  1.00  0.00     0.251 C 
ATOM     26  H   UNL A   1      33.010  30.974  26.317  1.00  0.00     0.163 HD
ATOM     27  O   UNL A   1      34.110  32.038  28.145  1.00  0.00    -0.269 OA
BRANCH  25  28
ATOM     28  C   UNL A   1      35.736  30.335  28.143  1.00  0.00     0.039 A 
ATOM     29  C   UNL A   1      36.892  30.412  27.358  1.00  0.00     0.014 A 
ATOM     30  C   UNL A   1      35.777  29.634  29.350  1.00  0.00     0.014 A 
ATOM     31  C   UNL A   1      38.088  29.847  27.814  1.00  0.00     0.010 A 
ATOM     32  C   UNL A   1      36.990  29.183  29.858  1.00  0.00     0.010 A 
ATOM     33  C   UNL A   1      38.158  29.265  29.089  1.00  0.00    -0.014 A 
BRANCH  33  34
ATOM     34  C   UNL A   1      39.431  28.709  29.624  1.00  0.00     0.031 A 
ATOM     35  C   UNL A   1      40.141  29.414  30.754  1.00  0.00     0.074 A 
ATOM     36  C   UNL A   1      39.979  27.618  29.051  1.00  0.00     0.049 A 
ATOM     37  N   UNL A   1      41.299  29.143  31.301  1.00  0.00    -0.248 NA
ATOM     38  C   UNL A   1      39.479  30.601  31.322  1.00  0.00     0.031 C 
ATOM     39  C   UNL A   1      39.410  26.884  27.917  1.00  0.00     0.029 A 
ATOM     40  N   UNL A   1      41.140  26.941  29.330  1.00  0.00    -0.354 N 
ATOM     41  C   UNL A   1      41.514  30.138  32.249  1.00  0.00     0.074 A 
ATOM     42  C   UNL A   1      40.396  31.049  32.167  1.00  0.00     0.031 C 
ATOM     43  C   UNL A   1      40.208  25.848  27.617  1.00  0.00     0.029 A 
ATOM     44  C   UNL A   1      41.374  25.871  28.493  1.00  0.00     0.049 A 
ATOM     45  H   UNL A   1      41.748  27.194  30.061  1.00  0.00     0.167 HD
ATOM     46  C   UNL A   1      42.543  30.267  33.122  1.00  0.00     0.034 A 
ATOM     47  C   UNL A   1      42.418  25.020  28.425  1.00  0.00     0.034 A 
ATOM     48  C   UNL A   1      43.632  29.326  33.213  1.00  0.00     0.049 A 
ATOM     49  C   UNL A   1      43.547  25.185  29.414  1.00  0.00     0.074 A 
ATOM     50  C   UNL A   1      44.676  29.308  34.122  1.00  0.00     0.029 A 
ATOM     51  N   UNL A   1      43.824  28.244  32.364  1.00  0.00    -0.354 N 
ATOM     52  N   UNL A   1      43.693  26.088  30.358  1.00  0.00    -0.248 NA
ATOM     53  C   UNL A   1      44.644  24.212  29.339  1.00  0.00     0.031 C 
ATOM     54  C   UNL A   1      45.542  28.270  33.770  1.00  0.00     0.029 A 
ATOM     55  C   UNL A   1      44.992  27.579  32.700  1.00  0.00     0.049 A 
ATOM     56  H   UNL A   1      43.219  27.987  31.631  1.00  0.00     0.167 HD
ATOM     57  C   UNL A   1      44.883  25.767  31.007  1.00  0.00     0.074 A 
ATOM     58  C   UNL A   1      45.400  24.579  30.363  1.00  0.00     0.031 C 
ATOM     59  C   UNL A   1      45.495  26.396  32.042  1.00  0.00     0.034 A 
BRANCH  46  60
ATOM     60  C   UNL A   1      42.562  31.476  34.025  1.00  0.00     0.023 A 
ATOM     61  C   UNL A   1      42.039  31.444  35.330  1.00  0.00     0.031 A 
ATOM     62  C   UNL A   1      43.131  32.682  33.576  1.00  0.00     0.131 A 
ATOM     63  C   UNL A   1      42.047  32.606  36.118  1.00  0.00     0.055 A 
ATOM     64  C   UNL A   1      43.206  33.812  34.392  1.00  0.00     0.041 A 
ATOM     65  F   UNL A   1      43.625  32.782  32.332  1.00  0.00    -0.206 F 
ATOM     66  C   UNL A   1      42.653  33.782  35.668  1.00  0.00     0.022 A 
BRANCH  63  67
ATOM     67  S   UNL A   1      41.152  32.594  37.696  1.00  0.00     0.124 S 
ATOM     68  O   UNL A   1      39.851  32.066  37.292  1.00  0.00    -0.237 OA
ATOM     69  O   UNL A   1      41.972  31.712  38.517  1.00  0.00    -0.237 OA
ATOM     70  O   UNL A   1      41.149  33.999  38.099  1.00  0.00    -0.744 OA
ENDBRANCH  63  67
ENDBRANCH  46  60
BRANCH  47  71
ATOM     71  C   UNL A   1      42.472  23.958  27.377  1.00  0.00     0.023 A 
ATOM     72  C   UNL A   1      41.815  22.729  27.550  1.00  0.00     0.031 A 
ATOM     73  C   UNL A   1      43.244  24.129  26.213  1.00  0.00     0.131 A 
ATOM     74  C   UNL A   1      41.995  21.699  26.613  1.00  0.00     0.055 A 
ATOM     75  C   UNL A   1      43.363  23.126  25.249  1.00  0.00     0.041 A 
ATOM     76  F   UNL A   1      43.895  25.283  25.992  1.00  0.00    -0.206 F 
ATOM     77  C   UNL A   1      42.751  21.895  25.456  1.00  0.00     0.022 A 
BRANCH  74  78
ATOM     78  S   UNL A   1      41.328  20.054  26.991  1.00  0.00     0.124 S 
ATOM     79  O   UNL A   1      40.820  20.246  28.345  1.00  0.00    -0.237 OA
ATOM     80  O   UNL A   1      40.324  19.888  25.946  1.00  0.00    -0.237 OA
ATOM     81  O   UNL A   1      42.494  19.181  26.880  1.00  0.00    -0.744 OA
ENDBRANCH  74  78
ENDBRANCH  47  71
BRANCH  59  82
ATOM     82  C   UNL A   1      46.766  25.777  32.570  1.00  0.00     0.023 A 
ATOM     83  C   UNL A   1      48.015  26.024  31.975  1.00  0.00     0.031 A 
ATOM     84  C   UNL A   1      46.723  24.922  33.686  1.00  0.00     0.131 A 
ATOM     85  C   UNL A   1      49.159  25.375  32.459  1.00  0.00     0.055 A 
ATOM     86  C   UNL A   1      47.876  24.334  34.208  1.00  0.00     0.041 A 
ATOM     87  F   UNL A   1      45.557  24.646  34.293  1.00  0.00    -0.206 F 
ATOM     88  C   UNL A   1      49.102  24.548  33.584  1.00  0.00     0.022 A 
BRANCH  85  89
ATOM     89  S   UNL A   1      50.711  25.544  31.536  1.00  0.00     0.124 S 
ATOM     90  O   UNL A   1      50.592  24.479  30.546  1.00  0.00    -0.237 OA
ATOM     91  O   UNL A   1      50.621  26.906  31.020  1.00  0.00    -0.237 OA
ATOM     92  O   UNL A   1      51.740  25.334  32.553  1.00  0.00    -0.744 OA
ENDBRANCH  85  89
ENDBRANCH  59  82
ENDBRANCH  33  34
ENDBRANCH  25  28
ENDBRANCH  23  24
ENDBRANCH   1  23
TORSDOF 16
ENDMDL
