MODEL 1
REMARK VINA RESULT:     -12.5      0.000      0.000
REMARK SMILES Cn1c(C(=O)N2CCC[C@@H](C(=O)NCCCNC(=O)c3ccc(-c4c5nc(c(-c6cc(S(=O)(=O)[O-])ccc6F)c6ccc([nH]6)c(-c6cc(S(=O)(=O)[O-])ccc6F)c6nc(c(-c7cc(S(=O)(=O)[O-])ccc7F)c7ccc4[nH]7)C=C6)C=C5)cc3)C2)cc2sccc21
REMARK SMILES IDX 15 1 14 2 13 3 11 4 12 5 10 7 6 8 7 9 83 10 8 11 9 12 4 13
REMARK SMILES IDX 5 14 3 15 1 16 2 17 89 18 84 19 85 20 88 21 86 22 87 23
REMARK SMILES IDX 16 24 17 25 18 26 19 28 20 29 21 30 82 31 22 32 81 33 23 34
REMARK SMILES IDX 24 35 25 36 75 37 26 38 80 39 74 40 76 41 27 42 79 43 73 44
REMARK SMILES IDX 72 45 28 47 60 48 40 49 59 50 41 51 44 52 58 53 77 54 42 55
REMARK SMILES IDX 43 56 57 58 78 59 45 60 29 61 30 62 38 63 31 64 37 65 39 66
REMARK SMILES IDX 36 67 32 68 33 69 34 70 35 71 61 72 62 73 70 74 63 75 69 76
REMARK SMILES IDX 71 77 68 78 64 79 65 80 66 81 67 82 46 83 47 84 55 85 48 86
REMARK SMILES IDX 54 87 56 88 53 89 49 90 50 91 51 92 52 93
REMARK H PARENT 13 6 17 27 76 46 44 57
REMARK Flexibility Score: inf
ROOT
ATOM      1  C   UNL A   1      37.348  20.312  24.648  1.00  0.00     0.042 C 
ENDROOT
BRANCH   1   2
ATOM      2  C   UNL A   1      36.026  20.874  25.175  1.00  0.00     0.117 C 
BRANCH   2   3
ATOM      3  N   UNL A   1      34.946  19.898  25.136  1.00  0.00    -0.356 N 
ATOM      4  C   UNL A   1      33.597  20.098  25.074  1.00  0.00     0.224 C 
ATOM      5  O   UNL A   1      32.848  19.123  25.071  1.00  0.00    -0.275 OA
ATOM      6  H   UNL A   1      35.230  18.955  25.157  1.00  0.00     0.163 HD
BRANCH   4   7
ATOM      7  C   UNL A   1      33.078  21.514  24.938  1.00  0.00     0.098 C 
ATOM      8  N   UNL A   1      32.412  23.187  23.257  1.00  0.00    -0.337 N 
ATOM      9  C   UNL A   1      31.153  23.465  23.936  1.00  0.00     0.120 C 
ATOM     10  C   UNL A   1      32.970  21.847  23.443  1.00  0.00     0.133 C 
ATOM     11  C   UNL A   1      31.214  23.120  25.418  1.00  0.00     0.022 C 
ATOM     12  C   UNL A   1      31.714  21.691  25.621  1.00  0.00     0.017 C 
BRANCH   8  13
ATOM     13  C   UNL A   1      33.088  24.231  22.634  1.00  0.00     0.270 C 
ATOM     14  O   UNL A   1      33.656  24.034  21.560  1.00  0.00    -0.267 OA
BRANCH  13  15
ATOM     15  C   UNL A   1      33.203  25.495  23.366  1.00  0.00     0.108 A 
ATOM     16  C   UNL A   1      34.784  24.737  25.225  1.00  0.00     0.150 C 
ATOM     17  N   UNL A   1      33.919  25.670  24.543  1.00  0.00    -0.339 N 
ATOM     18  C   UNL A   1      33.671  26.933  25.040  1.00  0.00     0.059 A 
ATOM     19  C   UNL A   1      32.532  26.691  23.114  1.00  0.00     0.053 A 
ATOM     20  C   UNL A   1      32.838  27.576  24.180  1.00  0.00     0.053 A 
ATOM     21  C   UNL A   1      34.022  27.714  26.178  1.00  0.00     0.038 A 
ATOM     22  S   UNL A   1      32.442  29.177  24.708  1.00  0.00    -0.142 S 
ATOM     23  C   UNL A   1      33.402  28.944  26.115  1.00  0.00     0.068 A 
ENDBRANCH  13  15
ENDBRANCH   8  13
ENDBRANCH   4   7
ENDBRANCH   2   3
ENDBRANCH   1   2
BRANCH   1  24
ATOM     24  C   UNL A   1      38.512  20.604  25.583  1.00  0.00     0.118 C 
BRANCH  24  25
ATOM     25  N   UNL A   1      39.476  19.506  25.652  1.00  0.00    -0.352 N 
ATOM     26  C   UNL A   1      40.833  19.570  25.927  1.00  0.00     0.251 C 
ATOM     27  H   UNL A   1      39.115  18.607  25.480  1.00  0.00     0.163 HD
ATOM     28  O   UNL A   1      41.560  18.633  25.644  1.00  0.00    -0.269 OA
BRANCH  26  29
ATOM     29  C   UNL A   1      41.372  20.800  26.544  1.00  0.00     0.039 A 
ATOM     30  C   UNL A   1      41.887  21.836  25.758  1.00  0.00     0.014 A 
ATOM     31  C   UNL A   1      41.313  20.924  27.927  1.00  0.00     0.014 A 
ATOM     32  C   UNL A   1      42.248  23.034  26.376  1.00  0.00     0.010 A 
ATOM     33  C   UNL A   1      41.520  22.151  28.511  1.00  0.00     0.010 A 
ATOM     34  C   UNL A   1      42.034  23.198  27.754  1.00  0.00    -0.014 A 
BRANCH  34  35
ATOM     35  C   UNL A   1      42.226  24.497  28.400  1.00  0.00     0.031 A 
ATOM     36  C   UNL A   1      41.097  25.455  28.237  1.00  0.00     0.074 A 
ATOM     37  C   UNL A   1      43.222  24.747  29.279  1.00  0.00     0.049 A 
ATOM     38  N   UNL A   1      41.093  26.572  27.590  1.00  0.00    -0.248 NA
ATOM     39  C   UNL A   1      39.769  25.060  28.736  1.00  0.00     0.031 C 
ATOM     40  C   UNL A   1      44.247  23.818  29.774  1.00  0.00     0.029 A 
ATOM     41  N   UNL A   1      43.457  25.866  30.020  1.00  0.00    -0.354 N 
ATOM     42  C   UNL A   1      39.839  27.142  27.805  1.00  0.00     0.074 A 
ATOM     43  C   UNL A   1      39.019  26.086  28.331  1.00  0.00     0.031 C 
ATOM     44  C   UNL A   1      44.824  24.323  30.887  1.00  0.00     0.029 A 
ATOM     45  C   UNL A   1      44.353  25.682  31.072  1.00  0.00     0.049 A 
ATOM     46  H   UNL A   1      43.030  26.732  29.829  1.00  0.00     0.167 HD
ATOM     47  C   UNL A   1      39.662  28.493  27.753  1.00  0.00     0.034 A 
ATOM     48  C   UNL A   1      44.697  26.573  32.037  1.00  0.00     0.034 A 
ATOM     49  C   UNL A   1      40.789  29.134  27.108  1.00  0.00     0.049 A 
ATOM     50  C   UNL A   1      44.398  27.919  31.496  1.00  0.00     0.074 A 
ATOM     51  C   UNL A   1      41.381  29.040  25.862  1.00  0.00     0.029 A 
ATOM     52  N   UNL A   1      41.721  29.753  27.910  1.00  0.00    -0.354 N 
ATOM     53  N   UNL A   1      45.012  28.419  30.457  1.00  0.00    -0.248 NA
ATOM     54  C   UNL A   1      43.104  28.513  31.791  1.00  0.00     0.031 C 
ATOM     55  C   UNL A   1      42.782  29.130  26.117  1.00  0.00     0.029 A 
ATOM     56  C   UNL A   1      42.963  29.351  27.484  1.00  0.00     0.049 A 
ATOM     57  H   UNL A   1      41.533  30.370  28.653  1.00  0.00     0.167 HD
ATOM     58  C   UNL A   1      44.019  29.048  29.723  1.00  0.00     0.074 A 
ATOM     59  C   UNL A   1      42.895  29.179  30.650  1.00  0.00     0.031 C 
ATOM     60  C   UNL A   1      44.100  29.146  28.363  1.00  0.00     0.034 A 
BRANCH  47  61
ATOM     61  C   UNL A   1      38.689  29.285  28.608  1.00  0.00     0.023 A 
ATOM     62  C   UNL A   1      38.968  29.359  29.989  1.00  0.00     0.031 A 
ATOM     63  C   UNL A   1      37.391  29.694  28.229  1.00  0.00     0.131 A 
ATOM     64  C   UNL A   1      37.962  29.676  30.918  1.00  0.00     0.055 A 
ATOM     65  C   UNL A   1      36.414  30.078  29.154  1.00  0.00     0.041 A 
ATOM     66  F   UNL A   1      36.958  29.668  26.964  1.00  0.00    -0.206 F 
ATOM     67  C   UNL A   1      36.682  30.031  30.510  1.00  0.00     0.022 A 
BRANCH  64  68
ATOM     68  S   UNL A   1      38.309  29.408  32.676  1.00  0.00     0.124 S 
ATOM     69  O   UNL A   1      37.193  28.552  33.066  1.00  0.00    -0.237 OA
ATOM     70  O   UNL A   1      39.623  28.775  32.629  1.00  0.00    -0.237 OA
ATOM     71  O   UNL A   1      38.286  30.758  33.234  1.00  0.00    -0.744 OA
ENDBRANCH  64  68
ENDBRANCH  47  61
BRANCH  48  72
ATOM     72  C   UNL A   1      44.959  26.282  33.473  1.00  0.00     0.023 A 
ATOM     73  C   UNL A   1      43.983  26.408  34.484  1.00  0.00     0.031 A 
ATOM     74  C   UNL A   1      46.164  25.634  33.830  1.00  0.00     0.131 A 
ATOM     75  C   UNL A   1      44.234  25.898  35.781  1.00  0.00     0.055 A 
ATOM     76  C   UNL A   1      46.406  25.136  35.111  1.00  0.00     0.041 A 
ATOM     77  F   UNL A   1      47.116  25.392  32.914  1.00  0.00    -0.206 F 
ATOM     78  C   UNL A   1      45.437  25.259  36.093  1.00  0.00     0.022 A 
BRANCH  75  79
ATOM     79  S   UNL A   1      42.956  25.997  37.079  1.00  0.00     0.124 S 
ATOM     80  O   UNL A   1      42.477  27.368  36.945  1.00  0.00    -0.237 OA
ATOM     81  O   UNL A   1      42.029  24.944  36.682  1.00  0.00    -0.237 OA
ATOM     82  O   UNL A   1      43.698  25.725  38.312  1.00  0.00    -0.744 OA
ENDBRANCH  75  79
ENDBRANCH  48  72
BRANCH  60  83
ATOM     83  C   UNL A   1      45.423  28.815  27.699  1.00  0.00     0.023 A 
ATOM     84  C   UNL A   1      45.757  27.556  27.144  1.00  0.00     0.031 A 
ATOM     85  C   UNL A   1      46.330  29.871  27.508  1.00  0.00     0.131 A 
ATOM     86  C   UNL A   1      46.967  27.396  26.438  1.00  0.00     0.055 A 
ATOM     87  C   UNL A   1      47.514  29.713  26.792  1.00  0.00     0.041 A 
ATOM     88  F   UNL A   1      46.054  31.097  27.984  1.00  0.00    -0.206 F 
ATOM     89  C   UNL A   1      47.840  28.473  26.257  1.00  0.00     0.022 A 
BRANCH  86  90
ATOM     90  S   UNL A   1      47.426  25.776  25.736  1.00  0.00     0.124 S 
ATOM     91  O   UNL A   1      48.794  25.981  25.274  1.00  0.00    -0.237 OA
ATOM     92  O   UNL A   1      47.263  24.875  26.874  1.00  0.00    -0.237 OA
ATOM     93  O   UNL A   1      46.447  25.579  24.665  1.00  0.00    -0.744 OA
ENDBRANCH  86  90
ENDBRANCH  60  83
ENDBRANCH  34  35
ENDBRANCH  26  29
ENDBRANCH  24  25
ENDBRANCH   1  24
TORSDOF 15
ENDMDL
MODEL 2
REMARK VINA RESULT:     -12.4      3.341      8.412
REMARK SMILES Cn1c(C(=O)N2CCC[C@@H](C(=O)NCCCNC(=O)c3ccc(-c4c5nc(c(-c6cc(S(=O)(=O)[O-])ccc6F)c6ccc([nH]6)c(-c6cc(S(=O)(=O)[O-])ccc6F)c6nc(c(-c7cc(S(=O)(=O)[O-])ccc7F)c7ccc4[nH]7)C=C6)C=C5)cc3)C2)cc2sccc21
REMARK SMILES IDX 15 1 14 2 13 3 11 4 12 5 10 7 6 8 7 9 83 10 8 11 9 12 4 13
REMARK SMILES IDX 5 14 3 15 1 16 2 17 89 18 84 19 85 20 88 21 86 22 87 23
REMARK SMILES IDX 16 24 17 25 18 26 19 28 20 29 21 30 82 31 22 32 81 33 23 34
REMARK SMILES IDX 24 35 25 36 75 37 26 38 80 39 74 40 76 41 27 42 79 43 73 44
REMARK SMILES IDX 72 45 28 47 60 48 40 49 59 50 41 51 44 52 58 53 77 54 42 55
REMARK SMILES IDX 43 56 57 58 78 59 45 60 29 61 30 62 38 63 31 64 37 65 39 66
REMARK SMILES IDX 36 67 32 68 33 69 34 70 35 71 61 72 62 73 70 74 63 75 69 76
REMARK SMILES IDX 71 77 68 78 64 79 65 80 66 81 67 82 46 83 47 84 55 85 48 86
REMARK SMILES IDX 54 87 56 88 53 89 49 90 50 91 51 92 52 93
REMARK H PARENT 13 6 17 27 76 46 44 57
REMARK Flexibility Score: inf
ROOT
ATOM      1  C   UNL A   1      34.553  29.048  27.140  1.00  0.00     0.042 C 
ENDROOT
BRANCH   1   2
ATOM      2  C   UNL A   1      33.105  29.527  27.257  1.00  0.00     0.117 C 
BRANCH   2   3
ATOM      3  N   UNL A   1      32.174  28.440  27.525  1.00  0.00    -0.356 N 
ATOM      4  C   UNL A   1      31.562  27.588  26.652  1.00  0.00     0.224 C 
ATOM      5  O   UNL A   1      30.784  26.742  27.090  1.00  0.00    -0.275 OA
ATOM      6  H   UNL A   1      31.953  28.299  28.475  1.00  0.00     0.163 HD
BRANCH   4   7
ATOM      7  C   UNL A   1      31.920  27.669  25.184  1.00  0.00     0.098 C 
ATOM      8  N   UNL A   1      32.236  26.272  23.179  1.00  0.00    -0.337 N 
ATOM      9  C   UNL A   1      31.379  27.128  22.368  1.00  0.00     0.120 C 
ATOM     10  C   UNL A   1      31.954  26.244  24.615  1.00  0.00     0.133 C 
ATOM     11  C   UNL A   1      31.300  28.546  22.918  1.00  0.00     0.022 C 
ATOM     12  C   UNL A   1      30.921  28.531  24.398  1.00  0.00     0.017 C 
BRANCH   8  13
ATOM     13  C   UNL A   1      33.353  25.685  22.594  1.00  0.00     0.270 C 
ATOM     14  O   UNL A   1      33.734  26.067  21.488  1.00  0.00    -0.267 OA
BRANCH  13  15
ATOM     15  C   UNL A   1      33.947  24.534  23.279  1.00  0.00     0.108 A 
ATOM     16  C   UNL A   1      32.257  22.745  22.591  1.00  0.00     0.150 C 
ATOM     17  N   UNL A   1      33.405  23.256  23.302  1.00  0.00    -0.339 N 
ATOM     18  C   UNL A   1      34.133  22.470  24.173  1.00  0.00     0.059 A 
ATOM     19  C   UNL A   1      35.057  24.522  24.122  1.00  0.00     0.053 A 
ATOM     20  C   UNL A   1      35.150  23.218  24.675  1.00  0.00     0.053 A 
ATOM     21  C   UNL A   1      34.099  21.142  24.685  1.00  0.00     0.038 A 
ATOM     22  S   UNL A   1      36.132  22.338  25.797  1.00  0.00    -0.142 S 
ATOM     23  C   UNL A   1      35.127  20.960  25.587  1.00  0.00     0.068 A 
ENDBRANCH  13  15
ENDBRANCH   8  13
ENDBRANCH   4   7
ENDBRANCH   2   3
ENDBRANCH   1   2
BRANCH   1  24
ATOM     24  C   UNL A   1      35.551  30.122  27.546  1.00  0.00     0.118 C 
BRANCH  24  25
ATOM     25  N   UNL A   1      35.594  30.342  28.992  1.00  0.00    -0.352 N 
ATOM     26  C   UNL A   1      36.455  29.780  29.921  1.00  0.00     0.251 C 
ATOM     27  H   UNL A   1      34.925  30.969  29.351  1.00  0.00     0.163 HD
ATOM     28  O   UNL A   1      36.178  29.808  31.108  1.00  0.00    -0.269 OA
BRANCH  26  29
ATOM     29  C   UNL A   1      37.692  29.131  29.438  1.00  0.00     0.039 A 
ATOM     30  C   UNL A   1      38.348  29.591  28.292  1.00  0.00     0.014 A 
ATOM     31  C   UNL A   1      38.217  28.079  30.179  1.00  0.00     0.014 A 
ATOM     32  C   UNL A   1      39.587  29.042  27.960  1.00  0.00     0.010 A 
ATOM     33  C   UNL A   1      39.501  27.652  29.942  1.00  0.00     0.010 A 
ATOM     34  C   UNL A   1      40.176  28.090  28.808  1.00  0.00    -0.014 A 
BRANCH  34  35
ATOM     35  C   UNL A   1      41.550  27.632  28.592  1.00  0.00     0.031 A 
ATOM     36  C   UNL A   1      41.677  26.367  27.817  1.00  0.00     0.074 A 
ATOM     37  C   UNL A   1      42.634  28.397  28.849  1.00  0.00     0.049 A 
ATOM     38  N   UNL A   1      42.114  25.225  28.230  1.00  0.00    -0.248 NA
ATOM     39  C   UNL A   1      41.124  26.325  26.453  1.00  0.00     0.031 C 
ATOM     40  C   UNL A   1      42.670  29.781  29.340  1.00  0.00     0.029 A 
ATOM     41  N   UNL A   1      43.950  28.138  28.605  1.00  0.00    -0.354 N 
ATOM     42  C   UNL A   1      42.124  24.385  27.118  1.00  0.00     0.074 A 
ATOM     43  C   UNL A   1      41.322  25.047  26.126  1.00  0.00     0.031 C 
ATOM     44  C   UNL A   1      43.894  30.311  29.127  1.00  0.00     0.029 A 
ATOM     45  C   UNL A   1      44.778  29.256  28.669  1.00  0.00     0.049 A 
ATOM     46  H   UNL A   1      44.286  27.236  28.401  1.00  0.00     0.167 HD
ATOM     47  C   UNL A   1      42.989  23.335  27.036  1.00  0.00     0.034 A 
ATOM     48  C   UNL A   1      46.100  29.330  28.370  1.00  0.00     0.034 A 
ATOM     49  C   UNL A   1      43.554  23.034  28.335  1.00  0.00     0.049 A 
ATOM     50  C   UNL A   1      46.638  27.956  28.490  1.00  0.00     0.074 A 
ATOM     51  C   UNL A   1      43.034  22.668  29.563  1.00  0.00     0.029 A 
ATOM     52  N   UNL A   1      44.834  23.470  28.596  1.00  0.00    -0.354 N 
ATOM     53  N   UNL A   1      46.668  27.301  29.621  1.00  0.00    -0.248 NA
ATOM     54  C   UNL A   1      46.694  27.126  27.297  1.00  0.00     0.031 C 
ATOM     55  C   UNL A   1      43.822  23.377  30.518  1.00  0.00     0.029 A 
ATOM     56  C   UNL A   1      44.822  24.068  29.832  1.00  0.00     0.049 A 
ATOM     57  H   UNL A   1      45.615  23.371  28.006  1.00  0.00     0.167 HD
ATOM     58  C   UNL A   1      46.297  26.007  29.294  1.00  0.00     0.074 A 
ATOM     59  C   UNL A   1      46.445  25.930  27.842  1.00  0.00     0.031 C 
ATOM     60  C   UNL A   1      45.638  25.213  30.192  1.00  0.00     0.034 A 
BRANCH  47  61
ATOM     61  C   UNL A   1      43.634  22.825  25.760  1.00  0.00     0.023 A 
ATOM     62  C   UNL A   1      43.709  21.426  25.597  1.00  0.00     0.031 A 
ATOM     63  C   UNL A   1      44.429  23.583  24.869  1.00  0.00     0.131 A 
ATOM     64  C   UNL A   1      44.630  20.846  24.709  1.00  0.00     0.055 A 
ATOM     65  C   UNL A   1      45.292  22.999  23.936  1.00  0.00     0.041 A 
ATOM     66  F   UNL A   1      44.488  24.918  24.901  1.00  0.00    -0.206 F 
ATOM     67  C   UNL A   1      45.429  21.623  23.879  1.00  0.00     0.022 A 
BRANCH  64  68
ATOM     68  S   UNL A   1      44.910  19.059  24.816  1.00  0.00     0.124 S 
ATOM     69  O   UNL A   1      45.017  18.696  23.407  1.00  0.00    -0.237 OA
ATOM     70  O   UNL A   1      46.142  18.995  25.595  1.00  0.00    -0.237 OA
ATOM     71  O   UNL A   1      43.713  18.570  25.498  1.00  0.00    -0.744 OA
ENDBRANCH  64  68
ENDBRANCH  47  61
BRANCH  48  72
ATOM     72  C   UNL A   1      46.805  30.454  27.695  1.00  0.00     0.023 A 
ATOM     73  C   UNL A   1      46.138  31.511  27.041  1.00  0.00     0.031 A 
ATOM     74  C   UNL A   1      48.196  30.608  27.898  1.00  0.00     0.131 A 
ATOM     75  C   UNL A   1      46.860  32.656  26.623  1.00  0.00     0.055 A 
ATOM     76  C   UNL A   1      48.902  31.738  27.482  1.00  0.00     0.041 A 
ATOM     77  F   UNL A   1      48.900  29.695  28.586  1.00  0.00    -0.206 F 
ATOM     78  C   UNL A   1      48.234  32.773  26.848  1.00  0.00     0.022 A 
BRANCH  75  79
ATOM     79  S   UNL A   1      46.000  34.057  25.835  1.00  0.00     0.124 S 
ATOM     80  O   UNL A   1      44.985  33.390  25.029  1.00  0.00    -0.237 OA
ATOM     81  O   UNL A   1      45.520  34.814  26.986  1.00  0.00    -0.237 OA
ATOM     82  O   UNL A   1      47.055  34.719  25.066  1.00  0.00    -0.744 OA
ENDBRANCH  75  79
ENDBRANCH  48  72
BRANCH  60  83
ATOM     83  C   UNL A   1      45.576  25.667  31.638  1.00  0.00     0.023 A 
ATOM     84  C   UNL A   1      46.626  25.523  32.576  1.00  0.00     0.031 A 
ATOM     85  C   UNL A   1      44.443  26.396  32.036  1.00  0.00     0.131 A 
ATOM     86  C   UNL A   1      46.507  26.095  33.860  1.00  0.00     0.055 A 
ATOM     87  C   UNL A   1      44.339  26.976  33.298  1.00  0.00     0.041 A 
ATOM     88  F   UNL A   1      43.427  26.593  31.179  1.00  0.00    -0.206 F 
ATOM     89  C   UNL A   1      45.369  26.825  34.218  1.00  0.00     0.022 A 
BRANCH  86  90
ATOM     90  S   UNL A   1      47.839  25.901  35.091  1.00  0.00     0.124 S 
ATOM     91  O   UNL A   1      47.412  26.757  36.192  1.00  0.00    -0.237 OA
ATOM     92  O   UNL A   1      47.824  24.464  35.355  1.00  0.00    -0.237 OA
ATOM     93  O   UNL A   1      49.030  26.372  34.382  1.00  0.00    -0.744 OA
ENDBRANCH  86  90
ENDBRANCH  60  83
ENDBRANCH  34  35
ENDBRANCH  26  29
ENDBRANCH  24  25
ENDBRANCH   1  24
TORSDOF 15
ENDMDL
MODEL 3
REMARK VINA RESULT:     -12.2      8.883     14.639
REMARK SMILES Cn1c(C(=O)N2CCC[C@@H](C(=O)NCCCNC(=O)c3ccc(-c4c5nc(c(-c6cc(S(=O)(=O)[O-])ccc6F)c6ccc([nH]6)c(-c6cc(S(=O)(=O)[O-])ccc6F)c6nc(c(-c7cc(S(=O)(=O)[O-])ccc7F)c7ccc4[nH]7)C=C6)C=C5)cc3)C2)cc2sccc21
REMARK SMILES IDX 15 1 14 2 13 3 11 4 12 5 10 7 6 8 7 9 83 10 8 11 9 12 4 13
REMARK SMILES IDX 5 14 3 15 1 16 2 17 89 18 84 19 85 20 88 21 86 22 87 23
REMARK SMILES IDX 16 24 17 25 18 26 19 28 20 29 21 30 82 31 22 32 81 33 23 34
REMARK SMILES IDX 24 35 25 36 75 37 26 38 80 39 74 40 76 41 27 42 79 43 73 44
REMARK SMILES IDX 72 45 28 47 60 48 40 49 59 50 41 51 44 52 58 53 77 54 42 55
REMARK SMILES IDX 43 56 57 58 78 59 45 60 29 61 30 62 38 63 31 64 37 65 39 66
REMARK SMILES IDX 36 67 32 68 33 69 34 70 35 71 61 72 62 73 70 74 63 75 69 76
REMARK SMILES IDX 71 77 68 78 64 79 65 80 66 81 67 82 46 83 47 84 55 85 48 86
REMARK SMILES IDX 54 87 56 88 53 89 49 90 50 91 51 92 52 93
REMARK H PARENT 13 6 17 27 76 46 44 57
REMARK Flexibility Score: inf
ROOT
ATOM      1  C   UNL A   1      45.334  38.873  28.441  1.00  0.00     0.042 C 
ENDROOT
BRANCH   1   2
ATOM      2  C   UNL A   1      45.045  39.544  27.097  1.00  0.00     0.117 C 
BRANCH   2   3
ATOM      3  N   UNL A   1      43.639  39.881  26.928  1.00  0.00    -0.356 N 
ATOM      4  C   UNL A   1      43.068  40.875  26.186  1.00  0.00     0.224 C 
ATOM      5  O   UNL A   1      41.845  41.001  26.198  1.00  0.00    -0.275 OA
ATOM      6  H   UNL A   1      43.007  39.309  27.422  1.00  0.00     0.163 HD
BRANCH   4   7
ATOM      7  C   UNL A   1      43.959  41.737  25.317  1.00  0.00     0.098 C 
ATOM      8  N   UNL A   1      43.983  42.986  23.194  1.00  0.00    -0.337 N 
ATOM      9  C   UNL A   1      44.513  44.186  23.830  1.00  0.00     0.120 C 
ATOM     10  C   UNL A   1      43.185  42.099  24.041  1.00  0.00     0.133 C 
ATOM     11  C   UNL A   1      45.265  43.867  25.115  1.00  0.00     0.022 C 
ATOM     12  C   UNL A   1      44.407  43.012  26.046  1.00  0.00     0.017 C 
BRANCH   8  13
ATOM     13  C   UNL A   1      44.397  42.665  21.905  1.00  0.00     0.270 C 
ATOM     14  O   UNL A   1      45.432  42.019  21.740  1.00  0.00    -0.267 OA
BRANCH  13  15
ATOM     15  C   UNL A   1      43.638  43.237  20.790  1.00  0.00     0.108 A 
ATOM     16  C   UNL A   1      45.367  44.923  19.953  1.00  0.00     0.150 C 
ATOM     17  N   UNL A   1      44.077  44.275  19.979  1.00  0.00    -0.339 N 
ATOM     18  C   UNL A   1      43.047  44.667  19.148  1.00  0.00     0.059 A 
ATOM     19  C   UNL A   1      42.323  42.957  20.420  1.00  0.00     0.053 A 
ATOM     20  C   UNL A   1      41.974  43.870  19.392  1.00  0.00     0.053 A 
ATOM     21  C   UNL A   1      42.804  45.655  18.152  1.00  0.00     0.038 A 
ATOM     22  S   UNL A   1      40.606  44.277  18.411  1.00  0.00    -0.142 S 
ATOM     23  C   UNL A   1      41.509  45.550  17.690  1.00  0.00     0.068 A 
ENDBRANCH  13  15
ENDBRANCH   8  13
ENDBRANCH   4   7
ENDBRANCH   2   3
ENDBRANCH   1   2
BRANCH   1  24
ATOM     24  C   UNL A   1      46.013  37.521  28.276  1.00  0.00     0.118 C 
BRANCH  24  25
ATOM     25  N   UNL A   1      45.639  36.843  27.035  1.00  0.00    -0.352 N 
ATOM     26  C   UNL A   1      44.796  35.756  26.870  1.00  0.00     0.251 C 
ATOM     27  H   UNL A   1      46.039  37.205  26.211  1.00  0.00     0.163 HD
ATOM     28  O   UNL A   1      44.824  35.110  25.837  1.00  0.00    -0.269 OA
BRANCH  26  29
ATOM     29  C   UNL A   1      43.889  35.391  27.978  1.00  0.00     0.039 A 
ATOM     30  C   UNL A   1      42.711  36.106  28.213  1.00  0.00     0.014 A 
ATOM     31  C   UNL A   1      44.210  34.283  28.756  1.00  0.00     0.014 A 
ATOM     32  C   UNL A   1      41.817  35.634  29.175  1.00  0.00     0.010 A 
ATOM     33  C   UNL A   1      43.263  33.736  29.586  1.00  0.00     0.010 A 
ATOM     34  C   UNL A   1      42.084  34.427  29.840  1.00  0.00    -0.014 A 
BRANCH  34  35
ATOM     35  C   UNL A   1      41.086  33.809  30.715  1.00  0.00     0.031 A 
ATOM     36  C   UNL A   1      41.468  33.734  32.152  1.00  0.00     0.074 A 
ATOM     37  C   UNL A   1      39.820  33.544  30.322  1.00  0.00     0.049 A 
ATOM     38  N   UNL A   1      41.703  32.678  32.856  1.00  0.00    -0.248 NA
ATOM     39  C   UNL A   1      41.761  34.990  32.863  1.00  0.00     0.031 C 
ATOM     40  C   UNL A   1      39.197  33.829  29.023  1.00  0.00     0.029 A 
ATOM     41  N   UNL A   1      38.772  33.068  31.052  1.00  0.00    -0.354 N 
ATOM     42  C   UNL A   1      41.931  33.119  34.158  1.00  0.00     0.074 A 
ATOM     43  C   UNL A   1      42.156  34.535  34.053  1.00  0.00     0.031 C 
ATOM     44  C   UNL A   1      37.853  33.753  29.133  1.00  0.00     0.029 A 
ATOM     45  C   UNL A   1      37.528  33.229  30.446  1.00  0.00     0.049 A 
ATOM     46  H   UNL A   1      38.885  32.646  31.934  1.00  0.00     0.167 HD
ATOM     47  C   UNL A   1      41.677  32.315  35.229  1.00  0.00     0.034 A 
ATOM     48  C   UNL A   1      36.306  32.956  30.970  1.00  0.00     0.034 A 
ATOM     49  C   UNL A   1      41.530  30.936  34.811  1.00  0.00     0.049 A 
ATOM     50  C   UNL A   1      36.522  31.971  32.054  1.00  0.00     0.074 A 
ATOM     51  C   UNL A   1      42.341  30.023  34.162  1.00  0.00     0.029 A 
ATOM     52  N   UNL A   1      40.255  30.426  34.713  1.00  0.00    -0.354 N 
ATOM     53  N   UNL A   1      36.981  30.767  31.838  1.00  0.00    -0.248 NA
ATOM     54  C   UNL A   1      36.693  32.460  33.413  1.00  0.00     0.031 C 
ATOM     55  C   UNL A   1      41.463  29.313  33.288  1.00  0.00     0.029 A 
ATOM     56  C   UNL A   1      40.164  29.773  33.508  1.00  0.00     0.049 A 
ATOM     57  H   UNL A   1      39.539  30.514  35.382  1.00  0.00     0.167 HD
ATOM     58  C   UNL A   1      37.876  30.535  32.871  1.00  0.00     0.074 A 
ATOM     59  C   UNL A   1      37.566  31.557  33.871  1.00  0.00     0.031 C 
ATOM     60  C   UNL A   1      38.962  29.724  32.696  1.00  0.00     0.034 A 
BRANCH  47  61
ATOM     61  C   UNL A   1      41.173  32.785  36.581  1.00  0.00     0.023 A 
ATOM     62  C   UNL A   1      39.894  32.341  36.976  1.00  0.00     0.031 A 
ATOM     63  C   UNL A   1      41.708  33.848  37.344  1.00  0.00     0.131 A 
ATOM     64  C   UNL A   1      39.160  33.022  37.961  1.00  0.00     0.055 A 
ATOM     65  C   UNL A   1      41.000  34.477  38.373  1.00  0.00     0.041 A 
ATOM     66  F   UNL A   1      42.899  34.400  37.091  1.00  0.00    -0.206 F 
ATOM     67  C   UNL A   1      39.702  34.093  38.661  1.00  0.00     0.022 A 
BRANCH  64  68
ATOM     68  S   UNL A   1      37.407  32.608  38.159  1.00  0.00     0.124 S 
ATOM     69  O   UNL A   1      36.800  33.391  37.087  1.00  0.00    -0.237 OA
ATOM     70  O   UNL A   1      37.418  31.161  37.974  1.00  0.00    -0.237 OA
ATOM     71  O   UNL A   1      37.103  33.063  39.514  1.00  0.00    -0.744 OA
ENDBRANCH  64  68
ENDBRANCH  47  61
BRANCH  48  72
ATOM     72  C   UNL A   1      35.055  33.740  30.782  1.00  0.00     0.023 A 
ATOM     73  C   UNL A   1      34.660  34.794  31.632  1.00  0.00     0.031 A 
ATOM     74  C   UNL A   1      34.329  33.589  29.577  1.00  0.00     0.131 A 
ATOM     75  C   UNL A   1      33.585  35.639  31.263  1.00  0.00     0.055 A 
ATOM     76  C   UNL A   1      33.269  34.423  29.220  1.00  0.00     0.041 A 
ATOM     77  F   UNL A   1      34.686  32.668  28.666  1.00  0.00    -0.206 F 
ATOM     78  C   UNL A   1      32.896  35.460  30.060  1.00  0.00     0.022 A 
BRANCH  75  79
ATOM     79  S   UNL A   1      33.106  37.045  32.321  1.00  0.00     0.124 S 
ATOM     80  O   UNL A   1      31.839  36.596  32.887  1.00  0.00    -0.237 OA
ATOM     81  O   UNL A   1      34.232  37.138  33.243  1.00  0.00    -0.237 OA
ATOM     82  O   UNL A   1      32.995  38.161  31.380  1.00  0.00    -0.744 OA
ENDBRANCH  75  79
ENDBRANCH  48  72
BRANCH  60  83
ATOM     83  C   UNL A   1      39.015  28.857  31.452  1.00  0.00     0.023 A 
ATOM     84  C   UNL A   1      39.595  29.245  30.221  1.00  0.00     0.031 A 
ATOM     85  C   UNL A   1      38.571  27.530  31.574  1.00  0.00     0.131 A 
ATOM     86  C   UNL A   1      39.702  28.312  29.168  1.00  0.00     0.055 A 
ATOM     87  C   UNL A   1      38.698  26.607  30.538  1.00  0.00     0.041 A 
ATOM     88  F   UNL A   1      38.041  27.094  32.729  1.00  0.00    -0.206 F 
ATOM     89  C   UNL A   1      39.261  26.995  29.329  1.00  0.00     0.022 A 
BRANCH  86  90
ATOM     90  S   UNL A   1      40.424  28.798  27.565  1.00  0.00     0.124 S 
ATOM     91  O   UNL A   1      39.351  29.548  26.922  1.00  0.00    -0.237 OA
ATOM     92  O   UNL A   1      41.597  29.573  27.963  1.00  0.00    -0.237 OA
ATOM     93  O   UNL A   1      40.736  27.516  26.929  1.00  0.00    -0.744 OA
ENDBRANCH  86  90
ENDBRANCH  60  83
ENDBRANCH  34  35
ENDBRANCH  26  29
ENDBRANCH  24  25
ENDBRANCH   1  24
TORSDOF 15
ENDMDL
