MODEL 1
REMARK VINA RESULT:     -11.2      0.000      0.000
REMARK SMILES CC(C)CN(C)S(=O)(=O)c1ccc(C(=O)NCCCNC(=O)c2ccc(-c3c4nc(c(-c5cc(S(=O)(=O)[O-])ccc5F)c5ccc([nH]5)c(-c5cc(S(=O)(=O)[O-])ccc5F)c5nc(c(-c6cc(S(=O)(=O)[O-])ccc6F)c6ccc3[nH]6)C=C5)C=C4)cc2)cc1
REMARK SMILES IDX 17 1 16 2 14 3 15 4 13 6 10 7 11 8 87 9 12 10 86 11 7 12
REMARK SMILES IDX 8 13 9 14 5 15 6 16 4 17 2 18 1 19 3 20 18 21 19 22 20 23
REMARK SMILES IDX 21 24 22 26 23 27 24 28 85 29 25 30 84 31 26 32 27 33 28 34
REMARK SMILES IDX 78 35 29 36 83 37 77 38 79 39 30 40 82 41 76 42 75 43 31 45
REMARK SMILES IDX 63 46 43 47 62 48 44 49 47 50 61 51 80 52 45 53 46 54 60 56
REMARK SMILES IDX 81 57 48 58 32 59 33 60 41 61 34 62 40 63 42 64 39 65 35 66
REMARK SMILES IDX 36 67 37 68 38 69 64 70 65 71 73 72 66 73 72 74 74 75 71 76
REMARK SMILES IDX 67 77 68 78 69 79 70 80 49 81 50 82 58 83 51 84 57 85 59 86
REMARK SMILES IDX 56 87 52 88 53 89 54 90 55 91
REMARK H PARENT 16 5 20 25 79 44 47 55
REMARK Flexibility Score: inf
ROOT
ATOM      1  C   UNL A   1      31.306  28.988  23.990  1.00  0.00     0.118 C 
ENDROOT
BRANCH   1   2
ATOM      2  N   UNL A   1      32.511  29.036  23.183  1.00  0.00    -0.352 N 
ATOM      3  C   UNL A   1      33.463  28.094  22.896  1.00  0.00     0.251 C 
ATOM      4  O   UNL A   1      34.378  28.408  22.136  1.00  0.00    -0.269 OA
ATOM      5  H   UNL A   1      32.675  29.910  22.761  1.00  0.00     0.163 HD
BRANCH   3   6
ATOM      6  C   UNL A   1      33.395  26.696  23.400  1.00  0.00     0.039 A 
ATOM      7  C   UNL A   1      33.104  24.026  24.182  1.00  0.00     0.082 A 
ATOM      8  C   UNL A   1      32.877  24.383  22.852  1.00  0.00     0.022 A 
ATOM      9  C   UNL A   1      33.527  24.977  25.113  1.00  0.00     0.022 A 
ATOM     10  C   UNL A   1      33.017  25.715  22.468  1.00  0.00     0.015 A 
ATOM     11  C   UNL A   1      33.701  26.306  24.709  1.00  0.00     0.015 A 
BRANCH   7  12
ATOM     12  S   UNL A   1      32.842  22.342  24.673  1.00  0.00     0.242 S 
ATOM     13  O   UNL A   1      32.103  21.677  23.617  1.00  0.00    -0.207 OA
ATOM     14  O   UNL A   1      32.327  22.390  26.021  1.00  0.00    -0.207 OA
BRANCH  12  15
ATOM     15  N   UNL A   1      34.420  21.642  24.687  1.00  0.00    -0.201 NA
ATOM     16  C   UNL A   1      34.401  20.182  25.000  1.00  0.00     0.124 C 
BRANCH  15  17
ATOM     17  C   UNL A   1      35.373  22.358  25.605  1.00  0.00     0.105 C 
BRANCH  17  18
ATOM     18  C   UNL A   1      36.747  22.607  24.958  1.00  0.00    -0.002 C 
ATOM     19  C   UNL A   1      36.651  23.038  23.495  1.00  0.00     0.009 C 
ATOM     20  C   UNL A   1      37.481  23.699  25.747  1.00  0.00     0.009 C 
ENDBRANCH  17  18
ENDBRANCH  15  17
ENDBRANCH  12  15
ENDBRANCH   7  12
ENDBRANCH   3   6
ENDBRANCH   1   2
BRANCH   1  21
ATOM     21  C   UNL A   1      31.646  29.049  25.480  1.00  0.00     0.042 C 
BRANCH  21  22
ATOM     22  C   UNL A   1      32.939  29.806  25.776  1.00  0.00     0.118 C 
BRANCH  22  23
ATOM     23  N   UNL A   1      32.674  31.157  26.243  1.00  0.00    -0.352 N 
ATOM     24  C   UNL A   1      33.272  31.881  27.241  1.00  0.00     0.251 C 
ATOM     25  H   UNL A   1      31.952  31.625  25.766  1.00  0.00     0.163 HD
ATOM     26  O   UNL A   1      32.720  32.910  27.627  1.00  0.00    -0.269 OA
BRANCH  24  27
ATOM     27  C   UNL A   1      34.551  31.449  27.855  1.00  0.00     0.039 A 
ATOM     28  C   UNL A   1      34.653  30.129  28.305  1.00  0.00     0.014 A 
ATOM     29  C   UNL A   1      35.606  32.339  28.076  1.00  0.00     0.014 A 
ATOM     30  C   UNL A   1      35.808  29.701  28.965  1.00  0.00     0.010 A 
ATOM     31  C   UNL A   1      36.788  31.892  28.671  1.00  0.00     0.010 A 
ATOM     32  C   UNL A   1      36.889  30.577  29.149  1.00  0.00    -0.014 A 
BRANCH  32  33
ATOM     33  C   UNL A   1      38.100  30.137  29.893  1.00  0.00     0.031 A 
ATOM     34  C   UNL A   1      38.321  30.594  31.312  1.00  0.00     0.074 A 
ATOM     35  C   UNL A   1      39.004  29.340  29.287  1.00  0.00     0.049 A 
ATOM     36  N   UNL A   1      39.313  30.329  32.123  1.00  0.00    -0.248 NA
ATOM     37  C   UNL A   1      37.306  31.492  31.887  1.00  0.00     0.031 C 
ATOM     38  C   UNL A   1      38.921  28.872  27.901  1.00  0.00     0.029 A 
ATOM     39  N   UNL A   1      40.169  28.786  29.752  1.00  0.00    -0.354 N 
ATOM     40  C   UNL A   1      39.055  31.041  33.291  1.00  0.00     0.074 A 
ATOM     41  C   UNL A   1      37.837  31.789  33.064  1.00  0.00     0.031 C 
ATOM     42  C   UNL A   1      39.976  28.084  27.638  1.00  0.00     0.029 A 
ATOM     43  C   UNL A   1      40.829  28.017  28.821  1.00  0.00     0.049 A 
ATOM     44  H   UNL A   1      40.502  28.924  30.669  1.00  0.00     0.167 HD
ATOM     45  C   UNL A   1      39.757  31.054  34.451  1.00  0.00     0.034 A 
ATOM     46  C   UNL A   1      41.991  27.339  28.910  1.00  0.00     0.034 A 
ATOM     47  C   UNL A   1      40.950  30.274  34.673  1.00  0.00     0.049 A 
ATOM     48  C   UNL A   1      42.730  27.342  30.226  1.00  0.00     0.074 A 
ATOM     49  C   UNL A   1      41.699  30.157  35.831  1.00  0.00     0.029 A 
ATOM     50  N   UNL A   1      41.569  29.478  33.719  1.00  0.00    -0.354 N 
ATOM     51  N   UNL A   1      42.429  27.964  31.343  1.00  0.00    -0.248 NA
ATOM     52  C   UNL A   1      43.951  26.530  30.300  1.00  0.00     0.031 C 
ATOM     53  C   UNL A   1      42.803  29.342  35.560  1.00  0.00     0.029 A 
ATOM     54  C   UNL A   1      42.703  28.887  34.255  1.00  0.00     0.049 A 
ATOM     55  H   UNL A   1      41.250  29.351  32.797  1.00  0.00     0.167 HD
ATOM     56  C   UNL A   1      43.406  27.587  32.261  1.00  0.00     0.074 A 
ATOM     57  C   UNL A   1      44.284  26.663  31.574  1.00  0.00     0.031 C 
ATOM     58  C   UNL A   1      43.570  27.970  33.554  1.00  0.00     0.034 A 
BRANCH  45  59
ATOM     59  C   UNL A   1      39.270  31.958  35.560  1.00  0.00     0.023 A 
ATOM     60  C   UNL A   1      39.719  33.284  35.691  1.00  0.00     0.031 A 
ATOM     61  C   UNL A   1      38.334  31.485  36.496  1.00  0.00     0.131 A 
ATOM     62  C   UNL A   1      39.273  34.071  36.764  1.00  0.00     0.055 A 
ATOM     63  C   UNL A   1      37.839  32.296  37.519  1.00  0.00     0.041 A 
ATOM     64  F   UNL A   1      37.884  30.221  36.434  1.00  0.00    -0.206 F 
ATOM     65  C   UNL A   1      38.317  33.595  37.664  1.00  0.00     0.022 A 
BRANCH  62  66
ATOM     66  S   UNL A   1      40.040  35.693  37.031  1.00  0.00     0.124 S 
ATOM     67  O   UNL A   1      39.400  36.121  38.272  1.00  0.00    -0.237 OA
ATOM     68  O   UNL A   1      41.457  35.363  37.124  1.00  0.00    -0.237 OA
ATOM     69  O   UNL A   1      39.653  36.453  35.843  1.00  0.00    -0.744 OA
ENDBRANCH  62  66
ENDBRANCH  45  59
BRANCH  46  70
ATOM     70  C   UNL A   1      42.541  26.606  27.733  1.00  0.00     0.023 A 
ATOM     71  C   UNL A   1      42.160  25.283  27.456  1.00  0.00     0.031 A 
ATOM     72  C   UNL A   1      43.520  27.192  26.910  1.00  0.00     0.131 A 
ATOM     73  C   UNL A   1      42.803  24.566  26.434  1.00  0.00     0.055 A 
ATOM     74  C   UNL A   1      44.112  26.495  25.854  1.00  0.00     0.041 A 
ATOM     75  F   UNL A   1      43.919  28.456  27.122  1.00  0.00    -0.206 F 
ATOM     76  C   UNL A   1      43.768  25.167  25.624  1.00  0.00     0.022 A 
BRANCH  73  77
ATOM     77  S   UNL A   1      42.447  22.795  26.261  1.00  0.00     0.124 S 
ATOM     78  O   UNL A   1      43.300  22.218  27.293  1.00  0.00    -0.237 OA
ATOM     79  O   UNL A   1      41.011  22.751  26.516  1.00  0.00    -0.237 OA
ATOM     80  O   UNL A   1      42.844  22.502  24.885  1.00  0.00    -0.744 OA
ENDBRANCH  73  77
ENDBRANCH  46  70
BRANCH  58  81
ATOM     81  C   UNL A   1      44.716  27.343  34.310  1.00  0.00     0.023 A 
ATOM     82  C   UNL A   1      44.547  26.171  35.069  1.00  0.00     0.031 A 
ATOM     83  C   UNL A   1      45.985  27.950  34.305  1.00  0.00     0.131 A 
ATOM     84  C   UNL A   1      45.604  25.691  35.856  1.00  0.00     0.055 A 
ATOM     85  C   UNL A   1      47.052  27.426  35.033  1.00  0.00     0.041 A 
ATOM     86  F   UNL A   1      46.204  29.070  33.597  1.00  0.00    -0.206 F 
ATOM     87  C   UNL A   1      46.860  26.301  35.831  1.00  0.00     0.022 A 
BRANCH  84  88
ATOM     88  S   UNL A   1      45.275  24.336  37.015  1.00  0.00     0.124 S 
ATOM     89  O   UNL A   1      44.958  23.233  36.112  1.00  0.00    -0.237 OA
ATOM     90  O   UNL A   1      46.539  24.226  37.734  1.00  0.00    -0.237 OA
ATOM     91  O   UNL A   1      44.150  24.829  37.809  1.00  0.00    -0.744 OA
ENDBRANCH  84  88
ENDBRANCH  58  81
ENDBRANCH  32  33
ENDBRANCH  24  27
ENDBRANCH  22  23
ENDBRANCH  21  22
ENDBRANCH   1  21
TORSDOF 17
ENDMDL
MODEL 2
REMARK VINA RESULT:     -11.1      2.197      8.081
REMARK SMILES CC(C)CN(C)S(=O)(=O)c1ccc(C(=O)NCCCNC(=O)c2ccc(-c3c4nc(c(-c5cc(S(=O)(=O)[O-])ccc5F)c5ccc([nH]5)c(-c5cc(S(=O)(=O)[O-])ccc5F)c5nc(c(-c6cc(S(=O)(=O)[O-])ccc6F)c6ccc3[nH]6)C=C5)C=C4)cc2)cc1
REMARK SMILES IDX 17 1 16 2 14 3 15 4 13 6 10 7 11 8 87 9 12 10 86 11 7 12
REMARK SMILES IDX 8 13 9 14 5 15 6 16 4 17 2 18 1 19 3 20 18 21 19 22 20 23
REMARK SMILES IDX 21 24 22 26 23 27 24 28 85 29 25 30 84 31 26 32 27 33 28 34
REMARK SMILES IDX 78 35 29 36 83 37 77 38 79 39 30 40 82 41 76 42 75 43 31 45
REMARK SMILES IDX 63 46 43 47 62 48 44 49 47 50 61 51 80 52 45 53 46 54 60 56
REMARK SMILES IDX 81 57 48 58 32 59 33 60 41 61 34 62 40 63 42 64 39 65 35 66
REMARK SMILES IDX 36 67 37 68 38 69 64 70 65 71 73 72 66 73 72 74 74 75 71 76
REMARK SMILES IDX 67 77 68 78 69 79 70 80 49 81 50 82 58 83 51 84 57 85 59 86
REMARK SMILES IDX 56 87 52 88 53 89 54 90 55 91
REMARK H PARENT 16 5 20 25 79 44 47 55
REMARK Flexibility Score: inf
ROOT
ATOM      1  C   UNL A   1      31.521  30.513  26.061  1.00  0.00     0.118 C 
ENDROOT
BRANCH   1   2
ATOM      2  N   UNL A   1      31.049  30.306  24.705  1.00  0.00    -0.352 N 
ATOM      3  C   UNL A   1      30.937  29.180  23.933  1.00  0.00     0.251 C 
ATOM      4  O   UNL A   1      30.460  29.296  22.805  1.00  0.00    -0.269 OA
ATOM      5  H   UNL A   1      30.753  31.130  24.254  1.00  0.00     0.163 HD
BRANCH   3   6
ATOM      6  C   UNL A   1      31.294  27.823  24.426  1.00  0.00     0.039 A 
ATOM      7  C   UNL A   1      32.074  25.235  25.146  1.00  0.00     0.082 A 
ATOM      8  C   UNL A   1      32.859  25.967  24.255  1.00  0.00     0.022 A 
ATOM      9  C   UNL A   1      30.934  25.799  25.723  1.00  0.00     0.022 A 
ATOM     10  C   UNL A   1      32.463  27.255  23.894  1.00  0.00     0.015 A 
ATOM     11  C   UNL A   1      30.566  27.106  25.383  1.00  0.00     0.015 A 
BRANCH   7  12
ATOM     12  S   UNL A   1      32.546  23.569  25.531  1.00  0.00     0.242 S 
ATOM     13  O   UNL A   1      31.354  22.744  25.486  1.00  0.00    -0.207 OA
ATOM     14  O   UNL A   1      33.351  23.644  26.728  1.00  0.00    -0.207 OA
BRANCH  12  15
ATOM     15  N   UNL A   1      33.536  23.079  24.204  1.00  0.00    -0.201 NA
ATOM     16  C   UNL A   1      32.823  22.171  23.258  1.00  0.00     0.124 C 
BRANCH  15  17
ATOM     17  C   UNL A   1      34.836  22.459  24.639  1.00  0.00     0.105 C 
BRANCH  17  18
ATOM     18  C   UNL A   1      36.048  23.364  24.358  1.00  0.00    -0.002 C 
ATOM     19  C   UNL A   1      37.021  23.447  25.534  1.00  0.00     0.009 C 
ATOM     20  C   UNL A   1      36.801  22.828  23.133  1.00  0.00     0.009 C 
ENDBRANCH  17  18
ENDBRANCH  15  17
ENDBRANCH  12  15
ENDBRANCH   7  12
ENDBRANCH   3   6
ENDBRANCH   1   2
BRANCH   1  21
ATOM     21  C   UNL A   1      31.448  31.992  26.444  1.00  0.00     0.042 C 
BRANCH  21  22
ATOM     22  C   UNL A   1      32.694  32.491  27.173  1.00  0.00     0.118 C 
BRANCH  22  23
ATOM     23  N   UNL A   1      32.592  33.902  27.504  1.00  0.00    -0.352 N 
ATOM     24  C   UNL A   1      33.150  34.612  28.534  1.00  0.00     0.251 C 
ATOM     25  H   UNL A   1      32.034  34.432  26.890  1.00  0.00     0.163 HD
ATOM     26  O   UNL A   1      32.726  35.743  28.761  1.00  0.00    -0.269 OA
BRANCH  24  27
ATOM     27  C   UNL A   1      34.236  34.045  29.369  1.00  0.00     0.039 A 
ATOM     28  C   UNL A   1      35.557  34.367  29.043  1.00  0.00     0.014 A 
ATOM     29  C   UNL A   1      33.982  33.135  30.401  1.00  0.00     0.014 A 
ATOM     30  C   UNL A   1      36.615  33.790  29.749  1.00  0.00     0.010 A 
ATOM     31  C   UNL A   1      35.036  32.615  31.153  1.00  0.00     0.010 A 
ATOM     32  C   UNL A   1      36.365  32.913  30.816  1.00  0.00    -0.014 A 
BRANCH  32  33
ATOM     33  C   UNL A   1      37.491  32.261  31.537  1.00  0.00     0.031 A 
ATOM     34  C   UNL A   1      38.284  31.168  30.867  1.00  0.00     0.074 A 
ATOM     35  C   UNL A   1      37.787  32.642  32.796  1.00  0.00     0.049 A 
ATOM     36  N   UNL A   1      39.291  30.472  31.330  1.00  0.00    -0.248 NA
ATOM     37  C   UNL A   1      37.872  30.786  29.507  1.00  0.00     0.031 C 
ATOM     38  C   UNL A   1      37.060  33.655  33.565  1.00  0.00     0.029 A 
ATOM     39  N   UNL A   1      38.772  32.223  33.655  1.00  0.00    -0.354 N 
ATOM     40  C   UNL A   1      39.618  29.560  30.332  1.00  0.00     0.074 A 
ATOM     41  C   UNL A   1      38.670  29.758  29.257  1.00  0.00     0.031 C 
ATOM     42  C   UNL A   1      37.637  33.794  34.769  1.00  0.00     0.029 A 
ATOM     43  C   UNL A   1      38.753  32.859  34.875  1.00  0.00     0.049 A 
ATOM     44  H   UNL A   1      39.432  31.531  33.419  1.00  0.00     0.167 HD
ATOM     45  C   UNL A   1      40.629  28.656  30.305  1.00  0.00     0.034 A 
ATOM     46  C   UNL A   1      39.543  32.702  35.956  1.00  0.00     0.034 A 
ATOM     47  C   UNL A   1      41.589  28.497  31.370  1.00  0.00     0.049 A 
ATOM     48  C   UNL A   1      40.683  31.716  35.882  1.00  0.00     0.074 A 
ATOM     49  C   UNL A   1      42.692  27.662  31.417  1.00  0.00     0.029 A 
ATOM     50  N   UNL A   1      41.561  29.184  32.575  1.00  0.00    -0.354 N 
ATOM     51  N   UNL A   1      41.020  30.914  34.898  1.00  0.00    -0.248 NA
ATOM     52  C   UNL A   1      41.562  31.633  37.054  1.00  0.00     0.031 C 
ATOM     53  C   UNL A   1      43.294  27.800  32.672  1.00  0.00     0.029 A 
ATOM     54  C   UNL A   1      42.612  28.776  33.381  1.00  0.00     0.049 A 
ATOM     55  H   UNL A   1      40.892  29.863  32.823  1.00  0.00     0.167 HD
ATOM     56  C   UNL A   1      42.173  30.258  35.323  1.00  0.00     0.074 A 
ATOM     57  C   UNL A   1      42.486  30.781  36.637  1.00  0.00     0.031 C 
ATOM     58  C   UNL A   1      42.908  29.306  34.691  1.00  0.00     0.034 A 
BRANCH  45  59
ATOM     59  C   UNL A   1      40.734  27.751  29.100  1.00  0.00     0.023 A 
ATOM     60  C   UNL A   1      41.664  27.984  28.072  1.00  0.00     0.031 A 
ATOM     61  C   UNL A   1      39.893  26.629  28.984  1.00  0.00     0.131 A 
ATOM     62  C   UNL A   1      41.693  27.141  26.949  1.00  0.00     0.055 A 
ATOM     63  C   UNL A   1      39.977  25.754  27.899  1.00  0.00     0.041 A 
ATOM     64  F   UNL A   1      38.971  26.367  29.924  1.00  0.00    -0.206 F 
ATOM     65  C   UNL A   1      40.874  26.013  26.868  1.00  0.00     0.022 A 
BRANCH  62  66
ATOM     66  S   UNL A   1      42.746  27.600  25.545  1.00  0.00     0.124 S 
ATOM     67  O   UNL A   1      42.677  26.396  24.721  1.00  0.00    -0.237 OA
ATOM     68  O   UNL A   1      42.071  28.778  25.014  1.00  0.00    -0.237 OA
ATOM     69  O   UNL A   1      44.048  27.851  26.161  1.00  0.00    -0.744 OA
ENDBRANCH  62  66
ENDBRANCH  45  59
BRANCH  46  70
ATOM     70  C   UNL A   1      39.295  33.483  37.204  1.00  0.00     0.023 A 
ATOM     71  C   UNL A   1      39.916  34.724  37.421  1.00  0.00     0.031 A 
ATOM     72  C   UNL A   1      38.494  32.960  38.235  1.00  0.00     0.131 A 
ATOM     73  C   UNL A   1      39.785  35.366  38.663  1.00  0.00     0.055 A 
ATOM     74  C   UNL A   1      38.317  33.633  39.446  1.00  0.00     0.041 A 
ATOM     75  F   UNL A   1      37.871  31.782  38.081  1.00  0.00    -0.206 F 
ATOM     76  C   UNL A   1      38.981  34.834  39.673  1.00  0.00     0.022 A 
BRANCH  73  77
ATOM     77  S   UNL A   1      40.786  36.846  38.984  1.00  0.00     0.124 S 
ATOM     78  O   UNL A   1      41.605  36.918  37.779  1.00  0.00    -0.237 OA
ATOM     79  O   UNL A   1      39.762  37.875  39.127  1.00  0.00    -0.237 OA
ATOM     80  O   UNL A   1      41.506  36.509  40.210  1.00  0.00    -0.744 OA
ENDBRANCH  73  77
ENDBRANCH  46  70
BRANCH  58  81
ATOM     81  C   UNL A   1      44.145  28.817  35.403  1.00  0.00     0.023 A 
ATOM     82  C   UNL A   1      44.100  27.743  36.310  1.00  0.00     0.031 A 
ATOM     83  C   UNL A   1      45.379  29.462  35.204  1.00  0.00     0.131 A 
ATOM     84  C   UNL A   1      45.245  27.401  37.045  1.00  0.00     0.055 A 
ATOM     85  C   UNL A   1      46.532  29.069  35.885  1.00  0.00     0.041 A 
ATOM     86  F   UNL A   1      45.482  30.492  34.349  1.00  0.00    -0.206 F 
ATOM     87  C   UNL A   1      46.464  28.046  36.826  1.00  0.00     0.022 A 
BRANCH  84  88
ATOM     88  S   UNL A   1      45.084  26.189  38.384  1.00  0.00     0.124 S 
ATOM     89  O   UNL A   1      44.346  25.111  37.733  1.00  0.00    -0.237 OA
ATOM     90  O   UNL A   1      46.476  25.900  38.712  1.00  0.00    -0.237 OA
ATOM     91  O   UNL A   1      44.342  26.913  39.415  1.00  0.00    -0.744 OA
ENDBRANCH  84  88
ENDBRANCH  58  81
ENDBRANCH  32  33
ENDBRANCH  24  27
ENDBRANCH  22  23
ENDBRANCH  21  22
ENDBRANCH   1  21
TORSDOF 17
ENDMDL
MODEL 3
REMARK VINA RESULT:     -10.9      2.817      8.087
REMARK SMILES CC(C)CN(C)S(=O)(=O)c1ccc(C(=O)NCCCNC(=O)c2ccc(-c3c4nc(c(-c5cc(S(=O)(=O)[O-])ccc5F)c5ccc([nH]5)c(-c5cc(S(=O)(=O)[O-])ccc5F)c5nc(c(-c6cc(S(=O)(=O)[O-])ccc6F)c6ccc3[nH]6)C=C5)C=C4)cc2)cc1
REMARK SMILES IDX 17 1 16 2 14 3 15 4 13 6 10 7 11 8 87 9 12 10 86 11 7 12
REMARK SMILES IDX 8 13 9 14 5 15 6 16 4 17 2 18 1 19 3 20 18 21 19 22 20 23
REMARK SMILES IDX 21 24 22 26 23 27 24 28 85 29 25 30 84 31 26 32 27 33 28 34
REMARK SMILES IDX 78 35 29 36 83 37 77 38 79 39 30 40 82 41 76 42 75 43 31 45
REMARK SMILES IDX 63 46 43 47 62 48 44 49 47 50 61 51 80 52 45 53 46 54 60 56
REMARK SMILES IDX 81 57 48 58 32 59 33 60 41 61 34 62 40 63 42 64 39 65 35 66
REMARK SMILES IDX 36 67 37 68 38 69 64 70 65 71 73 72 66 73 72 74 74 75 71 76
REMARK SMILES IDX 67 77 68 78 69 79 70 80 49 81 50 82 58 83 51 84 57 85 59 86
REMARK SMILES IDX 56 87 52 88 53 89 54 90 55 91
REMARK H PARENT 16 5 20 25 79 44 47 55
REMARK Flexibility Score: inf
ROOT
ATOM      1  C   UNL A   1      31.562  30.276  26.047  1.00  0.00     0.118 C 
ENDROOT
BRANCH   1   2
ATOM      2  N   UNL A   1      31.216  30.085  24.651  1.00  0.00    -0.352 N 
ATOM      3  C   UNL A   1      31.086  28.958  23.883  1.00  0.00     0.251 C 
ATOM      4  O   UNL A   1      30.739  29.093  22.710  1.00  0.00    -0.269 OA
ATOM      5  H   UNL A   1      31.041  30.921  24.164  1.00  0.00     0.163 HD
BRANCH   3   6
ATOM      6  C   UNL A   1      31.271  27.585  24.424  1.00  0.00     0.039 A 
ATOM      7  C   UNL A   1      31.407  25.026  25.545  1.00  0.00     0.082 A 
ATOM      8  C   UNL A   1      30.163  25.574  25.231  1.00  0.00     0.022 A 
ATOM      9  C   UNL A   1      32.585  25.718  25.256  1.00  0.00     0.022 A 
ATOM     10  C   UNL A   1      30.099  26.852  24.678  1.00  0.00     0.015 A 
ATOM     11  C   UNL A   1      32.512  26.985  24.666  1.00  0.00     0.015 A 
BRANCH   7  12
ATOM     12  S   UNL A   1      31.468  23.433  26.324  1.00  0.00     0.242 S 
ATOM     13  O   UNL A   1      30.252  22.721  25.983  1.00  0.00    -0.207 OA
ATOM     14  O   UNL A   1      31.827  23.671  27.702  1.00  0.00    -0.207 OA
BRANCH  12  15
ATOM     15  N   UNL A   1      32.761  22.609  25.529  1.00  0.00    -0.201 NA
ATOM     16  C   UNL A   1      32.348  22.012  24.224  1.00  0.00     0.124 C 
BRANCH  15  17
ATOM     17  C   UNL A   1      33.414  21.566  26.394  1.00  0.00     0.105 C 
BRANCH  17  18
ATOM     18  C   UNL A   1      34.939  21.745  26.491  1.00  0.00    -0.002 C 
ATOM     19  C   UNL A   1      35.696  21.072  25.345  1.00  0.00     0.009 C 
ATOM     20  C   UNL A   1      35.269  23.244  26.485  1.00  0.00     0.009 C 
ENDBRANCH  17  18
ENDBRANCH  15  17
ENDBRANCH  12  15
ENDBRANCH   7  12
ENDBRANCH   3   6
ENDBRANCH   1   2
BRANCH   1  21
ATOM     21  C   UNL A   1      31.493  31.755  26.428  1.00  0.00     0.042 C 
BRANCH  21  22
ATOM     22  C   UNL A   1      32.701  32.231  27.231  1.00  0.00     0.118 C 
BRANCH  22  23
ATOM     23  N   UNL A   1      32.622  33.651  27.528  1.00  0.00    -0.352 N 
ATOM     24  C   UNL A   1      33.223  34.383  28.518  1.00  0.00     0.251 C 
ATOM     25  H   UNL A   1      32.046  34.169  26.921  1.00  0.00     0.163 HD
ATOM     26  O   UNL A   1      32.815  35.524  28.730  1.00  0.00    -0.269 OA
BRANCH  24  27
ATOM     27  C   UNL A   1      34.334  33.829  29.328  1.00  0.00     0.039 A 
ATOM     28  C   UNL A   1      35.635  34.252  29.040  1.00  0.00     0.014 A 
ATOM     29  C   UNL A   1      34.127  32.840  30.295  1.00  0.00     0.014 A 
ATOM     30  C   UNL A   1      36.721  33.694  29.720  1.00  0.00     0.010 A 
ATOM     31  C   UNL A   1      35.205  32.336  31.025  1.00  0.00     0.010 A 
ATOM     32  C   UNL A   1      36.515  32.735  30.724  1.00  0.00    -0.014 A 
BRANCH  32  33
ATOM     33  C   UNL A   1      37.673  32.107  31.416  1.00  0.00     0.031 A 
ATOM     34  C   UNL A   1      38.445  31.001  30.742  1.00  0.00     0.074 A 
ATOM     35  C   UNL A   1      38.017  32.519  32.653  1.00  0.00     0.049 A 
ATOM     36  N   UNL A   1      39.474  30.322  31.181  1.00  0.00    -0.248 NA
ATOM     37  C   UNL A   1      37.982  30.584  29.409  1.00  0.00     0.031 C 
ATOM     38  C   UNL A   1      37.315  33.548  33.425  1.00  0.00     0.029 A 
ATOM     39  N   UNL A   1      39.037  32.126  33.481  1.00  0.00    -0.354 N 
ATOM     40  C   UNL A   1      39.767  29.388  30.192  1.00  0.00     0.074 A 
ATOM     41  C   UNL A   1      38.775  29.555  29.152  1.00  0.00     0.031 C 
ATOM     42  C   UNL A   1      37.938  33.719  34.601  1.00  0.00     0.029 A 
ATOM     43  C   UNL A   1      39.063  32.792  34.686  1.00  0.00     0.049 A 
ATOM     44  H   UNL A   1      39.692  31.432  33.236  1.00  0.00     0.167 HD
ATOM     45  C   UNL A   1      40.780  28.488  30.147  1.00  0.00     0.034 A 
ATOM     46  C   UNL A   1      39.896  32.665  35.738  1.00  0.00     0.034 A 
ATOM     47  C   UNL A   1      41.782  28.359  31.177  1.00  0.00     0.049 A 
ATOM     48  C   UNL A   1      41.037  31.683  35.642  1.00  0.00     0.074 A 
ATOM     49  C   UNL A   1      42.892  27.532  31.200  1.00  0.00     0.029 A 
ATOM     50  N   UNL A   1      41.798  29.076  32.365  1.00  0.00    -0.354 N 
ATOM     51  N   UNL A   1      41.340  30.859  34.665  1.00  0.00    -0.248 NA
ATOM     52  C   UNL A   1      41.963  31.633  36.780  1.00  0.00     0.031 C 
ATOM     53  C   UNL A   1      43.542  27.703  32.427  1.00  0.00     0.029 A 
ATOM     54  C   UNL A   1      42.884  28.692  33.138  1.00  0.00     0.049 A 
ATOM     55  H   UNL A   1      41.136  29.757  32.623  1.00  0.00     0.167 HD
ATOM     56  C   UNL A   1      42.513  30.219  35.060  1.00  0.00     0.074 A 
ATOM     57  C   UNL A   1      42.875  30.776  36.347  1.00  0.00     0.031 C 
ATOM     58  C   UNL A   1      43.228  29.256  34.422  1.00  0.00     0.034 A 
BRANCH  45  59
ATOM     59  C   UNL A   1      40.842  27.554  28.961  1.00  0.00     0.023 A 
ATOM     60  C   UNL A   1      41.786  27.719  27.932  1.00  0.00     0.031 A 
ATOM     61  C   UNL A   1      39.947  26.475  28.865  1.00  0.00     0.131 A 
ATOM     62  C   UNL A   1      41.776  26.853  26.827  1.00  0.00     0.055 A 
ATOM     63  C   UNL A   1      39.989  25.574  27.799  1.00  0.00     0.041 A 
ATOM     64  F   UNL A   1      39.010  26.278  29.806  1.00  0.00    -0.206 F 
ATOM     65  C   UNL A   1      40.901  25.766  26.766  1.00  0.00     0.022 A 
BRANCH  62  66
ATOM     66  S   UNL A   1      42.854  27.229  25.418  1.00  0.00     0.124 S 
ATOM     67  O   UNL A   1      44.109  27.559  26.088  1.00  0.00    -0.237 OA
ATOM     68  O   UNL A   1      42.840  25.980  24.665  1.00  0.00    -0.237 OA
ATOM     69  O   UNL A   1      42.187  28.357  24.768  1.00  0.00    -0.744 OA
ENDBRANCH  62  66
ENDBRANCH  45  59
BRANCH  46  70
ATOM     70  C   UNL A   1      39.694  33.475  36.975  1.00  0.00     0.023 A 
ATOM     71  C   UNL A   1      39.093  32.921  38.118  1.00  0.00     0.031 A 
ATOM     72  C   UNL A   1      40.027  34.842  37.006  1.00  0.00     0.131 A 
ATOM     73  C   UNL A   1      38.778  33.742  39.213  1.00  0.00     0.055 A 
ATOM     74  C   UNL A   1      39.768  35.640  38.122  1.00  0.00     0.041 A 
ATOM     75  F   UNL A   1      40.609  35.423  35.946  1.00  0.00    -0.206 F 
ATOM     76  C   UNL A   1      39.122  35.094  39.227  1.00  0.00     0.022 A 
BRANCH  73  77
ATOM     77  S   UNL A   1      37.798  33.039  40.569  1.00  0.00     0.124 S 
ATOM     78  O   UNL A   1      38.513  31.797  40.840  1.00  0.00    -0.237 OA
ATOM     79  O   UNL A   1      37.906  34.078  41.587  1.00  0.00    -0.237 OA
ATOM     80  O   UNL A   1      36.470  32.880  39.980  1.00  0.00    -0.744 OA
ENDBRANCH  73  77
ENDBRANCH  46  70
BRANCH  58  81
ATOM     81  C   UNL A   1      44.495  28.790  35.096  1.00  0.00     0.023 A 
ATOM     82  C   UNL A   1      45.745  29.360  34.793  1.00  0.00     0.031 A 
ATOM     83  C   UNL A   1      44.458  27.734  36.024  1.00  0.00     0.131 A 
ATOM     84  C   UNL A   1      46.913  28.815  35.348  1.00  0.00     0.055 A 
ATOM     85  C   UNL A   1      45.617  27.244  36.626  1.00  0.00     0.041 A 
ATOM     86  F   UNL A   1      43.293  27.152  36.351  1.00  0.00    -0.206 F 
ATOM     87  C   UNL A   1      46.856  27.772  36.274  1.00  0.00     0.022 A 
BRANCH  84  88
ATOM     88  S   UNL A   1      48.516  29.404  34.738  1.00  0.00     0.124 S 
ATOM     89  O   UNL A   1      48.161  30.685  34.136  1.00  0.00    -0.237 OA
ATOM     90  O   UNL A   1      49.308  29.474  35.962  1.00  0.00    -0.237 OA
ATOM     91  O   UNL A   1      48.926  28.367  33.793  1.00  0.00    -0.744 OA
ENDBRANCH  84  88
ENDBRANCH  58  81
ENDBRANCH  32  33
ENDBRANCH  24  27
ENDBRANCH  22  23
ENDBRANCH  21  22
ENDBRANCH   1  21
TORSDOF 17
ENDMDL
