MODEL 1
REMARK VINA RESULT:     -13.8      0.000      0.000
REMARK SMILES O=C(NCCCNC(=O)[C@@]12C[C@H]3C[C@@H](C1)C[C@](n1cc([N+](=O)[O-])cn1)(C3)C2)c1ccc(-c2c3nc(c(-c4cc(S(=O)(=O)[O-])ccc4F)c4ccc([nH]4)c(-c4cc(S(=O)(=O)[O-])ccc4F)c4nc(c(-c5cc(S(=O)(=O)[O-])ccc5F)c5ccc2[nH]5)C=C4)C=C3)cc1
REMARK SMILES IDX 4 1 3 2 1 3 2 4 28 6 29 7 90 8 30 9 89 10 31 11 32 12 33 13
REMARK SMILES IDX 83 14 34 15 88 16 82 17 84 18 35 19 87 20 81 21 80 22 36 24
REMARK SMILES IDX 68 25 48 26 67 27 49 28 52 29 66 30 85 31 50 32 51 33 65 35
REMARK SMILES IDX 86 36 53 37 37 38 38 39 46 40 39 41 45 42 47 43 44 44 40 45
REMARK SMILES IDX 41 46 42 47 43 48 69 49 70 50 78 51 71 52 77 53 79 54 76 55
REMARK SMILES IDX 72 56 73 57 74 58 75 59 54 60 55 61 63 62 56 63 62 64 64 65
REMARK SMILES IDX 61 66 57 67 58 68 59 69 60 70 5 71 6 72 7 73 8 74 9 76 10 77
REMARK SMILES IDX 11 78 15 79 27 80 12 81 14 82 17 83 13 84 26 85 16 86 18 87
REMARK SMILES IDX 19 88 25 89 20 90 24 91 21 92 22 93 23 94
REMARK H PARENT 3 5 84 23 52 34 7 75
REMARK Flexibility Score: inf
ROOT
ATOM      1  C   UNL A   1      34.634  28.696  26.924  1.00  0.00     0.118 C 
ENDROOT
BRANCH   1   2
ATOM      2  N   UNL A   1      34.864  29.626  28.014  1.00  0.00    -0.352 N 
ATOM      3  O   UNL A   1      35.812  30.873  29.581  1.00  0.00    -0.269 OA
ATOM      4  C   UNL A   1      35.974  30.010  28.716  1.00  0.00     0.251 C 
ATOM      5  H   UNL A   1      34.042  30.079  28.315  1.00  0.00     0.163 HD
BRANCH   4   6
ATOM      6  C   UNL A   1      37.319  29.403  28.540  1.00  0.00     0.039 A 
ATOM      7  C   UNL A   1      38.186  29.684  27.483  1.00  0.00     0.014 A 
ATOM      8  C   UNL A   1      37.736  28.505  29.536  1.00  0.00     0.014 A 
ATOM      9  C   UNL A   1      39.396  29.008  27.364  1.00  0.00     0.010 A 
ATOM     10  C   UNL A   1      38.968  27.864  29.452  1.00  0.00     0.010 A 
ATOM     11  C   UNL A   1      39.793  28.105  28.353  1.00  0.00    -0.014 A 
BRANCH  11  12
ATOM     12  C   UNL A   1      41.194  27.682  28.356  1.00  0.00     0.031 A 
ATOM     13  C   UNL A   1      41.416  26.375  27.670  1.00  0.00     0.074 A 
ATOM     14  C   UNL A   1      42.237  28.445  28.738  1.00  0.00     0.049 A 
ATOM     15  N   UNL A   1      41.886  25.278  28.164  1.00  0.00    -0.248 NA
ATOM     16  C   UNL A   1      40.901  26.235  26.296  1.00  0.00     0.031 C 
ATOM     17  C   UNL A   1      42.192  29.844  29.161  1.00  0.00     0.029 A 
ATOM     18  N   UNL A   1      43.576  28.169  28.708  1.00  0.00    -0.354 N 
ATOM     19  C   UNL A   1      41.962  24.386  27.097  1.00  0.00     0.074 A 
ATOM     20  C   UNL A   1      41.151  24.949  26.055  1.00  0.00     0.031 C 
ATOM     21  C   UNL A   1      43.442  30.355  29.125  1.00  0.00     0.029 A 
ATOM     22  C   UNL A   1      44.385  29.302  28.777  1.00  0.00     0.049 A 
ATOM     23  H   UNL A   1      43.936  27.255  28.644  1.00  0.00     0.167 HD
ATOM     24  C   UNL A   1      42.905  23.404  27.059  1.00  0.00     0.034 A 
ATOM     25  C   UNL A   1      45.712  29.397  28.488  1.00  0.00     0.034 A 
ATOM     26  C   UNL A   1      43.415  23.123  28.387  1.00  0.00     0.049 A 
ATOM     27  C   UNL A   1      46.289  28.034  28.589  1.00  0.00     0.074 A 
ATOM     28  C   UNL A   1      42.833  22.790  29.597  1.00  0.00     0.029 A 
ATOM     29  N   UNL A   1      44.701  23.508  28.703  1.00  0.00    -0.354 N 
ATOM     30  N   UNL A   1      46.394  27.379  29.712  1.00  0.00    -0.248 NA
ATOM     31  C   UNL A   1      46.349  27.214  27.388  1.00  0.00     0.031 C 
ATOM     32  C   UNL A   1      43.603  23.476  30.582  1.00  0.00     0.029 A 
ATOM     33  C   UNL A   1      44.653  24.122  29.928  1.00  0.00     0.049 A 
ATOM     34  H   UNL A   1      45.505  23.367  28.153  1.00  0.00     0.167 HD
ATOM     35  C   UNL A   1      46.086  26.067  29.388  1.00  0.00     0.074 A 
ATOM     36  C   UNL A   1      46.183  26.005  27.932  1.00  0.00     0.031 C 
ATOM     37  C   UNL A   1      45.506  25.232  30.301  1.00  0.00     0.034 A 
BRANCH  24  38
ATOM     38  C   UNL A   1      43.673  23.024  25.799  1.00  0.00     0.023 A 
ATOM     39  C   UNL A   1      43.750  21.649  25.512  1.00  0.00     0.031 A 
ATOM     40  C   UNL A   1      44.588  23.841  25.096  1.00  0.00     0.131 A 
ATOM     41  C   UNL A   1      44.819  21.130  24.762  1.00  0.00     0.055 A 
ATOM     42  C   UNL A   1      45.598  23.324  24.278  1.00  0.00     0.041 A 
ATOM     43  F   UNL A   1      44.620  25.173  25.207  1.00  0.00    -0.206 F 
ATOM     44  C   UNL A   1      45.753  21.957  24.151  1.00  0.00     0.022 A 
BRANCH  41  45
ATOM     45  S   UNL A   1      45.094  19.344  24.832  1.00  0.00     0.124 S 
ATOM     46  O   UNL A   1      46.401  19.292  25.479  1.00  0.00    -0.237 OA
ATOM     47  O   UNL A   1      43.959  18.899  25.633  1.00  0.00    -0.237 OA
ATOM     48  O   UNL A   1      45.066  18.942  23.428  1.00  0.00    -0.744 OA
ENDBRANCH  41  45
ENDBRANCH  24  38
BRANCH  25  49
ATOM     49  C   UNL A   1      46.434  30.550  27.876  1.00  0.00     0.023 A 
ATOM     50  C   UNL A   1      45.803  31.495  27.035  1.00  0.00     0.031 A 
ATOM     51  C   UNL A   1      47.742  30.870  28.307  1.00  0.00     0.131 A 
ATOM     52  C   UNL A   1      46.480  32.682  26.658  1.00  0.00     0.055 A 
ATOM     53  C   UNL A   1      48.410  32.034  27.921  1.00  0.00     0.041 A 
ATOM     54  F   UNL A   1      48.391  30.102  29.196  1.00  0.00    -0.206 F 
ATOM     55  C   UNL A   1      47.777  32.950  27.101  1.00  0.00     0.022 A 
BRANCH  52  56
ATOM     56  S   UNL A   1      45.642  33.960  25.663  1.00  0.00     0.124 S 
ATOM     57  O   UNL A   1      46.759  34.646  25.032  1.00  0.00    -0.237 OA
ATOM     58  O   UNL A   1      44.785  33.165  24.787  1.00  0.00    -0.237 OA
ATOM     59  O   UNL A   1      44.920  34.750  26.662  1.00  0.00    -0.744 OA
ENDBRANCH  52  56
ENDBRANCH  25  49
BRANCH  37  60
ATOM     60  C   UNL A   1      45.554  25.606  31.766  1.00  0.00     0.023 A 
ATOM     61  C   UNL A   1      46.616  25.302  32.647  1.00  0.00     0.031 A 
ATOM     62  C   UNL A   1      44.501  26.394  32.265  1.00  0.00     0.131 A 
ATOM     63  C   UNL A   1      46.582  25.764  33.977  1.00  0.00     0.055 A 
ATOM     64  C   UNL A   1      44.481  26.867  33.575  1.00  0.00     0.041 A 
ATOM     65  F   UNL A   1      43.475  26.746  31.470  1.00  0.00    -0.206 F 
ATOM     66  C   UNL A   1      45.518  26.544  34.440  1.00  0.00     0.022 A 
BRANCH  63  67
ATOM     67  S   UNL A   1      47.917  25.338  35.140  1.00  0.00     0.124 S 
ATOM     68  O   UNL A   1      48.936  26.350  34.885  1.00  0.00    -0.237 OA
ATOM     69  O   UNL A   1      47.244  25.421  36.435  1.00  0.00    -0.237 OA
ATOM     70  O   UNL A   1      48.294  23.980  34.740  1.00  0.00    -0.744 OA
ENDBRANCH  63  67
ENDBRANCH  37  60
ENDBRANCH  11  12
ENDBRANCH   4   6
ENDBRANCH   1   2
BRANCH   1  71
ATOM     71  C   UNL A   1      33.257  28.032  26.917  1.00  0.00     0.042 C 
BRANCH  71  72
ATOM     72  C   UNL A   1      33.216  26.746  26.104  1.00  0.00     0.117 C 
BRANCH  72  73
ATOM     73  N   UNL A   1      32.490  25.728  26.825  1.00  0.00    -0.356 N 
ATOM     74  C   UNL A   1      32.160  24.468  26.467  1.00  0.00     0.226 C 
ATOM     75  H   UNL A   1      32.186  25.995  27.723  1.00  0.00     0.163 HD
ATOM     76  O   UNL A   1      31.239  23.951  27.107  1.00  0.00    -0.274 OA
BRANCH  74  77
ATOM     77  C   UNL A   1      32.924  23.699  25.374  1.00  0.00     0.052 C 
ATOM     78  C   UNL A   1      32.766  24.259  23.947  1.00  0.00     0.020 C 
ATOM     79  C   UNL A   1      34.414  23.517  25.753  1.00  0.00     0.020 C 
ATOM     80  C   UNL A   1      32.308  22.291  25.349  1.00  0.00     0.047 C 
ATOM     81  C   UNL A   1      33.498  23.350  22.934  1.00  0.00    -0.007 C 
ATOM     82  C   UNL A   1      35.145  22.657  24.712  1.00  0.00    -0.007 C 
ATOM     83  C   UNL A   1      33.028  21.318  24.381  1.00  0.00     0.065 C 
ATOM     84  C   UNL A   1      34.984  23.291  23.322  1.00  0.00     0.007 C 
ATOM     85  C   UNL A   1      32.900  21.925  22.958  1.00  0.00     0.034 C 
ATOM     86  C   UNL A   1      34.535  21.246  24.719  1.00  0.00     0.034 C 
BRANCH  83  87
ATOM     87  N   UNL A   1      32.373  20.004  24.568  1.00  0.00    -0.259 N 
ATOM     88  C   UNL A   1      32.388  19.040  23.568  1.00  0.00     0.195 A 
ATOM     89  N   UNL A   1      32.331  19.429  25.795  1.00  0.00    -0.173 NA
ATOM     90  C   UNL A   1      32.918  17.928  24.195  1.00  0.00     0.307 A 
ATOM     91  C   UNL A   1      32.750  18.177  25.565  1.00  0.00     0.220 A 
BRANCH  90  92
ATOM     92  N   UNL A   1      33.591  16.836  23.568  1.00  0.00     0.066 N 
ATOM     93  O   UNL A   1      33.824  15.845  24.270  1.00  0.00    -0.258 OA
ATOM     94  O   UNL A   1      33.922  16.983  22.384  1.00  0.00    -0.258 OA
ENDBRANCH  90  92
ENDBRANCH  83  87
ENDBRANCH  74  77
ENDBRANCH  72  73
ENDBRANCH  71  72
ENDBRANCH   1  71
TORSDOF 15
ENDMDL
MODEL 2
REMARK VINA RESULT:     -13.4      3.782      8.399
REMARK SMILES O=C(NCCCNC(=O)[C@@]12C[C@H]3C[C@@H](C1)C[C@](n1cc([N+](=O)[O-])cn1)(C3)C2)c1ccc(-c2c3nc(c(-c4cc(S(=O)(=O)[O-])ccc4F)c4ccc([nH]4)c(-c4cc(S(=O)(=O)[O-])ccc4F)c4nc(c(-c5cc(S(=O)(=O)[O-])ccc5F)c5ccc2[nH]5)C=C4)C=C3)cc1
REMARK SMILES IDX 4 1 3 2 1 3 2 4 28 6 29 7 90 8 30 9 89 10 31 11 32 12 33 13
REMARK SMILES IDX 83 14 34 15 88 16 82 17 84 18 35 19 87 20 81 21 80 22 36 24
REMARK SMILES IDX 68 25 48 26 67 27 49 28 52 29 66 30 85 31 50 32 51 33 65 35
REMARK SMILES IDX 86 36 53 37 37 38 38 39 46 40 39 41 45 42 47 43 44 44 40 45
REMARK SMILES IDX 41 46 42 47 43 48 69 49 70 50 78 51 71 52 77 53 79 54 76 55
REMARK SMILES IDX 72 56 73 57 74 58 75 59 54 60 55 61 63 62 56 63 62 64 64 65
REMARK SMILES IDX 61 66 57 67 58 68 59 69 60 70 5 71 6 72 7 73 8 74 9 76 10 77
REMARK SMILES IDX 11 78 15 79 27 80 12 81 14 82 17 83 13 84 26 85 16 86 18 87
REMARK SMILES IDX 19 88 25 89 20 90 24 91 21 92 22 93 23 94
REMARK H PARENT 3 5 84 23 52 34 7 75
REMARK Flexibility Score: inf
ROOT
ATOM      1  C   UNL A   1      39.977  21.838  26.768  1.00  0.00     0.118 C 
ENDROOT
BRANCH   1   2
ATOM      2  N   UNL A   1      41.118  22.187  25.942  1.00  0.00    -0.352 N 
ATOM      3  O   UNL A   1      42.880  23.210  25.074  1.00  0.00    -0.269 OA
ATOM      4  C   UNL A   1      41.974  23.255  25.907  1.00  0.00     0.251 C 
ATOM      5  H   UNL A   1      41.321  21.507  25.258  1.00  0.00     0.163 HD
BRANCH   4   6
ATOM      6  C   UNL A   1      41.826  24.466  26.755  1.00  0.00     0.039 A 
ATOM      7  C   UNL A   1      42.557  24.717  27.917  1.00  0.00     0.014 A 
ATOM      8  C   UNL A   1      40.895  25.424  26.321  1.00  0.00     0.014 A 
ATOM      9  C   UNL A   1      42.295  25.846  28.685  1.00  0.00     0.010 A 
ATOM     10  C   UNL A   1      40.664  26.582  27.058  1.00  0.00     0.010 A 
ATOM     11  C   UNL A   1      41.355  26.784  28.253  1.00  0.00    -0.014 A 
BRANCH  11  12
ATOM     12  C   UNL A   1      41.358  28.093  28.909  1.00  0.00     0.031 A 
ATOM     13  C   UNL A   1      42.372  29.031  28.346  1.00  0.00     0.074 A 
ATOM     14  C   UNL A   1      40.432  28.525  29.787  1.00  0.00     0.049 A 
ATOM     15  N   UNL A   1      43.372  29.587  28.946  1.00  0.00    -0.248 NA
ATOM     16  C   UNL A   1      42.356  29.252  26.888  1.00  0.00     0.031 C 
ATOM     17  C   UNL A   1      39.225  27.817  30.210  1.00  0.00     0.029 A 
ATOM     18  N   UNL A   1      40.307  29.745  30.392  1.00  0.00    -0.354 N 
ATOM     19  C   UNL A   1      43.958  30.426  28.001  1.00  0.00     0.074 A 
ATOM     20  C   UNL A   1      43.438  30.012  26.729  1.00  0.00     0.031 C 
ATOM     21  C   UNL A   1      38.388  28.691  30.810  1.00  0.00     0.029 A 
ATOM     22  C   UNL A   1      39.034  29.992  30.903  1.00  0.00     0.049 A 
ATOM     23  H   UNL A   1      41.048  30.390  30.460  1.00  0.00     0.167 HD
ATOM     24  C   UNL A   1      44.605  31.567  28.371  1.00  0.00     0.034 A 
ATOM     25  C   UNL A   1      38.511  31.186  31.296  1.00  0.00     0.034 A 
ATOM     26  C   UNL A   1      45.006  31.509  29.762  1.00  0.00     0.049 A 
ATOM     27  C   UNL A   1      39.646  32.095  31.590  1.00  0.00     0.074 A 
ATOM     28  C   UNL A   1      45.740  30.613  30.521  1.00  0.00     0.029 A 
ATOM     29  N   UNL A   1      44.352  32.304  30.680  1.00  0.00    -0.354 N 
ATOM     30  N   UNL A   1      40.469  31.920  32.586  1.00  0.00    -0.248 NA
ATOM     31  C   UNL A   1      40.141  32.954  30.525  1.00  0.00     0.031 C 
ATOM     32  C   UNL A   1      45.090  30.584  31.791  1.00  0.00     0.029 A 
ATOM     33  C   UNL A   1      44.052  31.516  31.760  1.00  0.00     0.049 A 
ATOM     34  H   UNL A   1      44.141  33.260  30.579  1.00  0.00     0.167 HD
ATOM     35  C   UNL A   1      41.714  32.263  32.084  1.00  0.00     0.074 A 
ATOM     36  C   UNL A   1      41.435  33.000  30.855  1.00  0.00     0.031 C 
ATOM     37  C   UNL A   1      42.852  31.674  32.558  1.00  0.00     0.034 A 
BRANCH  24  38
ATOM     38  C   UNL A   1      44.477  32.886  27.619  1.00  0.00     0.023 A 
ATOM     39  C   UNL A   1      43.890  33.950  28.329  1.00  0.00     0.031 A 
ATOM     40  C   UNL A   1      44.554  33.065  26.218  1.00  0.00     0.131 A 
ATOM     41  C   UNL A   1      43.227  34.988  27.653  1.00  0.00     0.055 A 
ATOM     42  C   UNL A   1      43.968  34.148  25.555  1.00  0.00     0.041 A 
ATOM     43  F   UNL A   1      45.127  32.181  25.395  1.00  0.00    -0.206 F 
ATOM     44  C   UNL A   1      43.251  35.090  26.267  1.00  0.00     0.022 A 
BRANCH  41  45
ATOM     45  S   UNL A   1      42.122  36.041  28.623  1.00  0.00     0.124 S 
ATOM     46  O   UNL A   1      42.711  35.908  29.951  1.00  0.00    -0.237 OA
ATOM     47  O   UNL A   1      42.291  37.333  27.968  1.00  0.00    -0.237 OA
ATOM     48  O   UNL A   1      40.815  35.413  28.445  1.00  0.00    -0.744 OA
ENDBRANCH  41  45
ENDBRANCH  24  38
BRANCH  25  49
ATOM     49  C   UNL A   1      37.099  31.650  31.172  1.00  0.00     0.023 A 
ATOM     50  C   UNL A   1      36.384  32.239  32.240  1.00  0.00     0.031 A 
ATOM     51  C   UNL A   1      36.493  31.726  29.896  1.00  0.00     0.131 A 
ATOM     52  C   UNL A   1      35.129  32.853  32.008  1.00  0.00     0.055 A 
ATOM     53  C   UNL A   1      35.250  32.319  29.675  1.00  0.00     0.041 A 
ATOM     54  F   UNL A   1      37.132  31.302  28.794  1.00  0.00    -0.206 F 
ATOM     55  C   UNL A   1      34.564  32.894  30.731  1.00  0.00     0.022 A 
BRANCH  52  56
ATOM     56  S   UNL A   1      34.245  33.710  33.353  1.00  0.00     0.124 S 
ATOM     57  O   UNL A   1      34.261  35.094  32.906  1.00  0.00    -0.237 OA
ATOM     58  O   UNL A   1      32.946  33.040  33.354  1.00  0.00    -0.237 OA
ATOM     59  O   UNL A   1      35.068  33.434  34.531  1.00  0.00    -0.744 OA
ENDBRANCH  52  56
ENDBRANCH  25  49
BRANCH  37  60
ATOM     60  C   UNL A   1      42.801  30.944  33.882  1.00  0.00     0.023 A 
ATOM     61  C   UNL A   1      42.392  29.604  34.055  1.00  0.00     0.031 A 
ATOM     62  C   UNL A   1      43.285  31.628  35.013  1.00  0.00     0.131 A 
ATOM     63  C   UNL A   1      42.454  29.007  35.330  1.00  0.00     0.055 A 
ATOM     64  C   UNL A   1      43.363  31.028  36.268  1.00  0.00     0.041 A 
ATOM     65  F   UNL A   1      43.720  32.896  34.911  1.00  0.00    -0.206 F 
ATOM     66  C   UNL A   1      42.938  29.717  36.433  1.00  0.00     0.022 A 
BRANCH  63  67
ATOM     67  S   UNL A   1      41.882  27.296  35.581  1.00  0.00     0.124 S 
ATOM     68  O   UNL A   1      43.109  26.511  35.540  1.00  0.00    -0.237 OA
ATOM     69  O   UNL A   1      41.217  27.375  36.880  1.00  0.00    -0.237 OA
ATOM     70  O   UNL A   1      40.977  27.073  34.451  1.00  0.00    -0.744 OA
ENDBRANCH  63  67
ENDBRANCH  37  60
ENDBRANCH  11  12
ENDBRANCH   4   6
ENDBRANCH   1   2
BRANCH   1  71
ATOM     71  C   UNL A   1      38.675  22.554  26.412  1.00  0.00     0.042 C 
BRANCH  71  72
ATOM     72  C   UNL A   1      37.755  21.722  25.531  1.00  0.00     0.117 C 
BRANCH  72  73
ATOM     73  N   UNL A   1      37.599  22.354  24.242  1.00  0.00    -0.356 N 
ATOM     74  C   UNL A   1      36.483  22.727  23.579  1.00  0.00     0.226 C 
ATOM     75  H   UNL A   1      38.442  22.544  23.771  1.00  0.00     0.163 HD
ATOM     76  O   UNL A   1      36.613  22.902  22.363  1.00  0.00    -0.274 OA
BRANCH  74  77
ATOM     77  C   UNL A   1      35.145  22.979  24.299  1.00  0.00     0.052 C 
ATOM     78  C   UNL A   1      35.265  23.600  25.704  1.00  0.00     0.020 C 
ATOM     79  C   UNL A   1      34.168  23.779  23.404  1.00  0.00     0.020 C 
ATOM     80  C   UNL A   1      34.514  21.592  24.499  1.00  0.00     0.047 C 
ATOM     81  C   UNL A   1      33.869  23.715  26.357  1.00  0.00    -0.007 C 
ATOM     82  C   UNL A   1      32.800  23.934  24.085  1.00  0.00    -0.007 C 
ATOM     83  C   UNL A   1      33.091  21.644  25.111  1.00  0.00     0.065 C 
ATOM     84  C   UNL A   1      32.985  24.596  25.459  1.00  0.00     0.007 C 
ATOM     85  C   UNL A   1      33.226  22.317  26.504  1.00  0.00     0.034 C 
ATOM     86  C   UNL A   1      32.171  22.542  24.252  1.00  0.00     0.034 C 
BRANCH  83  87
ATOM     87  N   UNL A   1      32.609  20.245  25.131  1.00  0.00    -0.259 N 
ATOM     88  C   UNL A   1      32.075  19.647  23.997  1.00  0.00     0.195 A 
ATOM     89  N   UNL A   1      33.212  19.326  25.925  1.00  0.00    -0.173 NA
ATOM     90  C   UNL A   1      32.834  18.504  23.842  1.00  0.00     0.307 A 
ATOM     91  C   UNL A   1      33.421  18.292  25.098  1.00  0.00     0.220 A 
BRANCH  90  92
ATOM     92  N   UNL A   1      33.053  17.784  22.628  1.00  0.00     0.066 N 
ATOM     93  O   UNL A   1      33.905  16.887  22.655  1.00  0.00    -0.258 OA
ATOM     94  O   UNL A   1      32.400  18.139  21.638  1.00  0.00    -0.258 OA
ENDBRANCH  90  92
ENDBRANCH  83  87
ENDBRANCH  74  77
ENDBRANCH  72  73
ENDBRANCH  71  72
ENDBRANCH   1  71
TORSDOF 15
ENDMDL
MODEL 3
REMARK VINA RESULT:     -13.3      4.141      8.648
REMARK SMILES O=C(NCCCNC(=O)[C@@]12C[C@H]3C[C@@H](C1)C[C@](n1cc([N+](=O)[O-])cn1)(C3)C2)c1ccc(-c2c3nc(c(-c4cc(S(=O)(=O)[O-])ccc4F)c4ccc([nH]4)c(-c4cc(S(=O)(=O)[O-])ccc4F)c4nc(c(-c5cc(S(=O)(=O)[O-])ccc5F)c5ccc2[nH]5)C=C4)C=C3)cc1
REMARK SMILES IDX 4 1 3 2 1 3 2 4 28 6 29 7 90 8 30 9 89 10 31 11 32 12 33 13
REMARK SMILES IDX 83 14 34 15 88 16 82 17 84 18 35 19 87 20 81 21 80 22 36 24
REMARK SMILES IDX 68 25 48 26 67 27 49 28 52 29 66 30 85 31 50 32 51 33 65 35
REMARK SMILES IDX 86 36 53 37 37 38 38 39 46 40 39 41 45 42 47 43 44 44 40 45
REMARK SMILES IDX 41 46 42 47 43 48 69 49 70 50 78 51 71 52 77 53 79 54 76 55
REMARK SMILES IDX 72 56 73 57 74 58 75 59 54 60 55 61 63 62 56 63 62 64 64 65
REMARK SMILES IDX 61 66 57 67 58 68 59 69 60 70 5 71 6 72 7 73 8 74 9 76 10 77
REMARK SMILES IDX 11 78 15 79 27 80 12 81 14 82 17 83 13 84 26 85 16 86 18 87
REMARK SMILES IDX 19 88 25 89 20 90 24 91 21 92 22 93 23 94
REMARK H PARENT 3 5 84 23 52 34 7 75
REMARK Flexibility Score: inf
ROOT
ATOM      1  C   UNL A   1      35.550  31.235  28.071  1.00  0.00     0.118 C 
ENDROOT
BRANCH   1   2
ATOM      2  N   UNL A   1      35.201  31.444  29.464  1.00  0.00    -0.352 N 
ATOM      3  O   UNL A   1      35.253  31.548  31.676  1.00  0.00    -0.269 OA
ATOM      4  C   UNL A   1      35.843  31.208  30.649  1.00  0.00     0.251 C 
ATOM      5  H   UNL A   1      34.308  31.843  29.582  1.00  0.00     0.163 HD
BRANCH   4   6
ATOM      6  C   UNL A   1      37.153  30.515  30.761  1.00  0.00     0.039 A 
ATOM      7  C   UNL A   1      37.325  29.131  30.745  1.00  0.00     0.014 A 
ATOM      8  C   UNL A   1      38.289  31.337  30.862  1.00  0.00     0.014 A 
ATOM      9  C   UNL A   1      38.586  28.574  30.931  1.00  0.00     0.010 A 
ATOM     10  C   UNL A   1      39.560  30.787  30.995  1.00  0.00     0.010 A 
ATOM     11  C   UNL A   1      39.706  29.401  31.047  1.00  0.00    -0.014 A 
BRANCH  11  12
ATOM     12  C   UNL A   1      41.022  28.776  30.904  1.00  0.00     0.031 A 
ATOM     13  C   UNL A   1      41.737  28.607  32.203  1.00  0.00     0.074 A 
ATOM     14  C   UNL A   1      41.497  28.210  29.777  1.00  0.00     0.049 A 
ATOM     15  N   UNL A   1      42.870  29.111  32.568  1.00  0.00    -0.248 NA
ATOM     16  C   UNL A   1      41.018  27.913  33.287  1.00  0.00     0.031 C 
ATOM     17  C   UNL A   1      40.788  28.050  28.509  1.00  0.00     0.029 A 
ATOM     18  N   UNL A   1      42.672  27.542  29.566  1.00  0.00    -0.354 N 
ATOM     19  C   UNL A   1      43.123  28.588  33.834  1.00  0.00     0.074 A 
ATOM     20  C   UNL A   1      41.874  28.055  34.298  1.00  0.00     0.031 C 
ATOM     21  C   UNL A   1      41.443  27.145  27.749  1.00  0.00     0.029 A 
ATOM     22  C   UNL A   1      42.665  26.738  28.428  1.00  0.00     0.049 A 
ATOM     23  H   UNL A   1      43.451  27.623  30.163  1.00  0.00     0.167 HD
ATOM     24  C   UNL A   1      44.396  28.388  34.276  1.00  0.00     0.034 A 
ATOM     25  C   UNL A   1      43.542  25.750  28.100  1.00  0.00     0.034 A 
ATOM     26  C   UNL A   1      45.338  29.201  33.532  1.00  0.00     0.049 A 
ATOM     27  C   UNL A   1      44.793  25.995  28.859  1.00  0.00     0.074 A 
ATOM     28  C   UNL A   1      45.438  30.553  33.250  1.00  0.00     0.029 A 
ATOM     29  N   UNL A   1      46.196  28.586  32.646  1.00  0.00    -0.354 N 
ATOM     30  N   UNL A   1      45.578  27.014  28.645  1.00  0.00    -0.248 NA
ATOM     31  C   UNL A   1      44.954  25.355  30.156  1.00  0.00     0.031 C 
ATOM     32  C   UNL A   1      45.925  30.617  31.911  1.00  0.00     0.029 A 
ATOM     33  C   UNL A   1      46.168  29.311  31.483  1.00  0.00     0.049 A 
ATOM     34  H   UNL A   1      46.730  27.778  32.816  1.00  0.00     0.167 HD
ATOM     35  C   UNL A   1      45.997  27.412  29.904  1.00  0.00     0.074 A 
ATOM     36  C   UNL A   1      45.677  26.289  30.781  1.00  0.00     0.031 C 
ATOM     37  C   UNL A   1      46.297  28.719  30.166  1.00  0.00     0.034 A 
BRANCH  24  38
ATOM     38  C   UNL A   1      44.831  27.153  35.055  1.00  0.00     0.023 A 
ATOM     39  C   UNL A   1      44.567  25.912  34.447  1.00  0.00     0.031 A 
ATOM     40  C   UNL A   1      45.140  27.096  36.434  1.00  0.00     0.131 A 
ATOM     41  C   UNL A   1      44.397  24.752  35.221  1.00  0.00     0.055 A 
ATOM     42  C   UNL A   1      45.057  25.919  37.186  1.00  0.00     0.041 A 
ATOM     43  F   UNL A   1      45.468  28.170  37.158  1.00  0.00    -0.206 F 
ATOM     44  C   UNL A   1      44.629  24.747  36.591  1.00  0.00     0.022 A 
BRANCH  41  45
ATOM     45  S   UNL A   1      43.616  23.328  34.426  1.00  0.00     0.124 S 
ATOM     46  O   UNL A   1      42.237  23.482  34.878  1.00  0.00    -0.237 OA
ATOM     47  O   UNL A   1      43.867  23.599  33.015  1.00  0.00    -0.237 OA
ATOM     48  O   UNL A   1      44.342  22.189  34.985  1.00  0.00    -0.744 OA
ENDBRANCH  41  45
ENDBRANCH  24  38
BRANCH  25  49
ATOM     49  C   UNL A   1      43.256  24.476  27.378  1.00  0.00     0.023 A 
ATOM     50  C   UNL A   1      44.091  23.965  26.358  1.00  0.00     0.031 A 
ATOM     51  C   UNL A   1      42.246  23.609  27.855  1.00  0.00     0.131 A 
ATOM     52  C   UNL A   1      43.889  22.654  25.860  1.00  0.00     0.055 A 
ATOM     53  C   UNL A   1      42.043  22.324  27.350  1.00  0.00     0.041 A 
ATOM     54  F   UNL A   1      41.471  23.948  28.897  1.00  0.00    -0.206 F 
ATOM     55  C   UNL A   1      42.871  21.836  26.355  1.00  0.00     0.022 A 
BRANCH  52  56
ATOM     56  S   UNL A   1      45.022  21.940  24.622  1.00  0.00     0.124 S 
ATOM     57  O   UNL A   1      44.353  20.699  24.264  1.00  0.00    -0.237 OA
ATOM     58  O   UNL A   1      45.063  22.980  23.596  1.00  0.00    -0.237 OA
ATOM     59  O   UNL A   1      46.274  21.773  25.363  1.00  0.00    -0.744 OA
ENDBRANCH  52  56
ENDBRANCH  25  49
BRANCH  37  60
ATOM     60  C   UNL A   1      46.552  29.658  29.008  1.00  0.00     0.023 A 
ATOM     61  C   UNL A   1      45.563  30.422  28.350  1.00  0.00     0.031 A 
ATOM     62  C   UNL A   1      47.890  29.850  28.617  1.00  0.00     0.131 A 
ATOM     63  C   UNL A   1      45.930  31.318  27.327  1.00  0.00     0.055 A 
ATOM     64  C   UNL A   1      48.251  30.752  27.618  1.00  0.00     0.041 A 
ATOM     65  F   UNL A   1      48.883  29.177  29.225  1.00  0.00    -0.206 F 
ATOM     66  C   UNL A   1      47.270  31.483  26.962  1.00  0.00     0.022 A 
BRANCH  63  67
ATOM     67  S   UNL A   1      44.663  32.273  26.433  1.00  0.00     0.124 S 
ATOM     68  O   UNL A   1      43.651  31.278  26.096  1.00  0.00    -0.237 OA
ATOM     69  O   UNL A   1      44.269  33.275  27.421  1.00  0.00    -0.237 OA
ATOM     70  O   UNL A   1      45.393  32.812  25.284  1.00  0.00    -0.744 OA
ENDBRANCH  63  67
ENDBRANCH  37  60
ENDBRANCH  11  12
ENDBRANCH   4   6
ENDBRANCH   1   2
BRANCH   1  71
ATOM     71  C   UNL A   1      35.744  29.775  27.662  1.00  0.00     0.042 C 
BRANCH  71  72
ATOM     72  C   UNL A   1      34.435  29.049  27.392  1.00  0.00     0.117 C 
BRANCH  72  73
ATOM     73  N   UNL A   1      33.335  29.984  27.419  1.00  0.00    -0.356 N 
ATOM     74  C   UNL A   1      32.426  30.295  26.469  1.00  0.00     0.226 C 
ATOM     75  H   UNL A   1      33.231  30.475  28.266  1.00  0.00     0.163 HD
ATOM     76  O   UNL A   1      31.838  31.370  26.619  1.00  0.00    -0.274 OA
BRANCH  74  77
ATOM     77  C   UNL A   1      32.097  29.342  25.305  1.00  0.00     0.052 C 
ATOM     78  C   UNL A   1      33.144  29.302  24.175  1.00  0.00     0.020 C 
ATOM     79  C   UNL A   1      31.762  27.922  25.821  1.00  0.00     0.020 C 
ATOM     80  C   UNL A   1      30.808  29.890  24.672  1.00  0.00     0.047 C 
ATOM     81  C   UNL A   1      32.656  28.387  23.029  1.00  0.00    -0.007 C 
ATOM     82  C   UNL A   1      31.329  27.005  24.667  1.00  0.00    -0.007 C 
ATOM     83  C   UNL A   1      30.245  28.991  23.543  1.00  0.00     0.065 C 
ATOM     84  C   UNL A   1      32.432  26.976  23.597  1.00  0.00     0.007 C 
ATOM     85  C   UNL A   1      31.333  28.923  22.438  1.00  0.00     0.034 C 
ATOM     86  C   UNL A   1      30.026  27.552  24.064  1.00  0.00     0.034 C 
BRANCH  83  87
ATOM     87  N   UNL A   1      28.966  29.613  23.131  1.00  0.00    -0.259 N 
ATOM     88  C   UNL A   1      28.616  30.891  23.547  1.00  0.00     0.195 A 
ATOM     89  N   UNL A   1      28.431  29.335  21.917  1.00  0.00    -0.173 NA
ATOM     90  C   UNL A   1      28.359  31.560  22.366  1.00  0.00     0.307 A 
ATOM     91  C   UNL A   1      28.139  30.545  21.422  1.00  0.00     0.220 A 
BRANCH  90  92
ATOM     92  N   UNL A   1      28.427  32.970  22.152  1.00  0.00     0.066 N 
ATOM     93  O   UNL A   1      29.070  33.630  22.978  1.00  0.00    -0.258 OA
ATOM     94  O   UNL A   1      27.808  33.424  21.181  1.00  0.00    -0.258 OA
ENDBRANCH  90  92
ENDBRANCH  83  87
ENDBRANCH  74  77
ENDBRANCH  72  73
ENDBRANCH  71  72
ENDBRANCH   1  71
TORSDOF 15
ENDMDL
