MODEL 1
REMARK VINA RESULT:     -12.2      0.000      0.000
REMARK SMILES C[C@@H](Cc1cnn(-c2ccccc2)n1)C(=O)NCCCNC(=O)c1ccc(-c2c3nc(c(-c4cc(S(=O)(=O)[O-])ccc4F)c4ccc([nH]4)c(-c4cc(S(=O)(=O)[O-])ccc4F)c4nc(c(-c5cc(S(=O)(=O)[O-])ccc5F)c5ccc2[nH]5)C=C4)C=C3)cc1
REMARK SMILES IDX 19 1 18 2 17 3 15 4 16 5 2 7 1 8 3 9 4 10 5 11 14 12 6 13
REMARK SMILES IDX 7 14 8 15 9 16 13 17 10 18 12 19 11 20 20 21 21 22 22 23
REMARK SMILES IDX 23 25 24 26 25 27 86 28 26 29 85 30 27 31 28 32 29 33 79 34
REMARK SMILES IDX 30 35 84 36 78 37 80 38 31 39 83 40 77 41 76 42 32 44 64 45
REMARK SMILES IDX 44 46 63 47 45 48 48 49 62 50 81 51 46 52 47 53 61 55 82 56
REMARK SMILES IDX 49 57 33 58 34 59 42 60 35 61 41 62 43 63 40 64 36 65 37 66
REMARK SMILES IDX 38 67 39 68 65 69 66 70 74 71 67 72 73 73 75 74 72 75 68 76
REMARK SMILES IDX 69 77 70 78 71 79 50 80 51 81 59 82 52 83 58 84 60 85 57 86
REMARK SMILES IDX 53 87 54 88 55 89 56 90
REMARK H PARENT 17 6 21 24 80 43 48 54
REMARK Flexibility Score: inf
ROOT
ATOM      1  C   UNL A   1      39.407  22.396  26.203  1.00  0.00     0.042 C 
ENDROOT
BRANCH   1   2
ATOM      2  C   UNL A   1      37.979  22.148  25.806  1.00  0.00     0.117 C 
BRANCH   2   3
ATOM      3  N   UNL A   1      37.673  22.112  24.407  1.00  0.00    -0.356 N 
ATOM      4  C   UNL A   1      36.636  22.780  23.822  1.00  0.00     0.223 C 
ATOM      5  O   UNL A   1      36.677  22.986  22.609  1.00  0.00    -0.275 OA
ATOM      6  H   UNL A   1      38.250  21.565  23.827  1.00  0.00     0.163 HD
BRANCH   4   7
ATOM      7  C   UNL A   1      35.414  23.217  24.641  1.00  0.00     0.081 C 
ATOM      8  C   UNL A   1      35.701  24.474  25.471  1.00  0.00     0.018 C 
BRANCH   7   9
ATOM      9  C   UNL A   1      34.046  23.120  23.911  1.00  0.00     0.073 C 
BRANCH   9  10
ATOM     10  C   UNL A   1      33.316  21.810  23.913  1.00  0.00     0.084 A 
ATOM     11  C   UNL A   1      32.363  21.333  22.995  1.00  0.00     0.161 A 
ATOM     12  N   UNL A   1      33.546  20.849  24.824  1.00  0.00    -0.153 NA
ATOM     13  N   UNL A   1      32.137  20.035  23.192  1.00  0.00    -0.157 NA
ATOM     14  N   UNL A   1      32.940  19.756  24.258  1.00  0.00    -0.151 N 
BRANCH  14  15
ATOM     15  C   UNL A   1      33.297  18.420  24.595  1.00  0.00     0.086 A 
ATOM     16  C   UNL A   1      34.573  17.936  24.252  1.00  0.00     0.030 A 
ATOM     17  C   UNL A   1      32.431  17.611  25.338  1.00  0.00     0.030 A 
ATOM     18  C   UNL A   1      34.987  16.668  24.669  1.00  0.00     0.002 A 
ATOM     19  C   UNL A   1      32.829  16.316  25.689  1.00  0.00     0.002 A 
ATOM     20  C   UNL A   1      34.108  15.854  25.377  1.00  0.00     0.000 A 
ENDBRANCH  14  15
ENDBRANCH   9  10
ENDBRANCH   7   9
ENDBRANCH   4   7
ENDBRANCH   2   3
ENDBRANCH   1   2
BRANCH   1  21
ATOM     21  C   UNL A   1      39.557  23.452  27.264  1.00  0.00     0.118 C 
BRANCH  21  22
ATOM     22  N   UNL A   1      40.843  24.130  27.261  1.00  0.00    -0.352 N 
ATOM     23  C   UNL A   1      41.189  25.450  27.331  1.00  0.00     0.251 C 
ATOM     24  H   UNL A   1      41.614  23.520  27.197  1.00  0.00     0.163 HD
ATOM     25  O   UNL A   1      42.374  25.727  27.509  1.00  0.00    -0.269 OA
BRANCH  23  26
ATOM     26  C   UNL A   1      40.204  26.541  27.322  1.00  0.00     0.039 A 
ATOM     27  C   UNL A   1      40.524  27.643  26.507  1.00  0.00     0.014 A 
ATOM     28  C   UNL A   1      39.364  26.742  28.410  1.00  0.00     0.014 A 
ATOM     29  C   UNL A   1      40.500  28.887  27.128  1.00  0.00     0.010 A 
ATOM     30  C   UNL A   1      38.876  27.996  28.558  1.00  0.00     0.010 A 
ATOM     31  C   UNL A   1      39.887  28.921  28.356  1.00  0.00    -0.014 A 
BRANCH  31  32
ATOM     32  C   UNL A   1      40.294  29.653  29.558  1.00  0.00     0.031 A 
ATOM     33  C   UNL A   1      39.130  30.401  30.100  1.00  0.00     0.074 A 
ATOM     34  C   UNL A   1      41.295  29.462  30.440  1.00  0.00     0.049 A 
ATOM     35  N   UNL A   1      38.605  31.433  29.522  1.00  0.00    -0.248 NA
ATOM     36  C   UNL A   1      38.227  29.696  31.037  1.00  0.00     0.031 C 
ATOM     37  C   UNL A   1      42.307  28.420  30.580  1.00  0.00     0.029 A 
ATOM     38  N   UNL A   1      41.519  30.242  31.535  1.00  0.00    -0.354 N 
ATOM     39  C   UNL A   1      37.423  31.643  30.198  1.00  0.00     0.074 A 
ATOM     40  C   UNL A   1      37.103  30.365  30.765  1.00  0.00     0.031 C 
ATOM     41  C   UNL A   1      42.927  28.561  31.785  1.00  0.00     0.029 A 
ATOM     42  C   UNL A   1      42.433  29.760  32.456  1.00  0.00     0.049 A 
ATOM     43  H   UNL A   1      41.055  31.101  31.664  1.00  0.00     0.167 HD
ATOM     44  C   UNL A   1      37.006  32.894  30.541  1.00  0.00     0.034 A 
ATOM     45  C   UNL A   1      42.676  30.308  33.682  1.00  0.00     0.034 A 
ATOM     46  C   UNL A   1      37.988  33.877  30.086  1.00  0.00     0.049 A 
ATOM     47  C   UNL A   1      42.109  31.694  33.661  1.00  0.00     0.074 A 
ATOM     48  C   UNL A   1      38.528  34.215  28.855  1.00  0.00     0.029 A 
ATOM     49  N   UNL A   1      38.920  34.315  31.017  1.00  0.00    -0.354 N 
ATOM     50  N   UNL A   1      42.551  32.647  32.882  1.00  0.00    -0.248 NA
ATOM     51  C   UNL A   1      40.740  31.890  34.131  1.00  0.00     0.031 C 
ATOM     52  C   UNL A   1      39.933  34.362  29.089  1.00  0.00     0.029 A 
ATOM     53  C   UNL A   1      40.173  34.203  30.457  1.00  0.00     0.049 A 
ATOM     54  H   UNL A   1      38.719  34.648  31.922  1.00  0.00     0.167 HD
ATOM     55  C   UNL A   1      41.420  33.316  32.430  1.00  0.00     0.074 A 
ATOM     56  C   UNL A   1      40.345  32.871  33.312  1.00  0.00     0.031 C 
ATOM     57  C   UNL A   1      41.393  33.921  31.202  1.00  0.00     0.034 A 
BRANCH  44  58
ATOM     58  C   UNL A   1      36.002  33.202  31.629  1.00  0.00     0.023 A 
ATOM     59  C   UNL A   1      34.887  33.962  31.244  1.00  0.00     0.031 A 
ATOM     60  C   UNL A   1      36.115  32.967  33.018  1.00  0.00     0.131 A 
ATOM     61  C   UNL A   1      34.069  34.586  32.197  1.00  0.00     0.055 A 
ATOM     62  C   UNL A   1      35.299  33.585  33.967  1.00  0.00     0.041 A 
ATOM     63  F   UNL A   1      37.007  32.137  33.560  1.00  0.00    -0.206 F 
ATOM     64  C   UNL A   1      34.290  34.433  33.561  1.00  0.00     0.022 A 
BRANCH  61  65
ATOM     65  S   UNL A   1      32.789  35.708  31.602  1.00  0.00     0.124 S 
ATOM     66  O   UNL A   1      33.428  37.006  31.792  1.00  0.00    -0.237 OA
ATOM     67  O   UNL A   1      32.626  35.264  30.222  1.00  0.00    -0.237 OA
ATOM     68  O   UNL A   1      31.662  35.429  32.488  1.00  0.00    -0.744 OA
ENDBRANCH  61  65
ENDBRANCH  44  58
BRANCH  45  69
ATOM     69  C   UNL A   1      43.111  29.635  34.942  1.00  0.00     0.023 A 
ATOM     70  C   UNL A   1      42.452  28.509  35.490  1.00  0.00     0.031 A 
ATOM     71  C   UNL A   1      44.357  29.971  35.516  1.00  0.00     0.131 A 
ATOM     72  C   UNL A   1      43.034  27.786  36.561  1.00  0.00     0.055 A 
ATOM     73  C   UNL A   1      44.924  29.260  36.577  1.00  0.00     0.041 A 
ATOM     74  F   UNL A   1      45.112  30.955  35.003  1.00  0.00    -0.206 F 
ATOM     75  C   UNL A   1      44.267  28.159  37.101  1.00  0.00     0.022 A 
BRANCH  72  76
ATOM     76  S   UNL A   1      42.239  26.278  37.216  1.00  0.00     0.124 S 
ATOM     77  O   UNL A   1      43.048  25.981  38.388  1.00  0.00    -0.237 OA
ATOM     78  O   UNL A   1      40.871  26.729  37.467  1.00  0.00    -0.237 OA
ATOM     79  O   UNL A   1      42.368  25.318  36.118  1.00  0.00    -0.744 OA
ENDBRANCH  72  76
ENDBRANCH  45  69
BRANCH  57  80
ATOM     80  C   UNL A   1      42.711  34.106  30.463  1.00  0.00     0.023 A 
ATOM     81  C   UNL A   1      43.241  33.205  29.511  1.00  0.00     0.031 A 
ATOM     82  C   UNL A   1      43.394  35.320  30.652  1.00  0.00     0.131 A 
ATOM     83  C   UNL A   1      44.411  33.534  28.795  1.00  0.00     0.055 A 
ATOM     84  C   UNL A   1      44.540  35.652  29.929  1.00  0.00     0.041 A 
ATOM     85  F   UNL A   1      42.935  36.232  31.526  1.00  0.00    -0.206 F 
ATOM     86  C   UNL A   1      45.057  34.756  29.000  1.00  0.00     0.022 A 
BRANCH  83  87
ATOM     87  S   UNL A   1      45.120  32.370  27.584  1.00  0.00     0.124 S 
ATOM     88  O   UNL A   1      43.946  31.752  26.979  1.00  0.00    -0.237 OA
ATOM     89  O   UNL A   1      45.899  33.253  26.721  1.00  0.00    -0.237 OA
ATOM     90  O   UNL A   1      45.924  31.467  28.412  1.00  0.00    -0.744 OA
ENDBRANCH  83  87
ENDBRANCH  57  80
ENDBRANCH  31  32
ENDBRANCH  23  26
ENDBRANCH  21  22
ENDBRANCH   1  21
TORSDOF 16
ENDMDL
MODEL 2
REMARK VINA RESULT:     -12.1      5.182     10.899
REMARK SMILES C[C@@H](Cc1cnn(-c2ccccc2)n1)C(=O)NCCCNC(=O)c1ccc(-c2c3nc(c(-c4cc(S(=O)(=O)[O-])ccc4F)c4ccc([nH]4)c(-c4cc(S(=O)(=O)[O-])ccc4F)c4nc(c(-c5cc(S(=O)(=O)[O-])ccc5F)c5ccc2[nH]5)C=C4)C=C3)cc1
REMARK SMILES IDX 19 1 18 2 17 3 15 4 16 5 2 7 1 8 3 9 4 10 5 11 14 12 6 13
REMARK SMILES IDX 7 14 8 15 9 16 13 17 10 18 12 19 11 20 20 21 21 22 22 23
REMARK SMILES IDX 23 25 24 26 25 27 86 28 26 29 85 30 27 31 28 32 29 33 79 34
REMARK SMILES IDX 30 35 84 36 78 37 80 38 31 39 83 40 77 41 76 42 32 44 64 45
REMARK SMILES IDX 44 46 63 47 45 48 48 49 62 50 81 51 46 52 47 53 61 55 82 56
REMARK SMILES IDX 49 57 33 58 34 59 42 60 35 61 41 62 43 63 40 64 36 65 37 66
REMARK SMILES IDX 38 67 39 68 65 69 66 70 74 71 67 72 73 73 75 74 72 75 68 76
REMARK SMILES IDX 69 77 70 78 71 79 50 80 51 81 59 82 52 83 58 84 60 85 57 86
REMARK SMILES IDX 53 87 54 88 55 89 56 90
REMARK H PARENT 17 6 21 24 80 43 48 54
REMARK Flexibility Score: inf
ROOT
ATOM      1  C   UNL A   1      34.715  29.843  27.920  1.00  0.00     0.042 C 
ENDROOT
BRANCH   1   2
ATOM      2  C   UNL A   1      34.095  29.263  26.680  1.00  0.00     0.117 C 
BRANCH   2   3
ATOM      3  N   UNL A   1      32.757  28.761  26.776  1.00  0.00    -0.356 N 
ATOM      4  C   UNL A   1      32.403  27.456  26.590  1.00  0.00     0.223 C 
ATOM      5  O   UNL A   1      31.329  27.064  27.049  1.00  0.00    -0.275 OA
ATOM      6  H   UNL A   1      32.042  29.402  26.991  1.00  0.00     0.163 HD
BRANCH   4   7
ATOM      7  C   UNL A   1      33.290  26.504  25.775  1.00  0.00     0.081 C 
ATOM      8  C   UNL A   1      32.912  25.035  26.005  1.00  0.00     0.018 C 
BRANCH   7   9
ATOM      9  C   UNL A   1      33.609  26.957  24.325  1.00  0.00     0.073 C 
BRANCH   9  10
ATOM     10  C   UNL A   1      32.485  27.431  23.452  1.00  0.00     0.084 A 
ATOM     11  C   UNL A   1      31.647  26.676  22.611  1.00  0.00     0.161 A 
ATOM     12  N   UNL A   1      32.085  28.713  23.411  1.00  0.00    -0.153 NA
ATOM     13  N   UNL A   1      30.616  27.413  22.201  1.00  0.00    -0.157 NA
ATOM     14  N   UNL A   1      30.871  28.622  22.779  1.00  0.00    -0.151 N 
BRANCH  14  15
ATOM     15  C   UNL A   1      29.859  29.615  22.912  1.00  0.00     0.086 A 
ATOM     16  C   UNL A   1      28.729  29.570  22.074  1.00  0.00     0.030 A 
ATOM     17  C   UNL A   1      29.931  30.582  23.920  1.00  0.00     0.030 A 
ATOM     18  C   UNL A   1      27.672  30.465  22.261  1.00  0.00     0.002 A 
ATOM     19  C   UNL A   1      28.899  31.518  24.052  1.00  0.00     0.002 A 
ATOM     20  C   UNL A   1      27.765  31.447  23.242  1.00  0.00     0.000 A 
ENDBRANCH  14  15
ENDBRANCH   9  10
ENDBRANCH   7   9
ENDBRANCH   4   7
ENDBRANCH   2   3
ENDBRANCH   1   2
BRANCH   1  21
ATOM     21  C   UNL A   1      35.892  30.737  27.637  1.00  0.00     0.118 C 
BRANCH  21  22
ATOM     22  N   UNL A   1      36.724  31.021  28.796  1.00  0.00    -0.352 N 
ATOM     23  C   UNL A   1      37.712  30.311  29.417  1.00  0.00     0.251 C 
ATOM     24  H   UNL A   1      36.540  31.894  29.212  1.00  0.00     0.163 HD
ATOM     25  O   UNL A   1      38.389  30.887  30.268  1.00  0.00    -0.269 OA
BRANCH  23  26
ATOM     26  C   UNL A   1      38.078  28.939  29.036  1.00  0.00     0.039 A 
ATOM     27  C   UNL A   1      38.183  28.020  30.096  1.00  0.00     0.014 A 
ATOM     28  C   UNL A   1      38.805  28.700  27.876  1.00  0.00     0.014 A 
ATOM     29  C   UNL A   1      39.379  27.315  30.175  1.00  0.00     0.010 A 
ATOM     30  C   UNL A   1      39.520  27.551  27.851  1.00  0.00     0.010 A 
ATOM     31  C   UNL A   1      40.175  27.379  29.059  1.00  0.00    -0.014 A 
BRANCH  31  32
ATOM     32  C   UNL A   1      41.633  27.507  28.985  1.00  0.00     0.031 A 
ATOM     33  C   UNL A   1      42.183  26.428  28.125  1.00  0.00     0.074 A 
ATOM     34  C   UNL A   1      42.461  28.556  29.163  1.00  0.00     0.049 A 
ATOM     35  N   UNL A   1      42.204  25.179  28.462  1.00  0.00    -0.248 NA
ATOM     36  C   UNL A   1      42.254  26.672  26.666  1.00  0.00     0.031 C 
ATOM     37  C   UNL A   1      42.225  29.972  29.422  1.00  0.00     0.029 A 
ATOM     38  N   UNL A   1      43.818  28.500  29.033  1.00  0.00    -0.354 N 
ATOM     39  C   UNL A   1      42.537  24.514  27.302  1.00  0.00     0.074 A 
ATOM     40  C   UNL A   1      42.142  25.407  26.252  1.00  0.00     0.031 C 
ATOM     41  C   UNL A   1      43.395  30.653  29.270  1.00  0.00     0.029 A 
ATOM     42  C   UNL A   1      44.482  29.714  29.009  1.00  0.00     0.049 A 
ATOM     43  H   UNL A   1      44.297  27.643  28.958  1.00  0.00     0.167 HD
ATOM     44  C   UNL A   1      43.421  23.478  27.299  1.00  0.00     0.034 A 
ATOM     45  C   UNL A   1      45.808  29.878  28.729  1.00  0.00     0.034 A 
ATOM     46  C   UNL A   1      43.903  23.244  28.659  1.00  0.00     0.049 A 
ATOM     47  C   UNL A   1      46.454  28.533  28.869  1.00  0.00     0.074 A 
ATOM     48  C   UNL A   1      43.296  22.937  29.867  1.00  0.00     0.029 A 
ATOM     49  N   UNL A   1      45.119  23.819  29.006  1.00  0.00    -0.354 N 
ATOM     50  N   UNL A   1      46.527  27.878  29.998  1.00  0.00    -0.248 NA
ATOM     51  C   UNL A   1      46.571  27.695  27.679  1.00  0.00     0.031 C 
ATOM     52  C   UNL A   1      43.930  23.786  30.831  1.00  0.00     0.029 A 
ATOM     53  C   UNL A   1      44.950  24.496  30.193  1.00  0.00     0.049 A 
ATOM     54  H   UNL A   1      45.956  23.753  28.491  1.00  0.00     0.167 HD
ATOM     55  C   UNL A   1      46.274  26.550  29.677  1.00  0.00     0.074 A 
ATOM     56  C   UNL A   1      46.411  26.483  28.225  1.00  0.00     0.031 C 
ATOM     57  C   UNL A   1      45.677  25.701  30.571  1.00  0.00     0.034 A 
BRANCH  44  58
ATOM     58  C   UNL A   1      44.175  22.989  26.082  1.00  0.00     0.023 A 
ATOM     59  C   UNL A   1      43.898  21.677  25.669  1.00  0.00     0.031 A 
ATOM     60  C   UNL A   1      45.241  23.618  25.400  1.00  0.00     0.131 A 
ATOM     61  C   UNL A   1      44.746  21.000  24.781  1.00  0.00     0.055 A 
ATOM     62  C   UNL A   1      46.085  22.946  24.514  1.00  0.00     0.041 A 
ATOM     63  F   UNL A   1      45.549  24.909  25.534  1.00  0.00    -0.206 F 
ATOM     64  C   UNL A   1      45.863  21.615  24.227  1.00  0.00     0.022 A 
BRANCH  61  65
ATOM     65  S   UNL A   1      44.423  19.253  24.473  1.00  0.00     0.124 S 
ATOM     66  O   UNL A   1      43.053  19.120  24.959  1.00  0.00    -0.237 OA
ATOM     67  O   UNL A   1      44.606  19.170  23.029  1.00  0.00    -0.237 OA
ATOM     68  O   UNL A   1      45.440  18.578  25.274  1.00  0.00    -0.744 OA
ENDBRANCH  61  65
ENDBRANCH  44  58
BRANCH  45  69
ATOM     69  C   UNL A   1      46.497  31.039  28.092  1.00  0.00     0.023 A 
ATOM     70  C   UNL A   1      45.882  31.875  27.131  1.00  0.00     0.031 A 
ATOM     71  C   UNL A   1      47.733  31.484  28.609  1.00  0.00     0.131 A 
ATOM     72  C   UNL A   1      46.505  33.082  26.724  1.00  0.00     0.055 A 
ATOM     73  C   UNL A   1      48.347  32.671  28.200  1.00  0.00     0.041 A 
ATOM     74  F   UNL A   1      48.347  30.820  29.601  1.00  0.00    -0.206 F 
ATOM     75  C   UNL A   1      47.732  33.480  27.259  1.00  0.00     0.022 A 
BRANCH  72  76
ATOM     76  S   UNL A   1      45.680  34.215  25.553  1.00  0.00     0.124 S 
ATOM     77  O   UNL A   1      44.895  33.302  24.735  1.00  0.00    -0.237 OA
ATOM     78  O   UNL A   1      44.929  35.096  26.447  1.00  0.00    -0.237 OA
ATOM     79  O   UNL A   1      46.794  34.863  24.860  1.00  0.00    -0.744 OA
ENDBRANCH  72  76
ENDBRANCH  45  69
BRANCH  57  80
ATOM     80  C   UNL A   1      45.563  26.150  32.020  1.00  0.00     0.023 A 
ATOM     81  C   UNL A   1      44.441  26.803  32.582  1.00  0.00     0.031 A 
ATOM     82  C   UNL A   1      46.599  25.782  32.896  1.00  0.00     0.131 A 
ATOM     83  C   UNL A   1      44.390  27.065  33.967  1.00  0.00     0.055 A 
ATOM     84  C   UNL A   1      46.538  26.025  34.269  1.00  0.00     0.041 A 
ATOM     85  F   UNL A   1      47.686  25.139  32.434  1.00  0.00    -0.206 F 
ATOM     86  C   UNL A   1      45.433  26.673  34.810  1.00  0.00     0.022 A 
BRANCH  83  87
ATOM     87  S   UNL A   1      42.962  27.930  34.698  1.00  0.00     0.124 S 
ATOM     88  O   UNL A   1      43.355  28.122  36.089  1.00  0.00    -0.237 OA
ATOM     89  O   UNL A   1      42.876  29.138  33.882  1.00  0.00    -0.237 OA
ATOM     90  O   UNL A   1      41.857  26.987  34.502  1.00  0.00    -0.744 OA
ENDBRANCH  83  87
ENDBRANCH  57  80
ENDBRANCH  31  32
ENDBRANCH  23  26
ENDBRANCH  21  22
ENDBRANCH   1  21
TORSDOF 16
ENDMDL
MODEL 3
REMARK VINA RESULT:     -12.0      6.264     14.065
REMARK SMILES C[C@@H](Cc1cnn(-c2ccccc2)n1)C(=O)NCCCNC(=O)c1ccc(-c2c3nc(c(-c4cc(S(=O)(=O)[O-])ccc4F)c4ccc([nH]4)c(-c4cc(S(=O)(=O)[O-])ccc4F)c4nc(c(-c5cc(S(=O)(=O)[O-])ccc5F)c5ccc2[nH]5)C=C4)C=C3)cc1
REMARK SMILES IDX 19 1 18 2 17 3 15 4 16 5 2 7 1 8 3 9 4 10 5 11 14 12 6 13
REMARK SMILES IDX 7 14 8 15 9 16 13 17 10 18 12 19 11 20 20 21 21 22 22 23
REMARK SMILES IDX 23 25 24 26 25 27 86 28 26 29 85 30 27 31 28 32 29 33 79 34
REMARK SMILES IDX 30 35 84 36 78 37 80 38 31 39 83 40 77 41 76 42 32 44 64 45
REMARK SMILES IDX 44 46 63 47 45 48 48 49 62 50 81 51 46 52 47 53 61 55 82 56
REMARK SMILES IDX 49 57 33 58 34 59 42 60 35 61 41 62 43 63 40 64 36 65 37 66
REMARK SMILES IDX 38 67 39 68 65 69 66 70 74 71 67 72 73 73 75 74 72 75 68 76
REMARK SMILES IDX 69 77 70 78 71 79 50 80 51 81 59 82 52 83 58 84 60 85 57 86
REMARK SMILES IDX 53 87 54 88 55 89 56 90
REMARK H PARENT 17 6 21 24 80 43 48 54
REMARK Flexibility Score: inf
ROOT
ATOM      1  C   UNL A   1      42.410  39.355  27.526  1.00  0.00     0.042 C 
ENDROOT
BRANCH   1   2
ATOM      2  C   UNL A   1      42.505  40.774  27.041  1.00  0.00     0.117 C 
BRANCH   2   3
ATOM      3  N   UNL A   1      41.907  41.089  25.778  1.00  0.00    -0.356 N 
ATOM      4  C   UNL A   1      42.561  41.678  24.736  1.00  0.00     0.223 C 
ATOM      5  O   UNL A   1      42.087  41.568  23.603  1.00  0.00    -0.275 OA
ATOM      6  H   UNL A   1      40.956  40.865  25.655  1.00  0.00     0.163 HD
BRANCH   4   7
ATOM      7  C   UNL A   1      43.827  42.514  24.966  1.00  0.00     0.081 C 
ATOM      8  C   UNL A   1      45.077  41.634  25.097  1.00  0.00     0.018 C 
BRANCH   7   9
ATOM      9  C   UNL A   1      43.936  43.816  24.127  1.00  0.00     0.073 C 
BRANCH   9  10
ATOM     10  C   UNL A   1      44.319  43.715  22.681  1.00  0.00     0.084 A 
ATOM     11  C   UNL A   1      45.165  42.778  22.059  1.00  0.00     0.161 A 
ATOM     12  N   UNL A   1      43.820  44.528  21.735  1.00  0.00    -0.153 NA
ATOM     13  N   UNL A   1      45.055  42.860  20.734  1.00  0.00    -0.157 NA
ATOM     14  N   UNL A   1      44.161  43.878  20.576  1.00  0.00    -0.151 N 
BRANCH  14  15
ATOM     15  C   UNL A   1      43.471  44.083  19.348  1.00  0.00     0.086 A 
ATOM     16  C   UNL A   1      42.080  44.299  19.362  1.00  0.00     0.030 A 
ATOM     17  C   UNL A   1      44.168  44.159  18.137  1.00  0.00     0.030 A 
ATOM     18  C   UNL A   1      41.399  44.612  18.183  1.00  0.00     0.002 A 
ATOM     19  C   UNL A   1      43.465  44.403  16.953  1.00  0.00     0.002 A 
ATOM     20  C   UNL A   1      42.091  44.652  16.977  1.00  0.00     0.000 A 
ENDBRANCH  14  15
ENDBRANCH   9  10
ENDBRANCH   7   9
ENDBRANCH   4   7
ENDBRANCH   2   3
ENDBRANCH   1   2
BRANCH   1  21
ATOM     21  C   UNL A   1      43.580  38.504  27.115  1.00  0.00     0.118 C 
BRANCH  21  22
ATOM     22  N   UNL A   1      43.216  37.227  26.521  1.00  0.00    -0.352 N 
ATOM     23  C   UNL A   1      43.086  35.972  27.043  1.00  0.00     0.251 C 
ATOM     24  H   UNL A   1      43.024  37.278  25.556  1.00  0.00     0.163 HD
ATOM     25  O   UNL A   1      42.567  35.105  26.340  1.00  0.00    -0.269 OA
BRANCH  23  26
ATOM     26  C   UNL A   1      43.426  35.639  28.434  1.00  0.00     0.039 A 
ATOM     27  C   UNL A   1      44.046  34.390  28.627  1.00  0.00     0.014 A 
ATOM     28  C   UNL A   1      42.711  36.196  29.486  1.00  0.00     0.014 A 
ATOM     29  C   UNL A   1      43.448  33.553  29.563  1.00  0.00     0.010 A 
ATOM     30  C   UNL A   1      42.722  35.497  30.645  1.00  0.00     0.010 A 
ATOM     31  C   UNL A   1      42.524  34.151  30.384  1.00  0.00    -0.014 A 
BRANCH  31  32
ATOM     32  C   UNL A   1      41.240  33.621  30.850  1.00  0.00     0.031 A 
ATOM     33  C   UNL A   1      41.232  33.574  32.335  1.00  0.00     0.074 A 
ATOM     34  C   UNL A   1      40.017  33.579  30.283  1.00  0.00     0.049 A 
ATOM     35  N   UNL A   1      41.946  32.750  33.032  1.00  0.00    -0.248 NA
ATOM     36  C   UNL A   1      40.808  34.789  33.066  1.00  0.00     0.031 C 
ATOM     37  C   UNL A   1      39.487  34.107  29.031  1.00  0.00     0.029 A 
ATOM     38  N   UNL A   1      38.907  33.058  30.879  1.00  0.00    -0.354 N 
ATOM     39  C   UNL A   1      41.845  33.215  34.325  1.00  0.00     0.074 A 
ATOM     40  C   UNL A   1      41.518  34.604  34.181  1.00  0.00     0.031 C 
ATOM     41  C   UNL A   1      38.128  34.009  29.047  1.00  0.00     0.029 A 
ATOM     42  C   UNL A   1      37.699  33.318  30.259  1.00  0.00     0.049 A 
ATOM     43  H   UNL A   1      38.964  32.526  31.706  1.00  0.00     0.167 HD
ATOM     44  C   UNL A   1      41.675  32.369  35.380  1.00  0.00     0.034 A 
ATOM     45  C   UNL A   1      36.470  33.024  30.777  1.00  0.00     0.034 A 
ATOM     46  C   UNL A   1      41.622  30.991  34.896  1.00  0.00     0.049 A 
ATOM     47  C   UNL A   1      36.688  32.036  31.882  1.00  0.00     0.074 A 
ATOM     48  C   UNL A   1      42.483  30.180  34.173  1.00  0.00     0.029 A 
ATOM     49  N   UNL A   1      40.364  30.437  34.703  1.00  0.00    -0.354 N 
ATOM     50  N   UNL A   1      37.163  30.832  31.696  1.00  0.00    -0.248 NA
ATOM     51  C   UNL A   1      36.854  32.543  33.241  1.00  0.00     0.031 C 
ATOM     52  C   UNL A   1      41.656  29.522  33.207  1.00  0.00     0.029 A 
ATOM     53  C   UNL A   1      40.326  29.884  33.443  1.00  0.00     0.049 A 
ATOM     54  H   UNL A   1      39.626  30.440  35.356  1.00  0.00     0.167 HD
ATOM     55  C   UNL A   1      38.039  30.608  32.751  1.00  0.00     0.074 A 
ATOM     56  C   UNL A   1      37.729  31.653  33.723  1.00  0.00     0.031 C 
ATOM     57  C   UNL A   1      39.135  29.799  32.609  1.00  0.00     0.034 A 
BRANCH  44  58
ATOM     58  C   UNL A   1      41.122  32.771  36.730  1.00  0.00     0.023 A 
ATOM     59  C   UNL A   1      39.818  32.340  37.017  1.00  0.00     0.031 A 
ATOM     60  C   UNL A   1      41.681  33.660  37.676  1.00  0.00     0.131 A 
ATOM     61  C   UNL A   1      39.080  32.906  38.065  1.00  0.00     0.055 A 
ATOM     62  C   UNL A   1      40.946  34.222  38.722  1.00  0.00     0.041 A 
ATOM     63  F   UNL A   1      42.955  34.050  37.666  1.00  0.00    -0.206 F 
ATOM     64  C   UNL A   1      39.623  33.875  38.900  1.00  0.00     0.022 A 
BRANCH  61  65
ATOM     65  S   UNL A   1      37.346  32.436  38.225  1.00  0.00     0.124 S 
ATOM     66  O   UNL A   1      37.392  31.025  37.856  1.00  0.00    -0.237 OA
ATOM     67  O   UNL A   1      37.090  32.727  39.631  1.00  0.00    -0.237 OA
ATOM     68  O   UNL A   1      36.673  33.312  37.270  1.00  0.00    -0.744 OA
ENDBRANCH  61  65
ENDBRANCH  44  58
BRANCH  45  69
ATOM     69  C   UNL A   1      35.171  33.730  30.573  1.00  0.00     0.023 A 
ATOM     70  C   UNL A   1      34.645  34.670  31.490  1.00  0.00     0.031 A 
ATOM     71  C   UNL A   1      34.523  33.647  29.321  1.00  0.00     0.131 A 
ATOM     72  C   UNL A   1      33.523  35.463  31.142  1.00  0.00     0.055 A 
ATOM     73  C   UNL A   1      33.411  34.425  28.985  1.00  0.00     0.041 A 
ATOM     74  F   UNL A   1      35.005  32.864  28.343  1.00  0.00    -0.206 F 
ATOM     75  C   UNL A   1      32.909  35.343  29.893  1.00  0.00     0.022 A 
BRANCH  72  76
ATOM     76  S   UNL A   1      32.891  36.745  32.280  1.00  0.00     0.124 S 
ATOM     77  O   UNL A   1      33.798  36.632  33.412  1.00  0.00    -0.237 OA
ATOM     78  O   UNL A   1      33.003  37.960  31.475  1.00  0.00    -0.237 OA
ATOM     79  O   UNL A   1      31.517  36.320  32.546  1.00  0.00    -0.744 OA
ENDBRANCH  72  76
ENDBRANCH  45  69
BRANCH  57  80
ATOM     80  C   UNL A   1      39.219  28.916  31.372  1.00  0.00     0.023 A 
ATOM     81  C   UNL A   1      39.906  29.249  30.181  1.00  0.00     0.031 A 
ATOM     82  C   UNL A   1      38.676  27.622  31.462  1.00  0.00     0.131 A 
ATOM     83  C   UNL A   1      40.025  28.305  29.141  1.00  0.00     0.055 A 
ATOM     84  C   UNL A   1      38.811  26.683  30.439  1.00  0.00     0.041 A 
ATOM     85  F   UNL A   1      38.029  27.231  32.573  1.00  0.00    -0.206 F 
ATOM     86  C   UNL A   1      39.483  27.023  29.271  1.00  0.00     0.022 A 
BRANCH  83  87
ATOM     87  S   UNL A   1      40.884  28.731  27.591  1.00  0.00     0.124 S 
ATOM     88  O   UNL A   1      41.472  27.466  27.168  1.00  0.00    -0.237 OA
ATOM     89  O   UNL A   1      39.797  29.244  26.761  1.00  0.00    -0.237 OA
ATOM     90  O   UNL A   1      41.857  29.744  28.009  1.00  0.00    -0.744 OA
ENDBRANCH  83  87
ENDBRANCH  57  80
ENDBRANCH  31  32
ENDBRANCH  23  26
ENDBRANCH  21  22
ENDBRANCH   1  21
TORSDOF 16
ENDMDL
