MODEL 1
REMARK VINA RESULT:     -12.9      0.000      0.000
REMARK SMILES O=C(NCCCNC(=O)[C@H]1Cc2c([nH]c3ccccc23)[C@@H](c2ccc(OC(F)(F)F)cc2)[NH2+]1)c1ccc(-c2c3nc(c(-c4cc(S(=O)(=O)[O-])ccc4F)c4ccc([nH]4)c(-c4cc(S(=O)(=O)[O-])ccc4F)c4nc(c(-c5cc(S(=O)(=O)[O-])ccc5F)c5ccc2[nH]5)C=C4)C=C3)cc1
REMARK SMILES IDX 5 1 4 2 3 3 1 4 2 5 34 7 35 8 96 9 36 10 95 11 37 12 38 13
REMARK SMILES IDX 39 14 89 15 40 16 94 17 88 18 90 19 41 20 93 21 87 22 86 23
REMARK SMILES IDX 42 25 74 26 54 27 73 28 55 29 58 30 72 31 91 32 56 33 57 34
REMARK SMILES IDX 71 36 92 37 59 38 43 39 44 40 52 41 45 42 51 43 53 44 50 45
REMARK SMILES IDX 46 46 47 47 48 48 49 49 75 50 76 51 84 52 77 53 83 54 85 55
REMARK SMILES IDX 82 56 78 57 79 58 80 59 81 60 60 61 61 62 69 63 62 64 68 65
REMARK SMILES IDX 70 66 67 67 63 68 64 69 65 70 66 71 6 72 7 73 8 74 9 76
REMARK SMILES IDX 10 77 11 78 33 79 12 80 21 81 13 84 20 85 14 86 15 87 19 88
REMARK SMILES IDX 16 90 18 91 17 92 22 93 23 94 32 95 24 96 31 97 25 98 26 99
REMARK SMILES IDX 27 100 28 101 29 102 30 103
REMARK H PARENT 3 6 90 24 58 35 7 75 33 82 33 83 14 89
REMARK Flexibility Score: inf
ROOT
ATOM      1  C   UNL A   1      33.351  28.781  23.570  1.00  0.00     0.042 C 
ENDROOT
BRANCH   1   2
ATOM      2  C   UNL A   1      33.606  28.968  25.061  1.00  0.00     0.118 C 
BRANCH   2   3
ATOM      3  N   UNL A   1      32.916  30.131  25.597  1.00  0.00    -0.352 N 
ATOM      4  O   UNL A   1      32.368  31.707  27.099  1.00  0.00    -0.269 OA
ATOM      5  C   UNL A   1      33.206  30.898  26.697  1.00  0.00     0.251 C 
ATOM      6  H   UNL A   1      32.119  30.412  25.093  1.00  0.00     0.163 HD
BRANCH   5   7
ATOM      7  C   UNL A   1      34.499  30.759  27.407  1.00  0.00     0.039 A 
ATOM      8  C   UNL A   1      35.365  31.844  27.561  1.00  0.00     0.014 A 
ATOM      9  C   UNL A   1      34.822  29.526  27.983  1.00  0.00     0.014 A 
ATOM     10  C   UNL A   1      36.601  31.670  28.183  1.00  0.00     0.010 A 
ATOM     11  C   UNL A   1      36.028  29.372  28.670  1.00  0.00     0.010 A 
ATOM     12  C   UNL A   1      36.940  30.436  28.757  1.00  0.00    -0.014 A 
BRANCH  12  13
ATOM     13  C   UNL A   1      38.229  30.271  29.479  1.00  0.00     0.031 A 
ATOM     14  C   UNL A   1      39.329  29.429  28.897  1.00  0.00     0.074 A 
ATOM     15  C   UNL A   1      38.396  30.868  30.674  1.00  0.00     0.049 A 
ATOM     16  N   UNL A   1      40.484  29.100  29.417  1.00  0.00    -0.248 NA
ATOM     17  C   UNL A   1      39.089  28.872  27.559  1.00  0.00     0.031 C 
ATOM     18  C   UNL A   1      37.403  31.714  31.340  1.00  0.00     0.029 A 
ATOM     19  N   UNL A   1      39.455  30.850  31.549  1.00  0.00    -0.354 N 
ATOM     20  C   UNL A   1      41.106  28.283  28.478  1.00  0.00     0.074 A 
ATOM     21  C   UNL A   1      40.175  28.135  27.377  1.00  0.00     0.031 C 
ATOM     22  C   UNL A   1      37.903  32.144  32.507  1.00  0.00     0.029 A 
ATOM     23  C   UNL A   1      39.221  31.551  32.707  1.00  0.00     0.049 A 
ATOM     24  H   UNL A   1      40.299  30.379  31.363  1.00  0.00     0.167 HD
ATOM     25  C   UNL A   1      42.341  27.719  28.528  1.00  0.00     0.034 A 
ATOM     26  C   UNL A   1      39.965  31.676  33.824  1.00  0.00     0.034 A 
ATOM     27  C   UNL A   1      43.247  27.873  29.642  1.00  0.00     0.049 A 
ATOM     28  C   UNL A   1      41.302  30.988  33.890  1.00  0.00     0.074 A 
ATOM     29  C   UNL A   1      44.529  27.367  29.788  1.00  0.00     0.029 A 
ATOM     30  N   UNL A   1      42.966  28.572  30.810  1.00  0.00    -0.354 N 
ATOM     31  N   UNL A   1      41.883  30.228  32.991  1.00  0.00    -0.248 NA
ATOM     32  C   UNL A   1      42.086  31.181  35.116  1.00  0.00     0.031 C 
ATOM     33  C   UNL A   1      44.989  27.695  31.069  1.00  0.00     0.029 A 
ATOM     34  C   UNL A   1      44.033  28.481  31.692  1.00  0.00     0.049 A 
ATOM     35  H   UNL A   1      42.130  29.062  30.986  1.00  0.00     0.167 HD
ATOM     36  C   UNL A   1      43.116  29.877  33.532  1.00  0.00     0.074 A 
ATOM     37  C   UNL A   1      43.195  30.512  34.832  1.00  0.00     0.031 C 
ATOM     38  C   UNL A   1      44.098  29.110  32.993  1.00  0.00     0.034 A 
BRANCH  25  39
ATOM     39  C   UNL A   1      42.749  26.846  27.364  1.00  0.00     0.023 A 
ATOM     40  C   UNL A   1      42.555  25.453  27.381  1.00  0.00     0.031 A 
ATOM     41  C   UNL A   1      43.393  27.402  26.244  1.00  0.00     0.131 A 
ATOM     42  C   UNL A   1      43.087  24.657  26.355  1.00  0.00     0.055 A 
ATOM     43  C   UNL A   1      43.831  26.613  25.177  1.00  0.00     0.041 A 
ATOM     44  F   UNL A   1      43.627  28.722  26.175  1.00  0.00    -0.206 F 
ATOM     45  C   UNL A   1      43.698  25.230  25.238  1.00  0.00     0.022 A 
BRANCH  42  46
ATOM     46  S   UNL A   1      43.140  22.860  26.603  1.00  0.00     0.124 S 
ATOM     47  O   UNL A   1      44.578  22.625  26.722  1.00  0.00    -0.237 OA
ATOM     48  O   UNL A   1      42.362  22.686  27.824  1.00  0.00    -0.237 OA
ATOM     49  O   UNL A   1      42.528  22.329  25.386  1.00  0.00    -0.744 OA
ENDBRANCH  42  46
ENDBRANCH  25  39
BRANCH  26  50
ATOM     50  C   UNL A   1      39.438  32.454  34.981  1.00  0.00     0.023 A 
ATOM     51  C   UNL A   1      38.797  31.817  36.054  1.00  0.00     0.031 A 
ATOM     52  C   UNL A   1      39.574  33.853  35.026  1.00  0.00     0.131 A 
ATOM     53  C   UNL A   1      38.291  32.584  37.116  1.00  0.00     0.055 A 
ATOM     54  C   UNL A   1      39.113  34.605  36.106  1.00  0.00     0.041 A 
ATOM     55  F   UNL A   1      40.186  34.509  34.025  1.00  0.00    -0.206 F 
ATOM     56  C   UNL A   1      38.459  33.970  37.157  1.00  0.00     0.022 A 
BRANCH  53  57
ATOM     57  S   UNL A   1      37.356  31.745  38.424  1.00  0.00     0.124 S 
ATOM     58  O   UNL A   1      36.164  32.579  38.518  1.00  0.00    -0.237 OA
ATOM     59  O   UNL A   1      37.165  30.414  37.854  1.00  0.00    -0.237 OA
ATOM     60  O   UNL A   1      38.254  31.804  39.575  1.00  0.00    -0.744 OA
ENDBRANCH  53  57
ENDBRANCH  26  50
BRANCH  38  61
ATOM     61  C   UNL A   1      45.374  28.966  33.787  1.00  0.00     0.023 A 
ATOM     62  C   UNL A   1      45.567  27.923  34.710  1.00  0.00     0.031 A 
ATOM     63  C   UNL A   1      46.419  29.891  33.607  1.00  0.00     0.131 A 
ATOM     64  C   UNL A   1      46.759  27.857  35.448  1.00  0.00     0.055 A 
ATOM     65  C   UNL A   1      47.623  29.787  34.302  1.00  0.00     0.041 A 
ATOM     66  F   UNL A   1      46.286  30.909  32.741  1.00  0.00    -0.206 F 
ATOM     67  C   UNL A   1      47.795  28.771  35.236  1.00  0.00     0.022 A 
BRANCH  64  68
ATOM     68  S   UNL A   1      46.914  26.600  36.748  1.00  0.00     0.124 S 
ATOM     69  O   UNL A   1      46.117  25.504  36.207  1.00  0.00    -0.237 OA
ATOM     70  O   UNL A   1      48.355  26.376  36.797  1.00  0.00    -0.237 OA
ATOM     71  O   UNL A   1      46.349  27.254  37.927  1.00  0.00    -0.744 OA
ENDBRANCH  64  68
ENDBRANCH  38  61
ENDBRANCH  12  13
ENDBRANCH   5   7
ENDBRANCH   2   3
ENDBRANCH   1   2
BRANCH   1  72
ATOM     72  C   UNL A   1      32.954  27.360  23.174  1.00  0.00     0.118 C 
BRANCH  72  73
ATOM     73  N   UNL A   1      32.024  26.756  24.113  1.00  0.00    -0.351 N 
ATOM     74  C   UNL A   1      32.069  25.543  24.751  1.00  0.00     0.278 C 
ATOM     75  H   UNL A   1      31.236  27.307  24.327  1.00  0.00     0.163 HD
ATOM     76  O   UNL A   1      31.191  25.309  25.583  1.00  0.00    -0.268 OA
BRANCH  74  77
ATOM     77  C   UNL A   1      33.225  24.573  24.452  1.00  0.00     0.277 C 
ATOM     78  C   UNL A   1      34.359  24.753  25.496  1.00  0.00     0.114 C 
ATOM     79  N   UNL A   1      32.737  23.172  24.487  1.00  0.00    -0.325 N 
ATOM     80  C   UNL A   1      35.385  23.690  25.287  1.00  0.00    -0.006 A 
ATOM     81  C   UNL A   1      33.733  22.198  23.995  1.00  0.00     0.262 C 
ATOM     82  H   UNL A   1      31.902  23.104  23.905  1.00  0.00     0.347 HD
ATOM     83  H   UNL A   1      32.541  22.941  25.462  1.00  0.00     0.347 HD
ATOM     84  C   UNL A   1      35.076  22.543  24.579  1.00  0.00     0.083 A 
ATOM     85  C   UNL A   1      36.714  23.565  25.761  1.00  0.00     0.003 A 
ATOM     86  N   UNL A   1      36.218  21.796  24.477  1.00  0.00    -0.353 N 
ATOM     87  C   UNL A   1      37.217  22.368  25.240  1.00  0.00     0.046 A 
ATOM     88  C   UNL A   1      37.535  24.340  26.601  1.00  0.00     0.010 A 
ATOM     89  H   UNL A   1      36.315  20.976  23.940  1.00  0.00     0.166 HD
ATOM     90  C   UNL A   1      38.510  21.913  25.522  1.00  0.00     0.026 A 
ATOM     91  C   UNL A   1      38.824  23.889  26.905  1.00  0.00     0.001 A 
ATOM     92  C   UNL A   1      39.302  22.694  26.370  1.00  0.00     0.002 A 
BRANCH  81  93
ATOM     93  C   UNL A   1      33.213  20.798  24.306  1.00  0.00     0.016 A 
ATOM     94  C   UNL A   1      32.695  19.939  23.325  1.00  0.00     0.014 A 
ATOM     95  C   UNL A   1      33.342  20.292  25.613  1.00  0.00     0.014 A 
ATOM     96  C   UNL A   1      32.302  18.637  23.646  1.00  0.00     0.047 A 
ATOM     97  C   UNL A   1      32.978  18.974  25.926  1.00  0.00     0.047 A 
ATOM     98  C   UNL A   1      32.462  18.138  24.939  1.00  0.00     0.129 A 
BRANCH  98  99
ATOM     99  O   UNL A   1      32.086  16.835  25.088  1.00  0.00    -0.406 OA
BRANCH  99 100
ATOM    100  C   UNL A   1      33.092  15.835  24.959  1.00  0.00     0.573 C 
ATOM    101  F   UNL A   1      33.690  15.929  23.751  1.00  0.00    -0.132 F 
ATOM    102  F   UNL A   1      33.994  15.955  25.945  1.00  0.00    -0.132 F 
ATOM    103  F   UNL A   1      32.488  14.631  25.042  1.00  0.00    -0.132 F 
ENDBRANCH  99 100
ENDBRANCH  98  99
ENDBRANCH  81  93
ENDBRANCH  74  77
ENDBRANCH  72  73
ENDBRANCH   1  72
TORSDOF 16
ENDMDL
MODEL 2
REMARK VINA RESULT:     -12.7      1.380      7.342
REMARK SMILES O=C(NCCCNC(=O)[C@H]1Cc2c([nH]c3ccccc23)[C@@H](c2ccc(OC(F)(F)F)cc2)[NH2+]1)c1ccc(-c2c3nc(c(-c4cc(S(=O)(=O)[O-])ccc4F)c4ccc([nH]4)c(-c4cc(S(=O)(=O)[O-])ccc4F)c4nc(c(-c5cc(S(=O)(=O)[O-])ccc5F)c5ccc2[nH]5)C=C4)C=C3)cc1
REMARK SMILES IDX 5 1 4 2 3 3 1 4 2 5 34 7 35 8 96 9 36 10 95 11 37 12 38 13
REMARK SMILES IDX 39 14 89 15 40 16 94 17 88 18 90 19 41 20 93 21 87 22 86 23
REMARK SMILES IDX 42 25 74 26 54 27 73 28 55 29 58 30 72 31 91 32 56 33 57 34
REMARK SMILES IDX 71 36 92 37 59 38 43 39 44 40 52 41 45 42 51 43 53 44 50 45
REMARK SMILES IDX 46 46 47 47 48 48 49 49 75 50 76 51 84 52 77 53 83 54 85 55
REMARK SMILES IDX 82 56 78 57 79 58 80 59 81 60 60 61 61 62 69 63 62 64 68 65
REMARK SMILES IDX 70 66 67 67 63 68 64 69 65 70 66 71 6 72 7 73 8 74 9 76
REMARK SMILES IDX 10 77 11 78 33 79 12 80 21 81 13 84 20 85 14 86 15 87 19 88
REMARK SMILES IDX 16 90 18 91 17 92 22 93 23 94 32 95 24 96 31 97 25 98 26 99
REMARK SMILES IDX 27 100 28 101 29 102 30 103
REMARK H PARENT 3 6 90 24 58 35 7 75 33 82 33 83 14 89
REMARK Flexibility Score: inf
ROOT
ATOM      1  C   UNL A   1      33.313  28.941  23.904  1.00  0.00     0.042 C 
ENDROOT
BRANCH   1   2
ATOM      2  C   UNL A   1      33.391  29.102  25.417  1.00  0.00     0.118 C 
BRANCH   2   3
ATOM      3  N   UNL A   1      32.964  30.421  25.855  1.00  0.00    -0.352 N 
ATOM      4  O   UNL A   1      32.764  32.187  27.227  1.00  0.00    -0.269 OA
ATOM      5  C   UNL A   1      33.411  31.191  26.899  1.00  0.00     0.251 C 
ATOM      6  H   UNL A   1      32.244  30.825  25.319  1.00  0.00     0.163 HD
BRANCH   5   7
ATOM      7  C   UNL A   1      34.645  30.836  27.637  1.00  0.00     0.039 A 
ATOM      8  C   UNL A   1      35.663  31.770  27.848  1.00  0.00     0.014 A 
ATOM      9  C   UNL A   1      34.758  29.552  28.182  1.00  0.00     0.014 A 
ATOM     10  C   UNL A   1      36.838  31.391  28.495  1.00  0.00     0.010 A 
ATOM     11  C   UNL A   1      35.905  29.196  28.895  1.00  0.00     0.010 A 
ATOM     12  C   UNL A   1      36.966  30.105  29.038  1.00  0.00    -0.014 A 
BRANCH  12  13
ATOM     13  C   UNL A   1      38.192  29.725  29.788  1.00  0.00     0.031 A 
ATOM     14  C   UNL A   1      38.446  30.270  31.166  1.00  0.00     0.074 A 
ATOM     15  C   UNL A   1      39.088  28.900  29.214  1.00  0.00     0.049 A 
ATOM     16  N   UNL A   1      39.494  30.121  31.936  1.00  0.00    -0.248 NA
ATOM     17  C   UNL A   1      37.386  31.107  31.744  1.00  0.00     0.031 C 
ATOM     18  C   UNL A   1      38.950  28.302  27.884  1.00  0.00     0.029 A 
ATOM     19  N   UNL A   1      40.295  28.428  29.666  1.00  0.00    -0.354 N 
ATOM     20  C   UNL A   1      39.228  30.858  33.086  1.00  0.00     0.074 A 
ATOM     21  C   UNL A   1      37.938  31.487  32.887  1.00  0.00     0.031 C 
ATOM     22  C   UNL A   1      40.021  27.534  27.634  1.00  0.00     0.029 A 
ATOM     23  C   UNL A   1      40.952  27.637  28.752  1.00  0.00     0.049 A 
ATOM     24  H   UNL A   1      40.655  28.635  30.558  1.00  0.00     0.167 HD
ATOM     25  C   UNL A   1      39.988  30.988  34.205  1.00  0.00     0.034 A 
ATOM     26  C   UNL A   1      42.181  27.087  28.791  1.00  0.00     0.034 A 
ATOM     27  C   UNL A   1      41.277  30.359  34.376  1.00  0.00     0.049 A 
ATOM     28  C   UNL A   1      43.037  27.297  30.011  1.00  0.00     0.074 A 
ATOM     29  C   UNL A   1      42.119  30.403  35.475  1.00  0.00     0.029 A 
ATOM     30  N   UNL A   1      41.921  29.584  33.418  1.00  0.00    -0.354 N 
ATOM     31  N   UNL A   1      42.770  27.986  31.095  1.00  0.00    -0.248 NA
ATOM     32  C   UNL A   1      44.355  26.650  30.015  1.00  0.00     0.031 C 
ATOM     33  C   UNL A   1      43.299  29.722  35.153  1.00  0.00     0.029 A 
ATOM     34  C   UNL A   1      43.161  29.175  33.887  1.00  0.00     0.049 A 
ATOM     35  H   UNL A   1      41.551  29.358  32.535  1.00  0.00     0.167 HD
ATOM     36  C   UNL A   1      43.877  27.829  31.926  1.00  0.00     0.074 A 
ATOM     37  C   UNL A   1      44.809  26.978  31.216  1.00  0.00     0.031 C 
ATOM     38  C   UNL A   1      44.091  28.334  33.167  1.00  0.00     0.034 A 
BRANCH  25  39
ATOM     39  C   UNL A   1      39.457  31.884  35.300  1.00  0.00     0.023 A 
ATOM     40  C   UNL A   1      39.866  33.224  35.422  1.00  0.00     0.031 A 
ATOM     41  C   UNL A   1      38.572  31.381  36.271  1.00  0.00     0.131 A 
ATOM     42  C   UNL A   1      39.475  33.979  36.538  1.00  0.00     0.055 A 
ATOM     43  C   UNL A   1      38.107  32.170  37.326  1.00  0.00     0.041 A 
ATOM     44  F   UNL A   1      38.160  30.104  36.223  1.00  0.00    -0.206 F 
ATOM     45  C   UNL A   1      38.575  33.471  37.476  1.00  0.00     0.022 A 
BRANCH  42  46
ATOM     46  S   UNL A   1      40.318  35.557  36.844  1.00  0.00     0.124 S 
ATOM     47  O   UNL A   1      41.703  35.214  36.529  1.00  0.00    -0.237 OA
ATOM     48  O   UNL A   1      39.655  36.457  35.908  1.00  0.00    -0.237 OA
ATOM     49  O   UNL A   1      40.055  35.816  38.259  1.00  0.00    -0.744 OA
ENDBRANCH  42  46
ENDBRANCH  25  39
BRANCH  26  50
ATOM     50  C   UNL A   1      42.683  26.318  27.617  1.00  0.00     0.023 A 
ATOM     51  C   UNL A   1      42.608  24.918  27.578  1.00  0.00     0.031 A 
ATOM     52  C   UNL A   1      43.246  26.983  26.512  1.00  0.00     0.131 A 
ATOM     53  C   UNL A   1      43.113  24.224  26.466  1.00  0.00     0.055 A 
ATOM     54  C   UNL A   1      43.701  26.292  25.389  1.00  0.00     0.041 A 
ATOM     55  F   UNL A   1      43.334  28.323  26.498  1.00  0.00    -0.206 F 
ATOM     56  C   UNL A   1      43.644  24.902  25.366  1.00  0.00     0.022 A 
BRANCH  53  57
ATOM     57  S   UNL A   1      43.119  22.411  26.503  1.00  0.00     0.124 S 
ATOM     58  O   UNL A   1      42.364  22.088  25.298  1.00  0.00    -0.237 OA
ATOM     59  O   UNL A   1      44.547  22.112  26.466  1.00  0.00    -0.237 OA
ATOM     60  O   UNL A   1      42.451  22.096  27.764  1.00  0.00    -0.744 OA
ENDBRANCH  53  57
ENDBRANCH  26  50
BRANCH  38  61
ATOM     61  C   UNL A   1      45.366  27.925  33.866  1.00  0.00     0.023 A 
ATOM     62  C   UNL A   1      45.441  26.775  34.671  1.00  0.00     0.031 A 
ATOM     63  C   UNL A   1      46.528  28.703  33.713  1.00  0.00     0.131 A 
ATOM     64  C   UNL A   1      46.642  26.461  35.326  1.00  0.00     0.055 A 
ATOM     65  C   UNL A   1      47.733  28.354  34.321  1.00  0.00     0.041 A 
ATOM     66  F   UNL A   1      46.510  29.815  32.959  1.00  0.00    -0.206 F 
ATOM     67  C   UNL A   1      47.793  27.233  35.141  1.00  0.00     0.022 A 
BRANCH  64  68
ATOM     68  S   UNL A   1      46.666  25.066  36.487  1.00  0.00     0.124 S 
ATOM     69  O   UNL A   1      45.244  24.848  36.729  1.00  0.00    -0.237 OA
ATOM     70  O   UNL A   1      47.349  24.031  35.719  1.00  0.00    -0.237 OA
ATOM     71  O   UNL A   1      47.416  25.584  37.631  1.00  0.00    -0.744 OA
ENDBRANCH  64  68
ENDBRANCH  38  61
ENDBRANCH  12  13
ENDBRANCH   5   7
ENDBRANCH   2   3
ENDBRANCH   1   2
BRANCH   1  72
ATOM     72  C   UNL A   1      32.947  27.532  23.439  1.00  0.00     0.118 C 
BRANCH  72  73
ATOM     73  N   UNL A   1      32.000  26.879  24.326  1.00  0.00    -0.351 N 
ATOM     74  C   UNL A   1      32.025  25.628  24.885  1.00  0.00     0.278 C 
ATOM     75  H   UNL A   1      31.214  27.423  24.565  1.00  0.00     0.163 HD
ATOM     76  O   UNL A   1      31.134  25.349  25.690  1.00  0.00    -0.268 OA
BRANCH  74  77
ATOM     77  C   UNL A   1      33.176  24.667  24.540  1.00  0.00     0.277 C 
ATOM     78  C   UNL A   1      34.329  24.820  25.567  1.00  0.00     0.114 C 
ATOM     79  N   UNL A   1      32.689  23.265  24.545  1.00  0.00    -0.325 N 
ATOM     80  C   UNL A   1      35.351  23.764  25.310  1.00  0.00    -0.006 A 
ATOM     81  C   UNL A   1      33.677  22.306  24.008  1.00  0.00     0.262 C 
ATOM     82  H   UNL A   1      31.845  23.212  23.977  1.00  0.00     0.347 HD
ATOM     83  H   UNL A   1      32.512  23.008  25.516  1.00  0.00     0.347 HD
ATOM     84  C   UNL A   1      35.030  22.636  24.577  1.00  0.00     0.083 A 
ATOM     85  C   UNL A   1      36.688  23.626  25.757  1.00  0.00     0.003 A 
ATOM     86  N   UNL A   1      36.171  21.893  24.434  1.00  0.00    -0.353 N 
ATOM     87  C   UNL A   1      37.182  22.445  25.195  1.00  0.00     0.046 A 
ATOM     88  C   UNL A   1      37.524  24.380  26.603  1.00  0.00     0.010 A 
ATOM     89  H   UNL A   1      36.258  21.088  23.874  1.00  0.00     0.166 HD
ATOM     90  C   UNL A   1      38.481  21.984  25.441  1.00  0.00     0.026 A 
ATOM     91  C   UNL A   1      38.818  23.921  26.871  1.00  0.00     0.001 A 
ATOM     92  C   UNL A   1      39.287  22.742  26.296  1.00  0.00     0.002 A 
BRANCH  81  93
ATOM     93  C   UNL A   1      33.163  20.897  24.290  1.00  0.00     0.016 A 
ATOM     94  C   UNL A   1      32.680  20.044  23.287  1.00  0.00     0.014 A 
ATOM     95  C   UNL A   1      33.263  20.378  25.595  1.00  0.00     0.014 A 
ATOM     96  C   UNL A   1      32.293  18.735  23.584  1.00  0.00     0.047 A 
ATOM     97  C   UNL A   1      32.904  19.054  25.885  1.00  0.00     0.047 A 
ATOM     98  C   UNL A   1      32.423  18.223  24.876  1.00  0.00     0.129 A 
BRANCH  98  99
ATOM     99  O   UNL A   1      32.057  16.914  25.001  1.00  0.00    -0.406 OA
BRANCH  99 100
ATOM    100  C   UNL A   1      33.076  15.926  24.891  1.00  0.00     0.573 C 
ATOM    101  F   UNL A   1      34.033  16.138  25.821  1.00  0.00    -0.132 F 
ATOM    102  F   UNL A   1      32.548  14.700  25.026  1.00  0.00    -0.132 F 
ATOM    103  F   UNL A   1      33.636  16.047  23.669  1.00  0.00    -0.132 F 
ENDBRANCH  99 100
ENDBRANCH  98  99
ENDBRANCH  81  93
ENDBRANCH  74  77
ENDBRANCH  72  73
ENDBRANCH   1  72
TORSDOF 16
ENDMDL
MODEL 3
REMARK VINA RESULT:     -12.4      5.036     10.936
REMARK SMILES O=C(NCCCNC(=O)[C@H]1Cc2c([nH]c3ccccc23)[C@@H](c2ccc(OC(F)(F)F)cc2)[NH2+]1)c1ccc(-c2c3nc(c(-c4cc(S(=O)(=O)[O-])ccc4F)c4ccc([nH]4)c(-c4cc(S(=O)(=O)[O-])ccc4F)c4nc(c(-c5cc(S(=O)(=O)[O-])ccc5F)c5ccc2[nH]5)C=C4)C=C3)cc1
REMARK SMILES IDX 5 1 4 2 3 3 1 4 2 5 34 7 35 8 96 9 36 10 95 11 37 12 38 13
REMARK SMILES IDX 39 14 89 15 40 16 94 17 88 18 90 19 41 20 93 21 87 22 86 23
REMARK SMILES IDX 42 25 74 26 54 27 73 28 55 29 58 30 72 31 91 32 56 33 57 34
REMARK SMILES IDX 71 36 92 37 59 38 43 39 44 40 52 41 45 42 51 43 53 44 50 45
REMARK SMILES IDX 46 46 47 47 48 48 49 49 75 50 76 51 84 52 77 53 83 54 85 55
REMARK SMILES IDX 82 56 78 57 79 58 80 59 81 60 60 61 61 62 69 63 62 64 68 65
REMARK SMILES IDX 70 66 67 67 63 68 64 69 65 70 66 71 6 72 7 73 8 74 9 76
REMARK SMILES IDX 10 77 11 78 33 79 12 80 21 81 13 84 20 85 14 86 15 87 19 88
REMARK SMILES IDX 16 90 18 91 17 92 22 93 23 94 32 95 24 96 31 97 25 98 26 99
REMARK SMILES IDX 27 100 28 101 29 102 30 103
REMARK H PARENT 3 6 90 24 58 35 7 75 33 82 33 83 14 89
REMARK Flexibility Score: inf
ROOT
ATOM      1  C   UNL A   1      36.007  23.550  24.562  1.00  0.00     0.042 C 
ENDROOT
BRANCH   1   2
ATOM      2  C   UNL A   1      36.310  23.193  26.013  1.00  0.00     0.118 C 
BRANCH   2   3
ATOM      3  N   UNL A   1      37.172  22.028  26.126  1.00  0.00    -0.352 N 
ATOM      4  O   UNL A   1      39.088  20.857  26.119  1.00  0.00    -0.269 OA
ATOM      5  C   UNL A   1      38.536  21.950  26.258  1.00  0.00     0.251 C 
ATOM      6  H   UNL A   1      36.707  21.161  26.105  1.00  0.00     0.163 HD
BRANCH   5   7
ATOM      7  C   UNL A   1      39.345  23.154  26.553  1.00  0.00     0.039 A 
ATOM      8  C   UNL A   1      39.167  24.344  25.842  1.00  0.00     0.014 A 
ATOM      9  C   UNL A   1      40.262  23.108  27.609  1.00  0.00     0.014 A 
ATOM     10  C   UNL A   1      39.984  25.444  26.102  1.00  0.00     0.010 A 
ATOM     11  C   UNL A   1      41.027  24.235  27.918  1.00  0.00     0.010 A 
ATOM     12  C   UNL A   1      40.912  25.407  27.152  1.00  0.00    -0.014 A 
BRANCH  12  13
ATOM     13  C   UNL A   1      41.733  26.604  27.473  1.00  0.00     0.031 A 
ATOM     14  C   UNL A   1      41.165  27.719  28.306  1.00  0.00     0.074 A 
ATOM     15  C   UNL A   1      42.987  26.692  26.993  1.00  0.00     0.049 A 
ATOM     16  N   UNL A   1      41.696  28.874  28.616  1.00  0.00    -0.248 NA
ATOM     17  C   UNL A   1      39.815  27.511  28.846  1.00  0.00     0.031 C 
ATOM     18  C   UNL A   1      43.650  25.672  26.178  1.00  0.00     0.029 A 
ATOM     19  N   UNL A   1      43.928  27.685  27.110  1.00  0.00    -0.354 N 
ATOM     20  C   UNL A   1      40.740  29.541  29.376  1.00  0.00     0.074 A 
ATOM     21  C   UNL A   1      39.581  28.673  29.438  1.00  0.00     0.031 C 
ATOM     22  C   UNL A   1      44.891  26.085  25.881  1.00  0.00     0.029 A 
ATOM     23  C   UNL A   1      45.089  27.424  26.423  1.00  0.00     0.049 A 
ATOM     24  H   UNL A   1      43.783  28.505  27.635  1.00  0.00     0.167 HD
ATOM     25  C   UNL A   1      40.827  30.758  29.973  1.00  0.00     0.034 A 
ATOM     26  C   UNL A   1      46.179  28.189  26.218  1.00  0.00     0.034 A 
ATOM     27  C   UNL A   1      41.990  31.611  29.888  1.00  0.00     0.049 A 
ATOM     28  C   UNL A   1      46.232  29.564  26.830  1.00  0.00     0.074 A 
ATOM     29  C   UNL A   1      42.196  32.850  30.471  1.00  0.00     0.029 A 
ATOM     30  N   UNL A   1      43.140  31.323  29.162  1.00  0.00    -0.354 N 
ATOM     31  N   UNL A   1      45.326  30.178  27.555  1.00  0.00    -0.248 NA
ATOM     32  C   UNL A   1      47.454  30.344  26.602  1.00  0.00     0.031 C 
ATOM     33  C   UNL A   1      43.433  33.342  30.037  1.00  0.00     0.029 A 
ATOM     34  C   UNL A   1      44.042  32.374  29.255  1.00  0.00     0.049 A 
ATOM     35  H   UNL A   1      43.293  30.493  28.655  1.00  0.00     0.167 HD
ATOM     36  C   UNL A   1      45.883  31.406  27.897  1.00  0.00     0.074 A 
ATOM     37  C   UNL A   1      47.204  31.442  27.301  1.00  0.00     0.031 C 
ATOM     38  C   UNL A   1      45.354  32.405  28.648  1.00  0.00     0.034 A 
BRANCH  25  39
ATOM     39  C   UNL A   1      39.610  31.250  30.721  1.00  0.00     0.023 A 
ATOM     40  C   UNL A   1      39.562  31.265  32.126  1.00  0.00     0.031 A 
ATOM     41  C   UNL A   1      38.458  31.658  30.024  1.00  0.00     0.131 A 
ATOM     42  C   UNL A   1      38.363  31.579  32.785  1.00  0.00     0.055 A 
ATOM     43  C   UNL A   1      37.299  32.066  30.688  1.00  0.00     0.041 A 
ATOM     44  F   UNL A   1      38.432  31.647  28.682  1.00  0.00    -0.206 F 
ATOM     45  C   UNL A   1      37.239  32.008  32.076  1.00  0.00     0.022 A 
BRANCH  42  46
ATOM     46  S   UNL A   1      38.241  31.226  34.561  1.00  0.00     0.124 S 
ATOM     47  O   UNL A   1      37.028  31.957  34.922  1.00  0.00    -0.237 OA
ATOM     48  O   UNL A   1      38.142  29.771  34.588  1.00  0.00    -0.237 OA
ATOM     49  O   UNL A   1      39.480  31.782  35.105  1.00  0.00    -0.744 OA
ENDBRANCH  42  46
ENDBRANCH  25  39
BRANCH  26  50
ATOM     50  C   UNL A   1      47.289  27.681  25.363  1.00  0.00     0.023 A 
ATOM     51  C   UNL A   1      47.341  27.969  23.991  1.00  0.00     0.031 A 
ATOM     52  C   UNL A   1      48.320  26.899  25.915  1.00  0.00     0.131 A 
ATOM     53  C   UNL A   1      48.388  27.454  23.211  1.00  0.00     0.055 A 
ATOM     54  C   UNL A   1      49.385  26.431  25.145  1.00  0.00     0.041 A 
ATOM     55  F   UNL A   1      48.319  26.602  27.225  1.00  0.00    -0.206 F 
ATOM     56  C   UNL A   1      49.418  26.701  23.781  1.00  0.00     0.022 A 
BRANCH  53  57
ATOM     57  S   UNL A   1      48.356  27.735  21.420  1.00  0.00     0.124 S 
ATOM     58  O   UNL A   1      49.404  28.736  21.258  1.00  0.00    -0.237 OA
ATOM     59  O   UNL A   1      48.654  26.404  20.898  1.00  0.00    -0.237 OA
ATOM     60  O   UNL A   1      46.996  28.207  21.175  1.00  0.00    -0.744 OA
ENDBRANCH  53  57
ENDBRANCH  26  50
BRANCH  38  61
ATOM     61  C   UNL A   1      46.232  33.603  28.919  1.00  0.00     0.023 A 
ATOM     62  C   UNL A   1      46.222  34.741  28.094  1.00  0.00     0.031 A 
ATOM     63  C   UNL A   1      47.091  33.602  30.034  1.00  0.00     0.131 A 
ATOM     64  C   UNL A   1      47.084  35.813  28.373  1.00  0.00     0.055 A 
ATOM     65  C   UNL A   1      47.905  34.693  30.337  1.00  0.00     0.041 A 
ATOM     66  F   UNL A   1      47.144  32.539  30.853  1.00  0.00    -0.206 F 
ATOM     67  C   UNL A   1      47.912  35.803  29.499  1.00  0.00     0.022 A 
BRANCH  64  68
ATOM     68  S   UNL A   1      47.169  37.195  27.201  1.00  0.00     0.124 S 
ATOM     69  O   UNL A   1      45.799  37.698  27.226  1.00  0.00    -0.237 OA
ATOM     70  O   UNL A   1      48.177  38.059  27.806  1.00  0.00    -0.237 OA
ATOM     71  O   UNL A   1      47.571  36.559  25.948  1.00  0.00    -0.744 OA
ENDBRANCH  64  68
ENDBRANCH  38  61
ENDBRANCH  12  13
ENDBRANCH   5   7
ENDBRANCH   2   3
ENDBRANCH   1   2
BRANCH   1  72
ATOM     72  C   UNL A   1      34.518  23.620  24.229  1.00  0.00     0.118 C 
BRANCH  72  73
ATOM     73  N   UNL A   1      33.676  23.546  25.411  1.00  0.00    -0.351 N 
ATOM     74  C   UNL A   1      32.768  24.442  25.912  1.00  0.00     0.278 C 
ATOM     75  H   UNL A   1      33.773  22.718  25.936  1.00  0.00     0.163 HD
ATOM     76  O   UNL A   1      32.107  24.090  26.890  1.00  0.00    -0.268 OA
BRANCH  74  77
ATOM     77  C   UNL A   1      32.572  25.796  25.207  1.00  0.00     0.277 C 
ATOM     78  C   UNL A   1      31.063  26.060  24.964  1.00  0.00     0.114 C 
ATOM     79  N   UNL A   1      33.140  26.888  26.035  1.00  0.00    -0.325 N 
ATOM     80  C   UNL A   1      30.891  27.446  24.438  1.00  0.00    -0.006 A 
ATOM     81  C   UNL A   1      33.189  28.185  25.328  1.00  0.00     0.262 C 
ATOM     82  H   UNL A   1      34.089  26.631  26.306  1.00  0.00     0.347 HD
ATOM     83  H   UNL A   1      32.531  27.006  26.845  1.00  0.00     0.347 HD
ATOM     84  C   UNL A   1      31.889  28.389  24.601  1.00  0.00     0.083 A 
ATOM     85  C   UNL A   1      29.792  28.078  23.806  1.00  0.00     0.003 A 
ATOM     86  N   UNL A   1      31.494  29.529  23.954  1.00  0.00    -0.353 N 
ATOM     87  C   UNL A   1      30.194  29.385  23.512  1.00  0.00     0.046 A 
ATOM     88  C   UNL A   1      28.485  27.676  23.473  1.00  0.00     0.010 A 
ATOM     89  H   UNL A   1      32.051  30.330  23.822  1.00  0.00     0.166 HD
ATOM     90  C   UNL A   1      29.343  30.310  22.895  1.00  0.00     0.026 A 
ATOM     91  C   UNL A   1      27.619  28.595  22.872  1.00  0.00     0.001 A 
ATOM     92  C   UNL A   1      28.044  29.891  22.586  1.00  0.00     0.002 A 
BRANCH  81  93
ATOM     93  C   UNL A   1      33.557  29.260  26.348  1.00  0.00     0.016 A 
ATOM     94  C   UNL A   1      34.809  29.320  26.978  1.00  0.00     0.014 A 
ATOM     95  C   UNL A   1      32.647  30.303  26.604  1.00  0.00     0.014 A 
ATOM     96  C   UNL A   1      35.125  30.368  27.846  1.00  0.00     0.047 A 
ATOM     97  C   UNL A   1      32.979  31.371  27.450  1.00  0.00     0.047 A 
ATOM     98  C   UNL A   1      34.226  31.411  28.070  1.00  0.00     0.129 A 
BRANCH  98  99
ATOM     99  O   UNL A   1      34.695  32.389  28.897  1.00  0.00    -0.406 OA
BRANCH  99 100
ATOM    100  C   UNL A   1      34.897  33.686  28.344  1.00  0.00     0.573 C 
ATOM    101  F   UNL A   1      33.715  34.218  27.961  1.00  0.00    -0.132 F 
ATOM    102  F   UNL A   1      35.506  34.481  29.237  1.00  0.00    -0.132 F 
ATOM    103  F   UNL A   1      35.677  33.551  27.251  1.00  0.00    -0.132 F 
ENDBRANCH  99 100
ENDBRANCH  98  99
ENDBRANCH  81  93
ENDBRANCH  74  77
ENDBRANCH  72  73
ENDBRANCH   1  72
TORSDOF 16
ENDMDL
