MODEL 1
REMARK VINA RESULT:     -13.0      0.000      0.000
REMARK SMILES Cc1ccnc(C(=O)c2[nH]c3ccc(F)cc3c2CC(=O)NCCCNC(=O)c2ccc(-c3c4nc(c(-c5cc(S(=O)(=O)[O-])ccc5F)c5ccc([nH]5)c(-c5cc(S(=O)(=O)[O-])ccc5F)c5nc(c(-c6cc(S(=O)(=O)[O-])ccc6F)c6ccc3[nH]6)C=C5)C=C4)cc2)c1
REMARK SMILES IDX 24 1 23 2 22 3 20 4 21 5 19 7 18 8 9 9 10 10 11 11 17 13
REMARK SMILES IDX 12 14 16 15 13 16 14 17 15 18 7 19 8 20 6 21 1 22 2 23 3 24
REMARK SMILES IDX 92 25 4 26 5 27 25 28 26 29 27 30 28 32 29 33 30 34 91 35
REMARK SMILES IDX 31 36 90 37 32 38 33 39 34 40 84 41 35 42 89 43 83 44 85 45
REMARK SMILES IDX 36 46 88 47 82 48 81 49 37 51 69 52 49 53 68 54 50 55 53 56
REMARK SMILES IDX 67 57 86 58 51 59 52 60 66 62 87 63 54 64 38 65 39 66 47 67
REMARK SMILES IDX 40 68 46 69 48 70 45 71 41 72 42 73 43 74 44 75 70 76 71 77
REMARK SMILES IDX 79 78 72 79 78 80 80 81 77 82 73 83 74 84 75 85 76 86 55 87
REMARK SMILES IDX 56 88 64 89 57 90 63 91 65 92 62 93 58 94 59 95 60 96 61 97
REMARK H PARENT 22 6 10 12 26 31 85 50 53 61
REMARK Flexibility Score: inf
ROOT
ATOM      1  C   UNL A   1      31.877  28.353  25.842  1.00  0.00     0.042 C 
ENDROOT
BRANCH   1   2
ATOM      2  C   UNL A   1      32.515  27.138  26.519  1.00  0.00     0.117 C 
BRANCH   2   3
ATOM      3  N   UNL A   1      31.632  26.014  26.757  1.00  0.00    -0.356 N 
ATOM      4  C   UNL A   1      31.834  24.673  26.604  1.00  0.00     0.224 C 
ATOM      5  O   UNL A   1      30.992  23.918  27.101  1.00  0.00    -0.275 OA
ATOM      6  H   UNL A   1      30.736  26.258  27.086  1.00  0.00     0.163 HD
BRANCH   4   7
ATOM      7  C   UNL A   1      33.059  24.100  25.917  1.00  0.00     0.138 C 
BRANCH   7   8
ATOM      8  C   UNL A   1      32.822  23.360  24.632  1.00  0.00    -0.002 A 
ATOM      9  C   UNL A   1      32.621  23.859  23.342  1.00  0.00     0.093 A 
ATOM     10  N   UNL A   1      32.316  22.775  22.540  1.00  0.00    -0.352 N 
ATOM     11  C   UNL A   1      32.406  21.595  23.230  1.00  0.00     0.046 A 
ATOM     12  H   UNL A   1      32.065  22.844  21.591  1.00  0.00     0.167 HD
ATOM     13  C   UNL A   1      32.652  21.926  24.558  1.00  0.00     0.007 A 
ATOM     14  C   UNL A   1      32.267  20.274  22.782  1.00  0.00     0.030 A 
ATOM     15  C   UNL A   1      32.710  20.878  25.503  1.00  0.00     0.049 A 
ATOM     16  C   UNL A   1      32.390  19.254  23.729  1.00  0.00     0.041 A 
ATOM     17  C   UNL A   1      32.599  19.559  25.065  1.00  0.00     0.123 A 
ATOM     18  F   UNL A   1      32.711  18.566  25.959  1.00  0.00    -0.207 F 
BRANCH   9  19
ATOM     19  C   UNL A   1      32.550  25.200  22.763  1.00  0.00     0.227 C 
ATOM     20  O   UNL A   1      33.537  25.656  22.187  1.00  0.00    -0.285 OA
BRANCH  19  21
ATOM     21  C   UNL A   1      31.351  26.093  22.952  1.00  0.00     0.113 A 
ATOM     22  C   UNL A   1      30.000  29.545  22.106  1.00  0.00     0.044 C 
ATOM     23  C   UNL A   1      30.122  28.138  22.608  1.00  0.00    -0.047 A 
ATOM     24  C   UNL A   1      29.088  27.595  23.367  1.00  0.00     0.023 A 
ATOM     25  C   UNL A   1      31.245  27.341  22.346  1.00  0.00     0.036 A 
ATOM     26  C   UNL A   1      29.239  26.316  23.873  1.00  0.00     0.112 A 
ATOM     27  N   UNL A   1      30.345  25.565  23.701  1.00  0.00    -0.253 NA
ENDBRANCH  19  21
ENDBRANCH   9  19
ENDBRANCH   7   8
ENDBRANCH   4   7
ENDBRANCH   2   3
ENDBRANCH   1   2
BRANCH   1  28
ATOM     28  C   UNL A   1      32.792  29.508  25.443  1.00  0.00     0.118 C 
BRANCH  28  29
ATOM     29  N   UNL A   1      32.338  30.808  25.894  1.00  0.00    -0.352 N 
ATOM     30  C   UNL A   1      32.846  31.607  26.889  1.00  0.00     0.251 C 
ATOM     31  H   UNL A   1      31.554  31.170  25.420  1.00  0.00     0.163 HD
ATOM     32  O   UNL A   1      32.230  32.613  27.222  1.00  0.00    -0.269 OA
BRANCH  30  33
ATOM     33  C   UNL A   1      34.112  31.244  27.565  1.00  0.00     0.039 A 
ATOM     34  C   UNL A   1      35.055  32.247  27.799  1.00  0.00     0.014 A 
ATOM     35  C   UNL A   1      34.383  29.925  27.941  1.00  0.00     0.014 A 
ATOM     36  C   UNL A   1      36.249  31.938  28.456  1.00  0.00     0.010 A 
ATOM     37  C   UNL A   1      35.553  29.630  28.644  1.00  0.00     0.010 A 
ATOM     38  C   UNL A   1      36.498  30.633  28.912  1.00  0.00    -0.014 A 
BRANCH  38  39
ATOM     39  C   UNL A   1      37.731  30.315  29.683  1.00  0.00     0.031 A 
ATOM     40  C   UNL A   1      38.796  29.429  29.093  1.00  0.00     0.074 A 
ATOM     41  C   UNL A   1      37.872  30.791  30.936  1.00  0.00     0.049 A 
ATOM     42  N   UNL A   1      39.909  29.003  29.631  1.00  0.00    -0.248 NA
ATOM     43  C   UNL A   1      38.566  28.946  27.724  1.00  0.00     0.031 C 
ATOM     44  C   UNL A   1      36.899  31.639  31.629  1.00  0.00     0.029 A 
ATOM     45  N   UNL A   1      38.881  30.631  31.854  1.00  0.00    -0.354 N 
ATOM     46  C   UNL A   1      40.512  28.195  28.673  1.00  0.00     0.074 A 
ATOM     47  C   UNL A   1      39.608  28.147  27.542  1.00  0.00     0.031 C 
ATOM     48  C   UNL A   1      37.368  31.942  32.849  1.00  0.00     0.029 A 
ATOM     49  C   UNL A   1      38.649  31.271  33.050  1.00  0.00     0.049 A 
ATOM     50  H   UNL A   1      39.694  30.108  31.672  1.00  0.00     0.167 HD
ATOM     51  C   UNL A   1      41.715  27.568  28.723  1.00  0.00     0.034 A 
ATOM     52  C   UNL A   1      39.375  31.301  34.187  1.00  0.00     0.034 A 
ATOM     53  C   UNL A   1      42.605  27.625  29.860  1.00  0.00     0.049 A 
ATOM     54  C   UNL A   1      40.685  30.556  34.236  1.00  0.00     0.074 A 
ATOM     55  C   UNL A   1      43.865  27.066  29.996  1.00  0.00     0.029 A 
ATOM     56  N   UNL A   1      42.327  28.266  31.061  1.00  0.00    -0.354 N 
ATOM     57  N   UNL A   1      41.263  29.836  33.302  1.00  0.00    -0.248 NA
ATOM     58  C   UNL A   1      41.447  30.637  35.489  1.00  0.00     0.031 C 
ATOM     59  C   UNL A   1      44.311  27.298  31.301  1.00  0.00     0.029 A 
ATOM     60  C   UNL A   1      43.374  28.082  31.954  1.00  0.00     0.049 A 
ATOM     61  H   UNL A   1      41.508  28.777  31.251  1.00  0.00     0.167 HD
ATOM     62  C   UNL A   1      42.472  29.408  33.846  1.00  0.00     0.074 A 
ATOM     63  C   UNL A   1      42.545  29.964  35.182  1.00  0.00     0.031 C 
ATOM     64  C   UNL A   1      43.436  28.631  33.289  1.00  0.00     0.034 A 
BRANCH  51  65
ATOM     65  C   UNL A   1      42.122  26.739  27.526  1.00  0.00     0.023 A 
ATOM     66  C   UNL A   1      41.838  25.365  27.445  1.00  0.00     0.031 A 
ATOM     67  C   UNL A   1      42.817  27.328  26.454  1.00  0.00     0.131 A 
ATOM     68  C   UNL A   1      42.311  24.613  26.359  1.00  0.00     0.055 A 
ATOM     69  C   UNL A   1      43.208  26.592  25.334  1.00  0.00     0.041 A 
ATOM     70  F   UNL A   1      43.138  28.632  26.481  1.00  0.00    -0.206 F 
ATOM     71  C   UNL A   1      42.970  25.222  25.290  1.00  0.00     0.022 A 
BRANCH  68  72
ATOM     72  S   UNL A   1      42.186  22.806  26.439  1.00  0.00     0.124 S 
ATOM     73  O   UNL A   1      40.791  22.623  26.835  1.00  0.00    -0.237 OA
ATOM     74  O   UNL A   1      42.522  22.405  25.078  1.00  0.00    -0.237 OA
ATOM     75  O   UNL A   1      43.166  22.439  27.460  1.00  0.00    -0.744 OA
ENDBRANCH  68  72
ENDBRANCH  51  65
BRANCH  52  76
ATOM     76  C   UNL A   1      38.877  32.045  35.381  1.00  0.00     0.023 A 
ATOM     77  C   UNL A   1      38.347  31.367  36.489  1.00  0.00     0.031 A 
ATOM     78  C   UNL A   1      38.878  33.453  35.410  1.00  0.00     0.131 A 
ATOM     79  C   UNL A   1      37.794  32.092  37.556  1.00  0.00     0.055 A 
ATOM     80  C   UNL A   1      38.383  34.170  36.500  1.00  0.00     0.041 A 
ATOM     81  F   UNL A   1      39.375  34.153  34.378  1.00  0.00    -0.206 F 
ATOM     82  C   UNL A   1      37.822  33.488  37.576  1.00  0.00     0.022 A 
BRANCH  79  83
ATOM     83  S   UNL A   1      36.945  31.185  38.877  1.00  0.00     0.124 S 
ATOM     84  O   UNL A   1      37.885  31.324  39.982  1.00  0.00    -0.237 OA
ATOM     85  O   UNL A   1      35.694  31.927  38.999  1.00  0.00    -0.237 OA
ATOM     86  O   UNL A   1      36.816  29.835  38.333  1.00  0.00    -0.744 OA
ENDBRANCH  79  83
ENDBRANCH  52  76
BRANCH  64  87
ATOM     87  C   UNL A   1      44.679  28.378  34.111  1.00  0.00     0.023 A 
ATOM     88  C   UNL A   1      44.793  27.269  34.967  1.00  0.00     0.031 A 
ATOM     89  C   UNL A   1      45.764  29.271  34.042  1.00  0.00     0.131 A 
ATOM     90  C   UNL A   1      45.939  27.115  35.763  1.00  0.00     0.055 A 
ATOM     91  C   UNL A   1      46.928  29.076  34.784  1.00  0.00     0.041 A 
ATOM     92  F   UNL A   1      45.710  30.352  33.246  1.00  0.00    -0.206 F 
ATOM     93  C   UNL A   1      47.015  27.999  35.662  1.00  0.00     0.022 A 
BRANCH  90  94
ATOM     94  S   UNL A   1      45.962  25.798  37.011  1.00  0.00     0.124 S 
ATOM     95  O   UNL A   1      45.879  24.598  36.186  1.00  0.00    -0.237 OA
ATOM     96  O   UNL A   1      47.238  26.024  37.681  1.00  0.00    -0.237 OA
ATOM     97  O   UNL A   1      44.778  26.076  37.824  1.00  0.00    -0.744 OA
ENDBRANCH  90  94
ENDBRANCH  64  87
ENDBRANCH  38  39
ENDBRANCH  30  33
ENDBRANCH  28  29
ENDBRANCH   1  28
TORSDOF 16
ENDMDL
MODEL 2
REMARK VINA RESULT:     -12.9      2.304      3.054
REMARK SMILES Cc1ccnc(C(=O)c2[nH]c3ccc(F)cc3c2CC(=O)NCCCNC(=O)c2ccc(-c3c4nc(c(-c5cc(S(=O)(=O)[O-])ccc5F)c5ccc([nH]5)c(-c5cc(S(=O)(=O)[O-])ccc5F)c5nc(c(-c6cc(S(=O)(=O)[O-])ccc6F)c6ccc3[nH]6)C=C5)C=C4)cc2)c1
REMARK SMILES IDX 24 1 23 2 22 3 20 4 21 5 19 7 18 8 9 9 10 10 11 11 17 13
REMARK SMILES IDX 12 14 16 15 13 16 14 17 15 18 7 19 8 20 6 21 1 22 2 23 3 24
REMARK SMILES IDX 92 25 4 26 5 27 25 28 26 29 27 30 28 32 29 33 30 34 91 35
REMARK SMILES IDX 31 36 90 37 32 38 33 39 34 40 84 41 35 42 89 43 83 44 85 45
REMARK SMILES IDX 36 46 88 47 82 48 81 49 37 51 69 52 49 53 68 54 50 55 53 56
REMARK SMILES IDX 67 57 86 58 51 59 52 60 66 62 87 63 54 64 38 65 39 66 47 67
REMARK SMILES IDX 40 68 46 69 48 70 45 71 41 72 42 73 43 74 44 75 70 76 71 77
REMARK SMILES IDX 79 78 72 79 78 80 80 81 77 82 73 83 74 84 75 85 76 86 55 87
REMARK SMILES IDX 56 88 64 89 57 90 63 91 65 92 62 93 58 94 59 95 60 96 61 97
REMARK H PARENT 22 6 10 12 26 31 85 50 53 61
REMARK Flexibility Score: inf
ROOT
ATOM      1  C   UNL A   1      31.653  31.620  26.643  1.00  0.00     0.042 C 
ENDROOT
BRANCH   1   2
ATOM      2  C   UNL A   1      31.908  30.350  25.830  1.00  0.00     0.117 C 
BRANCH   2   3
ATOM      3  N   UNL A   1      31.484  29.109  26.449  1.00  0.00    -0.356 N 
ATOM      4  C   UNL A   1      32.167  27.951  26.682  1.00  0.00     0.224 C 
ATOM      5  O   UNL A   1      31.636  27.130  27.436  1.00  0.00    -0.275 OA
ATOM      6  H   UNL A   1      30.548  29.102  26.752  1.00  0.00     0.163 HD
BRANCH   4   7
ATOM      7  C   UNL A   1      33.546  27.680  26.110  1.00  0.00     0.138 C 
BRANCH   7   8
ATOM      8  C   UNL A   1      33.602  26.837  24.868  1.00  0.00    -0.002 A 
ATOM      9  C   UNL A   1      33.151  27.125  23.577  1.00  0.00     0.093 A 
ATOM     10  N   UNL A   1      33.316  25.971  22.834  1.00  0.00    -0.352 N 
ATOM     11  C   UNL A   1      33.938  24.988  23.557  1.00  0.00     0.046 A 
ATOM     12  H   UNL A   1      33.022  25.869  21.899  1.00  0.00     0.167 HD
ATOM     13  C   UNL A   1      34.070  25.469  24.855  1.00  0.00     0.007 A 
ATOM     14  C   UNL A   1      34.370  23.713  23.164  1.00  0.00     0.030 A 
ATOM     15  C   UNL A   1      34.616  24.606  25.830  1.00  0.00     0.049 A 
ATOM     16  C   UNL A   1      34.962  22.904  24.137  1.00  0.00     0.041 A 
ATOM     17  C   UNL A   1      35.071  23.346  25.446  1.00  0.00     0.123 A 
ATOM     18  F   UNL A   1      35.640  22.553  26.364  1.00  0.00    -0.207 F 
BRANCH   9  19
ATOM     19  C   UNL A   1      32.481  28.267  22.958  1.00  0.00     0.227 C 
ATOM     20  O   UNL A   1      33.160  29.205  22.540  1.00  0.00    -0.285 OA
BRANCH  19  21
ATOM     21  C   UNL A   1      30.980  28.394  22.922  1.00  0.00     0.113 A 
ATOM     22  C   UNL A   1      28.170  30.572  21.574  1.00  0.00     0.044 C 
ATOM     23  C   UNL A   1      28.932  29.461  22.233  1.00  0.00    -0.047 A 
ATOM     24  C   UNL A   1      28.234  28.479  22.931  1.00  0.00     0.023 A 
ATOM     25  C   UNL A   1      30.330  29.374  22.178  1.00  0.00     0.036 A 
ATOM     26  C   UNL A   1      28.953  27.494  23.584  1.00  0.00     0.112 A 
ATOM     27  N   UNL A   1      30.300  27.439  23.611  1.00  0.00    -0.253 NA
ENDBRANCH  19  21
ENDBRANCH   9  19
ENDBRANCH   7   8
ENDBRANCH   4   7
ENDBRANCH   2   3
ENDBRANCH   1   2
BRANCH   1  28
ATOM     28  C   UNL A   1      32.865  32.376  27.181  1.00  0.00     0.118 C 
BRANCH  28  29
ATOM     29  N   UNL A   1      32.587  33.745  27.568  1.00  0.00    -0.352 N 
ATOM     30  C   UNL A   1      33.168  34.501  28.557  1.00  0.00     0.251 C 
ATOM     31  H   UNL A   1      31.883  34.197  27.049  1.00  0.00     0.163 HD
ATOM     32  O   UNL A   1      32.692  35.597  28.831  1.00  0.00    -0.269 OA
BRANCH  30  33
ATOM     33  C   UNL A   1      34.341  33.986  29.300  1.00  0.00     0.039 A 
ATOM     34  C   UNL A   1      34.122  33.164  30.408  1.00  0.00     0.014 A 
ATOM     35  C   UNL A   1      35.644  34.331  28.929  1.00  0.00     0.014 A 
ATOM     36  C   UNL A   1      35.210  32.646  31.114  1.00  0.00     0.010 A 
ATOM     37  C   UNL A   1      36.730  33.770  29.605  1.00  0.00     0.010 A 
ATOM     38  C   UNL A   1      36.525  32.918  30.703  1.00  0.00    -0.014 A 
BRANCH  38  39
ATOM     39  C   UNL A   1      37.687  32.305  31.402  1.00  0.00     0.031 A 
ATOM     40  C   UNL A   1      38.444  31.165  30.775  1.00  0.00     0.074 A 
ATOM     41  C   UNL A   1      38.035  32.749  32.627  1.00  0.00     0.049 A 
ATOM     42  N   UNL A   1      39.447  30.474  31.255  1.00  0.00    -0.248 NA
ATOM     43  C   UNL A   1      38.000  30.735  29.441  1.00  0.00     0.031 C 
ATOM     44  C   UNL A   1      37.363  33.830  33.352  1.00  0.00     0.029 A 
ATOM     45  N   UNL A   1      39.032  32.348  33.482  1.00  0.00    -0.354 N 
ATOM     46  C   UNL A   1      39.752  29.522  30.287  1.00  0.00     0.074 A 
ATOM     47  C   UNL A   1      38.787  29.691  29.220  1.00  0.00     0.031 C 
ATOM     48  C   UNL A   1      37.981  34.021  34.528  1.00  0.00     0.029 A 
ATOM     49  C   UNL A   1      39.058  33.045  34.668  1.00  0.00     0.049 A 
ATOM     50  H   UNL A   1      39.669  31.629  33.266  1.00  0.00     0.167 HD
ATOM     51  C   UNL A   1      40.754  28.606  30.281  1.00  0.00     0.034 A 
ATOM     52  C   UNL A   1      39.846  32.906  35.754  1.00  0.00     0.034 A 
ATOM     53  C   UNL A   1      41.708  28.450  31.355  1.00  0.00     0.049 A 
ATOM     54  C   UNL A   1      40.922  31.849  35.744  1.00  0.00     0.074 A 
ATOM     55  C   UNL A   1      42.788  27.587  31.428  1.00  0.00     0.029 A 
ATOM     56  N   UNL A   1      41.690  29.161  32.549  1.00  0.00    -0.354 N 
ATOM     57  N   UNL A   1      41.227  30.988  34.799  1.00  0.00    -0.248 NA
ATOM     58  C   UNL A   1      41.766  31.750  36.941  1.00  0.00     0.031 C 
ATOM     59  C   UNL A   1      43.371  27.717  32.692  1.00  0.00     0.029 A 
ATOM     60  C   UNL A   1      42.716  28.727  33.378  1.00  0.00     0.049 A 
ATOM     61  H   UNL A   1      41.045  29.869  32.774  1.00  0.00     0.167 HD
ATOM     62  C   UNL A   1      42.321  30.271  35.278  1.00  0.00     0.074 A 
ATOM     63  C   UNL A   1      42.630  30.811  36.586  1.00  0.00     0.031 C 
ATOM     64  C   UNL A   1      43.011  29.263  34.687  1.00  0.00     0.034 A 
BRANCH  51  65
ATOM     65  C   UNL A   1      40.848  27.682  29.088  1.00  0.00     0.023 A 
ATOM     66  C   UNL A   1      41.767  27.905  28.048  1.00  0.00     0.031 A 
ATOM     67  C   UNL A   1      39.997  26.567  28.981  1.00  0.00     0.131 A 
ATOM     68  C   UNL A   1      41.762  27.077  26.916  1.00  0.00     0.055 A 
ATOM     69  C   UNL A   1      40.056  25.695  27.892  1.00  0.00     0.041 A 
ATOM     70  F   UNL A   1      39.082  26.312  29.931  1.00  0.00    -0.206 F 
ATOM     71  C   UNL A   1      40.932  25.957  26.844  1.00  0.00     0.022 A 
BRANCH  68  72
ATOM     72  S   UNL A   1      42.746  27.573  25.476  1.00  0.00     0.124 S 
ATOM     73  O   UNL A   1      42.622  26.399  24.616  1.00  0.00    -0.237 OA
ATOM     74  O   UNL A   1      42.057  28.775  25.022  1.00  0.00    -0.237 OA
ATOM     75  O   UNL A   1      44.081  27.789  26.031  1.00  0.00    -0.744 OA
ENDBRANCH  68  72
ENDBRANCH  51  65
BRANCH  52  76
ATOM     76  C   UNL A   1      39.643  33.773  36.952  1.00  0.00     0.023 A 
ATOM     77  C   UNL A   1      39.026  33.276  38.111  1.00  0.00     0.031 A 
ATOM     78  C   UNL A   1      40.017  35.129  36.936  1.00  0.00     0.131 A 
ATOM     79  C   UNL A   1      38.756  34.137  39.185  1.00  0.00     0.055 A 
ATOM     80  C   UNL A   1      39.802  35.968  38.031  1.00  0.00     0.041 A 
ATOM     81  F   UNL A   1      40.613  35.658  35.855  1.00  0.00    -0.206 F 
ATOM     82  C   UNL A   1      39.154  35.475  39.159  1.00  0.00     0.022 A 
BRANCH  79  83
ATOM     83  S   UNL A   1      37.786  33.507  40.582  1.00  0.00     0.124 S 
ATOM     84  O   UNL A   1      37.606  34.711  41.384  1.00  0.00    -0.237 OA
ATOM     85  O   UNL A   1      36.593  32.994  39.916  1.00  0.00    -0.237 OA
ATOM     86  O   UNL A   1      38.656  32.490  41.168  1.00  0.00    -0.744 OA
ENDBRANCH  79  83
ENDBRANCH  52  76
BRANCH  64  87
ATOM     87  C   UNL A   1      44.203  28.711  35.434  1.00  0.00     0.023 A 
ATOM     88  C   UNL A   1      44.085  27.641  36.339  1.00  0.00     0.031 A 
ATOM     89  C   UNL A   1      45.478  29.275  35.244  1.00  0.00     0.131 A 
ATOM     90  C   UNL A   1      45.208  27.210  37.062  1.00  0.00     0.055 A 
ATOM     91  C   UNL A   1      46.603  28.796  35.915  1.00  0.00     0.041 A 
ATOM     92  F   UNL A   1      45.651  30.302  34.396  1.00  0.00    -0.206 F 
ATOM     93  C   UNL A   1      46.470  27.766  36.841  1.00  0.00     0.022 A 
BRANCH  90  94
ATOM     94  S   UNL A   1      44.978  25.978  38.375  1.00  0.00     0.124 S 
ATOM     95  O   UNL A   1      46.329  25.854  38.913  1.00  0.00    -0.237 OA
ATOM     96  O   UNL A   1      44.003  26.627  39.245  1.00  0.00    -0.237 OA
ATOM     97  O   UNL A   1      44.485  24.802  37.659  1.00  0.00    -0.744 OA
ENDBRANCH  90  94
ENDBRANCH  64  87
ENDBRANCH  38  39
ENDBRANCH  30  33
ENDBRANCH  28  29
ENDBRANCH   1  28
TORSDOF 16
ENDMDL
MODEL 3
REMARK VINA RESULT:     -12.7      5.122     10.152
REMARK SMILES Cc1ccnc(C(=O)c2[nH]c3ccc(F)cc3c2CC(=O)NCCCNC(=O)c2ccc(-c3c4nc(c(-c5cc(S(=O)(=O)[O-])ccc5F)c5ccc([nH]5)c(-c5cc(S(=O)(=O)[O-])ccc5F)c5nc(c(-c6cc(S(=O)(=O)[O-])ccc6F)c6ccc3[nH]6)C=C5)C=C4)cc2)c1
REMARK SMILES IDX 24 1 23 2 22 3 20 4 21 5 19 7 18 8 9 9 10 10 11 11 17 13
REMARK SMILES IDX 12 14 16 15 13 16 14 17 15 18 7 19 8 20 6 21 1 22 2 23 3 24
REMARK SMILES IDX 92 25 4 26 5 27 25 28 26 29 27 30 28 32 29 33 30 34 91 35
REMARK SMILES IDX 31 36 90 37 32 38 33 39 34 40 84 41 35 42 89 43 83 44 85 45
REMARK SMILES IDX 36 46 88 47 82 48 81 49 37 51 69 52 49 53 68 54 50 55 53 56
REMARK SMILES IDX 67 57 86 58 51 59 52 60 66 62 87 63 54 64 38 65 39 66 47 67
REMARK SMILES IDX 40 68 46 69 48 70 45 71 41 72 42 73 43 74 44 75 70 76 71 77
REMARK SMILES IDX 79 78 72 79 78 80 80 81 77 82 73 83 74 84 75 85 76 86 55 87
REMARK SMILES IDX 56 88 64 89 57 90 63 91 65 92 62 93 58 94 59 95 60 96 61 97
REMARK H PARENT 22 6 10 12 26 31 85 50 53 61
REMARK Flexibility Score: inf
ROOT
ATOM      1  C   UNL A   1      35.542  22.688  24.737  1.00  0.00     0.042 C 
ENDROOT
BRANCH   1   2
ATOM      2  C   UNL A   1      34.886  24.069  24.680  1.00  0.00     0.117 C 
BRANCH   2   3
ATOM      3  N   UNL A   1      34.421  24.492  23.374  1.00  0.00    -0.356 N 
ATOM      4  C   UNL A   1      33.719  25.599  22.993  1.00  0.00     0.224 C 
ATOM      5  O   UNL A   1      33.655  25.832  21.782  1.00  0.00    -0.275 OA
ATOM      6  H   UNL A   1      34.650  23.879  22.639  1.00  0.00     0.163 HD
BRANCH   4   7
ATOM      7  C   UNL A   1      33.091  26.556  23.988  1.00  0.00     0.138 C 
BRANCH   7   8
ATOM      8  C   UNL A   1      31.602  26.461  24.161  1.00  0.00    -0.002 A 
ATOM      9  C   UNL A   1      30.844  25.490  24.822  1.00  0.00     0.093 A 
ATOM     10  N   UNL A   1      29.517  25.788  24.577  1.00  0.00    -0.352 N 
ATOM     11  C   UNL A   1      29.383  26.956  23.873  1.00  0.00     0.046 A 
ATOM     12  H   UNL A   1      28.762  25.230  24.872  1.00  0.00     0.167 HD
ATOM     13  C   UNL A   1      30.668  27.369  23.535  1.00  0.00     0.007 A 
ATOM     14  C   UNL A   1      28.229  27.658  23.497  1.00  0.00     0.030 A 
ATOM     15  C   UNL A   1      30.803  28.520  22.729  1.00  0.00     0.049 A 
ATOM     16  C   UNL A   1      28.397  28.827  22.751  1.00  0.00     0.041 A 
ATOM     17  C   UNL A   1      29.664  29.239  22.370  1.00  0.00     0.123 A 
ATOM     18  F   UNL A   1      29.804  30.363  21.653  1.00  0.00    -0.207 F 
BRANCH   9  19
ATOM     19  C   UNL A   1      31.163  24.260  25.545  1.00  0.00     0.227 C 
ATOM     20  O   UNL A   1      31.195  24.281  26.776  1.00  0.00    -0.285 OA
BRANCH  19  21
ATOM     21  C   UNL A   1      31.575  22.996  24.836  1.00  0.00     0.113 A 
ATOM     22  C   UNL A   1      32.890  19.483  25.457  1.00  0.00     0.044 C 
ATOM     23  C   UNL A   1      32.354  20.715  24.793  1.00  0.00    -0.047 A 
ATOM     24  C   UNL A   1      32.272  20.758  23.403  1.00  0.00     0.023 A 
ATOM     25  C   UNL A   1      31.935  21.839  25.519  1.00  0.00     0.036 A 
ATOM     26  C   UNL A   1      31.832  21.923  22.801  1.00  0.00     0.112 A 
ATOM     27  N   UNL A   1      31.502  23.041  23.478  1.00  0.00    -0.253 NA
ENDBRANCH  19  21
ENDBRANCH   9  19
ENDBRANCH   7   8
ENDBRANCH   4   7
ENDBRANCH   2   3
ENDBRANCH   1   2
BRANCH   1  28
ATOM     28  C   UNL A   1      36.191  22.261  26.051  1.00  0.00     0.118 C 
BRANCH  28  29
ATOM     29  N   UNL A   1      37.158  21.191  25.916  1.00  0.00    -0.352 N 
ATOM     30  C   UNL A   1      38.529  21.247  25.989  1.00  0.00     0.251 C 
ATOM     31  H   UNL A   1      36.779  20.297  25.749  1.00  0.00     0.163 HD
ATOM     32  O   UNL A   1      39.185  20.252  25.701  1.00  0.00    -0.269 OA
BRANCH  30  33
ATOM     33  C   UNL A   1      39.206  22.501  26.389  1.00  0.00     0.039 A 
ATOM     34  C   UNL A   1      40.308  22.422  27.242  1.00  0.00     0.014 A 
ATOM     35  C   UNL A   1      38.744  23.747  25.953  1.00  0.00     0.014 A 
ATOM     36  C   UNL A   1      40.981  23.588  27.618  1.00  0.00     0.010 A 
ATOM     37  C   UNL A   1      39.449  24.905  26.288  1.00  0.00     0.010 A 
ATOM     38  C   UNL A   1      40.578  24.838  27.121  1.00  0.00    -0.014 A 
BRANCH  38  39
ATOM     39  C   UNL A   1      41.338  26.074  27.453  1.00  0.00     0.031 A 
ATOM     40  C   UNL A   1      40.706  27.165  28.276  1.00  0.00     0.074 A 
ATOM     41  C   UNL A   1      42.589  26.232  26.976  1.00  0.00     0.049 A 
ATOM     42  N   UNL A   1      41.193  28.329  28.621  1.00  0.00    -0.248 NA
ATOM     43  C   UNL A   1      39.337  26.919  28.754  1.00  0.00     0.031 C 
ATOM     44  C   UNL A   1      43.303  25.259  26.147  1.00  0.00     0.029 A 
ATOM     45  N   UNL A   1      43.482  27.267  27.113  1.00  0.00    -0.354 N 
ATOM     46  C   UNL A   1      40.192  28.961  29.352  1.00  0.00     0.074 A 
ATOM     47  C   UNL A   1      39.050  28.069  29.347  1.00  0.00     0.031 C 
ATOM     48  C   UNL A   1      44.528  25.731  25.869  1.00  0.00     0.029 A 
ATOM     49  C   UNL A   1      44.672  27.061  26.453  1.00  0.00     0.049 A 
ATOM     50  H   UNL A   1      43.289  28.079  27.633  1.00  0.00     0.167 HD
ATOM     51  C   UNL A   1      40.228  30.162  29.984  1.00  0.00     0.034 A 
ATOM     52  C   UNL A   1      45.753  27.858  26.318  1.00  0.00     0.034 A 
ATOM     53  C   UNL A   1      41.376  31.039  29.978  1.00  0.00     0.049 A 
ATOM     54  C   UNL A   1      45.752  29.209  26.989  1.00  0.00     0.074 A 
ATOM     55  C   UNL A   1      41.534  32.254  30.623  1.00  0.00     0.029 A 
ATOM     56  N   UNL A   1      42.556  30.806  29.283  1.00  0.00    -0.354 N 
ATOM     57  N   UNL A   1      44.813  29.770  27.716  1.00  0.00    -0.248 NA
ATOM     58  C   UNL A   1      46.958  30.030  26.828  1.00  0.00     0.031 C 
ATOM     59  C   UNL A   1      42.771  32.791  30.254  1.00  0.00     0.029 A 
ATOM     60  C   UNL A   1      43.429  31.872  29.453  1.00  0.00     0.049 A 
ATOM     61  H   UNL A   1      42.747  30.002  28.748  1.00  0.00     0.167 HD
ATOM     62  C   UNL A   1      45.333  30.995  28.128  1.00  0.00     0.074 A 
ATOM     63  C   UNL A   1      46.671  31.082  27.580  1.00  0.00     0.031 C 
ATOM     64  C   UNL A   1      44.759  31.957  28.894  1.00  0.00     0.034 A 
BRANCH  51  65
ATOM     65  C   UNL A   1      38.978  30.609  30.706  1.00  0.00     0.023 A 
ATOM     66  C   UNL A   1      37.941  31.287  30.042  1.00  0.00     0.031 A 
ATOM     67  C   UNL A   1      38.825  30.367  32.084  1.00  0.00     0.131 A 
ATOM     68  C   UNL A   1      36.838  31.765  30.765  1.00  0.00     0.055 A 
ATOM     69  C   UNL A   1      37.684  30.769  32.781  1.00  0.00     0.041 A 
ATOM     70  F   UNL A   1      39.790  29.744  32.780  1.00  0.00    -0.206 F 
ATOM     71  C   UNL A   1      36.689  31.487  32.125  1.00  0.00     0.022 A 
BRANCH  68  72
ATOM     72  S   UNL A   1      35.680  32.887  29.936  1.00  0.00     0.124 S 
ATOM     73  O   UNL A   1      35.857  32.510  28.535  1.00  0.00    -0.237 OA
ATOM     74  O   UNL A   1      34.403  32.525  30.539  1.00  0.00    -0.237 OA
ATOM     75  O   UNL A   1      36.181  34.215  30.282  1.00  0.00    -0.744 OA
ENDBRANCH  68  72
ENDBRANCH  51  65
BRANCH  52  76
ATOM     76  C   UNL A   1      46.921  27.414  25.503  1.00  0.00     0.023 A 
ATOM     77  C   UNL A   1      47.103  27.871  24.188  1.00  0.00     0.031 A 
ATOM     78  C   UNL A   1      47.849  26.485  26.011  1.00  0.00     0.131 A 
ATOM     79  C   UNL A   1      48.153  27.361  23.408  1.00  0.00     0.055 A 
ATOM     80  C   UNL A   1      48.927  26.028  25.252  1.00  0.00     0.041 A 
ATOM     81  F   UNL A   1      47.725  26.017  27.263  1.00  0.00    -0.206 F 
ATOM     82  C   UNL A   1      49.075  26.456  23.937  1.00  0.00     0.022 A 
BRANCH  79  83
ATOM     83  S   UNL A   1      48.241  27.826  21.657  1.00  0.00     0.124 S 
ATOM     84  O   UNL A   1      47.005  28.583  21.491  1.00  0.00    -0.237 OA
ATOM     85  O   UNL A   1      49.478  28.597  21.610  1.00  0.00    -0.237 OA
ATOM     86  O   UNL A   1      48.283  26.539  20.966  1.00  0.00    -0.744 OA
ENDBRANCH  79  83
ENDBRANCH  52  76
BRANCH  64  87
ATOM     87  C   UNL A   1      45.600  33.168  29.226  1.00  0.00     0.023 A 
ATOM     88  C   UNL A   1      45.630  34.303  28.397  1.00  0.00     0.031 A 
ATOM     89  C   UNL A   1      46.391  33.181  30.389  1.00  0.00     0.131 A 
ATOM     90  C   UNL A   1      46.480  35.376  28.710  1.00  0.00     0.055 A 
ATOM     91  C   UNL A   1      47.182  34.278  30.731  1.00  0.00     0.041 A 
ATOM     92  F   UNL A   1      46.406  32.123  31.217  1.00  0.00    -0.206 F 
ATOM     93  C   UNL A   1      47.241  35.379  29.882  1.00  0.00     0.022 A 
BRANCH  90  94
ATOM     94  S   UNL A   1      46.659  36.725  27.510  1.00  0.00     0.124 S 
ATOM     95  O   UNL A   1      47.665  36.188  26.599  1.00  0.00    -0.237 OA
ATOM     96  O   UNL A   1      45.309  36.844  26.970  1.00  0.00    -0.237 OA
ATOM     97  O   UNL A   1      47.102  37.854  28.327  1.00  0.00    -0.744 OA
ENDBRANCH  90  94
ENDBRANCH  64  87
ENDBRANCH  38  39
ENDBRANCH  30  33
ENDBRANCH  28  29
ENDBRANCH   1  28
TORSDOF 16
ENDMDL
