MODEL 1
REMARK VINA RESULT:     -13.5      0.000      0.000
REMARK SMILES Cc1ccc(NC(=O)CN2C(=O)S/C(=C\c3cc(Cl)c(OCC(=O)NCCCNC(=O)c4ccc(-c5c6nc(c(-c7cc(S(=O)(=O)[O-])ccc7F)c7ccc([nH]7)c(-c7cc(S(=O)(=O)[O-])ccc7F)c7nc(c(-c8cc(S(=O)(=O)[O-])ccc8F)c8ccc5[nH]8)C=C7)C=C6)cc4)c(Cl)c3)C2=O)cc1
REMARK SMILES IDX 23 1 24 2 25 3 22 5 21 6 20 7 16 8 17 9 97 10 18 11 95 12
REMARK SMILES IDX 19 13 96 14 15 15 10 16 11 17 98 18 12 19 13 20 14 21 99 22
REMARK SMILES IDX 9 23 7 24 6 25 8 27 5 28 1 29 2 30 3 31 101 32 4 33 100 34
REMARK SMILES IDX 26 35 27 36 28 37 29 38 30 39 31 41 32 42 33 43 94 44 34 45
REMARK SMILES IDX 93 46 35 47 36 48 37 49 87 50 38 51 92 52 86 53 88 54 39 55
REMARK SMILES IDX 91 56 85 57 84 58 40 60 72 61 52 62 71 63 53 64 56 65 70 66
REMARK SMILES IDX 89 67 54 68 55 69 69 71 90 72 57 73 41 74 42 75 50 76 43 77
REMARK SMILES IDX 49 78 51 79 48 80 44 81 45 82 46 83 47 84 73 85 74 86 82 87
REMARK SMILES IDX 75 88 81 89 83 90 80 91 76 92 77 93 78 94 79 95 58 96 59 97
REMARK SMILES IDX 67 98 60 99 66 100 68 101 65 102 61 103 62 104 63 105 64 106
REMARK H PARENT 25 4 6 26 29 40 88 59 56 70
REMARK Flexibility Score: inf
ROOT
ATOM      1  C   UNL A   1      35.025  34.123  29.137  1.00  0.00     0.257 C 
ATOM      2  O   UNL A   1      36.226  34.128  28.865  1.00  0.00    -0.271 OA
ATOM      3  N   UNL A   1      34.477  35.261  29.651  1.00  0.00    -0.353 N 
ATOM      4  H   UNL A   1      35.116  35.985  29.839  1.00  0.00     0.163 HD
ENDROOT
BRANCH   1   5
ATOM      5  C   UNL A   1      34.141  32.886  28.865  1.00  0.00     0.329 C 
BRANCH   5   6
ATOM      6  O   UNL A   1      34.283  32.166  27.653  1.00  0.00    -0.481 OA
BRANCH   6   7
ATOM      7  C   UNL A   1      33.705  30.945  27.430  1.00  0.00     0.157 A 
ATOM      8  C   UNL A   1      32.147  28.583  26.933  1.00  0.00    -0.021 A 
ATOM      9  C   UNL A   1      31.572  29.840  26.788  1.00  0.00     0.032 A 
ATOM     10  C   UNL A   1      33.482  28.531  27.350  1.00  0.00     0.032 A 
ATOM     11  C   UNL A   1      32.339  30.998  27.047  1.00  0.00     0.085 A 
ATOM     12  C   UNL A   1      34.278  29.676  27.509  1.00  0.00     0.085 A 
ATOM     13  Cl  UNL A   1      31.532  32.525  26.842  1.00  0.00    -0.080 Cl
ATOM     14  Cl  UNL A   1      35.962  29.316  27.624  1.00  0.00    -0.080 Cl
BRANCH   8  15
ATOM     15  C   UNL A   1      31.406  27.317  26.730  1.00  0.00     0.029 C 
ATOM     16  N   UNL A   1      32.189  24.346  24.929  1.00  0.00    -0.259 N 
ATOM     17  C   UNL A   1      33.099  25.129  24.266  1.00  0.00     0.294 C 
ATOM     18  C   UNL A   1      31.292  25.020  25.737  1.00  0.00     0.268 C 
ATOM     19  O   UNL A   1      34.149  24.798  23.751  1.00  0.00    -0.261 OA
ATOM     20  S   UNL A   1      32.555  26.789  24.282  1.00  0.00    -0.022 SA
ATOM     21  C   UNL A   1      31.603  26.486  25.687  1.00  0.00     0.083 C 
ATOM     22  O   UNL A   1      30.442  24.527  26.463  1.00  0.00    -0.268 OA
BRANCH  16  23
ATOM     23  C   UNL A   1      32.441  22.917  25.079  1.00  0.00     0.230 C 
BRANCH  23  24
ATOM     24  C   UNL A   1      33.586  22.624  26.055  1.00  0.00     0.244 C 
ATOM     25  N   UNL A   1      34.463  21.597  25.841  1.00  0.00    -0.325 N 
ATOM     26  H   UNL A   1      35.365  21.757  26.202  1.00  0.00     0.169 HD
ATOM     27  O   UNL A   1      33.783  23.344  27.039  1.00  0.00    -0.273 OA
BRANCH  25  28
ATOM     28  C   UNL A   1      34.312  20.362  25.203  1.00  0.00     0.041 A 
ATOM     29  C   UNL A   1      34.011  16.396  23.530  1.00  0.00     0.044 C 
ATOM     30  C   UNL A   1      34.134  17.771  24.115  1.00  0.00    -0.051 A 
ATOM     31  C   UNL A   1      32.983  18.532  24.340  1.00  0.00     0.005 A 
ATOM     32  C   UNL A   1      35.378  18.313  24.448  1.00  0.00     0.005 A 
ATOM     33  C   UNL A   1      33.071  19.818  24.882  1.00  0.00     0.026 A 
ATOM     34  C   UNL A   1      35.463  19.594  25.001  1.00  0.00     0.026 A 
ENDBRANCH  25  28
ENDBRANCH  23  24
ENDBRANCH  16  23
ENDBRANCH   8  15
ENDBRANCH   6   7
ENDBRANCH   5   6
ENDBRANCH   1   5
BRANCH   3  35
ATOM     35  C   UNL A   1      33.094  35.564  29.964  1.00  0.00     0.117 C 
BRANCH  35  36
ATOM     36  C   UNL A   1      32.953  36.779  30.862  1.00  0.00     0.042 C 
BRANCH  36  37
ATOM     37  C   UNL A   1      33.142  36.472  32.342  1.00  0.00     0.118 C 
BRANCH  37  38
ATOM     38  N   UNL A   1      32.840  35.088  32.720  1.00  0.00    -0.352 N 
ATOM     39  C   UNL A   1      33.684  34.052  33.093  1.00  0.00     0.251 C 
ATOM     40  H   UNL A   1      31.883  34.857  32.707  1.00  0.00     0.163 HD
ATOM     41  O   UNL A   1      33.258  32.911  33.252  1.00  0.00    -0.269 OA
BRANCH  39  42
ATOM     42  C   UNL A   1      35.083  34.352  33.487  1.00  0.00     0.039 A 
ATOM     43  C   UNL A   1      35.895  34.924  32.495  1.00  0.00     0.014 A 
ATOM     44  C   UNL A   1      35.648  33.696  34.566  1.00  0.00     0.014 A 
ATOM     45  C   UNL A   1      37.216  34.517  32.397  1.00  0.00     0.010 A 
ATOM     46  C   UNL A   1      36.877  33.131  34.364  1.00  0.00     0.010 A 
ATOM     47  C   UNL A   1      37.625  33.498  33.240  1.00  0.00    -0.014 A 
BRANCH  47  48
ATOM     48  C   UNL A   1      38.855  32.755  33.101  1.00  0.00     0.031 A 
ATOM     49  C   UNL A   1      38.776  31.511  32.326  1.00  0.00     0.074 A 
ATOM     50  C   UNL A   1      40.006  33.352  33.473  1.00  0.00     0.049 A 
ATOM     51  N   UNL A   1      39.711  30.641  32.252  1.00  0.00    -0.248 NA
ATOM     52  C   UNL A   1      37.572  31.115  31.592  1.00  0.00     0.031 C 
ATOM     53  C   UNL A   1      41.372  33.007  33.100  1.00  0.00     0.029 A 
ATOM     54  N   UNL A   1      40.158  34.296  34.491  1.00  0.00    -0.354 N 
ATOM     55  C   UNL A   1      39.384  29.770  31.239  1.00  0.00     0.074 A 
ATOM     56  C   UNL A   1      37.999  30.023  30.957  1.00  0.00     0.031 C 
ATOM     57  C   UNL A   1      42.215  33.490  34.032  1.00  0.00     0.029 A 
ATOM     58  C   UNL A   1      41.393  34.014  35.110  1.00  0.00     0.049 A 
ATOM     59  H   UNL A   1      39.529  35.016  34.728  1.00  0.00     0.167 HD
ATOM     60  C   UNL A   1      40.398  29.058  30.675  1.00  0.00     0.034 A 
ATOM     61  C   UNL A   1      41.408  33.545  36.395  1.00  0.00     0.034 A 
ATOM     62  C   UNL A   1      41.607  29.210  31.487  1.00  0.00     0.049 A 
ATOM     63  C   UNL A   1      41.928  32.123  36.467  1.00  0.00     0.074 A 
ATOM     64  C   UNL A   1      42.738  29.999  31.364  1.00  0.00     0.029 A 
ATOM     65  N   UNL A   1      41.574  28.772  32.808  1.00  0.00    -0.354 N 
ATOM     66  N   UNL A   1      41.890  31.270  35.475  1.00  0.00    -0.248 NA
ATOM     67  C   UNL A   1      42.611  31.586  37.638  1.00  0.00     0.031 C 
ATOM     68  C   UNL A   1      43.319  30.120  32.658  1.00  0.00     0.029 A 
ATOM     69  C   UNL A   1      42.572  29.367  33.551  1.00  0.00     0.049 A 
ATOM     70  H   UNL A   1      40.924  28.124  33.163  1.00  0.00     0.167 HD
ATOM     71  C   UNL A   1      42.551  30.120  35.827  1.00  0.00     0.074 A 
ATOM     72  C   UNL A   1      42.983  30.373  37.194  1.00  0.00     0.031 C 
ATOM     73  C   UNL A   1      42.712  29.061  34.970  1.00  0.00     0.034 A 
BRANCH  60  74
ATOM     74  C   UNL A   1      40.400  28.429  29.300  1.00  0.00     0.023 A 
ATOM     75  C   UNL A   1      41.098  27.213  29.141  1.00  0.00     0.031 A 
ATOM     76  C   UNL A   1      39.867  28.968  28.109  1.00  0.00     0.131 A 
ATOM     77  C   UNL A   1      41.280  26.622  27.878  1.00  0.00     0.055 A 
ATOM     78  C   UNL A   1      40.029  28.367  26.853  1.00  0.00     0.041 A 
ATOM     79  F   UNL A   1      39.180  30.111  28.071  1.00  0.00    -0.206 F 
ATOM     80  C   UNL A   1      40.745  27.191  26.729  1.00  0.00     0.022 A 
BRANCH  77  81
ATOM     81  S   UNL A   1      42.271  25.112  27.754  1.00  0.00     0.124 S 
ATOM     82  O   UNL A   1      43.326  25.516  26.830  1.00  0.00    -0.237 OA
ATOM     83  O   UNL A   1      42.669  24.888  29.139  1.00  0.00    -0.237 OA
ATOM     84  O   UNL A   1      41.327  24.132  27.218  1.00  0.00    -0.744 OA
ENDBRANCH  77  81
ENDBRANCH  60  74
BRANCH  61  85
ATOM     85  C   UNL A   1      40.315  34.159  37.218  1.00  0.00     0.023 A 
ATOM     86  C   UNL A   1      39.138  33.383  37.360  1.00  0.00     0.031 A 
ATOM     87  C   UNL A   1      40.586  35.112  38.210  1.00  0.00     0.131 A 
ATOM     88  C   UNL A   1      38.428  33.392  38.570  1.00  0.00     0.055 A 
ATOM     89  C   UNL A   1      39.806  35.188  39.374  1.00  0.00     0.041 A 
ATOM     90  F   UNL A   1      41.690  35.870  38.147  1.00  0.00    -0.206 F 
ATOM     91  C   UNL A   1      38.763  34.282  39.589  1.00  0.00     0.022 A 
BRANCH  88  92
ATOM     92  S   UNL A   1      37.276  32.018  38.890  1.00  0.00     0.124 S 
ATOM     93  O   UNL A   1      35.982  32.690  38.859  1.00  0.00    -0.237 OA
ATOM     94  O   UNL A   1      37.555  31.107  37.780  1.00  0.00    -0.237 OA
ATOM     95  O   UNL A   1      37.685  31.502  40.195  1.00  0.00    -0.744 OA
ENDBRANCH  88  92
ENDBRANCH  61  85
BRANCH  73  96
ATOM     96  C   UNL A   1      43.099  27.647  35.373  1.00  0.00     0.023 A 
ATOM     97  C   UNL A   1      44.287  27.036  34.957  1.00  0.00     0.031 A 
ATOM     98  C   UNL A   1      42.316  26.882  36.277  1.00  0.00     0.131 A 
ATOM     99  C   UNL A   1      44.602  25.717  35.323  1.00  0.00     0.055 A 
ATOM    100  C   UNL A   1      42.686  25.611  36.729  1.00  0.00     0.041 A 
ATOM    101  F   UNL A   1      41.160  27.332  36.783  1.00  0.00    -0.206 F 
ATOM    102  C   UNL A   1      43.826  25.006  36.231  1.00  0.00     0.022 A 
BRANCH  99 103
ATOM    103  S   UNL A   1      46.002  24.929  34.493  1.00  0.00     0.124 S 
ATOM    104  O   UNL A   1      46.733  26.085  33.980  1.00  0.00    -0.237 OA
ATOM    105  O   UNL A   1      46.650  24.207  35.584  1.00  0.00    -0.237 OA
ATOM    106  O   UNL A   1      45.373  24.089  33.476  1.00  0.00    -0.744 OA
ENDBRANCH  99 103
ENDBRANCH  73  96
ENDBRANCH  47  48
ENDBRANCH  39  42
ENDBRANCH  37  38
ENDBRANCH  36  37
ENDBRANCH  35  36
ENDBRANCH   3  35
TORSDOF 19
ENDMDL
MODEL 2
REMARK VINA RESULT:     -13.3      1.490      2.121
REMARK SMILES Cc1ccc(NC(=O)CN2C(=O)S/C(=C\c3cc(Cl)c(OCC(=O)NCCCNC(=O)c4ccc(-c5c6nc(c(-c7cc(S(=O)(=O)[O-])ccc7F)c7ccc([nH]7)c(-c7cc(S(=O)(=O)[O-])ccc7F)c7nc(c(-c8cc(S(=O)(=O)[O-])ccc8F)c8ccc5[nH]8)C=C7)C=C6)cc4)c(Cl)c3)C2=O)cc1
REMARK SMILES IDX 23 1 24 2 25 3 22 5 21 6 20 7 16 8 17 9 97 10 18 11 95 12
REMARK SMILES IDX 19 13 96 14 15 15 10 16 11 17 98 18 12 19 13 20 14 21 99 22
REMARK SMILES IDX 9 23 7 24 6 25 8 27 5 28 1 29 2 30 3 31 101 32 4 33 100 34
REMARK SMILES IDX 26 35 27 36 28 37 29 38 30 39 31 41 32 42 33 43 94 44 34 45
REMARK SMILES IDX 93 46 35 47 36 48 37 49 87 50 38 51 92 52 86 53 88 54 39 55
REMARK SMILES IDX 91 56 85 57 84 58 40 60 72 61 52 62 71 63 53 64 56 65 70 66
REMARK SMILES IDX 89 67 54 68 55 69 69 71 90 72 57 73 41 74 42 75 50 76 43 77
REMARK SMILES IDX 49 78 51 79 48 80 44 81 45 82 46 83 47 84 73 85 74 86 82 87
REMARK SMILES IDX 75 88 81 89 83 90 80 91 76 92 77 93 78 94 79 95 58 96 59 97
REMARK SMILES IDX 67 98 60 99 66 100 68 101 65 102 61 103 62 104 63 105 64 106
REMARK H PARENT 25 4 6 26 29 40 88 59 56 70
REMARK Flexibility Score: inf
ROOT
ATOM      1  C   UNL A   1      34.123  35.362  28.393  1.00  0.00     0.257 C 
ATOM      2  O   UNL A   1      34.750  35.812  27.434  1.00  0.00    -0.271 OA
ATOM      3  N   UNL A   1      33.615  36.243  29.301  1.00  0.00    -0.353 N 
ATOM      4  H   UNL A   1      33.863  37.184  29.154  1.00  0.00     0.163 HD
ENDROOT
BRANCH   1   5
ATOM      5  C   UNL A   1      33.869  33.847  28.551  1.00  0.00     0.329 C 
BRANCH   5   6
ATOM      6  O   UNL A   1      34.461  32.930  27.648  1.00  0.00    -0.481 OA
BRANCH   6   7
ATOM      7  C   UNL A   1      33.951  31.685  27.395  1.00  0.00     0.157 A 
ATOM      8  C   UNL A   1      33.253  28.939  26.918  1.00  0.00    -0.021 A 
ATOM      9  C   UNL A   1      34.515  29.264  27.402  1.00  0.00     0.032 A 
ATOM     10  C   UNL A   1      32.373  29.997  26.657  1.00  0.00     0.032 A 
ATOM     11  C   UNL A   1      34.858  30.617  27.621  1.00  0.00     0.085 A 
ATOM     12  C   UNL A   1      32.671  31.332  26.969  1.00  0.00     0.085 A 
ATOM     13  Cl  UNL A   1      36.460  30.923  28.223  1.00  0.00    -0.080 Cl
ATOM     14  Cl  UNL A   1      31.283  32.359  26.929  1.00  0.00    -0.080 Cl
BRANCH   8  15
ATOM     15  C   UNL A   1      32.824  27.555  26.614  1.00  0.00     0.029 C 
ATOM     16  N   UNL A   1      31.468  26.056  23.682  1.00  0.00    -0.259 N 
ATOM     17  C   UNL A   1      31.154  27.339  23.315  1.00  0.00     0.294 C 
ATOM     18  C   UNL A   1      31.896  25.892  24.987  1.00  0.00     0.268 C 
ATOM     19  O   UNL A   1      31.048  27.802  22.195  1.00  0.00    -0.261 OA
ATOM     20  S   UNL A   1      30.948  28.319  24.746  1.00  0.00    -0.022 SA
ATOM     21  C   UNL A   1      31.933  27.234  25.656  1.00  0.00     0.083 C 
ATOM     22  O   UNL A   1      32.284  24.858  25.509  1.00  0.00    -0.268 OA
BRANCH  16  23
ATOM     23  C   UNL A   1      31.722  25.053  22.655  1.00  0.00     0.230 C 
BRANCH  23  24
ATOM     24  C   UNL A   1      33.216  24.900  22.343  1.00  0.00     0.244 C 
ATOM     25  N   UNL A   1      33.843  23.688  22.425  1.00  0.00    -0.325 N 
ATOM     26  H   UNL A   1      34.598  23.583  21.802  1.00  0.00     0.169 HD
ATOM     27  O   UNL A   1      33.886  25.861  21.955  1.00  0.00    -0.273 OA
BRANCH  25  28
ATOM     28  C   UNL A   1      33.605  22.570  23.231  1.00  0.00     0.041 A 
ATOM     29  C   UNL A   1      32.868  18.917  25.406  1.00  0.00     0.044 C 
ATOM     30  C   UNL A   1      33.109  20.181  24.639  1.00  0.00    -0.051 A 
ATOM     31  C   UNL A   1      34.253  20.943  24.902  1.00  0.00     0.005 A 
ATOM     32  C   UNL A   1      32.219  20.620  23.655  1.00  0.00     0.005 A 
ATOM     33  C   UNL A   1      34.499  22.128  24.203  1.00  0.00     0.026 A 
ATOM     34  C   UNL A   1      32.473  21.799  22.949  1.00  0.00     0.026 A 
ENDBRANCH  25  28
ENDBRANCH  23  24
ENDBRANCH  16  23
ENDBRANCH   8  15
ENDBRANCH   6   7
ENDBRANCH   5   6
ENDBRANCH   1   5
BRANCH   3  35
ATOM     35  C   UNL A   1      32.766  36.003  30.452  1.00  0.00     0.117 C 
BRANCH  35  36
ATOM     36  C   UNL A   1      33.179  36.822  31.661  1.00  0.00     0.042 C 
BRANCH  36  37
ATOM     37  C   UNL A   1      33.377  35.993  32.923  1.00  0.00     0.118 C 
BRANCH  37  38
ATOM     38  N   UNL A   1      33.271  34.545  32.724  1.00  0.00    -0.352 N 
ATOM     39  C   UNL A   1      34.253  33.593  32.487  1.00  0.00     0.251 C 
ATOM     40  H   UNL A   1      32.353  34.190  32.764  1.00  0.00     0.163 HD
ATOM     41  O   UNL A   1      33.961  32.433  32.214  1.00  0.00    -0.269 OA
BRANCH  39  42
ATOM     42  C   UNL A   1      35.675  33.929  32.748  1.00  0.00     0.039 A 
ATOM     43  C   UNL A   1      36.449  34.258  31.623  1.00  0.00     0.014 A 
ATOM     44  C   UNL A   1      36.279  33.495  33.914  1.00  0.00     0.014 A 
ATOM     45  C   UNL A   1      37.754  33.801  31.555  1.00  0.00     0.010 A 
ATOM     46  C   UNL A   1      37.486  32.865  33.781  1.00  0.00     0.010 A 
ATOM     47  C   UNL A   1      38.184  32.968  32.574  1.00  0.00    -0.014 A 
BRANCH  47  48
ATOM     48  C   UNL A   1      39.391  32.177  32.541  1.00  0.00     0.031 A 
ATOM     49  C   UNL A   1      39.287  30.864  31.893  1.00  0.00     0.074 A 
ATOM     50  C   UNL A   1      40.554  32.773  32.878  1.00  0.00     0.049 A 
ATOM     51  N   UNL A   1      40.194  29.962  31.930  1.00  0.00    -0.248 NA
ATOM     52  C   UNL A   1      38.086  30.433  31.174  1.00  0.00     0.031 C 
ATOM     53  C   UNL A   1      41.916  32.349  32.574  1.00  0.00     0.029 A 
ATOM     54  N   UNL A   1      40.717  33.810  33.798  1.00  0.00    -0.354 N 
ATOM     55  C   UNL A   1      39.860  29.003  31.001  1.00  0.00     0.074 A 
ATOM     56  C   UNL A   1      38.490  29.270  30.663  1.00  0.00     0.031 C 
ATOM     57  C   UNL A   1      42.754  32.898  33.472  1.00  0.00     0.029 A 
ATOM     58  C   UNL A   1      41.928  33.554  34.473  1.00  0.00     0.049 A 
ATOM     59  H   UNL A   1      40.107  34.570  33.947  1.00  0.00     0.167 HD
ATOM     60  C   UNL A   1      40.860  28.207  30.537  1.00  0.00     0.034 A 
ATOM     61  C   UNL A   1      41.901  33.218  35.798  1.00  0.00     0.034 A 
ATOM     62  C   UNL A   1      42.057  28.403  31.358  1.00  0.00     0.049 A 
ATOM     63  C   UNL A   1      42.372  31.795  36.025  1.00  0.00     0.074 A 
ATOM     64  C   UNL A   1      43.215  29.139  31.183  1.00  0.00     0.029 A 
ATOM     65  N   UNL A   1      41.982  28.102  32.715  1.00  0.00    -0.354 N 
ATOM     66  N   UNL A   1      42.326  30.847  35.124  1.00  0.00    -0.248 NA
ATOM     67  C   UNL A   1      43.012  31.358  37.260  1.00  0.00     0.031 C 
ATOM     68  C   UNL A   1      43.774  29.373  32.473  1.00  0.00     0.029 A 
ATOM     69  C   UNL A   1      42.983  28.738  33.418  1.00  0.00     0.049 A 
ATOM     70  H   UNL A   1      41.303  27.514  33.119  1.00  0.00     0.167 HD
ATOM     71  C   UNL A   1      42.941  29.719  35.606  1.00  0.00     0.074 A 
ATOM     72  C   UNL A   1      43.353  30.096  36.950  1.00  0.00     0.031 C 
ATOM     73  C   UNL A   1      43.083  28.574  34.864  1.00  0.00     0.034 A 
BRANCH  60  74
ATOM     74  C   UNL A   1      40.870  27.442  29.233  1.00  0.00     0.023 A 
ATOM     75  C   UNL A   1      41.842  27.799  28.274  1.00  0.00     0.031 A 
ATOM     76  C   UNL A   1      39.944  26.466  28.805  1.00  0.00     0.131 A 
ATOM     77  C   UNL A   1      41.845  27.248  26.980  1.00  0.00     0.055 A 
ATOM     78  C   UNL A   1      39.962  25.900  27.522  1.00  0.00     0.041 A 
ATOM     79  F   UNL A   1      38.957  26.010  29.578  1.00  0.00    -0.206 F 
ATOM     80  C   UNL A   1      40.910  26.295  26.597  1.00  0.00     0.022 A 
BRANCH  77  81
ATOM     81  S   UNL A   1      43.071  27.836  25.784  1.00  0.00     0.124 S 
ATOM     82  O   UNL A   1      43.703  28.932  26.509  1.00  0.00    -0.237 OA
ATOM     83  O   UNL A   1      43.884  26.645  25.564  1.00  0.00    -0.237 OA
ATOM     84  O   UNL A   1      42.255  28.244  24.640  1.00  0.00    -0.744 OA
ENDBRANCH  77  81
ENDBRANCH  60  74
BRANCH  61  85
ATOM     85  C   UNL A   1      40.812  33.945  36.529  1.00  0.00     0.023 A 
ATOM     86  C   UNL A   1      39.589  33.246  36.670  1.00  0.00     0.031 A 
ATOM     87  C   UNL A   1      41.097  34.950  37.465  1.00  0.00     0.131 A 
ATOM     88  C   UNL A   1      38.831  33.378  37.845  1.00  0.00     0.055 A 
ATOM     89  C   UNL A   1      40.275  35.149  38.586  1.00  0.00     0.041 A 
ATOM     90  F   UNL A   1      42.244  35.641  37.400  1.00  0.00    -0.206 F 
ATOM     91  C   UNL A   1      39.175  34.318  38.814  1.00  0.00     0.022 A 
BRANCH  88  92
ATOM     92  S   UNL A   1      37.591  32.094  38.205  1.00  0.00     0.124 S 
ATOM     93  O   UNL A   1      36.340  32.832  38.077  1.00  0.00    -0.237 OA
ATOM     94  O   UNL A   1      37.858  31.096  37.168  1.00  0.00    -0.237 OA
ATOM     95  O   UNL A   1      37.920  31.645  39.556  1.00  0.00    -0.744 OA
ENDBRANCH  88  92
ENDBRANCH  61  85
BRANCH  73  96
ATOM     96  C   UNL A   1      43.416  27.197  35.416  1.00  0.00     0.023 A 
ATOM     97  C   UNL A   1      44.548  26.473  35.027  1.00  0.00     0.031 A 
ATOM     98  C   UNL A   1      42.637  26.589  36.437  1.00  0.00     0.131 A 
ATOM     99  C   UNL A   1      44.810  25.190  35.535  1.00  0.00     0.055 A 
ATOM    100  C   UNL A   1      42.962  25.361  37.022  1.00  0.00     0.041 A 
ATOM    101  F   UNL A   1      41.533  27.162  36.934  1.00  0.00    -0.206 F 
ATOM    102  C   UNL A   1      44.043  24.637  36.553  1.00  0.00     0.022 A 
BRANCH  99 103
ATOM    103  S   UNL A   1      46.126  24.230  34.747  1.00  0.00     0.124 S 
ATOM    104  O   UNL A   1      46.415  25.038  33.565  1.00  0.00    -0.237 OA
ATOM    105  O   UNL A   1      47.164  24.219  35.772  1.00  0.00    -0.237 OA
ATOM    106  O   UNL A   1      45.497  22.939  34.480  1.00  0.00    -0.744 OA
ENDBRANCH  99 103
ENDBRANCH  73  96
ENDBRANCH  47  48
ENDBRANCH  39  42
ENDBRANCH  37  38
ENDBRANCH  36  37
ENDBRANCH  35  36
ENDBRANCH   3  35
TORSDOF 19
ENDMDL
MODEL 3
REMARK VINA RESULT:     -13.2      6.003     12.044
REMARK SMILES Cc1ccc(NC(=O)CN2C(=O)S/C(=C\c3cc(Cl)c(OCC(=O)NCCCNC(=O)c4ccc(-c5c6nc(c(-c7cc(S(=O)(=O)[O-])ccc7F)c7ccc([nH]7)c(-c7cc(S(=O)(=O)[O-])ccc7F)c7nc(c(-c8cc(S(=O)(=O)[O-])ccc8F)c8ccc5[nH]8)C=C7)C=C6)cc4)c(Cl)c3)C2=O)cc1
REMARK SMILES IDX 23 1 24 2 25 3 22 5 21 6 20 7 16 8 17 9 97 10 18 11 95 12
REMARK SMILES IDX 19 13 96 14 15 15 10 16 11 17 98 18 12 19 13 20 14 21 99 22
REMARK SMILES IDX 9 23 7 24 6 25 8 27 5 28 1 29 2 30 3 31 101 32 4 33 100 34
REMARK SMILES IDX 26 35 27 36 28 37 29 38 30 39 31 41 32 42 33 43 94 44 34 45
REMARK SMILES IDX 93 46 35 47 36 48 37 49 87 50 38 51 92 52 86 53 88 54 39 55
REMARK SMILES IDX 91 56 85 57 84 58 40 60 72 61 52 62 71 63 53 64 56 65 70 66
REMARK SMILES IDX 89 67 54 68 55 69 69 71 90 72 57 73 41 74 42 75 50 76 43 77
REMARK SMILES IDX 49 78 51 79 48 80 44 81 45 82 46 83 47 84 73 85 74 86 82 87
REMARK SMILES IDX 75 88 81 89 83 90 80 91 76 92 77 93 78 94 79 95 58 96 59 97
REMARK SMILES IDX 67 98 60 99 66 100 68 101 65 102 61 103 62 104 63 105 64 106
REMARK H PARENT 25 4 6 26 29 40 88 59 56 70
REMARK Flexibility Score: inf
ROOT
ATOM      1  C   UNL A   1      42.785  19.004  26.985  1.00  0.00     0.257 C 
ATOM      2  O   UNL A   1      42.359  18.444  27.995  1.00  0.00    -0.271 OA
ATOM      3  N   UNL A   1      43.676  18.329  26.203  1.00  0.00    -0.353 N 
ATOM      4  H   UNL A   1      43.971  17.461  26.558  1.00  0.00     0.163 HD
ENDROOT
BRANCH   1   5
ATOM      5  C   UNL A   1      42.299  20.411  26.576  1.00  0.00     0.329 C 
BRANCH   5   6
ATOM      6  O   UNL A   1      41.366  21.103  27.389  1.00  0.00    -0.481 OA
BRANCH   6   7
ATOM      7  C   UNL A   1      40.236  21.699  26.898  1.00  0.00     0.157 A 
ATOM      8  C   UNL A   1      37.966  23.264  26.091  1.00  0.00    -0.021 A 
ATOM      9  C   UNL A   1      38.992  23.850  26.823  1.00  0.00     0.032 A 
ATOM     10  C   UNL A   1      38.082  21.900  25.799  1.00  0.00     0.032 A 
ATOM     11  C   UNL A   1      40.099  23.072  27.230  1.00  0.00     0.085 A 
ATOM     12  C   UNL A   1      39.226  21.147  26.110  1.00  0.00     0.085 A 
ATOM     13  Cl  UNL A   1      41.329  23.892  28.145  1.00  0.00    -0.080 Cl
ATOM     14  Cl  UNL A   1      39.278  19.630  25.289  1.00  0.00    -0.080 Cl
BRANCH   8  15
ATOM     15  C   UNL A   1      36.748  23.990  25.665  1.00  0.00     0.029 C 
ATOM     16  N   UNL A   1      33.283  23.198  25.897  1.00  0.00    -0.259 N 
ATOM     17  C   UNL A   1      33.711  21.906  26.065  1.00  0.00     0.294 C 
ATOM     18  C   UNL A   1      34.251  24.105  25.505  1.00  0.00     0.268 C 
ATOM     19  O   UNL A   1      33.170  21.001  26.670  1.00  0.00    -0.261 OA
ATOM     20  S   UNL A   1      35.260  21.702  25.284  1.00  0.00    -0.022 SA
ATOM     21  C   UNL A   1      35.567  23.395  25.403  1.00  0.00     0.083 C 
ATOM     22  O   UNL A   1      34.111  25.310  25.358  1.00  0.00    -0.268 OA
BRANCH  16  23
ATOM     23  C   UNL A   1      32.022  23.623  26.492  1.00  0.00     0.230 C 
BRANCH  23  24
ATOM     24  C   UNL A   1      30.805  23.121  25.705  1.00  0.00     0.244 C 
ATOM     25  N   UNL A   1      30.420  23.708  24.532  1.00  0.00    -0.325 N 
ATOM     26  H   UNL A   1      29.982  23.093  23.900  1.00  0.00     0.169 HD
ATOM     27  O   UNL A   1      30.167  22.134  26.083  1.00  0.00    -0.273 OA
BRANCH  25  28
ATOM     28  C   UNL A   1      30.537  25.022  24.067  1.00  0.00     0.041 A 
ATOM     29  C   UNL A   1      30.809  28.945  22.292  1.00  0.00     0.044 C 
ATOM     30  C   UNL A   1      30.726  27.575  22.894  1.00  0.00    -0.051 A 
ATOM     31  C   UNL A   1      29.822  27.331  23.934  1.00  0.00     0.005 A 
ATOM     32  C   UNL A   1      31.528  26.527  22.436  1.00  0.00     0.005 A 
ATOM     33  C   UNL A   1      29.728  26.063  24.515  1.00  0.00     0.026 A 
ATOM     34  C   UNL A   1      31.423  25.257  23.011  1.00  0.00     0.026 A 
ENDBRANCH  25  28
ENDBRANCH  23  24
ENDBRANCH  16  23
ENDBRANCH   8  15
ENDBRANCH   6   7
ENDBRANCH   5   6
ENDBRANCH   1   5
BRANCH   3  35
ATOM     35  C   UNL A   1      44.255  18.701  24.926  1.00  0.00     0.117 C 
BRANCH  35  36
ATOM     36  C   UNL A   1      45.724  19.065  25.038  1.00  0.00     0.042 C 
BRANCH  36  37
ATOM     37  C   UNL A   1      46.106  20.313  24.254  1.00  0.00     0.118 C 
BRANCH  37  38
ATOM     38  N   UNL A   1      44.972  21.150  23.850  1.00  0.00    -0.352 N 
ATOM     39  C   UNL A   1      44.511  22.353  24.366  1.00  0.00     0.251 C 
ATOM     40  H   UNL A   1      44.454  20.801  23.089  1.00  0.00     0.163 HD
ATOM     41  O   UNL A   1      43.457  22.849  23.978  1.00  0.00    -0.269 OA
BRANCH  39  42
ATOM     42  C   UNL A   1      45.386  23.149  25.262  1.00  0.00     0.039 A 
ATOM     43  C   UNL A   1      45.236  22.916  26.639  1.00  0.00     0.014 A 
ATOM     44  C   UNL A   1      45.942  24.330  24.807  1.00  0.00     0.014 A 
ATOM     45  C   UNL A   1      45.293  23.992  27.509  1.00  0.00     0.010 A 
ATOM     46  C   UNL A   1      45.800  25.425  25.612  1.00  0.00     0.010 A 
ATOM     47  C   UNL A   1      45.409  25.252  26.944  1.00  0.00    -0.014 A 
BRANCH  47  48
ATOM     48  C   UNL A   1      45.204  26.495  27.649  1.00  0.00     0.031 A 
ATOM     49  C   UNL A   1      43.880  27.111  27.506  1.00  0.00     0.074 A 
ATOM     50  C   UNL A   1      46.129  26.872  28.557  1.00  0.00     0.049 A 
ATOM     51  N   UNL A   1      43.580  28.289  27.904  1.00  0.00    -0.248 NA
ATOM     52  C   UNL A   1      42.769  26.440  26.828  1.00  0.00     0.031 C 
ATOM     53  C   UNL A   1      45.995  27.833  29.646  1.00  0.00     0.029 A 
ATOM     54  N   UNL A   1      47.497  26.596  28.511  1.00  0.00    -0.354 N 
ATOM     55  C   UNL A   1      42.211  28.407  27.846  1.00  0.00     0.074 A 
ATOM     56  C   UNL A   1      41.771  27.295  27.051  1.00  0.00     0.031 C 
ATOM     57  C   UNL A   1      47.218  28.284  29.982  1.00  0.00     0.029 A 
ATOM     58  C   UNL A   1      48.149  27.745  29.003  1.00  0.00     0.049 A 
ATOM     59  H   UNL A   1      47.922  25.765  28.197  1.00  0.00     0.167 HD
ATOM     60  C   UNL A   1      41.632  29.361  28.624  1.00  0.00     0.034 A 
ATOM     61  C   UNL A   1      48.906  28.503  28.154  1.00  0.00     0.034 A 
ATOM     62  C   UNL A   1      42.671  30.239  29.168  1.00  0.00     0.049 A 
ATOM     63  C   UNL A   1      48.307  29.880  27.945  1.00  0.00     0.074 A 
ATOM     64  C   UNL A   1      43.305  30.307  30.397  1.00  0.00     0.029 A 
ATOM     65  N   UNL A   1      43.462  30.957  28.276  1.00  0.00    -0.354 N 
ATOM     66  N   UNL A   1      47.039  30.166  28.101  1.00  0.00    -0.248 NA
ATOM     67  C   UNL A   1      49.109  31.056  27.631  1.00  0.00     0.031 C 
ATOM     68  C   UNL A   1      44.545  30.980  30.202  1.00  0.00     0.029 A 
ATOM     69  C   UNL A   1      44.638  31.361  28.872  1.00  0.00     0.049 A 
ATOM     70  H   UNL A   1      43.214  31.150  27.343  1.00  0.00     0.167 HD
ATOM     71  C   UNL A   1      46.849  31.519  27.958  1.00  0.00     0.074 A 
ATOM     72  C   UNL A   1      48.181  32.027  27.666  1.00  0.00     0.031 C 
ATOM     73  C   UNL A   1      45.624  32.118  28.110  1.00  0.00     0.034 A 
BRANCH  60  74
ATOM     74  C   UNL A   1      40.197  29.387  29.100  1.00  0.00     0.023 A 
ATOM     75  C   UNL A   1      39.972  29.374  30.493  1.00  0.00     0.031 A 
ATOM     76  C   UNL A   1      39.030  29.318  28.309  1.00  0.00     0.131 A 
ATOM     77  C   UNL A   1      38.678  29.253  31.034  1.00  0.00     0.055 A 
ATOM     78  C   UNL A   1      37.740  29.221  28.848  1.00  0.00     0.041 A 
ATOM     79  F   UNL A   1      39.054  29.318  26.974  1.00  0.00    -0.206 F 
ATOM     80  C   UNL A   1      37.557  29.179  30.218  1.00  0.00     0.022 A 
BRANCH  77  81
ATOM     81  S   UNL A   1      38.490  29.147  32.831  1.00  0.00     0.124 S 
ATOM     82  O   UNL A   1      37.368  28.223  32.965  1.00  0.00    -0.237 OA
ATOM     83  O   UNL A   1      39.796  28.651  33.251  1.00  0.00    -0.237 OA
ATOM     84  O   UNL A   1      38.200  30.526  33.221  1.00  0.00    -0.744 OA
ENDBRANCH  77  81
ENDBRANCH  60  74
BRANCH  61  85
ATOM     85  C   UNL A   1      49.615  27.654  27.141  1.00  0.00     0.023 A 
ATOM     86  C   UNL A   1      48.888  27.366  25.960  1.00  0.00     0.031 A 
ATOM     87  C   UNL A   1      51.014  27.606  27.069  1.00  0.00     0.131 A 
ATOM     88  C   UNL A   1      49.549  27.297  24.723  1.00  0.00     0.055 A 
ATOM     89  C   UNL A   1      51.670  27.431  25.841  1.00  0.00     0.041 A 
ATOM     90  F   UNL A   1      51.765  27.883  28.145  1.00  0.00    -0.206 F 
ATOM     91  C   UNL A   1      50.940  27.343  24.653  1.00  0.00     0.022 A 
BRANCH  88  92
ATOM     92  S   UNL A   1      48.544  27.462  23.212  1.00  0.00     0.124 S 
ATOM     93  O   UNL A   1      49.438  28.202  22.329  1.00  0.00    -0.237 OA
ATOM     94  O   UNL A   1      48.289  26.067  22.849  1.00  0.00    -0.237 OA
ATOM     95  O   UNL A   1      47.352  28.186  23.650  1.00  0.00    -0.744 OA
ENDBRANCH  88  92
ENDBRANCH  61  85
BRANCH  73  96
ATOM     96  C   UNL A   1      45.257  33.513  27.632  1.00  0.00     0.023 A 
ATOM     97  C   UNL A   1      45.646  34.676  28.304  1.00  0.00     0.031 A 
ATOM     98  C   UNL A   1      44.562  33.730  26.412  1.00  0.00     0.131 A 
ATOM     99  C   UNL A   1      45.265  35.950  27.851  1.00  0.00     0.055 A 
ATOM    100  C   UNL A   1      44.280  35.002  25.904  1.00  0.00     0.041 A 
ATOM    101  F   UNL A   1      44.137  32.722  25.640  1.00  0.00    -0.206 F 
ATOM    102  C   UNL A   1      44.608  36.127  26.639  1.00  0.00     0.022 A 
BRANCH  99 103
ATOM    103  S   UNL A   1      45.566  37.355  28.950  1.00  0.00     0.124 S 
ATOM    104  O   UNL A   1      44.212  37.681  29.393  1.00  0.00    -0.237 OA
ATOM    105  O   UNL A   1      46.439  36.777  29.967  1.00  0.00    -0.237 OA
ATOM    106  O   UNL A   1      46.192  38.346  28.079  1.00  0.00    -0.744 OA
ENDBRANCH  99 103
ENDBRANCH  73  96
ENDBRANCH  47  48
ENDBRANCH  39  42
ENDBRANCH  37  38
ENDBRANCH  36  37
ENDBRANCH  35  36
ENDBRANCH   3  35
TORSDOF 19
ENDMDL
