MODEL 1
REMARK VINA RESULT:     -12.8      0.000      0.000
REMARK SMILES Cc1ccc(Nc2c(F)cccc2I)c(CC(=O)NCCCNC(=O)c2ccc(-c3c4nc(c(-c5cc(S(=O)(=O)[O-])ccc5F)c5ccc([nH]5)c(-c5cc(S(=O)(=O)[O-])ccc5F)c5nc(c(-c6cc(S(=O)(=O)[O-])ccc6F)c6ccc3[nH]6)C=C5)C=C4)cc2)c1
REMARK SMILES IDX 21 1 20 2 19 3 17 4 18 5 16 7 15 8 1 9 2 10 3 11 89 12 4 13
REMARK SMILES IDX 5 14 6 15 7 17 8 18 13 19 9 20 10 21 12 22 14 23 11 24 22 25
REMARK SMILES IDX 23 26 24 27 25 29 26 30 27 31 88 32 28 33 87 34 29 35 30 36
REMARK SMILES IDX 31 37 81 38 32 39 86 40 80 41 82 42 33 43 85 44 79 45 78 46
REMARK SMILES IDX 34 48 66 49 46 50 65 51 47 52 50 53 64 54 83 55 48 56 49 57
REMARK SMILES IDX 63 59 84 60 51 61 35 62 36 63 44 64 37 65 43 66 45 67 42 68
REMARK SMILES IDX 38 69 39 70 40 71 41 72 67 73 68 74 76 75 69 76 75 77 77 78
REMARK SMILES IDX 74 79 70 80 71 81 72 82 73 83 52 84 53 85 61 86 54 87 60 88
REMARK SMILES IDX 62 89 59 90 55 91 56 92 57 93 58 94
REMARK H PARENT 19 6 6 16 23 28 82 47 50 58
REMARK Flexibility Score: inf
ROOT
ATOM      1  C   UNL A   1      33.719  30.939  27.082  1.00  0.00     0.042 C 
ENDROOT
BRANCH   1   2
ATOM      2  C   UNL A   1      32.249  30.580  26.881  1.00  0.00     0.117 C 
BRANCH   2   3
ATOM      3  N   UNL A   1      31.948  29.226  27.315  1.00  0.00    -0.356 N 
ATOM      4  C   UNL A   1      31.716  28.112  26.560  1.00  0.00     0.224 C 
ATOM      5  O   UNL A   1      31.346  27.063  27.093  1.00  0.00    -0.275 OA
ATOM      6  H   UNL A   1      31.905  29.092  28.289  1.00  0.00     0.163 HD
BRANCH   4   7
ATOM      7  C   UNL A   1      31.909  28.152  25.053  1.00  0.00     0.137 C 
BRANCH   7   8
ATOM      8  C   UNL A   1      30.635  28.345  24.258  1.00  0.00    -0.015 A 
ATOM      9  C   UNL A   1      28.612  31.372  23.084  1.00  0.00     0.044 C 
ATOM     10  C   UNL A   1      29.059  29.957  23.293  1.00  0.00    -0.051 A 
ATOM     11  C   UNL A   1      28.249  28.897  22.892  1.00  0.00     0.005 A 
ATOM     12  C   UNL A   1      30.266  29.670  23.934  1.00  0.00     0.009 A 
ATOM     13  C   UNL A   1      28.626  27.578  23.164  1.00  0.00     0.026 A 
ATOM     14  C   UNL A   1      29.800  27.273  23.873  1.00  0.00     0.042 A 
BRANCH  14  15
ATOM     15  N   UNL A   1      30.139  25.936  24.174  1.00  0.00    -0.352 N 
ATOM     16  H   UNL A   1      29.550  25.495  24.827  1.00  0.00     0.167 HD
BRANCH  15  17
ATOM     17  C   UNL A   1      31.193  25.129  23.684  1.00  0.00     0.088 A 
ATOM     18  C   UNL A   1      31.764  25.342  22.417  1.00  0.00     0.147 A 
ATOM     19  C   UNL A   1      31.665  24.021  24.417  1.00  0.00     0.040 A 
ATOM     20  F   UNL A   1      31.371  26.378  21.657  1.00  0.00    -0.205 F 
ATOM     21  C   UNL A   1      32.769  24.517  21.907  1.00  0.00     0.041 A 
ATOM     22  C   UNL A   1      32.677  23.190  23.911  1.00  0.00     0.017 A 
ATOM     23  I   UNL A   1      30.842  23.483  26.277  1.00  0.00    -0.042 I 
ATOM     24  C   UNL A   1      33.229  23.440  22.656  1.00  0.00     0.004 A 
ENDBRANCH  15  17
ENDBRANCH  14  15
ENDBRANCH   7   8
ENDBRANCH   4   7
ENDBRANCH   2   3
ENDBRANCH   1   2
BRANCH   1  25
ATOM     25  C   UNL A   1      34.350  30.315  28.320  1.00  0.00     0.118 C 
BRANCH  25  26
ATOM     26  N   UNL A   1      35.113  31.280  29.115  1.00  0.00    -0.352 N 
ATOM     27  C   UNL A   1      36.403  31.168  29.599  1.00  0.00     0.251 C 
ATOM     28  H   UNL A   1      34.645  32.118  29.334  1.00  0.00     0.163 HD
ATOM     29  O   UNL A   1      36.937  32.060  30.241  1.00  0.00    -0.269 OA
BRANCH  27  30
ATOM     30  C   UNL A   1      37.177  29.969  29.217  1.00  0.00     0.039 A 
ATOM     31  C   UNL A   1      37.379  28.997  30.202  1.00  0.00     0.014 A 
ATOM     32  C   UNL A   1      37.902  29.949  28.028  1.00  0.00     0.014 A 
ATOM     33  C   UNL A   1      38.471  28.142  30.095  1.00  0.00     0.010 A 
ATOM     34  C   UNL A   1      39.033  29.156  27.962  1.00  0.00     0.010 A 
ATOM     35  C   UNL A   1      39.355  28.305  29.027  1.00  0.00    -0.014 A 
BRANCH  35  36
ATOM     36  C   UNL A   1      40.711  27.760  29.046  1.00  0.00     0.031 A 
ATOM     37  C   UNL A   1      40.996  26.380  28.611  1.00  0.00     0.074 A 
ATOM     38  C   UNL A   1      41.743  28.536  29.448  1.00  0.00     0.049 A 
ATOM     39  N   UNL A   1      42.011  25.688  29.012  1.00  0.00    -0.248 NA
ATOM     40  C   UNL A   1      40.124  25.649  27.704  1.00  0.00     0.031 C 
ATOM     41  C   UNL A   1      43.169  28.253  29.317  1.00  0.00     0.029 A 
ATOM     42  N   UNL A   1      41.682  29.622  30.319  1.00  0.00    -0.354 N 
ATOM     43  C   UNL A   1      42.099  24.573  28.214  1.00  0.00     0.074 A 
ATOM     44  C   UNL A   1      40.859  24.559  27.466  1.00  0.00     0.031 C 
ATOM     45  C   UNL A   1      43.828  28.922  30.274  1.00  0.00     0.029 A 
ATOM     46  C   UNL A   1      42.839  29.558  31.122  1.00  0.00     0.049 A 
ATOM     47  H   UNL A   1      40.970  30.301  30.364  1.00  0.00     0.167 HD
ATOM     48  C   UNL A   1      43.262  23.862  28.168  1.00  0.00     0.034 A 
ATOM     49  C   UNL A   1      42.746  29.445  32.480  1.00  0.00     0.034 A 
ATOM     50  C   UNL A   1      44.271  24.371  29.099  1.00  0.00     0.049 A 
ATOM     51  C   UNL A   1      43.399  28.201  33.048  1.00  0.00     0.074 A 
ATOM     52  C   UNL A   1      45.436  25.110  28.966  1.00  0.00     0.029 A 
ATOM     53  N   UNL A   1      44.010  24.322  30.458  1.00  0.00    -0.354 N 
ATOM     54  N   UNL A   1      43.988  27.283  32.332  1.00  0.00    -0.248 NA
ATOM     55  C   UNL A   1      43.350  27.844  34.467  1.00  0.00     0.031 C 
ATOM     56  C   UNL A   1      45.871  25.498  30.268  1.00  0.00     0.029 A 
ATOM     57  C   UNL A   1      44.976  24.987  31.189  1.00  0.00     0.049 A 
ATOM     58  H   UNL A   1      43.232  23.868  30.854  1.00  0.00     0.167 HD
ATOM     59  C   UNL A   1      44.308  26.215  33.130  1.00  0.00     0.074 A 
ATOM     60  C   UNL A   1      43.900  26.618  34.463  1.00  0.00     0.031 C 
ATOM     61  C   UNL A   1      44.832  25.054  32.635  1.00  0.00     0.034 A 
BRANCH  48  62
ATOM     62  C   UNL A   1      43.572  22.857  27.082  1.00  0.00     0.023 A 
ATOM     63  C   UNL A   1      42.940  21.597  27.101  1.00  0.00     0.031 A 
ATOM     64  C   UNL A   1      44.492  23.052  26.034  1.00  0.00     0.131 A 
ATOM     65  C   UNL A   1      43.309  20.576  26.208  1.00  0.00     0.055 A 
ATOM     66  C   UNL A   1      44.915  22.017  25.192  1.00  0.00     0.041 A 
ATOM     67  F   UNL A   1      44.979  24.268  25.747  1.00  0.00    -0.206 F 
ATOM     68  C   UNL A   1      44.335  20.761  25.287  1.00  0.00     0.022 A 
BRANCH  65  69
ATOM     69  S   UNL A   1      42.418  18.996  26.260  1.00  0.00     0.124 S 
ATOM     70  O   UNL A   1      43.218  18.158  25.373  1.00  0.00    -0.237 OA
ATOM     71  O   UNL A   1      42.463  18.666  27.679  1.00  0.00    -0.237 OA
ATOM     72  O   UNL A   1      41.091  19.340  25.749  1.00  0.00    -0.744 OA
ENDBRANCH  65  69
ENDBRANCH  48  62
BRANCH  49  73
ATOM     73  C   UNL A   1      41.547  30.143  33.033  1.00  0.00     0.023 A 
ATOM     74  C   UNL A   1      41.611  31.553  33.098  1.00  0.00     0.031 A 
ATOM     75  C   UNL A   1      40.284  29.544  33.102  1.00  0.00     0.131 A 
ATOM     76  C   UNL A   1      40.440  32.317  33.017  1.00  0.00     0.055 A 
ATOM     77  C   UNL A   1      39.115  30.315  33.134  1.00  0.00     0.041 A 
ATOM     78  F   UNL A   1      40.149  28.213  33.010  1.00  0.00    -0.206 F 
ATOM     79  C   UNL A   1      39.187  31.707  33.040  1.00  0.00     0.022 A 
BRANCH  76  80
ATOM     80  S   UNL A   1      40.604  34.065  32.547  1.00  0.00     0.124 S 
ATOM     81  O   UNL A   1      39.777  34.735  33.544  1.00  0.00    -0.237 OA
ATOM     82  O   UNL A   1      42.046  34.292  32.654  1.00  0.00    -0.237 OA
ATOM     83  O   UNL A   1      40.098  34.113  31.178  1.00  0.00    -0.744 OA
ENDBRANCH  76  80
ENDBRANCH  49  73
BRANCH  61  84
ATOM     84  C   UNL A   1      45.209  23.871  33.490  1.00  0.00     0.023 A 
ATOM     85  C   UNL A   1      46.533  23.630  33.896  1.00  0.00     0.031 A 
ATOM     86  C   UNL A   1      44.257  22.894  33.864  1.00  0.00     0.131 A 
ATOM     87  C   UNL A   1      46.851  22.519  34.697  1.00  0.00     0.055 A 
ATOM     88  C   UNL A   1      44.591  21.749  34.591  1.00  0.00     0.041 A 
ATOM     89  F   UNL A   1      42.956  23.029  33.572  1.00  0.00    -0.206 F 
ATOM     90  C   UNL A   1      45.892  21.562  35.027  1.00  0.00     0.022 A 
BRANCH  87  91
ATOM     91  S   UNL A   1      48.528  22.381  35.367  1.00  0.00     0.124 S 
ATOM     92  O   UNL A   1      48.602  23.518  36.279  1.00  0.00    -0.237 OA
ATOM     93  O   UNL A   1      48.489  21.064  35.996  1.00  0.00    -0.237 OA
ATOM     94  O   UNL A   1      49.382  22.477  34.184  1.00  0.00    -0.744 OA
ENDBRANCH  87  91
ENDBRANCH  61  84
ENDBRANCH  35  36
ENDBRANCH  27  30
ENDBRANCH  25  26
ENDBRANCH   1  25
TORSDOF 16
ENDMDL
MODEL 2
REMARK VINA RESULT:     -12.8      4.434     10.772
REMARK SMILES Cc1ccc(Nc2c(F)cccc2I)c(CC(=O)NCCCNC(=O)c2ccc(-c3c4nc(c(-c5cc(S(=O)(=O)[O-])ccc5F)c5ccc([nH]5)c(-c5cc(S(=O)(=O)[O-])ccc5F)c5nc(c(-c6cc(S(=O)(=O)[O-])ccc6F)c6ccc3[nH]6)C=C5)C=C4)cc2)c1
REMARK SMILES IDX 21 1 20 2 19 3 17 4 18 5 16 7 15 8 1 9 2 10 3 11 89 12 4 13
REMARK SMILES IDX 5 14 6 15 7 17 8 18 13 19 9 20 10 21 12 22 14 23 11 24 22 25
REMARK SMILES IDX 23 26 24 27 25 29 26 30 27 31 88 32 28 33 87 34 29 35 30 36
REMARK SMILES IDX 31 37 81 38 32 39 86 40 80 41 82 42 33 43 85 44 79 45 78 46
REMARK SMILES IDX 34 48 66 49 46 50 65 51 47 52 50 53 64 54 83 55 48 56 49 57
REMARK SMILES IDX 63 59 84 60 51 61 35 62 36 63 44 64 37 65 43 66 45 67 42 68
REMARK SMILES IDX 38 69 39 70 40 71 41 72 67 73 68 74 76 75 69 76 75 77 77 78
REMARK SMILES IDX 74 79 70 80 71 81 72 82 73 83 52 84 53 85 61 86 54 87 60 88
REMARK SMILES IDX 62 89 59 90 55 91 56 92 57 93 58 94
REMARK H PARENT 19 6 6 16 23 28 82 47 50 58
REMARK Flexibility Score: inf
ROOT
ATOM      1  C   UNL A   1      38.995  21.388  26.016  1.00  0.00     0.042 C 
ENDROOT
BRANCH   1   2
ATOM      2  C   UNL A   1      37.556  21.259  25.523  1.00  0.00     0.117 C 
BRANCH   2   3
ATOM      3  N   UNL A   1      37.382  21.793  24.182  1.00  0.00    -0.356 N 
ATOM      4  C   UNL A   1      36.574  22.808  23.759  1.00  0.00     0.224 C 
ATOM      5  O   UNL A   1      36.453  23.048  22.554  1.00  0.00    -0.275 OA
ATOM      6  H   UNL A   1      37.923  21.362  23.481  1.00  0.00     0.163 HD
BRANCH   4   7
ATOM      7  C   UNL A   1      35.811  23.653  24.765  1.00  0.00     0.137 C 
BRANCH   7   8
ATOM      8  C   UNL A   1      34.376  23.227  24.989  1.00  0.00    -0.015 A 
ATOM      9  C   UNL A   1      32.459  19.929  24.698  1.00  0.00     0.044 C 
ATOM     10  C   UNL A   1      32.774  21.370  24.964  1.00  0.00    -0.051 A 
ATOM     11  C   UNL A   1      31.753  22.271  25.256  1.00  0.00     0.005 A 
ATOM     12  C   UNL A   1      34.083  21.848  24.875  1.00  0.00     0.009 A 
ATOM     13  C   UNL A   1      32.036  23.631  25.420  1.00  0.00     0.026 A 
ATOM     14  C   UNL A   1      33.336  24.142  25.261  1.00  0.00     0.042 A 
BRANCH  14  15
ATOM     15  N   UNL A   1      33.592  25.525  25.388  1.00  0.00    -0.352 N 
ATOM     16  H   UNL A   1      33.858  25.816  26.290  1.00  0.00     0.167 HD
BRANCH  15  17
ATOM     17  C   UNL A   1      33.527  26.558  24.424  1.00  0.00     0.088 A 
ATOM     18  C   UNL A   1      33.545  26.288  23.044  1.00  0.00     0.147 A 
ATOM     19  C   UNL A   1      33.521  27.914  24.808  1.00  0.00     0.040 A 
ATOM     20  F   UNL A   1      33.549  25.022  22.597  1.00  0.00    -0.205 F 
ATOM     21  C   UNL A   1      33.533  27.307  22.089  1.00  0.00     0.041 A 
ATOM     22  C   UNL A   1      33.506  28.942  23.852  1.00  0.00     0.017 A 
ATOM     23  I   UNL A   1      33.613  28.502  26.826  1.00  0.00    -0.042 I 
ATOM     24  C   UNL A   1      33.510  28.637  22.492  1.00  0.00     0.004 A 
ENDBRANCH  15  17
ENDBRANCH  14  15
ENDBRANCH   7   8
ENDBRANCH   4   7
ENDBRANCH   2   3
ENDBRANCH   1   2
BRANCH   1  25
ATOM     25  C   UNL A   1      39.362  22.782  26.508  1.00  0.00     0.118 C 
BRANCH  25  26
ATOM     26  N   UNL A   1      40.794  23.067  26.387  1.00  0.00    -0.352 N 
ATOM     27  C   UNL A   1      41.448  24.276  26.541  1.00  0.00     0.251 C 
ATOM     28  H   UNL A   1      41.365  22.296  26.165  1.00  0.00     0.163 HD
ATOM     29  O   UNL A   1      42.661  24.378  26.430  1.00  0.00    -0.269 OA
BRANCH  27  30
ATOM     30  C   UNL A   1      40.645  25.440  26.967  1.00  0.00     0.039 A 
ATOM     31  C   UNL A   1      40.829  26.635  26.263  1.00  0.00     0.014 A 
ATOM     32  C   UNL A   1      39.960  25.417  28.179  1.00  0.00     0.014 A 
ATOM     33  C   UNL A   1      40.530  27.841  26.888  1.00  0.00     0.010 A 
ATOM     34  C   UNL A   1      39.739  26.617  28.831  1.00  0.00     0.010 A 
ATOM     35  C   UNL A   1      40.090  27.825  28.213  1.00  0.00    -0.014 A 
BRANCH  35  36
ATOM     36  C   UNL A   1      40.148  29.009  29.069  1.00  0.00     0.031 A 
ATOM     37  C   UNL A   1      39.082  30.026  29.055  1.00  0.00     0.074 A 
ATOM     38  C   UNL A   1      41.188  29.175  29.918  1.00  0.00     0.049 A 
ATOM     39  N   UNL A   1      39.253  31.262  29.392  1.00  0.00    -0.248 NA
ATOM     40  C   UNL A   1      37.725  29.733  28.614  1.00  0.00     0.031 C 
ATOM     41  C   UNL A   1      41.305  30.152  30.996  1.00  0.00     0.029 A 
ATOM     42  N   UNL A   1      42.474  28.660  29.773  1.00  0.00    -0.354 N 
ATOM     43  C   UNL A   1      38.012  31.840  29.508  1.00  0.00     0.074 A 
ATOM     44  C   UNL A   1      37.101  30.869  28.941  1.00  0.00     0.031 C 
ATOM     45  C   UNL A   1      42.605  30.386  31.224  1.00  0.00     0.029 A 
ATOM     46  C   UNL A   1      43.361  29.662  30.220  1.00  0.00     0.049 A 
ATOM     47  H   UNL A   1      42.717  27.770  29.428  1.00  0.00     0.167 HD
ATOM     48  C   UNL A   1      37.871  33.011  30.192  1.00  0.00     0.034 A 
ATOM     49  C   UNL A   1      44.306  30.186  29.386  1.00  0.00     0.034 A 
ATOM     50  C   UNL A   1      39.152  33.554  30.651  1.00  0.00     0.049 A 
ATOM     51  C   UNL A   1      44.183  31.681  29.166  1.00  0.00     0.074 A 
ATOM     52  C   UNL A   1      39.797  33.630  31.875  1.00  0.00     0.029 A 
ATOM     53  N   UNL A   1      40.090  33.936  29.707  1.00  0.00    -0.354 N 
ATOM     54  N   UNL A   1      43.255  32.431  29.694  1.00  0.00    -0.248 NA
ATOM     55  C   UNL A   1      45.043  32.432  28.251  1.00  0.00     0.031 C 
ATOM     56  C   UNL A   1      41.136  34.068  31.648  1.00  0.00     0.029 A 
ATOM     57  C   UNL A   1      41.298  34.267  30.290  1.00  0.00     0.049 A 
ATOM     58  H   UNL A   1      39.917  33.969  28.739  1.00  0.00     0.167 HD
ATOM     59  C   UNL A   1      43.323  33.691  29.154  1.00  0.00     0.074 A 
ATOM     60  C   UNL A   1      44.468  33.646  28.263  1.00  0.00     0.031 C 
ATOM     61  C   UNL A   1      42.403  34.662  29.430  1.00  0.00     0.034 A 
BRANCH  48  62
ATOM     62  C   UNL A   1      36.535  33.531  30.672  1.00  0.00     0.023 A 
ATOM     63  C   UNL A   1      35.654  34.133  29.750  1.00  0.00     0.031 A 
ATOM     64  C   UNL A   1      36.084  33.503  32.005  1.00  0.00     0.131 A 
ATOM     65  C   UNL A   1      34.473  34.770  30.171  1.00  0.00     0.055 A 
ATOM     66  C   UNL A   1      34.947  34.198  32.437  1.00  0.00     0.041 A 
ATOM     67  F   UNL A   1      36.693  32.755  32.935  1.00  0.00    -0.206 F 
ATOM     68  C   UNL A   1      34.142  34.853  31.519  1.00  0.00     0.022 A 
BRANCH  65  69
ATOM     69  S   UNL A   1      33.363  35.480  28.924  1.00  0.00     0.124 S 
ATOM     70  O   UNL A   1      34.288  36.210  28.062  1.00  0.00    -0.237 OA
ATOM     71  O   UNL A   1      32.745  34.290  28.350  1.00  0.00    -0.237 OA
ATOM     72  O   UNL A   1      32.464  36.322  29.712  1.00  0.00    -0.744 OA
ENDBRANCH  65  69
ENDBRANCH  48  62
BRANCH  49  73
ATOM     73  C   UNL A   1      44.816  29.189  28.398  1.00  0.00     0.023 A 
ATOM     74  C   UNL A   1      45.719  28.219  28.889  1.00  0.00     0.031 A 
ATOM     75  C   UNL A   1      44.173  28.925  27.184  1.00  0.00     0.131 A 
ATOM     76  C   UNL A   1      45.795  26.957  28.287  1.00  0.00     0.055 A 
ATOM     77  C   UNL A   1      44.340  27.701  26.524  1.00  0.00     0.041 A 
ATOM     78  F   UNL A   1      43.278  29.787  26.678  1.00  0.00    -0.206 F 
ATOM     79  C   UNL A   1      45.113  26.691  27.100  1.00  0.00     0.022 A 
BRANCH  76  80
ATOM     80  S   UNL A   1      46.520  25.602  29.257  1.00  0.00     0.124 S 
ATOM     81  O   UNL A   1      46.918  26.276  30.486  1.00  0.00    -0.237 OA
ATOM     82  O   UNL A   1      45.404  24.661  29.375  1.00  0.00    -0.237 OA
ATOM     83  O   UNL A   1      47.616  25.116  28.423  1.00  0.00    -0.744 OA
ENDBRANCH  76  80
ENDBRANCH  49  73
BRANCH  61  84
ATOM     84  C   UNL A   1      42.461  36.059  28.865  1.00  0.00     0.023 A 
ATOM     85  C   UNL A   1      42.991  37.140  29.590  1.00  0.00     0.031 A 
ATOM     86  C   UNL A   1      41.912  36.369  27.599  1.00  0.00     0.131 A 
ATOM     87  C   UNL A   1      43.034  38.431  29.032  1.00  0.00     0.055 A 
ATOM     88  C   UNL A   1      41.883  37.667  27.083  1.00  0.00     0.041 A 
ATOM     89  F   UNL A   1      41.413  35.420  26.795  1.00  0.00    -0.206 F 
ATOM     90  C   UNL A   1      42.460  38.706  27.792  1.00  0.00     0.022 A 
BRANCH  87  91
ATOM     91  S   UNL A   1      43.921  39.733  29.925  1.00  0.00     0.124 S 
ATOM     92  O   UNL A   1      44.937  38.984  30.657  1.00  0.00    -0.237 OA
ATOM     93  O   UNL A   1      44.413  40.563  28.828  1.00  0.00    -0.237 OA
ATOM     94  O   UNL A   1      42.887  40.352  30.753  1.00  0.00    -0.744 OA
ENDBRANCH  87  91
ENDBRANCH  61  84
ENDBRANCH  35  36
ENDBRANCH  27  30
ENDBRANCH  25  26
ENDBRANCH   1  25
TORSDOF 16
ENDMDL
MODEL 3
REMARK VINA RESULT:     -12.6      1.228      2.725
REMARK SMILES Cc1ccc(Nc2c(F)cccc2I)c(CC(=O)NCCCNC(=O)c2ccc(-c3c4nc(c(-c5cc(S(=O)(=O)[O-])ccc5F)c5ccc([nH]5)c(-c5cc(S(=O)(=O)[O-])ccc5F)c5nc(c(-c6cc(S(=O)(=O)[O-])ccc6F)c6ccc3[nH]6)C=C5)C=C4)cc2)c1
REMARK SMILES IDX 21 1 20 2 19 3 17 4 18 5 16 7 15 8 1 9 2 10 3 11 89 12 4 13
REMARK SMILES IDX 5 14 6 15 7 17 8 18 13 19 9 20 10 21 12 22 14 23 11 24 22 25
REMARK SMILES IDX 23 26 24 27 25 29 26 30 27 31 88 32 28 33 87 34 29 35 30 36
REMARK SMILES IDX 31 37 81 38 32 39 86 40 80 41 82 42 33 43 85 44 79 45 78 46
REMARK SMILES IDX 34 48 66 49 46 50 65 51 47 52 50 53 64 54 83 55 48 56 49 57
REMARK SMILES IDX 63 59 84 60 51 61 35 62 36 63 44 64 37 65 43 66 45 67 42 68
REMARK SMILES IDX 38 69 39 70 40 71 41 72 67 73 68 74 76 75 69 76 75 77 77 78
REMARK SMILES IDX 74 79 70 80 71 81 72 82 73 83 52 84 53 85 61 86 54 87 60 88
REMARK SMILES IDX 62 89 59 90 55 91 56 92 57 93 58 94
REMARK H PARENT 19 6 6 16 23 28 82 47 50 58
REMARK Flexibility Score: inf
ROOT
ATOM      1  C   UNL A   1      33.075  30.482  27.354  1.00  0.00     0.042 C 
ENDROOT
BRANCH   1   2
ATOM      2  C   UNL A   1      32.647  29.547  26.227  1.00  0.00     0.117 C 
BRANCH   2   3
ATOM      3  N   UNL A   1      31.784  28.475  26.695  1.00  0.00    -0.356 N 
ATOM      4  C   UNL A   1      31.936  27.126  26.559  1.00  0.00     0.224 C 
ATOM      5  O   UNL A   1      31.035  26.358  26.908  1.00  0.00    -0.275 OA
ATOM      6  H   UNL A   1      30.976  28.764  27.180  1.00  0.00     0.163 HD
BRANCH   4   7
ATOM      7  C   UNL A   1      33.214  26.553  25.972  1.00  0.00     0.137 C 
BRANCH   7   8
ATOM      8  C   UNL A   1      33.133  25.091  25.587  1.00  0.00    -0.015 A 
ATOM      9  C   UNL A   1      34.034  21.791  27.301  1.00  0.00     0.044 C 
ATOM     10  C   UNL A   1      33.531  22.774  26.288  1.00  0.00    -0.051 A 
ATOM     11  C   UNL A   1      33.153  22.345  25.018  1.00  0.00     0.005 A 
ATOM     12  C   UNL A   1      33.477  24.140  26.575  1.00  0.00     0.009 A 
ATOM     13  C   UNL A   1      32.765  23.272  24.046  1.00  0.00     0.026 A 
ATOM     14  C   UNL A   1      32.775  24.655  24.293  1.00  0.00     0.042 A 
BRANCH  14  15
ATOM     15  N   UNL A   1      32.420  25.575  23.283  1.00  0.00    -0.352 N 
ATOM     16  H   UNL A   1      32.935  25.494  22.448  1.00  0.00     0.167 HD
BRANCH  15  17
ATOM     17  C   UNL A   1      31.440  26.597  23.281  1.00  0.00     0.088 A 
ATOM     18  C   UNL A   1      30.077  26.317  23.481  1.00  0.00     0.147 A 
ATOM     19  C   UNL A   1      31.781  27.934  22.998  1.00  0.00     0.040 A 
ATOM     20  F   UNL A   1      29.670  25.068  23.757  1.00  0.00    -0.205 F 
ATOM     21  C   UNL A   1      29.100  27.313  23.429  1.00  0.00     0.041 A 
ATOM     22  C   UNL A   1      30.804  28.941  22.947  1.00  0.00     0.017 A 
ATOM     23  I   UNL A   1      33.756  28.512  22.555  1.00  0.00    -0.042 I 
ATOM     24  C   UNL A   1      29.463  28.629  23.164  1.00  0.00     0.004 A 
ENDBRANCH  15  17
ENDBRANCH  14  15
ENDBRANCH   7   8
ENDBRANCH   4   7
ENDBRANCH   2   3
ENDBRANCH   1   2
BRANCH   1  25
ATOM     25  C   UNL A   1      34.565  30.796  27.373  1.00  0.00     0.118 C 
BRANCH  25  26
ATOM     26  N   UNL A   1      34.985  31.479  28.599  1.00  0.00    -0.352 N 
ATOM     27  C   UNL A   1      35.958  31.100  29.506  1.00  0.00     0.251 C 
ATOM     28  H   UNL A   1      34.513  32.318  28.804  1.00  0.00     0.163 HD
ATOM     29  O   UNL A   1      36.228  31.773  30.489  1.00  0.00    -0.269 OA
BRANCH  27  30
ATOM     30  C   UNL A   1      36.757  29.898  29.192  1.00  0.00     0.039 A 
ATOM     31  C   UNL A   1      37.044  29.027  30.248  1.00  0.00     0.014 A 
ATOM     32  C   UNL A   1      37.423  29.796  27.973  1.00  0.00     0.014 A 
ATOM     33  C   UNL A   1      38.162  28.204  30.160  1.00  0.00     0.010 A 
ATOM     34  C   UNL A   1      38.579  29.039  27.919  1.00  0.00     0.010 A 
ATOM     35  C   UNL A   1      38.986  28.298  29.037  1.00  0.00    -0.014 A 
BRANCH  35  36
ATOM     36  C   UNL A   1      40.361  27.804  29.034  1.00  0.00     0.031 A 
ATOM     37  C   UNL A   1      40.688  26.432  28.604  1.00  0.00     0.074 A 
ATOM     38  C   UNL A   1      41.371  28.621  29.409  1.00  0.00     0.049 A 
ATOM     39  N   UNL A   1      41.735  25.781  28.991  1.00  0.00    -0.248 NA
ATOM     40  C   UNL A   1      39.826  25.662  27.720  1.00  0.00     0.031 C 
ATOM     41  C   UNL A   1      42.804  28.389  29.253  1.00  0.00     0.029 A 
ATOM     42  N   UNL A   1      41.287  29.711  30.273  1.00  0.00    -0.354 N 
ATOM     43  C   UNL A   1      41.848  24.663  28.199  1.00  0.00     0.074 A 
ATOM     44  C   UNL A   1      40.596  24.597  27.476  1.00  0.00     0.031 C 
ATOM     45  C   UNL A   1      43.457  29.090  30.191  1.00  0.00     0.029 A 
ATOM     46  C   UNL A   1      42.461  29.696  31.054  1.00  0.00     0.049 A 
ATOM     47  H   UNL A   1      40.552  30.364  30.327  1.00  0.00     0.167 HD
ATOM     48  C   UNL A   1      43.036  23.994  28.136  1.00  0.00     0.034 A 
ATOM     49  C   UNL A   1      42.399  29.592  32.414  1.00  0.00     0.034 A 
ATOM     50  C   UNL A   1      44.044  24.548  29.043  1.00  0.00     0.049 A 
ATOM     51  C   UNL A   1      43.108  28.377  32.979  1.00  0.00     0.074 A 
ATOM     52  C   UNL A   1      45.178  25.328  28.881  1.00  0.00     0.029 A 
ATOM     53  N   UNL A   1      43.811  24.501  30.407  1.00  0.00    -0.354 N 
ATOM     54  N   UNL A   1      43.716  27.475  32.258  1.00  0.00    -0.248 NA
ATOM     55  C   UNL A   1      43.100  28.031  34.401  1.00  0.00     0.031 C 
ATOM     56  C   UNL A   1      45.623  25.743  30.172  1.00  0.00     0.029 A 
ATOM     57  C   UNL A   1      44.765  25.207  31.114  1.00  0.00     0.049 A 
ATOM     58  H   UNL A   1      43.058  24.022  30.822  1.00  0.00     0.167 HD
ATOM     59  C   UNL A   1      44.091  26.426  33.058  1.00  0.00     0.074 A 
ATOM     60  C   UNL A   1      43.694  26.826  34.396  1.00  0.00     0.031 C 
ATOM     61  C   UNL A   1      44.647  25.282  32.562  1.00  0.00     0.034 A 
BRANCH  48  62
ATOM     62  C   UNL A   1      43.362  22.993  27.052  1.00  0.00     0.023 A 
ATOM     63  C   UNL A   1      42.778  21.710  27.095  1.00  0.00     0.031 A 
ATOM     64  C   UNL A   1      44.252  23.213  25.984  1.00  0.00     0.131 A 
ATOM     65  C   UNL A   1      43.168  20.695  26.203  1.00  0.00     0.055 A 
ATOM     66  C   UNL A   1      44.696  22.187  25.141  1.00  0.00     0.041 A 
ATOM     67  F   UNL A   1      44.686  24.443  25.676  1.00  0.00    -0.206 F 
ATOM     68  C   UNL A   1      44.166  20.911  25.259  1.00  0.00     0.022 A 
BRANCH  65  69
ATOM     69  S   UNL A   1      42.339  19.083  26.286  1.00  0.00     0.124 S 
ATOM     70  O   UNL A   1      43.167  18.261  25.410  1.00  0.00    -0.237 OA
ATOM     71  O   UNL A   1      42.403  18.779  27.710  1.00  0.00    -0.237 OA
ATOM     72  O   UNL A   1      40.998  19.367  25.776  1.00  0.00    -0.744 OA
ENDBRANCH  65  69
ENDBRANCH  48  62
BRANCH  49  73
ATOM     73  C   UNL A   1      41.186  30.250  32.984  1.00  0.00     0.023 A 
ATOM     74  C   UNL A   1      41.184  31.663  33.004  1.00  0.00     0.031 A 
ATOM     75  C   UNL A   1      39.956  29.595  33.114  1.00  0.00     0.131 A 
ATOM     76  C   UNL A   1      39.976  32.368  32.939  1.00  0.00     0.055 A 
ATOM     77  C   UNL A   1      38.752  30.311  33.161  1.00  0.00     0.041 A 
ATOM     78  F   UNL A   1      39.882  28.256  33.067  1.00  0.00    -0.206 F 
ATOM     79  C   UNL A   1      38.755  31.700  33.023  1.00  0.00     0.022 A 
BRANCH  76  80
ATOM     80  S   UNL A   1      40.041  34.106  32.411  1.00  0.00     0.124 S 
ATOM     81  O   UNL A   1      41.358  34.195  31.793  1.00  0.00    -0.237 OA
ATOM     82  O   UNL A   1      38.898  34.208  31.503  1.00  0.00    -0.237 OA
ATOM     83  O   UNL A   1      39.878  34.859  33.652  1.00  0.00    -0.744 OA
ENDBRANCH  76  80
ENDBRANCH  49  73
BRANCH  61  84
ATOM     84  C   UNL A   1      45.084  24.120  33.419  1.00  0.00     0.023 A 
ATOM     85  C   UNL A   1      46.392  24.008  33.920  1.00  0.00     0.031 A 
ATOM     86  C   UNL A   1      44.216  23.039  33.699  1.00  0.00     0.131 A 
ATOM     87  C   UNL A   1      46.767  22.913  34.719  1.00  0.00     0.055 A 
ATOM     88  C   UNL A   1      44.616  21.914  34.425  1.00  0.00     0.041 A 
ATOM     89  F   UNL A   1      42.934  23.045  33.311  1.00  0.00    -0.206 F 
ATOM     90  C   UNL A   1      45.893  21.853  34.955  1.00  0.00     0.022 A 
BRANCH  87  91
ATOM     91  S   UNL A   1      48.395  22.933  35.512  1.00  0.00     0.124 S 
ATOM     92  O   UNL A   1      48.364  21.728  36.335  1.00  0.00    -0.237 OA
ATOM     93  O   UNL A   1      49.288  22.889  34.357  1.00  0.00    -0.237 OA
ATOM     94  O   UNL A   1      48.405  24.192  36.254  1.00  0.00    -0.744 OA
ENDBRANCH  87  91
ENDBRANCH  61  84
ENDBRANCH  35  36
ENDBRANCH  27  30
ENDBRANCH  25  26
ENDBRANCH   1  25
TORSDOF 16
ENDMDL
