MODEL 1
REMARK VINA RESULT:     -10.8      0.000      0.000
REMARK SMILES CSc1ncccc1C(=O)N1CSC[C@H]1C(=O)NCCCNC(=O)c1ccc(-c2c3nc(c(-c4cc(S(=O)(=O)[O-])ccc4F)c4ccc([nH]4)c(-c4cc(S(=O)(=O)[O-])ccc4F)c4nc(c(-c5cc(S(=O)(=O)[O-])ccc5F)c5ccc2[nH]5)C=C4)C=C3)cc1
REMARK SMILES IDX 20 1 19 2 18 3 16 4 17 5 15 7 11 8 12 9 13 10 14 11 9 12
REMARK SMILES IDX 10 13 8 14 3 15 4 16 5 17 7 18 6 19 2 20 1 21 21 22 22 23
REMARK SMILES IDX 23 24 24 26 25 27 26 28 87 29 27 30 86 31 28 32 29 33 30 34
REMARK SMILES IDX 80 35 31 36 85 37 79 38 81 39 32 40 84 41 78 42 77 43 33 45
REMARK SMILES IDX 65 46 45 47 64 48 46 49 49 50 63 51 82 52 47 53 48 54 62 56
REMARK SMILES IDX 83 57 50 58 34 59 35 60 43 61 36 62 42 63 44 64 41 65 37 66
REMARK SMILES IDX 38 67 39 68 40 69 66 70 67 71 75 72 68 73 74 74 76 75 73 76
REMARK SMILES IDX 69 77 70 78 71 79 72 80 51 81 52 82 60 83 53 84 59 85 61 86
REMARK SMILES IDX 58 87 54 88 55 89 56 90 57 91
REMARK H PARENT 18 6 22 25 81 44 49 55
REMARK Flexibility Score: inf
ROOT
ATOM      1  C   UNL A   1      32.522  28.528  26.396  1.00  0.00     0.042 C 
ENDROOT
BRANCH   1   2
ATOM      2  C   UNL A   1      31.396  28.539  25.375  1.00  0.00     0.117 C 
BRANCH   2   3
ATOM      3  N   UNL A   1      30.770  27.247  25.220  1.00  0.00    -0.354 N 
ATOM      4  C   UNL A   1      31.167  26.144  24.530  1.00  0.00     0.243 C 
ATOM      5  O   UNL A   1      30.606  25.082  24.828  1.00  0.00    -0.273 OA
ATOM      6  H   UNL A   1      29.911  27.148  25.692  1.00  0.00     0.163 HD
BRANCH   4   7
ATOM      7  C   UNL A   1      32.355  26.146  23.545  1.00  0.00     0.185 C 
ATOM      8  N   UNL A   1      33.155  24.916  23.430  1.00  0.00    -0.316 N 
ATOM      9  C   UNL A   1      33.007  24.205  22.179  1.00  0.00     0.190 C 
ATOM     10  S   UNL A   1      32.640  25.472  20.945  1.00  0.00    -0.138 SA
ATOM     11  C   UNL A   1      31.949  26.642  22.156  1.00  0.00     0.106 C 
BRANCH   8  12
ATOM     12  C   UNL A   1      34.111  24.703  24.425  1.00  0.00     0.257 C 
ATOM     13  O   UNL A   1      34.491  25.638  25.126  1.00  0.00    -0.269 OA
BRANCH  12  14
ATOM     14  C   UNL A   1      34.842  23.406  24.513  1.00  0.00     0.072 A 
ATOM     15  C   UNL A   1      34.401  22.315  25.274  1.00  0.00     0.108 A 
ATOM     16  N   UNL A   1      35.169  21.197  25.433  1.00  0.00    -0.249 NA
ATOM     17  C   UNL A   1      36.387  21.155  24.860  1.00  0.00     0.112 A 
ATOM     18  C   UNL A   1      36.141  23.337  23.974  1.00  0.00     0.018 A 
ATOM     19  C   UNL A   1      36.913  22.191  24.121  1.00  0.00     0.021 A 
BRANCH  15  20
ATOM     20  S   UNL A   1      32.815  22.251  26.104  1.00  0.00    -0.109 SA
ATOM     21  C   UNL A   1      33.321  22.264  27.847  1.00  0.00     0.092 C 
ENDBRANCH  15  20
ENDBRANCH  12  14
ENDBRANCH   8  12
ENDBRANCH   4   7
ENDBRANCH   2   3
ENDBRANCH   1   2
BRANCH   1  22
ATOM     22  C   UNL A   1      33.680  29.441  26.022  1.00  0.00     0.118 C 
BRANCH  22  23
ATOM     23  N   UNL A   1      33.496  30.794  26.532  1.00  0.00    -0.352 N 
ATOM     24  C   UNL A   1      34.131  31.449  27.553  1.00  0.00     0.251 C 
ATOM     25  H   UNL A   1      32.806  31.322  26.069  1.00  0.00     0.163 HD
ATOM     26  O   UNL A   1      33.638  32.495  27.986  1.00  0.00    -0.269 OA
BRANCH  24  27
ATOM     27  C   UNL A   1      35.379  30.916  28.136  1.00  0.00     0.039 A 
ATOM     28  C   UNL A   1      35.324  29.760  28.919  1.00  0.00     0.014 A 
ATOM     29  C   UNL A   1      36.597  31.579  27.957  1.00  0.00     0.014 A 
ATOM     30  C   UNL A   1      36.493  29.253  29.488  1.00  0.00     0.010 A 
ATOM     31  C   UNL A   1      37.773  31.017  28.437  1.00  0.00     0.010 A 
ATOM     32  C   UNL A   1      37.731  29.864  29.234  1.00  0.00    -0.014 A 
BRANCH  32  33
ATOM     33  C   UNL A   1      38.984  29.347  29.837  1.00  0.00     0.031 A 
ATOM     34  C   UNL A   1      39.468  29.903  31.150  1.00  0.00     0.074 A 
ATOM     35  C   UNL A   1      39.708  28.419  29.180  1.00  0.00     0.049 A 
ATOM     36  N   UNL A   1      40.561  29.628  31.816  1.00  0.00    -0.248 NA
ATOM     37  C   UNL A   1      38.627  30.932  31.779  1.00  0.00     0.031 C 
ATOM     38  C   UNL A   1      39.362  27.845  27.878  1.00  0.00     0.029 A 
ATOM     39  N   UNL A   1      40.884  27.800  29.514  1.00  0.00    -0.354 N 
ATOM     40  C   UNL A   1      40.546  30.465  32.928  1.00  0.00     0.074 A 
ATOM     41  C   UNL A   1      39.377  31.306  32.803  1.00  0.00     0.031 C 
ATOM     42  C   UNL A   1      40.289  26.935  27.539  1.00  0.00     0.029 A 
ATOM     43  C   UNL A   1      41.317  26.893  28.574  1.00  0.00     0.049 A 
ATOM     44  H   UNL A   1      41.373  27.986  30.348  1.00  0.00     0.167 HD
ATOM     45  C   UNL A   1      41.413  30.506  33.971  1.00  0.00     0.034 A 
ATOM     46  C   UNL A   1      42.420  26.121  28.549  1.00  0.00     0.034 A 
ATOM     47  C   UNL A   1      42.566  29.646  34.078  1.00  0.00     0.049 A 
ATOM     48  C   UNL A   1      43.373  26.183  29.715  1.00  0.00     0.074 A 
ATOM     49  C   UNL A   1      43.484  29.557  35.111  1.00  0.00     0.029 A 
ATOM     50  N   UNL A   1      42.966  28.729  33.113  1.00  0.00    -0.354 N 
ATOM     51  N   UNL A   1      43.318  26.937  30.789  1.00  0.00    -0.248 NA
ATOM     52  C   UNL A   1      44.526  25.276  29.672  1.00  0.00     0.031 C 
ATOM     53  C   UNL A   1      44.475  28.643  34.738  1.00  0.00     0.029 A 
ATOM     54  C   UNL A   1      44.133  28.093  33.513  1.00  0.00     0.049 A 
ATOM     55  H   UNL A   1      42.491  28.555  32.269  1.00  0.00     0.167 HD
ATOM     56  C   UNL A   1      44.412  26.569  31.567  1.00  0.00     0.074 A 
ATOM     57  C   UNL A   1      45.096  25.516  30.844  1.00  0.00     0.031 C 
ATOM     58  C   UNL A   1      44.811  27.052  32.773  1.00  0.00     0.034 A 
BRANCH  45  59
ATOM     59  C   UNL A   1      41.153  31.535  35.049  1.00  0.00     0.023 A 
ATOM     60  C   UNL A   1      40.107  31.387  35.979  1.00  0.00     0.031 A 
ATOM     61  C   UNL A   1      41.926  32.707  35.119  1.00  0.00     0.131 A 
ATOM     62  C   UNL A   1      39.804  32.430  36.868  1.00  0.00     0.055 A 
ATOM     63  C   UNL A   1      41.679  33.699  36.069  1.00  0.00     0.041 A 
ATOM     64  F   UNL A   1      42.925  32.920  34.247  1.00  0.00    -0.206 F 
ATOM     65  C   UNL A   1      40.600  33.574  36.939  1.00  0.00     0.022 A 
BRANCH  62  66
ATOM     66  S   UNL A   1      38.251  32.343  37.804  1.00  0.00     0.124 S 
ATOM     67  O   UNL A   1      37.676  31.096  37.305  1.00  0.00    -0.237 OA
ATOM     68  O   UNL A   1      38.716  32.324  39.186  1.00  0.00    -0.237 OA
ATOM     69  O   UNL A   1      37.540  33.554  37.400  1.00  0.00    -0.744 OA
ENDBRANCH  62  66
ENDBRANCH  45  59
BRANCH  46  70
ATOM     70  C   UNL A   1      42.681  25.223  27.387  1.00  0.00     0.023 A 
ATOM     71  C   UNL A   1      42.180  23.912  27.356  1.00  0.00     0.031 A 
ATOM     72  C   UNL A   1      43.456  25.659  26.297  1.00  0.00     0.131 A 
ATOM     73  C   UNL A   1      42.494  23.069  26.279  1.00  0.00     0.055 A 
ATOM     74  C   UNL A   1      43.722  24.833  25.204  1.00  0.00     0.041 A 
ATOM     75  F   UNL A   1      43.951  26.906  26.272  1.00  0.00    -0.206 F 
ATOM     76  C   UNL A   1      43.249  23.525  25.196  1.00  0.00     0.022 A 
BRANCH  73  77
ATOM     77  S   UNL A   1      41.960  21.336  26.345  1.00  0.00     0.124 S 
ATOM     78  O   UNL A   1      42.793  20.728  25.314  1.00  0.00    -0.237 OA
ATOM     79  O   UNL A   1      42.278  20.975  27.724  1.00  0.00    -0.237 OA
ATOM     80  O   UNL A   1      40.534  21.407  26.036  1.00  0.00    -0.744 OA
ENDBRANCH  73  77
ENDBRANCH  46  70
BRANCH  58  81
ATOM     81  C   UNL A   1      46.018  26.401  33.405  1.00  0.00     0.023 A 
ATOM     82  C   UNL A   1      45.913  25.233  34.183  1.00  0.00     0.031 A 
ATOM     83  C   UNL A   1      47.293  26.972  33.243  1.00  0.00     0.131 A 
ATOM     84  C   UNL A   1      47.049  24.716  34.825  1.00  0.00     0.055 A 
ATOM     85  C   UNL A   1      48.431  26.412  33.824  1.00  0.00     0.041 A 
ATOM     86  F   UNL A   1      47.454  28.089  32.514  1.00  0.00    -0.206 F 
ATOM     87  C   UNL A   1      48.311  25.287  34.635  1.00  0.00     0.022 A 
BRANCH  84  88
ATOM     88  S   UNL A   1      46.837  23.359  36.008  1.00  0.00     0.124 S 
ATOM     89  O   UNL A   1      45.870  23.922  36.945  1.00  0.00    -0.237 OA
ATOM     90  O   UNL A   1      46.348  22.278  35.159  1.00  0.00    -0.237 OA
ATOM     91  O   UNL A   1      48.182  23.162  36.548  1.00  0.00    -0.744 OA
ENDBRANCH  84  88
ENDBRANCH  58  81
ENDBRANCH  32  33
ENDBRANCH  24  27
ENDBRANCH  22  23
ENDBRANCH   1  22
TORSDOF 16
ENDMDL
MODEL 2
REMARK VINA RESULT:     -10.7      2.110      2.596
REMARK SMILES CSc1ncccc1C(=O)N1CSC[C@H]1C(=O)NCCCNC(=O)c1ccc(-c2c3nc(c(-c4cc(S(=O)(=O)[O-])ccc4F)c4ccc([nH]4)c(-c4cc(S(=O)(=O)[O-])ccc4F)c4nc(c(-c5cc(S(=O)(=O)[O-])ccc5F)c5ccc2[nH]5)C=C4)C=C3)cc1
REMARK SMILES IDX 20 1 19 2 18 3 16 4 17 5 15 7 11 8 12 9 13 10 14 11 9 12
REMARK SMILES IDX 10 13 8 14 3 15 4 16 5 17 7 18 6 19 2 20 1 21 21 22 22 23
REMARK SMILES IDX 23 24 24 26 25 27 26 28 87 29 27 30 86 31 28 32 29 33 30 34
REMARK SMILES IDX 80 35 31 36 85 37 79 38 81 39 32 40 84 41 78 42 77 43 33 45
REMARK SMILES IDX 65 46 45 47 64 48 46 49 49 50 63 51 82 52 47 53 48 54 62 56
REMARK SMILES IDX 83 57 50 58 34 59 35 60 43 61 36 62 42 63 44 64 41 65 37 66
REMARK SMILES IDX 38 67 39 68 40 69 66 70 67 71 75 72 68 73 74 74 76 75 73 76
REMARK SMILES IDX 69 77 70 78 71 79 72 80 51 81 52 82 60 83 53 84 59 85 61 86
REMARK SMILES IDX 58 87 54 88 55 89 56 90 57 91
REMARK H PARENT 18 6 22 25 81 44 49 55
REMARK Flexibility Score: inf
ROOT
ATOM      1  C   UNL A   1      32.847  28.513  26.060  1.00  0.00     0.042 C 
ENDROOT
BRANCH   1   2
ATOM      2  C   UNL A   1      33.067  27.163  25.397  1.00  0.00     0.117 C 
BRANCH   2   3
ATOM      3  N   UNL A   1      33.775  27.266  24.141  1.00  0.00    -0.354 N 
ATOM      4  C   UNL A   1      33.434  26.850  22.892  1.00  0.00     0.243 C 
ATOM      5  O   UNL A   1      34.074  27.348  21.958  1.00  0.00    -0.273 OA
ATOM      6  H   UNL A   1      34.651  27.712  24.200  1.00  0.00     0.163 HD
BRANCH   4   7
ATOM      7  C   UNL A   1      32.222  25.939  22.607  1.00  0.00     0.185 C 
ATOM      8  N   UNL A   1      32.170  24.632  23.282  1.00  0.00    -0.316 N 
ATOM      9  C   UNL A   1      31.151  24.510  24.301  1.00  0.00     0.190 C 
ATOM     10  S   UNL A   1      29.810  25.600  23.775  1.00  0.00    -0.138 SA
ATOM     11  C   UNL A   1      30.893  26.676  22.784  1.00  0.00     0.106 C 
BRANCH   8  12
ATOM     12  C   UNL A   1      32.941  23.612  22.719  1.00  0.00     0.257 C 
ATOM     13  O   UNL A   1      33.343  23.710  21.562  1.00  0.00    -0.269 OA
BRANCH  12  14
ATOM     14  C   UNL A   1      33.106  22.307  23.421  1.00  0.00     0.072 A 
ATOM     15  C   UNL A   1      34.200  21.998  24.241  1.00  0.00     0.108 A 
ATOM     16  N   UNL A   1      34.377  20.745  24.755  1.00  0.00    -0.249 NA
ATOM     17  C   UNL A   1      33.488  19.782  24.446  1.00  0.00     0.112 A 
ATOM     18  C   UNL A   1      32.230  21.257  23.088  1.00  0.00     0.018 A 
ATOM     19  C   UNL A   1      32.402  19.988  23.626  1.00  0.00     0.021 A 
BRANCH  15  20
ATOM     20  S   UNL A   1      35.464  23.179  24.708  1.00  0.00    -0.109 SA
ATOM     21  C   UNL A   1      36.646  22.998  23.343  1.00  0.00     0.092 C 
ENDBRANCH  15  20
ENDBRANCH  12  14
ENDBRANCH   8  12
ENDBRANCH   4   7
ENDBRANCH   2   3
ENDBRANCH   1   2
BRANCH   1  22
ATOM     22  C   UNL A   1      34.120  29.337  26.179  1.00  0.00     0.118 C 
BRANCH  22  23
ATOM     23  N   UNL A   1      33.890  30.603  26.863  1.00  0.00    -0.352 N 
ATOM     24  C   UNL A   1      34.522  31.153  27.946  1.00  0.00     0.251 C 
ATOM     25  H   UNL A   1      33.163  31.152  26.487  1.00  0.00     0.163 HD
ATOM     26  O   UNL A   1      33.995  32.110  28.521  1.00  0.00    -0.269 OA
BRANCH  24  27
ATOM     27  C   UNL A   1      35.809  30.611  28.428  1.00  0.00     0.039 A 
ATOM     28  C   UNL A   1      36.994  31.027  27.816  1.00  0.00     0.014 A 
ATOM     29  C   UNL A   1      35.850  29.655  29.447  1.00  0.00     0.014 A 
ATOM     30  C   UNL A   1      38.216  30.513  28.251  1.00  0.00     0.010 A 
ATOM     31  C   UNL A   1      37.072  29.222  29.947  1.00  0.00     0.010 A 
ATOM     32  C   UNL A   1      38.268  29.622  29.335  1.00  0.00    -0.014 A 
BRANCH  32  33
ATOM     33  C   UNL A   1      39.555  29.057  29.807  1.00  0.00     0.031 A 
ATOM     34  C   UNL A   1      40.278  29.702  30.961  1.00  0.00     0.074 A 
ATOM     35  C   UNL A   1      40.095  28.000  29.168  1.00  0.00     0.049 A 
ATOM     36  N   UNL A   1      41.437  29.398  31.488  1.00  0.00    -0.248 NA
ATOM     37  C   UNL A   1      39.627  30.867  31.577  1.00  0.00     0.031 C 
ATOM     38  C   UNL A   1      39.508  27.325  28.008  1.00  0.00     0.029 A 
ATOM     39  N   UNL A   1      41.258  27.312  29.400  1.00  0.00    -0.354 N 
ATOM     40  C   UNL A   1      41.659  30.346  32.483  1.00  0.00     0.074 A 
ATOM     41  C   UNL A   1      40.553  31.275  32.429  1.00  0.00     0.031 C 
ATOM     42  C   UNL A   1      40.299  26.301  27.650  1.00  0.00     0.029 A 
ATOM     43  C   UNL A   1      41.468  26.273  28.522  1.00  0.00     0.049 A 
ATOM     44  H   UNL A   1      41.883  27.539  30.125  1.00  0.00     0.167 HD
ATOM     45  C   UNL A   1      42.678  30.416  33.376  1.00  0.00     0.034 A 
ATOM     46  C   UNL A   1      42.491  25.402  28.429  1.00  0.00     0.034 A 
ATOM     47  C   UNL A   1      43.764  29.468  33.417  1.00  0.00     0.049 A 
ATOM     48  C   UNL A   1      43.616  25.499  29.429  1.00  0.00     0.074 A 
ATOM     49  C   UNL A   1      44.821  29.404  34.308  1.00  0.00     0.029 A 
ATOM     50  N   UNL A   1      43.938  28.419  32.521  1.00  0.00    -0.354 N 
ATOM     51  N   UNL A   1      43.786  26.365  30.401  1.00  0.00    -0.248 NA
ATOM     52  C   UNL A   1      44.675  24.488  29.328  1.00  0.00     0.031 C 
ATOM     53  C   UNL A   1      45.670  28.366  33.907  1.00  0.00     0.029 A 
ATOM     54  C   UNL A   1      45.100  27.723  32.820  1.00  0.00     0.049 A 
ATOM     55  H   UNL A   1      43.326  28.202  31.781  1.00  0.00     0.167 HD
ATOM     56  C   UNL A   1      44.956  25.981  31.051  1.00  0.00     0.074 A 
ATOM     57  C   UNL A   1      45.437  24.797  30.367  1.00  0.00     0.031 C 
ATOM     58  C   UNL A   1      45.573  26.550  32.119  1.00  0.00     0.034 A 
BRANCH  45  59
ATOM     59  C   UNL A   1      42.669  31.575  34.349  1.00  0.00     0.023 A 
ATOM     60  C   UNL A   1      42.003  31.497  35.588  1.00  0.00     0.031 A 
ATOM     61  C   UNL A   1      43.287  32.793  34.016  1.00  0.00     0.131 A 
ATOM     62  C   UNL A   1      41.890  32.638  36.397  1.00  0.00     0.055 A 
ATOM     63  C   UNL A   1      43.252  33.896  34.871  1.00  0.00     0.041 A 
ATOM     64  F   UNL A   1      43.919  32.939  32.841  1.00  0.00    -0.206 F 
ATOM     65  C   UNL A   1      42.534  33.830  36.060  1.00  0.00     0.022 A 
BRANCH  62  66
ATOM     66  S   UNL A   1      40.744  32.589  37.803  1.00  0.00     0.124 S 
ATOM     67  O   UNL A   1      39.638  31.808  37.255  1.00  0.00    -0.237 OA
ATOM     68  O   UNL A   1      41.540  31.934  38.835  1.00  0.00    -0.237 OA
ATOM     69  O   UNL A   1      40.442  33.998  38.048  1.00  0.00    -0.744 OA
ENDBRANCH  62  66
ENDBRANCH  45  59
BRANCH  46  70
ATOM     70  C   UNL A   1      42.499  24.365  27.358  1.00  0.00     0.023 A 
ATOM     71  C   UNL A   1      41.693  23.219  27.452  1.00  0.00     0.031 A 
ATOM     72  C   UNL A   1      43.331  24.496  26.232  1.00  0.00     0.131 A 
ATOM     73  C   UNL A   1      41.768  22.230  26.459  1.00  0.00     0.055 A 
ATOM     74  C   UNL A   1      43.363  23.534  25.221  1.00  0.00     0.041 A 
ATOM     75  F   UNL A   1      44.114  25.577  26.089  1.00  0.00    -0.206 F 
ATOM     76  C   UNL A   1      42.586  22.386  25.337  1.00  0.00     0.022 A 
BRANCH  73  77
ATOM     77  S   UNL A   1      40.830  20.694  26.689  1.00  0.00     0.124 S 
ATOM     78  O   UNL A   1      39.530  21.052  26.136  1.00  0.00    -0.237 OA
ATOM     79  O   UNL A   1      41.618  19.739  25.915  1.00  0.00    -0.237 OA
ATOM     80  O   UNL A   1      40.860  20.491  28.136  1.00  0.00    -0.744 OA
ENDBRANCH  73  77
ENDBRANCH  46  70
BRANCH  58  81
ATOM     81  C   UNL A   1      46.810  25.859  32.643  1.00  0.00     0.023 A 
ATOM     82  C   UNL A   1      48.083  26.092  32.091  1.00  0.00     0.031 A 
ATOM     83  C   UNL A   1      46.708  24.935  33.698  1.00  0.00     0.131 A 
ATOM     84  C   UNL A   1      49.188  25.360  32.550  1.00  0.00     0.055 A 
ATOM     85  C   UNL A   1      47.823  24.263  34.199  1.00  0.00     0.041 A 
ATOM     86  F   UNL A   1      45.518  24.669  34.261  1.00  0.00    -0.206 F 
ATOM     87  C   UNL A   1      49.070  24.461  33.613  1.00  0.00     0.022 A 
BRANCH  84  88
ATOM     88  S   UNL A   1      50.761  25.508  31.659  1.00  0.00     0.124 S 
ATOM     89  O   UNL A   1      50.941  26.956  31.603  1.00  0.00    -0.237 OA
ATOM     90  O   UNL A   1      51.682  24.784  32.528  1.00  0.00    -0.237 OA
ATOM     91  O   UNL A   1      50.488  24.868  30.373  1.00  0.00    -0.744 OA
ENDBRANCH  84  88
ENDBRANCH  58  81
ENDBRANCH  32  33
ENDBRANCH  24  27
ENDBRANCH  22  23
ENDBRANCH   1  22
TORSDOF 16
ENDMDL
MODEL 3
REMARK VINA RESULT:     -10.7      4.796      9.957
REMARK SMILES CSc1ncccc1C(=O)N1CSC[C@H]1C(=O)NCCCNC(=O)c1ccc(-c2c3nc(c(-c4cc(S(=O)(=O)[O-])ccc4F)c4ccc([nH]4)c(-c4cc(S(=O)(=O)[O-])ccc4F)c4nc(c(-c5cc(S(=O)(=O)[O-])ccc5F)c5ccc2[nH]5)C=C4)C=C3)cc1
REMARK SMILES IDX 20 1 19 2 18 3 16 4 17 5 15 7 11 8 12 9 13 10 14 11 9 12
REMARK SMILES IDX 10 13 8 14 3 15 4 16 5 17 7 18 6 19 2 20 1 21 21 22 22 23
REMARK SMILES IDX 23 24 24 26 25 27 26 28 87 29 27 30 86 31 28 32 29 33 30 34
REMARK SMILES IDX 80 35 31 36 85 37 79 38 81 39 32 40 84 41 78 42 77 43 33 45
REMARK SMILES IDX 65 46 45 47 64 48 46 49 49 50 63 51 82 52 47 53 48 54 62 56
REMARK SMILES IDX 83 57 50 58 34 59 35 60 43 61 36 62 42 63 44 64 41 65 37 66
REMARK SMILES IDX 38 67 39 68 40 69 66 70 67 71 75 72 68 73 74 74 76 75 73 76
REMARK SMILES IDX 69 77 70 78 71 79 72 80 51 81 52 82 60 83 53 84 59 85 61 86
REMARK SMILES IDX 58 87 54 88 55 89 56 90 57 91
REMARK H PARENT 18 6 22 25 81 44 49 55
REMARK Flexibility Score: inf
ROOT
ATOM      1  C   UNL A   1      36.963  22.693  24.025  1.00  0.00     0.042 C 
ENDROOT
BRANCH   1   2
ATOM      2  C   UNL A   1      35.736  23.462  23.564  1.00  0.00     0.117 C 
BRANCH   2   3
ATOM      3  N   UNL A   1      34.597  22.605  23.323  1.00  0.00    -0.354 N 
ATOM      4  C   UNL A   1      33.324  22.665  23.798  1.00  0.00     0.243 C 
ATOM      5  O   UNL A   1      32.481  22.000  23.184  1.00  0.00    -0.273 OA
ATOM      6  H   UNL A   1      34.773  21.852  22.714  1.00  0.00     0.163 HD
BRANCH   4   7
ATOM      7  C   UNL A   1      32.888  23.619  24.929  1.00  0.00     0.185 C 
ATOM      8  N   UNL A   1      32.076  24.792  24.566  1.00  0.00    -0.316 N 
ATOM      9  C   UNL A   1      30.700  24.744  25.008  1.00  0.00     0.190 C 
ATOM     10  S   UNL A   1      30.716  23.768  26.529  1.00  0.00    -0.138 SA
ATOM     11  C   UNL A   1      32.240  22.870  26.095  1.00  0.00     0.106 C 
BRANCH   8  12
ATOM     12  C   UNL A   1      32.768  25.888  24.045  1.00  0.00     0.257 C 
ATOM     13  O   UNL A   1      33.457  25.759  23.036  1.00  0.00    -0.269 OA
BRANCH  12  14
ATOM     14  C   UNL A   1      32.862  27.163  24.812  1.00  0.00     0.072 A 
ATOM     15  C   UNL A   1      32.277  28.367  24.395  1.00  0.00     0.108 A 
ATOM     16  N   UNL A   1      32.501  29.538  25.059  1.00  0.00    -0.249 NA
ATOM     17  C   UNL A   1      33.322  29.536  26.127  1.00  0.00     0.112 A 
ATOM     18  C   UNL A   1      33.749  27.219  25.904  1.00  0.00     0.018 A 
ATOM     19  C   UNL A   1      33.962  28.408  26.589  1.00  0.00     0.021 A 
BRANCH  15  20
ATOM     20  S   UNL A   1      31.187  28.510  22.981  1.00  0.00    -0.109 SA
ATOM     21  C   UNL A   1      30.011  29.765  23.560  1.00  0.00     0.092 C 
ENDBRANCH  15  20
ENDBRANCH  12  14
ENDBRANCH   8  12
ENDBRANCH   4   7
ENDBRANCH   2   3
ENDBRANCH   1   2
BRANCH   1  22
ATOM     22  C   UNL A   1      37.111  22.654  25.539  1.00  0.00     0.118 C 
BRANCH  22  23
ATOM     23  N   UNL A   1      38.092  21.664  25.966  1.00  0.00    -0.352 N 
ATOM     24  C   UNL A   1      39.379  21.825  26.407  1.00  0.00     0.251 C 
ATOM     25  H   UNL A   1      37.781  20.730  25.934  1.00  0.00     0.163 HD
ATOM     26  O   UNL A   1      40.116  20.836  26.465  1.00  0.00    -0.269 OA
BRANCH  24  27
ATOM     27  C   UNL A   1      39.884  23.156  26.799  1.00  0.00     0.039 A 
ATOM     28  C   UNL A   1      40.692  23.269  27.934  1.00  0.00     0.014 A 
ATOM     29  C   UNL A   1      39.525  24.302  26.083  1.00  0.00     0.014 A 
ATOM     30  C   UNL A   1      41.166  24.522  28.325  1.00  0.00     0.010 A 
ATOM     31  C   UNL A   1      40.080  25.532  26.414  1.00  0.00     0.010 A 
ATOM     32  C   UNL A   1      40.882  25.662  27.556  1.00  0.00    -0.014 A 
BRANCH  32  33
ATOM     33  C   UNL A   1      41.367  27.004  27.959  1.00  0.00     0.031 A 
ATOM     34  C   UNL A   1      42.806  27.382  27.724  1.00  0.00     0.074 A 
ATOM     35  C   UNL A   1      40.530  27.859  28.580  1.00  0.00     0.049 A 
ATOM     36  N   UNL A   1      43.440  28.479  28.051  1.00  0.00    -0.248 NA
ATOM     37  C   UNL A   1      43.651  26.375  27.066  1.00  0.00     0.031 C 
ATOM     38  C   UNL A   1      39.129  27.582  28.905  1.00  0.00     0.029 A 
ATOM     39  N   UNL A   1      40.735  29.129  29.052  1.00  0.00    -0.354 N 
ATOM     40  C   UNL A   1      44.761  28.283  27.657  1.00  0.00     0.074 A 
ATOM     41  C   UNL A   1      44.848  26.936  27.139  1.00  0.00     0.031 C 
ATOM     42  C   UNL A   1      38.593  28.662  29.495  1.00  0.00     0.029 A 
ATOM     43  C   UNL A   1      39.620  29.690  29.631  1.00  0.00     0.049 A 
ATOM     44  H   UNL A   1      41.599  29.597  28.983  1.00  0.00     0.167 HD
ATOM     45  C   UNL A   1      45.798  29.158  27.697  1.00  0.00     0.034 A 
ATOM     46  C   UNL A   1      39.448  30.893  30.211  1.00  0.00     0.034 A 
ATOM     47  C   UNL A   1      45.682  30.502  28.207  1.00  0.00     0.049 A 
ATOM     48  C   UNL A   1      40.613  31.849  30.250  1.00  0.00     0.074 A 
ATOM     49  C   UNL A   1      46.644  31.495  28.249  1.00  0.00     0.029 A 
ATOM     50  N   UNL A   1      44.532  31.041  28.774  1.00  0.00    -0.354 N 
ATOM     51  N   UNL A   1      41.842  31.674  29.821  1.00  0.00    -0.248 NA
ATOM     52  C   UNL A   1      40.359  33.172  30.833  1.00  0.00     0.031 C 
ATOM     53  C   UNL A   1      46.100  32.605  28.905  1.00  0.00     0.029 A 
ATOM     54  C   UNL A   1      44.771  32.341  29.195  1.00  0.00     0.049 A 
ATOM     55  H   UNL A   1      43.673  30.569  28.863  1.00  0.00     0.167 HD
ATOM     56  C   UNL A   1      42.500  32.879  30.053  1.00  0.00     0.074 A 
ATOM     57  C   UNL A   1      41.525  33.774  30.643  1.00  0.00     0.031 C 
ATOM     58  C   UNL A   1      43.790  33.217  29.794  1.00  0.00     0.034 A 
BRANCH  45  59
ATOM     59  C   UNL A   1      47.141  28.665  27.204  1.00  0.00     0.023 A 
ATOM     60  C   UNL A   1      47.371  28.373  25.846  1.00  0.00     0.031 A 
ATOM     61  C   UNL A   1      48.192  28.433  28.108  1.00  0.00     0.131 A 
ATOM     62  C   UNL A   1      48.579  27.779  25.450  1.00  0.00     0.055 A 
ATOM     63  C   UNL A   1      49.426  27.930  27.692  1.00  0.00     0.041 A 
ATOM     64  F   UNL A   1      48.031  28.669  29.420  1.00  0.00    -0.206 F 
ATOM     65  C   UNL A   1      49.619  27.581  26.359  1.00  0.00     0.022 A 
BRANCH  62  66
ATOM     66  S   UNL A   1      48.701  27.109  23.768  1.00  0.00     0.124 S 
ATOM     67  O   UNL A   1      50.118  26.763  23.691  1.00  0.00    -0.237 OA
ATOM     68  O   UNL A   1      47.770  25.987  23.807  1.00  0.00    -0.237 OA
ATOM     69  O   UNL A   1      48.294  28.229  22.923  1.00  0.00    -0.744 OA
ENDBRANCH  62  66
ENDBRANCH  45  59
BRANCH  46  70
ATOM     70  C   UNL A   1      38.128  31.262  30.797  1.00  0.00     0.023 A 
ATOM     71  C   UNL A   1      37.151  31.917  30.030  1.00  0.00     0.031 A 
ATOM     72  C   UNL A   1      37.831  30.983  32.143  1.00  0.00     0.131 A 
ATOM     73  C   UNL A   1      35.941  32.308  30.625  1.00  0.00     0.055 A 
ATOM     74  C   UNL A   1      36.606  31.328  32.716  1.00  0.00     0.041 A 
ATOM     75  F   UNL A   1      38.727  30.351  32.919  1.00  0.00    -0.206 F 
ATOM     76  C   UNL A   1      35.657  32.005  31.959  1.00  0.00     0.022 A 
BRANCH  73  77
ATOM     77  S   UNL A   1      34.768  33.287  29.647  1.00  0.00     0.124 S 
ATOM     78  O   UNL A   1      34.173  32.269  28.789  1.00  0.00    -0.237 OA
ATOM     79  O   UNL A   1      33.901  33.842  30.682  1.00  0.00    -0.237 OA
ATOM     80  O   UNL A   1      35.620  34.259  28.966  1.00  0.00    -0.744 OA
ENDBRANCH  73  77
ENDBRANCH  46  70
BRANCH  58  81
ATOM     81  C   UNL A   1      44.199  34.638  30.103  1.00  0.00     0.023 A 
ATOM     82  C   UNL A   1      44.032  35.681  29.174  1.00  0.00     0.031 A 
ATOM     83  C   UNL A   1      44.787  34.949  31.343  1.00  0.00     0.131 A 
ATOM     84  C   UNL A   1      44.510  36.966  29.471  1.00  0.00     0.055 A 
ATOM     85  C   UNL A   1      45.194  36.244  31.661  1.00  0.00     0.041 A 
ATOM     86  F   UNL A   1      44.974  33.994  32.268  1.00  0.00    -0.206 F 
ATOM     87  C   UNL A   1      45.073  37.259  30.716  1.00  0.00     0.022 A 
BRANCH  84  88
ATOM     88  S   UNL A   1      44.497  38.223  28.164  1.00  0.00     0.124 S 
ATOM     89  O   UNL A   1      43.747  37.552  27.107  1.00  0.00    -0.237 OA
ATOM     90  O   UNL A   1      43.823  39.342  28.814  1.00  0.00    -0.237 OA
ATOM     91  O   UNL A   1      45.915  38.435  27.879  1.00  0.00    -0.744 OA
ENDBRANCH  84  88
ENDBRANCH  58  81
ENDBRANCH  32  33
ENDBRANCH  24  27
ENDBRANCH  22  23
ENDBRANCH   1  22
TORSDOF 16
ENDMDL
