MODEL 1
REMARK VINA RESULT:     -11.6      0.000      0.000
REMARK SMILES COc1ccc(NC(=O)C[C@@H](C[NH+]2CCOCC2)C(=O)NCCCNC(=O)c2ccc(-c3c4nc(c(-c5cc(S(=O)(=O)[O-])ccc5F)c5ccc([nH]5)c(-c5cc(S(=O)(=O)[O-])ccc5F)c5nc(c(-c6cc(S(=O)(=O)[O-])ccc6F)c6ccc3[nH]6)C=C5)C=C4)cc2)cc1
REMARK SMILES IDX 22 1 21 2 19 3 20 4 11 6 10 7 8 8 7 9 9 11 6 12 3 13 4 14
REMARK SMILES IDX 92 15 5 16 91 17 2 18 1 19 12 20 13 21 14 22 18 23 15 25
REMARK SMILES IDX 17 26 16 27 23 28 24 29 25 30 26 31 27 33 28 34 29 35 90 36
REMARK SMILES IDX 30 37 89 38 31 39 32 40 33 41 83 42 34 43 88 44 82 45 84 46
REMARK SMILES IDX 35 47 87 48 81 49 80 50 36 52 68 53 48 54 67 55 49 56 52 57
REMARK SMILES IDX 66 58 85 59 50 60 51 61 65 63 86 64 53 65 37 66 38 67 46 68
REMARK SMILES IDX 39 69 45 70 47 71 44 72 40 73 41 74 42 75 43 76 69 77 70 78
REMARK SMILES IDX 78 79 71 80 77 81 79 82 76 83 72 84 73 85 74 86 75 87 54 88
REMARK SMILES IDX 55 89 63 90 56 91 62 92 64 93 61 94 57 95 58 96 59 97 60 98
REMARK H PARENT 21 5 7 10 13 24 25 32 84 51 52 62
REMARK Flexibility Score: inf
ROOT
ATOM      1  C   UNL A   1      32.219  27.731  26.899  1.00  0.00     0.117 C 
ENDROOT
BRANCH   1   2
ATOM      2  N   UNL A   1      31.203  27.832  25.862  1.00  0.00    -0.356 N 
ATOM      3  C   UNL A   1      30.742  26.974  24.917  1.00  0.00     0.229 C 
ATOM      4  O   UNL A   1      30.045  27.497  24.036  1.00  0.00    -0.275 OA
ATOM      5  H   UNL A   1      30.755  28.709  25.841  1.00  0.00     0.163 HD
BRANCH   3   6
ATOM      6  C   UNL A   1      30.880  25.439  24.973  1.00  0.00     0.142 C 
BRANCH   6   7
ATOM      7  C   UNL A   1      30.095  24.876  26.172  1.00  0.00     0.119 C 
BRANCH   7   8
ATOM      8  C   UNL A   1      30.275  23.524  26.877  1.00  0.00     0.225 C 
ATOM      9  N   UNL A   1      31.244  22.580  26.815  1.00  0.00    -0.326 N 
ATOM     10  H   UNL A   1      30.992  21.794  27.354  1.00  0.00     0.169 HD
ATOM     11  O   UNL A   1      29.328  23.178  27.612  1.00  0.00    -0.275 OA
BRANCH   9  12
ATOM     12  C   UNL A   1      32.498  22.380  26.217  1.00  0.00     0.041 A 
ATOM     13  C   UNL A   1      35.196  21.823  25.689  1.00  0.00     0.119 A 
ATOM     14  C   UNL A   1      34.187  21.047  25.114  1.00  0.00     0.048 A 
ATOM     15  C   UNL A   1      34.859  22.976  26.387  1.00  0.00     0.048 A 
ATOM     16  C   UNL A   1      32.832  21.326  25.371  1.00  0.00     0.030 A 
ATOM     17  C   UNL A   1      33.512  23.265  26.626  1.00  0.00     0.030 A 
BRANCH  13  18
ATOM     18  O   UNL A   1      36.487  21.400  25.517  1.00  0.00    -0.497 OA
ATOM     19  C   UNL A   1      37.074  21.844  24.289  1.00  0.00     0.278 C 
ENDBRANCH  13  18
ENDBRANCH   9  12
ENDBRANCH   7   8
ENDBRANCH   6   7
BRANCH   6  20
ATOM     20  C   UNL A   1      30.650  24.649  23.698  1.00  0.00     0.276 C 
BRANCH  20  21
ATOM     21  N   UNL A   1      31.570  24.417  22.609  1.00  0.00    -0.330 N 
ATOM     22  C   UNL A   1      32.892  23.840  22.831  1.00  0.00     0.291 C 
ATOM     23  C   UNL A   1      31.599  25.569  21.684  1.00  0.00     0.291 C 
ATOM     24  H   UNL A   1      31.135  23.596  22.188  1.00  0.00     0.348 HD
ATOM     25  C   UNL A   1      34.062  24.828  22.919  1.00  0.00     0.221 C 
ATOM     26  C   UNL A   1      32.803  26.500  21.876  1.00  0.00     0.221 C 
ATOM     27  O   UNL A   1      34.031  25.775  21.844  1.00  0.00    -0.370 OA
ENDBRANCH  20  21
ENDBRANCH   6  20
ENDBRANCH   3   6
ENDBRANCH   1   2
BRANCH   1  28
ATOM     28  C   UNL A   1      33.605  27.606  26.279  1.00  0.00     0.042 C 
BRANCH  28  29
ATOM     29  C   UNL A   1      34.036  28.815  25.491  1.00  0.00     0.118 C 
BRANCH  29  30
ATOM     30  N   UNL A   1      33.656  30.057  26.151  1.00  0.00    -0.352 N 
ATOM     31  C   UNL A   1      34.205  30.632  27.273  1.00  0.00     0.251 C 
ATOM     32  H   UNL A   1      32.909  30.549  25.739  1.00  0.00     0.163 HD
ATOM     33  O   UNL A   1      33.613  31.564  27.824  1.00  0.00    -0.269 OA
BRANCH  31  34
ATOM     34  C   UNL A   1      35.477  30.112  27.828  1.00  0.00     0.039 A 
ATOM     35  C   UNL A   1      36.687  30.414  27.199  1.00  0.00     0.014 A 
ATOM     36  C   UNL A   1      35.480  29.330  28.985  1.00  0.00     0.014 A 
ATOM     37  C   UNL A   1      37.887  29.955  27.751  1.00  0.00     0.010 A 
ATOM     38  C   UNL A   1      36.669  29.026  29.620  1.00  0.00     0.010 A 
ATOM     39  C   UNL A   1      37.887  29.273  28.979  1.00  0.00    -0.014 A 
BRANCH  39  40
ATOM     40  C   UNL A   1      39.122  28.698  29.568  1.00  0.00     0.031 A 
ATOM     41  C   UNL A   1      39.643  29.266  30.868  1.00  0.00     0.074 A 
ATOM     42  C   UNL A   1      39.795  27.730  28.919  1.00  0.00     0.049 A 
ATOM     43  N   UNL A   1      40.753  29.003  31.505  1.00  0.00    -0.248 NA
ATOM     44  C   UNL A   1      38.829  30.317  31.505  1.00  0.00     0.031 C 
ATOM     45  C   UNL A   1      39.411  27.147  27.631  1.00  0.00     0.029 A 
ATOM     46  N   UNL A   1      40.944  27.062  29.254  1.00  0.00    -0.354 N 
ATOM     47  C   UNL A   1      40.780  29.874  32.591  1.00  0.00     0.074 A 
ATOM     48  C   UNL A   1      39.633  30.743  32.465  1.00  0.00     0.031 C 
ATOM     49  C   UNL A   1      40.281  26.174  27.313  1.00  0.00     0.029 A 
ATOM     50  C   UNL A   1      41.311  26.100  28.343  1.00  0.00     0.049 A 
ATOM     51  H   UNL A   1      41.459  27.255  30.072  1.00  0.00     0.167 HD
ATOM     52  C   UNL A   1      41.653  29.917  33.626  1.00  0.00     0.034 A 
ATOM     53  C   UNL A   1      42.360  25.254  28.347  1.00  0.00     0.034 A 
ATOM     54  C   UNL A   1      42.763  29.008  33.751  1.00  0.00     0.049 A 
ATOM     55  C   UNL A   1      43.317  25.310  29.512  1.00  0.00     0.074 A 
ATOM     56  C   UNL A   1      43.692  28.912  34.770  1.00  0.00     0.029 A 
ATOM     57  N   UNL A   1      43.086  28.027  32.821  1.00  0.00    -0.354 N 
ATOM     58  N   UNL A   1      43.307  26.113  30.554  1.00  0.00    -0.248 NA
ATOM     59  C   UNL A   1      44.413  24.336  29.513  1.00  0.00     0.031 C 
ATOM     60  C   UNL A   1      44.613  27.917  34.426  1.00  0.00     0.029 A 
ATOM     61  C   UNL A   1      44.210  27.332  33.234  1.00  0.00     0.049 A 
ATOM     62  H   UNL A   1      42.589  27.851  31.989  1.00  0.00     0.167 HD
ATOM     63  C   UNL A   1      44.371  25.708  31.355  1.00  0.00     0.074 A 
ATOM     64  C   UNL A   1      44.988  24.583  30.680  1.00  0.00     0.031 C 
ATOM     65  C   UNL A   1      44.801  26.212  32.542  1.00  0.00     0.034 A 
BRANCH  52  66
ATOM     66  C   UNL A   1      41.435  30.979  34.682  1.00  0.00     0.023 A 
ATOM     67  C   UNL A   1      40.330  30.942  35.552  1.00  0.00     0.031 A 
ATOM     68  C   UNL A   1      42.313  32.072  34.789  1.00  0.00     0.131 A 
ATOM     69  C   UNL A   1      40.080  32.017  36.418  1.00  0.00     0.055 A 
ATOM     70  C   UNL A   1      42.112  33.091  35.723  1.00  0.00     0.041 A 
ATOM     71  F   UNL A   1      43.373  32.180  33.972  1.00  0.00    -0.206 F 
ATOM     72  C   UNL A   1      40.979  33.078  36.531  1.00  0.00     0.022 A 
BRANCH  69  73
ATOM     73  S   UNL A   1      38.478  32.088  37.269  1.00  0.00     0.124 S 
ATOM     74  O   UNL A   1      37.839  33.217  36.596  1.00  0.00    -0.237 OA
ATOM     75  O   UNL A   1      37.913  30.774  36.990  1.00  0.00    -0.237 OA
ATOM     76  O   UNL A   1      38.842  32.330  38.664  1.00  0.00    -0.744 OA
ENDBRANCH  69  73
ENDBRANCH  52  66
BRANCH  53  77
ATOM     77  C   UNL A   1      42.554  24.275  27.238  1.00  0.00     0.023 A 
ATOM     78  C   UNL A   1      41.916  23.024  27.261  1.00  0.00     0.031 A 
ATOM     79  C   UNL A   1      43.407  24.557  26.157  1.00  0.00     0.131 A 
ATOM     80  C   UNL A   1      42.186  22.080  26.258  1.00  0.00     0.055 A 
ATOM     81  C   UNL A   1      43.626  23.638  25.129  1.00  0.00     0.041 A 
ATOM     82  F   UNL A   1      44.038  25.740  26.080  1.00  0.00    -0.206 F 
ATOM     83  C   UNL A   1      43.025  22.383  25.185  1.00  0.00     0.022 A 
BRANCH  80  84
ATOM     84  S   UNL A   1      41.501  20.409  26.433  1.00  0.00     0.124 S 
ATOM     85  O   UNL A   1      40.078  20.648  26.223  1.00  0.00    -0.237 OA
ATOM     86  O   UNL A   1      42.194  19.686  25.371  1.00  0.00    -0.237 OA
ATOM     87  O   UNL A   1      41.878  20.029  27.793  1.00  0.00    -0.744 OA
ENDBRANCH  80  84
ENDBRANCH  53  77
BRANCH  65  88
ATOM     88  C   UNL A   1      45.950  25.500  33.210  1.00  0.00     0.023 A 
ATOM     89  C   UNL A   1      45.746  24.454  34.125  1.00  0.00     0.031 A 
ATOM     90  C   UNL A   1      47.273  25.886  32.929  1.00  0.00     0.131 A 
ATOM     91  C   UNL A   1      46.843  23.878  34.781  1.00  0.00     0.055 A 
ATOM     92  C   UNL A   1      48.365  25.259  33.528  1.00  0.00     0.041 A 
ATOM     93  F   UNL A   1      47.526  26.881  32.062  1.00  0.00    -0.206 F 
ATOM     94  C   UNL A   1      48.152  24.259  34.473  1.00  0.00     0.022 A 
BRANCH  91  95
ATOM     95  S   UNL A   1      46.530  22.702  36.125  1.00  0.00     0.124 S 
ATOM     96  O   UNL A   1      45.229  22.156  35.752  1.00  0.00    -0.237 OA
ATOM     97  O   UNL A   1      47.662  21.789  36.011  1.00  0.00    -0.237 OA
ATOM     98  O   UNL A   1      46.530  23.544  37.321  1.00  0.00    -0.744 OA
ENDBRANCH  91  95
ENDBRANCH  65  88
ENDBRANCH  39  40
ENDBRANCH  31  34
ENDBRANCH  29  30
ENDBRANCH  28  29
ENDBRANCH   1  28
TORSDOF 19
ENDMDL
MODEL 2
REMARK VINA RESULT:     -11.5      4.849      9.902
REMARK SMILES COc1ccc(NC(=O)C[C@@H](C[NH+]2CCOCC2)C(=O)NCCCNC(=O)c2ccc(-c3c4nc(c(-c5cc(S(=O)(=O)[O-])ccc5F)c5ccc([nH]5)c(-c5cc(S(=O)(=O)[O-])ccc5F)c5nc(c(-c6cc(S(=O)(=O)[O-])ccc6F)c6ccc3[nH]6)C=C5)C=C4)cc2)cc1
REMARK SMILES IDX 22 1 21 2 19 3 20 4 11 6 10 7 8 8 7 9 9 11 6 12 3 13 4 14
REMARK SMILES IDX 92 15 5 16 91 17 2 18 1 19 12 20 13 21 14 22 18 23 15 25
REMARK SMILES IDX 17 26 16 27 23 28 24 29 25 30 26 31 27 33 28 34 29 35 90 36
REMARK SMILES IDX 30 37 89 38 31 39 32 40 33 41 83 42 34 43 88 44 82 45 84 46
REMARK SMILES IDX 35 47 87 48 81 49 80 50 36 52 68 53 48 54 67 55 49 56 52 57
REMARK SMILES IDX 66 58 85 59 50 60 51 61 65 63 86 64 53 65 37 66 38 67 46 68
REMARK SMILES IDX 39 69 45 70 47 71 44 72 40 73 41 74 42 75 43 76 69 77 70 78
REMARK SMILES IDX 78 79 71 80 77 81 79 82 76 83 72 84 73 85 74 86 75 87 54 88
REMARK SMILES IDX 55 89 63 90 56 91 62 92 64 93 61 94 57 95 58 96 59 97 60 98
REMARK H PARENT 21 5 7 10 13 24 25 32 84 51 52 62
REMARK Flexibility Score: inf
ROOT
ATOM      1  C   UNL A   1      36.173  23.624  23.957  1.00  0.00     0.117 C 
ENDROOT
BRANCH   1   2
ATOM      2  N   UNL A   1      35.235  24.411  24.744  1.00  0.00    -0.356 N 
ATOM      3  C   UNL A   1      33.957  24.820  24.543  1.00  0.00     0.229 C 
ATOM      4  O   UNL A   1      33.563  25.697  25.323  1.00  0.00    -0.275 OA
ATOM      5  H   UNL A   1      35.607  24.710  25.605  1.00  0.00     0.163 HD
BRANCH   3   6
ATOM      6  C   UNL A   1      32.962  24.161  23.566  1.00  0.00     0.142 C 
BRANCH   6   7
ATOM      7  C   UNL A   1      33.385  24.429  22.111  1.00  0.00     0.119 C 
BRANCH   7   8
ATOM      8  C   UNL A   1      32.988  25.602  21.204  1.00  0.00     0.225 C 
ATOM      9  N   UNL A   1      32.607  26.875  21.466  1.00  0.00    -0.326 N 
ATOM     10  H   UNL A   1      32.350  27.335  20.633  1.00  0.00     0.169 HD
ATOM     11  O   UNL A   1      32.943  25.341  19.985  1.00  0.00    -0.275 OA
BRANCH   9  12
ATOM     12  C   UNL A   1      32.467  27.739  22.564  1.00  0.00     0.041 A 
ATOM     13  C   UNL A   1      32.133  28.851  25.118  1.00  0.00     0.119 A 
ATOM     14  C   UNL A   1      33.310  29.069  24.399  1.00  0.00     0.048 A 
ATOM     15  C   UNL A   1      31.058  28.225  24.498  1.00  0.00     0.048 A 
ATOM     16  C   UNL A   1      33.480  28.518  23.115  1.00  0.00     0.030 A 
ATOM     17  C   UNL A   1      31.220  27.694  23.215  1.00  0.00     0.030 A 
BRANCH  13  18
ATOM     18  O   UNL A   1      32.100  29.289  26.414  1.00  0.00    -0.497 OA
ATOM     19  C   UNL A   1      31.818  30.687  26.539  1.00  0.00     0.278 C 
ENDBRANCH  13  18
ENDBRANCH   9  12
ENDBRANCH   7   8
ENDBRANCH   6   7
BRANCH   6  20
ATOM     20  C   UNL A   1      32.569  22.715  23.806  1.00  0.00     0.276 C 
BRANCH  20  21
ATOM     21  N   UNL A   1      31.909  22.145  24.957  1.00  0.00    -0.330 N 
ATOM     22  C   UNL A   1      30.846  22.854  25.662  1.00  0.00     0.291 C 
ATOM     23  C   UNL A   1      32.886  21.522  25.874  1.00  0.00     0.291 C 
ATOM     24  H   UNL A   1      31.321  21.451  24.493  1.00  0.00     0.348 HD
ATOM     25  C   UNL A   1      31.258  23.615  26.928  1.00  0.00     0.221 C 
ATOM     26  C   UNL A   1      33.238  22.382  27.096  1.00  0.00     0.221 C 
ATOM     27  O   UNL A   1      32.065  22.803  27.790  1.00  0.00    -0.370 OA
ENDBRANCH  20  21
ENDBRANCH   6  20
ENDBRANCH   3   6
ENDBRANCH   1   2
BRANCH   1  28
ATOM     28  C   UNL A   1      36.355  22.240  24.567  1.00  0.00     0.042 C 
BRANCH  28  29
ATOM     29  C   UNL A   1      36.947  22.255  25.953  1.00  0.00     0.118 C 
BRANCH  29  30
ATOM     30  N   UNL A   1      38.017  21.277  26.097  1.00  0.00    -0.352 N 
ATOM     31  C   UNL A   1      39.353  21.500  26.333  1.00  0.00     0.251 C 
ATOM     32  H   UNL A   1      37.748  20.334  26.016  1.00  0.00     0.163 HD
ATOM     33  O   UNL A   1      40.153  20.569  26.199  1.00  0.00    -0.269 OA
BRANCH  31  34
ATOM     34  C   UNL A   1      39.826  22.853  26.711  1.00  0.00     0.039 A 
ATOM     35  C   UNL A   1      39.299  23.979  26.076  1.00  0.00     0.014 A 
ATOM     36  C   UNL A   1      40.790  23.014  27.709  1.00  0.00     0.014 A 
ATOM     37  C   UNL A   1      39.719  25.254  26.467  1.00  0.00     0.010 A 
ATOM     38  C   UNL A   1      41.075  24.271  28.209  1.00  0.00     0.010 A 
ATOM     39  C   UNL A   1      40.598  25.409  27.552  1.00  0.00    -0.014 A 
BRANCH  39  40
ATOM     40  C   UNL A   1      41.135  26.732  27.955  1.00  0.00     0.031 A 
ATOM     41  C   UNL A   1      42.575  27.062  27.634  1.00  0.00     0.074 A 
ATOM     42  C   UNL A   1      40.368  27.593  28.649  1.00  0.00     0.049 A 
ATOM     43  N   UNL A   1      43.288  28.100  27.985  1.00  0.00    -0.248 NA
ATOM     44  C   UNL A   1      43.329  26.059  26.863  1.00  0.00     0.031 C 
ATOM     45  C   UNL A   1      38.982  27.352  29.061  1.00  0.00     0.029 A 
ATOM     46  N   UNL A   1      40.642  28.846  29.131  1.00  0.00    -0.354 N 
ATOM     47  C   UNL A   1      44.571  27.854  27.505  1.00  0.00     0.074 A 
ATOM     48  C   UNL A   1      44.564  26.527  26.936  1.00  0.00     0.031 C 
ATOM     49  C   UNL A   1      38.515  28.445  29.687  1.00  0.00     0.029 A 
ATOM     50  C   UNL A   1      39.578  29.439  29.769  1.00  0.00     0.049 A 
ATOM     51  H   UNL A   1      41.520  29.281  29.031  1.00  0.00     0.167 HD
ATOM     52  C   UNL A   1      45.648  28.677  27.495  1.00  0.00     0.034 A 
ATOM     53  C   UNL A   1      39.478  30.651  30.349  1.00  0.00     0.034 A 
ATOM     54  C   UNL A   1      45.615  30.014  28.028  1.00  0.00     0.049 A 
ATOM     55  C   UNL A   1      40.685  31.557  30.321  1.00  0.00     0.074 A 
ATOM     56  C   UNL A   1      46.618  30.966  28.039  1.00  0.00     0.029 A 
ATOM     57  N   UNL A   1      44.509  30.591  28.642  1.00  0.00    -0.354 N 
ATOM     58  N   UNL A   1      41.882  31.327  29.827  1.00  0.00    -0.248 NA
ATOM     59  C   UNL A   1      40.522  32.891  30.909  1.00  0.00     0.031 C 
ATOM     60  C   UNL A   1      46.139  32.094  28.714  1.00  0.00     0.029 A 
ATOM     61  C   UNL A   1      44.810  31.879  29.049  1.00  0.00     0.049 A 
ATOM     62  H   UNL A   1      43.639  30.148  28.768  1.00  0.00     0.167 HD
ATOM     63  C   UNL A   1      42.600  32.506  30.007  1.00  0.00     0.074 A 
ATOM     64  C   UNL A   1      41.695  33.445  30.641  1.00  0.00     0.031 C 
ATOM     65  C   UNL A   1      43.886  32.794  29.676  1.00  0.00     0.034 A 
BRANCH  52  66
ATOM     66  C   UNL A   1      46.931  28.142  26.897  1.00  0.00     0.023 A 
ATOM     67  C   UNL A   1      47.194  28.223  25.516  1.00  0.00     0.031 A 
ATOM     68  C   UNL A   1      47.884  27.499  27.706  1.00  0.00     0.131 A 
ATOM     69  C   UNL A   1      48.323  27.588  24.977  1.00  0.00     0.055 A 
ATOM     70  C   UNL A   1      49.056  26.955  27.175  1.00  0.00     0.041 A 
ATOM     71  F   UNL A   1      47.682  27.367  29.026  1.00  0.00    -0.206 F 
ATOM     72  C   UNL A   1      49.272  26.980  25.800  1.00  0.00     0.022 A 
BRANCH  69  73
ATOM     73  S   UNL A   1      48.445  27.424  23.174  1.00  0.00     0.124 S 
ATOM     74  O   UNL A   1      49.734  28.060  22.908  1.00  0.00    -0.237 OA
ATOM     75  O   UNL A   1      48.394  25.981  22.983  1.00  0.00    -0.237 OA
ATOM     76  O   UNL A   1      47.282  28.162  22.683  1.00  0.00    -0.744 OA
ENDBRANCH  69  73
ENDBRANCH  52  66
BRANCH  53  77
ATOM     77  C   UNL A   1      38.201  31.090  30.982  1.00  0.00     0.023 A 
ATOM     78  C   UNL A   1      37.196  31.711  30.223  1.00  0.00     0.031 A 
ATOM     79  C   UNL A   1      37.978  30.932  32.362  1.00  0.00     0.131 A 
ATOM     80  C   UNL A   1      36.042  32.203  30.853  1.00  0.00     0.055 A 
ATOM     81  C   UNL A   1      36.802  31.368  32.975  1.00  0.00     0.041 A 
ATOM     82  F   UNL A   1      38.901  30.338  33.135  1.00  0.00    -0.206 F 
ATOM     83  C   UNL A   1      35.832  32.023  32.221  1.00  0.00     0.022 A 
BRANCH  80  84
ATOM     84  S   UNL A   1      34.866  33.175  29.872  1.00  0.00     0.124 S 
ATOM     85  O   UNL A   1      34.260  32.148  29.033  1.00  0.00    -0.237 OA
ATOM     86  O   UNL A   1      34.009  33.746  30.907  1.00  0.00    -0.237 OA
ATOM     87  O   UNL A   1      35.718  34.133  29.172  1.00  0.00    -0.744 OA
ENDBRANCH  80  84
ENDBRANCH  53  77
BRANCH  65  88
ATOM     88  C   UNL A   1      44.359  34.202  29.936  1.00  0.00     0.023 A 
ATOM     89  C   UNL A   1      44.223  35.220  28.978  1.00  0.00     0.031 A 
ATOM     90  C   UNL A   1      44.965  34.524  31.164  1.00  0.00     0.131 A 
ATOM     91  C   UNL A   1      44.751  36.494  29.234  1.00  0.00     0.055 A 
ATOM     92  C   UNL A   1      45.421  35.812  31.443  1.00  0.00     0.041 A 
ATOM     93  F   UNL A   1      45.120  33.589  32.116  1.00  0.00    -0.206 F 
ATOM     94  C   UNL A   1      45.330  36.801  30.469  1.00  0.00     0.022 A 
BRANCH  91  95
ATOM     95  S   UNL A   1      44.772  37.710  27.890  1.00  0.00     0.124 S 
ATOM     96  O   UNL A   1      46.022  37.387  27.210  1.00  0.00    -0.237 OA
ATOM     97  O   UNL A   1      43.549  37.391  27.162  1.00  0.00    -0.237 OA
ATOM     98  O   UNL A   1      44.761  38.994  28.591  1.00  0.00    -0.744 OA
ENDBRANCH  91  95
ENDBRANCH  65  88
ENDBRANCH  39  40
ENDBRANCH  31  34
ENDBRANCH  29  30
ENDBRANCH  28  29
ENDBRANCH   1  28
TORSDOF 19
ENDMDL
MODEL 3
REMARK VINA RESULT:     -11.4      4.693      9.683
REMARK SMILES COc1ccc(NC(=O)C[C@@H](C[NH+]2CCOCC2)C(=O)NCCCNC(=O)c2ccc(-c3c4nc(c(-c5cc(S(=O)(=O)[O-])ccc5F)c5ccc([nH]5)c(-c5cc(S(=O)(=O)[O-])ccc5F)c5nc(c(-c6cc(S(=O)(=O)[O-])ccc6F)c6ccc3[nH]6)C=C5)C=C4)cc2)cc1
REMARK SMILES IDX 22 1 21 2 19 3 20 4 11 6 10 7 8 8 7 9 9 11 6 12 3 13 4 14
REMARK SMILES IDX 92 15 5 16 91 17 2 18 1 19 12 20 13 21 14 22 18 23 15 25
REMARK SMILES IDX 17 26 16 27 23 28 24 29 25 30 26 31 27 33 28 34 29 35 90 36
REMARK SMILES IDX 30 37 89 38 31 39 32 40 33 41 83 42 34 43 88 44 82 45 84 46
REMARK SMILES IDX 35 47 87 48 81 49 80 50 36 52 68 53 48 54 67 55 49 56 52 57
REMARK SMILES IDX 66 58 85 59 50 60 51 61 65 63 86 64 53 65 37 66 38 67 46 68
REMARK SMILES IDX 39 69 45 70 47 71 44 72 40 73 41 74 42 75 43 76 69 77 70 78
REMARK SMILES IDX 78 79 71 80 77 81 79 82 76 83 72 84 73 85 74 86 75 87 54 88
REMARK SMILES IDX 55 89 63 90 56 91 62 92 64 93 61 94 57 95 58 96 59 97 60 98
REMARK H PARENT 21 5 7 10 13 24 25 32 84 51 52 62
REMARK Flexibility Score: inf
ROOT
ATOM      1  C   UNL A   1      34.852  22.567  26.559  1.00  0.00     0.117 C 
ENDROOT
BRANCH   1   2
ATOM      2  N   UNL A   1      33.604  22.966  27.194  1.00  0.00    -0.356 N 
ATOM      3  C   UNL A   1      32.324  23.073  26.756  1.00  0.00     0.229 C 
ATOM      4  O   UNL A   1      31.566  23.694  27.514  1.00  0.00    -0.275 OA
ATOM      5  H   UNL A   1      33.712  23.210  28.142  1.00  0.00     0.163 HD
BRANCH   3   6
ATOM      6  C   UNL A   1      31.748  22.349  25.522  1.00  0.00     0.142 C 
BRANCH   6   7
ATOM      7  C   UNL A   1      31.832  23.258  24.283  1.00  0.00     0.119 C 
BRANCH   7   8
ATOM      8  C   UNL A   1      33.087  23.805  23.586  1.00  0.00     0.225 C 
ATOM      9  N   UNL A   1      33.704  25.010  23.623  1.00  0.00    -0.326 N 
ATOM     10  H   UNL A   1      34.453  25.032  22.983  1.00  0.00     0.169 HD
ATOM     11  O   UNL A   1      33.629  23.025  22.779  1.00  0.00    -0.275 OA
BRANCH   9  12
ATOM     12  C   UNL A   1      33.602  26.237  24.297  1.00  0.00     0.041 A 
ATOM     13  C   UNL A   1      32.886  28.809  25.161  1.00  0.00     0.119 A 
ATOM     14  C   UNL A   1      32.724  27.707  26.005  1.00  0.00     0.048 A 
ATOM     15  C   UNL A   1      33.560  28.654  23.956  1.00  0.00     0.048 A 
ATOM     16  C   UNL A   1      33.087  26.417  25.578  1.00  0.00     0.030 A 
ATOM     17  C   UNL A   1      33.938  27.374  23.540  1.00  0.00     0.030 A 
BRANCH  13  18
ATOM     18  O   UNL A   1      32.371  30.004  25.586  1.00  0.00    -0.497 OA
ATOM     19  C   UNL A   1      31.836  29.956  26.912  1.00  0.00     0.278 C 
ENDBRANCH  13  18
ENDBRANCH   9  12
ENDBRANCH   7   8
ENDBRANCH   6   7
BRANCH   6  20
ATOM     20  C   UNL A   1      32.209  20.931  25.241  1.00  0.00     0.276 C 
BRANCH  20  21
ATOM     21  N   UNL A   1      32.968  20.441  24.115  1.00  0.00    -0.330 N 
ATOM     22  C   UNL A   1      32.319  19.826  22.960  1.00  0.00     0.291 C 
ATOM     23  C   UNL A   1      34.160  19.693  24.564  1.00  0.00     0.291 C 
ATOM     24  H   UNL A   1      33.213  21.327  23.673  1.00  0.00     0.348 HD
ATOM     25  C   UNL A   1      32.281  18.293  22.936  1.00  0.00     0.221 C 
ATOM     26  C   UNL A   1      34.001  18.167  24.514  1.00  0.00     0.221 C 
ATOM     27  O   UNL A   1      33.566  17.732  23.227  1.00  0.00    -0.370 OA
ENDBRANCH  20  21
ENDBRANCH   6  20
ENDBRANCH   3   6
ENDBRANCH   1   2
BRANCH   1  28
ATOM     28  C   UNL A   1      35.668  23.792  26.168  1.00  0.00     0.042 C 
BRANCH  28  29
ATOM     29  C   UNL A   1      36.738  23.515  25.144  1.00  0.00     0.118 C 
BRANCH  29  30
ATOM     30  N   UNL A   1      37.657  22.475  25.587  1.00  0.00    -0.352 N 
ATOM     31  C   UNL A   1      38.874  22.618  26.210  1.00  0.00     0.251 C 
ATOM     32  H   UNL A   1      37.368  21.549  25.418  1.00  0.00     0.163 HD
ATOM     33  O   UNL A   1      39.621  21.639  26.307  1.00  0.00    -0.269 OA
BRANCH  31  34
ATOM     34  C   UNL A   1      39.294  23.941  26.728  1.00  0.00     0.039 A 
ATOM     35  C   UNL A   1      39.092  24.259  28.074  1.00  0.00     0.014 A 
ATOM     36  C   UNL A   1      39.901  24.874  25.885  1.00  0.00     0.014 A 
ATOM     37  C   UNL A   1      39.528  25.493  28.566  1.00  0.00     0.010 A 
ATOM     38  C   UNL A   1      40.482  26.015  26.408  1.00  0.00     0.010 A 
ATOM     39  C   UNL A   1      40.245  26.373  27.738  1.00  0.00    -0.014 A 
BRANCH  39  40
ATOM     40  C   UNL A   1      40.659  27.724  28.188  1.00  0.00     0.031 A 
ATOM     41  C   UNL A   1      42.123  28.097  28.124  1.00  0.00     0.074 A 
ATOM     42  C   UNL A   1      39.752  28.577  28.700  1.00  0.00     0.049 A 
ATOM     43  N   UNL A   1      42.729  29.168  28.564  1.00  0.00    -0.248 NA
ATOM     44  C   UNL A   1      43.036  27.099  27.538  1.00  0.00     0.031 C 
ATOM     45  C   UNL A   1      38.323  28.299  28.860  1.00  0.00     0.029 A 
ATOM     46  N   UNL A   1      39.897  29.852  29.182  1.00  0.00    -0.354 N 
ATOM     47  C   UNL A   1      44.085  28.955  28.335  1.00  0.00     0.074 A 
ATOM     48  C   UNL A   1      44.221  27.613  27.820  1.00  0.00     0.031 C 
ATOM     49  C   UNL A   1      37.716  29.391  29.353  1.00  0.00     0.029 A 
ATOM     50  C   UNL A   1      38.716  30.425  29.593  1.00  0.00     0.049 A 
ATOM     51  H   UNL A   1      40.765  30.315  29.228  1.00  0.00     0.167 HD
ATOM     52  C   UNL A   1      45.120  29.814  28.494  1.00  0.00     0.034 A 
ATOM     53  C   UNL A   1      38.476  31.648  30.104  1.00  0.00     0.034 A 
ATOM     54  C   UNL A   1      44.951  31.165  28.966  1.00  0.00     0.049 A 
ATOM     55  C   UNL A   1      39.640  32.595  30.266  1.00  0.00     0.074 A 
ATOM     56  C   UNL A   1      45.906  32.151  29.127  1.00  0.00     0.029 A 
ATOM     57  N   UNL A   1      43.734  31.718  29.348  1.00  0.00    -0.354 N 
ATOM     58  N   UNL A   1      40.913  32.394  30.007  1.00  0.00    -0.248 NA
ATOM     59  C   UNL A   1      39.332  33.939  30.768  1.00  0.00     0.031 C 
ATOM     60  C   UNL A   1      45.278  33.279  29.665  1.00  0.00     0.029 A 
ATOM     61  C   UNL A   1      43.917  33.027  29.759  1.00  0.00     0.049 A 
ATOM     62  H   UNL A   1      42.869  31.249  29.328  1.00  0.00     0.167 HD
ATOM     63  C   UNL A   1      41.550  33.602  30.274  1.00  0.00     0.074 A 
ATOM     64  C   UNL A   1      40.517  34.526  30.701  1.00  0.00     0.031 C 
ATOM     65  C   UNL A   1      42.866  33.926  30.175  1.00  0.00     0.034 A 
BRANCH  52  66
ATOM     66  C   UNL A   1      46.507  29.309  28.158  1.00  0.00     0.023 A 
ATOM     67  C   UNL A   1      46.882  28.998  26.838  1.00  0.00     0.031 A 
ATOM     68  C   UNL A   1      47.452  29.086  29.175  1.00  0.00     0.131 A 
ATOM     69  C   UNL A   1      48.123  28.395  26.583  1.00  0.00     0.055 A 
ATOM     70  C   UNL A   1      48.724  28.576  28.901  1.00  0.00     0.041 A 
ATOM     71  F   UNL A   1      47.149  29.338  30.458  1.00  0.00    -0.206 F 
ATOM     72  C   UNL A   1      49.059  28.210  27.601  1.00  0.00     0.022 A 
BRANCH  69  73
ATOM     73  S   UNL A   1      48.427  27.706  24.932  1.00  0.00     0.124 S 
ATOM     74  O   UNL A   1      47.329  28.289  24.164  1.00  0.00    -0.237 OA
ATOM     75  O   UNL A   1      49.760  28.205  24.620  1.00  0.00    -0.237 OA
ATOM     76  O   UNL A   1      48.332  26.262  25.141  1.00  0.00    -0.744 OA
ENDBRANCH  69  73
ENDBRANCH  52  66
BRANCH  53  77
ATOM     77  C   UNL A   1      37.091  32.060  30.478  1.00  0.00     0.023 A 
ATOM     78  C   UNL A   1      36.227  32.630  29.529  1.00  0.00     0.031 A 
ATOM     79  C   UNL A   1      36.621  31.925  31.797  1.00  0.00     0.131 A 
ATOM     80  C   UNL A   1      34.964  33.098  29.921  1.00  0.00     0.055 A 
ATOM     81  C   UNL A   1      35.340  32.337  32.169  1.00  0.00     0.041 A 
ATOM     82  F   UNL A   1      37.401  31.381  32.743  1.00  0.00    -0.206 F 
ATOM     83  C   UNL A   1      34.509  32.943  31.231  1.00  0.00     0.022 A 
BRANCH  80  84
ATOM     84  S   UNL A   1      33.962  34.008  28.713  1.00  0.00     0.124 S 
ATOM     85  O   UNL A   1      32.928  34.587  29.561  1.00  0.00    -0.237 OA
ATOM     86  O   UNL A   1      34.935  34.942  28.157  1.00  0.00    -0.237 OA
ATOM     87  O   UNL A   1      33.507  32.965  27.796  1.00  0.00    -0.744 OA
ENDBRANCH  80  84
ENDBRANCH  53  77
BRANCH  65  88
ATOM     88  C   UNL A   1      43.242  35.357  30.469  1.00  0.00     0.023 A 
ATOM     89  C   UNL A   1      43.444  35.818  31.780  1.00  0.00     0.031 A 
ATOM     90  C   UNL A   1      43.389  36.274  29.412  1.00  0.00     0.131 A 
ATOM     91  C   UNL A   1      43.713  37.176  32.007  1.00  0.00     0.055 A 
ATOM     92  C   UNL A   1      43.731  37.607  29.640  1.00  0.00     0.041 A 
ATOM     93  F   UNL A   1      43.208  35.887  28.139  1.00  0.00    -0.206 F 
ATOM     94  C   UNL A   1      43.878  38.068  30.944  1.00  0.00     0.022 A 
BRANCH  91  95
ATOM     95  S   UNL A   1      43.730  37.782  33.716  1.00  0.00     0.124 S 
ATOM     96  O   UNL A   1      42.918  38.990  33.616  1.00  0.00    -0.237 OA
ATOM     97  O   UNL A   1      43.132  36.670  34.447  1.00  0.00    -0.237 OA
ATOM     98  O   UNL A   1      45.150  38.008  33.983  1.00  0.00    -0.744 OA
ENDBRANCH  91  95
ENDBRANCH  65  88
ENDBRANCH  39  40
ENDBRANCH  31  34
ENDBRANCH  29  30
ENDBRANCH  28  29
ENDBRANCH   1  28
TORSDOF 19
ENDMDL
