MODEL 1
REMARK VINA RESULT:     -12.1      0.000      0.000
REMARK SMILES O=C(Cc1cccc(NS(=O)(=O)c2cccc(Cl)c2)c1)NCCCNC(=O)c1ccc(-c2c3nc(c(-c4cc(S(=O)(=O)[O-])ccc4F)c4ccc([nH]4)c(-c4cc(S(=O)(=O)[O-])ccc4F)c4nc(c(-c5cc(S(=O)(=O)[O-])ccc5F)c5ccc2[nH]5)C=C4)C=C3)cc1
REMARK SMILES IDX 22 1 21 2 1 3 2 4 3 6 4 7 5 8 20 9 6 10 8 11 7 12 9 13 10 15
REMARK SMILES IDX 11 16 12 17 13 18 14 19 19 20 15 21 17 22 16 23 18 24 23 25
REMARK SMILES IDX 24 26 25 27 26 28 27 30 28 31 29 32 90 33 30 34 89 35 31 36
REMARK SMILES IDX 32 37 33 38 83 39 34 40 88 41 82 42 84 43 35 44 87 45 81 46
REMARK SMILES IDX 80 47 36 49 68 50 48 51 67 52 49 53 52 54 66 55 85 56 50 57
REMARK SMILES IDX 51 58 65 60 86 61 53 62 37 63 38 64 46 65 39 66 45 67 47 68
REMARK SMILES IDX 44 69 40 70 41 71 42 72 43 73 69 74 70 75 78 76 71 77 77 78
REMARK SMILES IDX 79 79 76 80 72 81 73 82 74 83 75 84 54 85 55 86 63 87 56 88
REMARK SMILES IDX 62 89 64 90 61 91 57 92 58 93 59 94 60 95
REMARK H PARENT 21 5 9 14 25 29 84 48 52 59
REMARK Flexibility Score: inf
ROOT
ATOM      1  C   UNL A   1      43.911  40.986  28.218  1.00  0.00     0.117 C 
ENDROOT
BRANCH   1   2
ATOM      2  N   UNL A   1      43.276  41.634  27.090  1.00  0.00    -0.356 N 
ATOM      3  O   UNL A   1      44.572  40.608  25.489  1.00  0.00    -0.275 OA
ATOM      4  C   UNL A   1      43.649  41.356  25.791  1.00  0.00     0.224 C 
ATOM      5  H   UNL A   1      42.561  42.291  27.254  1.00  0.00     0.163 HD
BRANCH   4   6
ATOM      6  C   UNL A   1      42.804  42.067  24.758  1.00  0.00     0.135 C 
BRANCH   6   7
ATOM      7  C   UNL A   1      43.573  42.915  23.766  1.00  0.00    -0.037 A 
ATOM      8  C   UNL A   1      44.160  44.099  24.235  1.00  0.00     0.004 A 
ATOM      9  C   UNL A   1      43.585  42.650  22.380  1.00  0.00     0.031 A 
ATOM     10  C   UNL A   1      44.674  45.029  23.342  1.00  0.00     0.002 A 
ATOM     11  C   UNL A   1      44.123  43.576  21.475  1.00  0.00     0.049 A 
ATOM     12  C   UNL A   1      44.601  44.787  21.972  1.00  0.00     0.027 A 
BRANCH  11  13
ATOM     13  N   UNL A   1      43.957  43.376  20.059  1.00  0.00    -0.280 N 
ATOM     14  H   UNL A   1      44.705  43.008  19.535  1.00  0.00     0.180 HD
BRANCH  13  15
ATOM     15  S   UNL A   1      42.497  43.761  19.267  1.00  0.00     0.261 S 
ATOM     16  O   UNL A   1      42.250  42.708  18.303  1.00  0.00    -0.201 OA
ATOM     17  O   UNL A   1      41.528  44.047  20.302  1.00  0.00    -0.201 OA
BRANCH  15  18
ATOM     18  C   UNL A   1      42.768  45.261  18.366  1.00  0.00     0.089 A 
ATOM     19  C   UNL A   1      41.668  45.947  17.838  1.00  0.00     0.022 A 
ATOM     20  C   UNL A   1      44.073  45.728  18.166  1.00  0.00     0.042 A 
ATOM     21  C   UNL A   1      41.877  47.062  17.029  1.00  0.00     0.003 A 
ATOM     22  C   UNL A   1      44.266  46.844  17.355  1.00  0.00     0.042 A 
ATOM     23  C   UNL A   1      43.177  47.502  16.777  1.00  0.00     0.020 A 
ATOM     24  Cl  UNL A   1      45.861  47.394  17.020  1.00  0.00    -0.084 Cl
ENDBRANCH  15  18
ENDBRANCH  13  15
ENDBRANCH  11  13
ENDBRANCH   6   7
ENDBRANCH   4   6
ENDBRANCH   1   2
BRANCH   1  25
ATOM     25  C   UNL A   1      43.013  39.951  28.881  1.00  0.00     0.042 C 
BRANCH  25  26
ATOM     26  C   UNL A   1      43.626  38.562  29.034  1.00  0.00     0.118 C 
BRANCH  26  27
ATOM     27  N   UNL A   1      45.077  38.565  28.988  1.00  0.00    -0.352 N 
ATOM     28  C   UNL A   1      45.957  37.511  28.928  1.00  0.00     0.251 C 
ATOM     29  H   UNL A   1      45.494  39.457  29.002  1.00  0.00     0.163 HD
ATOM     30  O   UNL A   1      47.160  37.736  29.038  1.00  0.00    -0.269 OA
BRANCH  28  31
ATOM     31  C   UNL A   1      45.473  36.118  28.768  1.00  0.00     0.039 A 
ATOM     32  C   UNL A   1      45.688  35.216  29.814  1.00  0.00     0.014 A 
ATOM     33  C   UNL A   1      44.844  35.683  27.598  1.00  0.00     0.014 A 
ATOM     34  C   UNL A   1      45.231  33.899  29.708  1.00  0.00     0.010 A 
ATOM     35  C   UNL A   1      44.319  34.392  27.524  1.00  0.00     0.010 A 
ATOM     36  C   UNL A   1      44.519  33.480  28.572  1.00  0.00    -0.014 A 
BRANCH  36  37
ATOM     37  C   UNL A   1      44.015  32.084  28.463  1.00  0.00     0.031 A 
ATOM     38  C   UNL A   1      42.707  31.696  29.101  1.00  0.00     0.074 A 
ATOM     39  C   UNL A   1      44.746  31.156  27.813  1.00  0.00     0.049 A 
ATOM     40  N   UNL A   1      42.106  30.532  29.123  1.00  0.00    -0.248 NA
ATOM     41  C   UNL A   1      41.995  32.750  29.840  1.00  0.00     0.031 C 
ATOM     42  C   UNL A   1      46.054  31.392  27.195  1.00  0.00     0.029 A 
ATOM     43  N   UNL A   1      44.495  29.830  27.558  1.00  0.00    -0.354 N 
ATOM     44  C   UNL A   1      40.953  30.712  29.882  1.00  0.00     0.074 A 
ATOM     45  C   UNL A   1      40.981  32.078  30.360  1.00  0.00     0.031 C 
ATOM     46  C   UNL A   1      46.472  30.259  26.606  1.00  0.00     0.029 A 
ATOM     47  C   UNL A   1      45.484  29.208  26.831  1.00  0.00     0.049 A 
ATOM     48  H   UNL A   1      43.684  29.368  27.869  1.00  0.00     0.167 HD
ATOM     49  C   UNL A   1      39.952  29.832  30.134  1.00  0.00     0.034 A 
ATOM     50  C   UNL A   1      45.582  27.939  26.389  1.00  0.00     0.034 A 
ATOM     51  C   UNL A   1      39.931  28.476  29.638  1.00  0.00     0.049 A 
ATOM     52  C   UNL A   1      44.451  26.981  26.668  1.00  0.00     0.074 A 
ATOM     53  C   UNL A   1      38.950  27.512  29.800  1.00  0.00     0.029 A 
ATOM     54  N   UNL A   1      40.939  27.889  28.883  1.00  0.00    -0.354 N 
ATOM     55  N   UNL A   1      43.342  27.182  27.344  1.00  0.00    -0.248 NA
ATOM     56  C   UNL A   1      44.573  25.632  26.102  1.00  0.00     0.031 C 
ATOM     57  C   UNL A   1      39.392  26.329  29.195  1.00  0.00     0.029 A 
ATOM     58  C   UNL A   1      40.613  26.573  28.588  1.00  0.00     0.049 A 
ATOM     59  H   UNL A   1      41.766  28.341  28.598  1.00  0.00     0.167 HD
ATOM     60  C   UNL A   1      42.620  25.995  27.250  1.00  0.00     0.074 A 
ATOM     61  C   UNL A   1      43.412  25.094  26.437  1.00  0.00     0.031 C 
ATOM     62  C   UNL A   1      41.412  25.680  27.782  1.00  0.00     0.034 A 
BRANCH  49  63
ATOM     63  C   UNL A   1      38.811  30.310  31.003  1.00  0.00     0.023 A 
ATOM     64  C   UNL A   1      37.675  30.933  30.455  1.00  0.00     0.031 A 
ATOM     65  C   UNL A   1      38.874  30.178  32.402  1.00  0.00     0.131 A 
ATOM     66  C   UNL A   1      36.693  31.473  31.299  1.00  0.00     0.055 A 
ATOM     67  C   UNL A   1      37.850  30.641  33.232  1.00  0.00     0.041 A 
ATOM     68  F   UNL A   1      39.941  29.613  32.989  1.00  0.00    -0.206 F 
ATOM     69  C   UNL A   1      36.760  31.308  32.683  1.00  0.00     0.022 A 
BRANCH  66  70
ATOM     70  S   UNL A   1      35.414  32.532  30.570  1.00  0.00     0.124 S 
ATOM     71  O   UNL A   1      34.439  32.606  31.657  1.00  0.00    -0.237 OA
ATOM     72  O   UNL A   1      36.146  33.760  30.283  1.00  0.00    -0.237 OA
ATOM     73  O   UNL A   1      34.972  31.779  29.398  1.00  0.00    -0.744 OA
ENDBRANCH  66  70
ENDBRANCH  49  63
BRANCH  50  74
ATOM     74  C   UNL A   1      46.782  27.494  25.624  1.00  0.00     0.023 A 
ATOM     75  C   UNL A   1      46.974  27.881  24.289  1.00  0.00     0.031 A 
ATOM     76  C   UNL A   1      47.731  26.634  26.204  1.00  0.00     0.131 A 
ATOM     77  C   UNL A   1      48.059  27.368  23.560  1.00  0.00     0.055 A 
ATOM     78  C   UNL A   1      48.838  26.169  25.493  1.00  0.00     0.041 A 
ATOM     79  F   UNL A   1      47.599  26.240  27.481  1.00  0.00    -0.206 F 
ATOM     80  C   UNL A   1      48.998  26.524  24.157  1.00  0.00     0.022 A 
BRANCH  77  81
ATOM     81  S   UNL A   1      48.177  27.752  21.791  1.00  0.00     0.124 S 
ATOM     82  O   UNL A   1      48.361  26.426  21.212  1.00  0.00    -0.237 OA
ATOM     83  O   UNL A   1      46.890  28.392  21.534  1.00  0.00    -0.237 OA
ATOM     84  O   UNL A   1      49.336  28.636  21.711  1.00  0.00    -0.744 OA
ENDBRANCH  77  81
ENDBRANCH  50  74
BRANCH  62  85
ATOM     85  C   UNL A   1      40.852  24.316  27.447  1.00  0.00     0.023 A 
ATOM     86  C   UNL A   1      39.728  24.156  26.617  1.00  0.00     0.031 A 
ATOM     87  C   UNL A   1      41.431  23.161  28.003  1.00  0.00     0.131 A 
ATOM     88  C   UNL A   1      39.172  22.882  26.431  1.00  0.00     0.055 A 
ATOM     89  C   UNL A   1      40.914  21.888  27.758  1.00  0.00     0.041 A 
ATOM     90  F   UNL A   1      42.506  23.252  28.803  1.00  0.00    -0.206 F 
ATOM     91  C   UNL A   1      39.767  21.744  26.983  1.00  0.00     0.022 A 
BRANCH  88  92
ATOM     92  S   UNL A   1      37.585  22.744  25.562  1.00  0.00     0.124 S 
ATOM     93  O   UNL A   1      37.545  21.326  25.221  1.00  0.00    -0.237 OA
ATOM     94  O   UNL A   1      36.635  23.182  26.580  1.00  0.00    -0.237 OA
ATOM     95  O   UNL A   1      37.737  23.652  24.426  1.00  0.00    -0.744 OA
ENDBRANCH  88  92
ENDBRANCH  62  85
ENDBRANCH  36  37
ENDBRANCH  28  31
ENDBRANCH  26  27
ENDBRANCH  25  26
ENDBRANCH   1  25
TORSDOF 17
ENDMDL
MODEL 2
REMARK VINA RESULT:     -12.1      9.375     15.629
REMARK SMILES O=C(Cc1cccc(NS(=O)(=O)c2cccc(Cl)c2)c1)NCCCNC(=O)c1ccc(-c2c3nc(c(-c4cc(S(=O)(=O)[O-])ccc4F)c4ccc([nH]4)c(-c4cc(S(=O)(=O)[O-])ccc4F)c4nc(c(-c5cc(S(=O)(=O)[O-])ccc5F)c5ccc2[nH]5)C=C4)C=C3)cc1
REMARK SMILES IDX 22 1 21 2 1 3 2 4 3 6 4 7 5 8 20 9 6 10 8 11 7 12 9 13 10 15
REMARK SMILES IDX 11 16 12 17 13 18 14 19 19 20 15 21 17 22 16 23 18 24 23 25
REMARK SMILES IDX 24 26 25 27 26 28 27 30 28 31 29 32 90 33 30 34 89 35 31 36
REMARK SMILES IDX 32 37 33 38 83 39 34 40 88 41 82 42 84 43 35 44 87 45 81 46
REMARK SMILES IDX 80 47 36 49 68 50 48 51 67 52 49 53 52 54 66 55 85 56 50 57
REMARK SMILES IDX 51 58 65 60 86 61 53 62 37 63 38 64 46 65 39 66 45 67 47 68
REMARK SMILES IDX 44 69 40 70 41 71 42 72 43 73 69 74 70 75 78 76 71 77 77 78
REMARK SMILES IDX 79 79 76 80 72 81 73 82 74 83 75 84 54 85 55 86 63 87 56 88
REMARK SMILES IDX 62 89 64 90 61 91 57 92 58 93 59 94 60 95
REMARK H PARENT 21 5 9 14 25 29 84 48 52 59
REMARK Flexibility Score: inf
ROOT
ATOM      1  C   UNL A   1      30.875  31.840  25.595  1.00  0.00     0.117 C 
ENDROOT
BRANCH   1   2
ATOM      2  N   UNL A   1      31.146  30.567  24.961  1.00  0.00    -0.356 N 
ATOM      3  O   UNL A   1      29.229  30.544  23.688  1.00  0.00    -0.275 OA
ATOM      4  C   UNL A   1      30.295  30.033  24.015  1.00  0.00     0.224 C 
ATOM      5  H   UNL A   1      31.957  30.069  25.212  1.00  0.00     0.163 HD
BRANCH   4   6
ATOM      6  C   UNL A   1      30.803  28.745  23.408  1.00  0.00     0.135 C 
BRANCH   6   7
ATOM      7  C   UNL A   1      31.682  27.907  24.314  1.00  0.00    -0.037 A 
ATOM      8  C   UNL A   1      33.043  27.809  23.997  1.00  0.00     0.004 A 
ATOM      9  C   UNL A   1      31.164  27.103  25.353  1.00  0.00     0.031 A 
ATOM     10  C   UNL A   1      33.849  26.880  24.641  1.00  0.00     0.002 A 
ATOM     11  C   UNL A   1      31.978  26.180  26.022  1.00  0.00     0.049 A 
ATOM     12  C   UNL A   1      33.300  26.038  25.604  1.00  0.00     0.027 A 
BRANCH  11  13
ATOM     13  N   UNL A   1      31.392  25.240  26.943  1.00  0.00    -0.280 N 
ATOM     14  H   UNL A   1      31.377  25.456  27.904  1.00  0.00     0.180 HD
BRANCH  13  15
ATOM     15  S   UNL A   1      30.726  23.764  26.410  1.00  0.00     0.261 S 
ATOM     16  O   UNL A   1      29.758  23.355  27.408  1.00  0.00    -0.201 OA
ATOM     17  O   UNL A   1      30.320  23.964  25.037  1.00  0.00    -0.201 OA
BRANCH  15  18
ATOM     18  C   UNL A   1      32.033  22.569  26.407  1.00  0.00     0.089 A 
ATOM     19  C   UNL A   1      33.065  22.685  27.347  1.00  0.00     0.022 A 
ATOM     20  C   UNL A   1      32.038  21.543  25.454  1.00  0.00     0.042 A 
ATOM     21  C   UNL A   1      34.156  21.822  27.279  1.00  0.00     0.003 A 
ATOM     22  C   UNL A   1      33.136  20.689  25.398  1.00  0.00     0.042 A 
ATOM     23  C   UNL A   1      34.197  20.832  26.295  1.00  0.00     0.020 A 
ATOM     24  Cl  UNL A   1      33.213  19.471  24.185  1.00  0.00    -0.084 Cl
ENDBRANCH  15  18
ENDBRANCH  13  15
ENDBRANCH  11  13
ENDBRANCH   6   7
ENDBRANCH   4   6
ENDBRANCH   1   2
BRANCH   1  25
ATOM     25  C   UNL A   1      31.397  31.906  27.024  1.00  0.00     0.042 C 
BRANCH  25  26
ATOM     26  C   UNL A   1      32.720  32.648  27.197  1.00  0.00     0.118 C 
BRANCH  26  27
ATOM     27  N   UNL A   1      32.557  34.025  27.627  1.00  0.00    -0.352 N 
ATOM     28  C   UNL A   1      33.214  34.722  28.612  1.00  0.00     0.251 C 
ATOM     29  H   UNL A   1      31.871  34.536  27.139  1.00  0.00     0.163 HD
ATOM     30  O   UNL A   1      32.819  35.848  28.904  1.00  0.00    -0.269 OA
BRANCH  28  31
ATOM     31  C   UNL A   1      34.359  34.123  29.339  1.00  0.00     0.039 A 
ATOM     32  C   UNL A   1      34.091  33.216  30.368  1.00  0.00     0.014 A 
ATOM     33  C   UNL A   1      35.683  34.465  29.046  1.00  0.00     0.014 A 
ATOM     34  C   UNL A   1      35.145  32.617  31.065  1.00  0.00     0.010 A 
ATOM     35  C   UNL A   1      36.734  33.809  29.688  1.00  0.00     0.010 A 
ATOM     36  C   UNL A   1      36.478  32.889  30.716  1.00  0.00    -0.014 A 
BRANCH  36  37
ATOM     37  C   UNL A   1      37.602  32.240  31.444  1.00  0.00     0.031 A 
ATOM     38  C   UNL A   1      38.372  31.113  30.805  1.00  0.00     0.074 A 
ATOM     39  C   UNL A   1      37.915  32.644  32.691  1.00  0.00     0.049 A 
ATOM     40  N   UNL A   1      39.375  30.418  31.281  1.00  0.00    -0.248 NA
ATOM     41  C   UNL A   1      37.934  30.691  29.466  1.00  0.00     0.031 C 
ATOM     42  C   UNL A   1      37.215  33.690  33.441  1.00  0.00     0.029 A 
ATOM     43  N   UNL A   1      38.905  32.230  33.549  1.00  0.00    -0.354 N 
ATOM     44  C   UNL A   1      39.682  29.474  30.305  1.00  0.00     0.074 A 
ATOM     45  C   UNL A   1      38.710  29.642  29.246  1.00  0.00     0.031 C 
ATOM     46  C   UNL A   1      37.817  33.856  34.630  1.00  0.00     0.029 A 
ATOM     47  C   UNL A   1      38.922  32.911  34.745  1.00  0.00     0.049 A 
ATOM     48  H   UNL A   1      39.540  31.512  33.329  1.00  0.00     0.167 HD
ATOM     49  C   UNL A   1      40.695  28.571  30.281  1.00  0.00     0.034 A 
ATOM     50  C   UNL A   1      39.740  32.792  35.810  1.00  0.00     0.034 A 
ATOM     51  C   UNL A   1      41.665  28.424  31.340  1.00  0.00     0.049 A 
ATOM     52  C   UNL A   1      40.867  31.792  35.755  1.00  0.00     0.074 A 
ATOM     53  C   UNL A   1      42.754  27.570  31.401  1.00  0.00     0.029 A 
ATOM     54  N   UNL A   1      41.666  29.149  32.525  1.00  0.00    -0.354 N 
ATOM     55  N   UNL A   1      41.175  30.942  34.802  1.00  0.00    -0.248 NA
ATOM     56  C   UNL A   1      41.772  31.754  36.911  1.00  0.00     0.031 C 
ATOM     57  C   UNL A   1      43.374  27.737  32.645  1.00  0.00     0.029 A 
ATOM     58  C   UNL A   1      42.722  28.749  33.330  1.00  0.00     0.049 A 
ATOM     59  H   UNL A   1      41.012  29.846  32.760  1.00  0.00     0.167 HD
ATOM     60  C   UNL A   1      42.333  30.296  35.230  1.00  0.00     0.074 A 
ATOM     61  C   UNL A   1      42.674  30.870  36.516  1.00  0.00     0.031 C 
ATOM     62  C   UNL A   1      43.051  29.323  34.615  1.00  0.00     0.034 A 
BRANCH  49  63
ATOM     63  C   UNL A   1      40.782  27.661  29.076  1.00  0.00     0.023 A 
ATOM     64  C   UNL A   1      41.736  27.866  28.063  1.00  0.00     0.031 A 
ATOM     65  C   UNL A   1      39.877  26.597  28.917  1.00  0.00     0.131 A 
ATOM     66  C   UNL A   1      41.710  27.078  26.903  1.00  0.00     0.055 A 
ATOM     67  C   UNL A   1      39.913  25.761  27.799  1.00  0.00     0.041 A 
ATOM     68  F   UNL A   1      38.928  26.362  29.837  1.00  0.00    -0.206 F 
ATOM     69  C   UNL A   1      40.821  26.009  26.775  1.00  0.00     0.022 A 
BRANCH  66  70
ATOM     70  S   UNL A   1      42.746  27.572  25.499  1.00  0.00     0.124 S 
ATOM     71  O   UNL A   1      42.686  26.379  24.656  1.00  0.00    -0.237 OA
ATOM     72  O   UNL A   1      42.051  28.749  24.992  1.00  0.00    -0.237 OA
ATOM     73  O   UNL A   1      44.050  27.830  26.108  1.00  0.00    -0.744 OA
ENDBRANCH  66  70
ENDBRANCH  49  63
BRANCH  50  74
ATOM     74  C   UNL A   1      39.540  33.646  37.016  1.00  0.00     0.023 A 
ATOM     75  C   UNL A   1      38.889  33.148  38.156  1.00  0.00     0.031 A 
ATOM     76  C   UNL A   1      39.954  34.989  37.027  1.00  0.00     0.131 A 
ATOM     77  C   UNL A   1      38.625  34.000  39.239  1.00  0.00     0.055 A 
ATOM     78  C   UNL A   1      39.736  35.819  38.128  1.00  0.00     0.041 A 
ATOM     79  F   UNL A   1      40.587  35.514  35.966  1.00  0.00    -0.206 F 
ATOM     80  C   UNL A   1      39.054  35.330  39.238  1.00  0.00     0.022 A 
BRANCH  77  81
ATOM     81  S   UNL A   1      37.631  33.369  40.620  1.00  0.00     0.124 S 
ATOM     82  O   UNL A   1      36.441  32.883  39.931  1.00  0.00    -0.237 OA
ATOM     83  O   UNL A   1      38.509  32.347  41.182  1.00  0.00    -0.237 OA
ATOM     84  O   UNL A   1      37.431  34.546  41.461  1.00  0.00    -0.744 OA
ENDBRANCH  77  81
ENDBRANCH  50  74
BRANCH  62  85
ATOM     85  C   UNL A   1      44.312  28.862  35.308  1.00  0.00     0.023 A 
ATOM     86  C   UNL A   1      44.300  27.836  36.270  1.00  0.00     0.031 A 
ATOM     87  C   UNL A   1      45.540  29.489  35.029  1.00  0.00     0.131 A 
ATOM     88  C   UNL A   1      45.473  27.523  36.974  1.00  0.00     0.055 A 
ATOM     89  C   UNL A   1      46.717  29.126  35.684  1.00  0.00     0.041 A 
ATOM     90  F   UNL A   1      45.613  30.475  34.120  1.00  0.00    -0.206 F 
ATOM     91  C   UNL A   1      46.685  28.151  36.677  1.00  0.00     0.022 A 
BRANCH  88  92
ATOM     92  S   UNL A   1      45.365  26.375  38.375  1.00  0.00     0.124 S 
ATOM     93  O   UNL A   1      44.560  27.130  39.328  1.00  0.00    -0.237 OA
ATOM     94  O   UNL A   1      44.718  25.213  37.774  1.00  0.00    -0.237 OA
ATOM     95  O   UNL A   1      46.761  26.175  38.762  1.00  0.00    -0.744 OA
ENDBRANCH  88  92
ENDBRANCH  62  85
ENDBRANCH  36  37
ENDBRANCH  28  31
ENDBRANCH  26  27
ENDBRANCH  25  26
ENDBRANCH   1  25
TORSDOF 17
ENDMDL
MODEL 3
REMARK VINA RESULT:     -11.8      9.732     13.650
REMARK SMILES O=C(Cc1cccc(NS(=O)(=O)c2cccc(Cl)c2)c1)NCCCNC(=O)c1ccc(-c2c3nc(c(-c4cc(S(=O)(=O)[O-])ccc4F)c4ccc([nH]4)c(-c4cc(S(=O)(=O)[O-])ccc4F)c4nc(c(-c5cc(S(=O)(=O)[O-])ccc5F)c5ccc2[nH]5)C=C4)C=C3)cc1
REMARK SMILES IDX 22 1 21 2 1 3 2 4 3 6 4 7 5 8 20 9 6 10 8 11 7 12 9 13 10 15
REMARK SMILES IDX 11 16 12 17 13 18 14 19 19 20 15 21 17 22 16 23 18 24 23 25
REMARK SMILES IDX 24 26 25 27 26 28 27 30 28 31 29 32 90 33 30 34 89 35 31 36
REMARK SMILES IDX 32 37 33 38 83 39 34 40 88 41 82 42 84 43 35 44 87 45 81 46
REMARK SMILES IDX 80 47 36 49 68 50 48 51 67 52 49 53 52 54 66 55 85 56 50 57
REMARK SMILES IDX 51 58 65 60 86 61 53 62 37 63 38 64 46 65 39 66 45 67 47 68
REMARK SMILES IDX 44 69 40 70 41 71 42 72 43 73 69 74 70 75 78 76 71 77 77 78
REMARK SMILES IDX 79 79 76 80 72 81 73 82 74 83 75 84 54 85 55 86 63 87 56 88
REMARK SMILES IDX 62 89 64 90 61 91 57 92 58 93 59 94 60 95
REMARK H PARENT 21 5 9 14 25 29 84 48 52 59
REMARK Flexibility Score: inf
ROOT
ATOM      1  C   UNL A   1      31.916  29.477  23.939  1.00  0.00     0.117 C 
ENDROOT
BRANCH   1   2
ATOM      2  N   UNL A   1      30.864  28.542  24.275  1.00  0.00    -0.356 N 
ATOM      3  O   UNL A   1      29.893  28.546  22.189  1.00  0.00    -0.275 OA
ATOM      4  C   UNL A   1      29.942  28.122  23.338  1.00  0.00     0.224 C 
ATOM      5  H   UNL A   1      30.804  28.197  25.195  1.00  0.00     0.163 HD
BRANCH   4   6
ATOM      6  C   UNL A   1      28.984  27.077  23.864  1.00  0.00     0.135 C 
BRANCH   6   7
ATOM      7  C   UNL A   1      29.629  25.792  24.342  1.00  0.00    -0.037 A 
ATOM      8  C   UNL A   1      29.643  25.541  25.720  1.00  0.00     0.004 A 
ATOM      9  C   UNL A   1      30.346  24.931  23.484  1.00  0.00     0.031 A 
ATOM     10  C   UNL A   1      30.414  24.509  26.239  1.00  0.00     0.002 A 
ATOM     11  C   UNL A   1      31.108  23.873  23.999  1.00  0.00     0.049 A 
ATOM     12  C   UNL A   1      31.181  23.722  25.383  1.00  0.00     0.027 A 
BRANCH  11  13
ATOM     13  N   UNL A   1      31.980  23.126  23.130  1.00  0.00    -0.280 N 
ATOM     14  H   UNL A   1      31.711  22.224  22.841  1.00  0.00     0.180 HD
BRANCH  13  15
ATOM     15  S   UNL A   1      33.466  23.765  22.591  1.00  0.00     0.261 S 
ATOM     16  O   UNL A   1      33.853  23.001  21.421  1.00  0.00    -0.201 OA
ATOM     17  O   UNL A   1      33.294  25.198  22.504  1.00  0.00    -0.201 OA
BRANCH  15  18
ATOM     18  C   UNL A   1      34.663  23.451  23.857  1.00  0.00     0.089 A 
ATOM     19  C   UNL A   1      34.902  24.432  24.827  1.00  0.00     0.022 A 
ATOM     20  C   UNL A   1      35.376  22.246  23.859  1.00  0.00     0.042 A 
ATOM     21  C   UNL A   1      35.922  24.245  25.757  1.00  0.00     0.003 A 
ATOM     22  C   UNL A   1      36.394  22.074  24.795  1.00  0.00     0.042 A 
ATOM     23  C   UNL A   1      36.678  23.070  25.731  1.00  0.00     0.020 A 
ATOM     24  Cl  UNL A   1      37.345  20.641  24.772  1.00  0.00    -0.084 Cl
ENDBRANCH  15  18
ENDBRANCH  13  15
ENDBRANCH  11  13
ENDBRANCH   6   7
ENDBRANCH   4   6
ENDBRANCH   1   2
BRANCH   1  25
ATOM     25  C   UNL A   1      33.283  29.025  24.434  1.00  0.00     0.042 C 
BRANCH  25  26
ATOM     26  C   UNL A   1      33.549  29.266  25.917  1.00  0.00     0.118 C 
BRANCH  26  27
ATOM     27  N   UNL A   1      33.182  30.599  26.359  1.00  0.00    -0.352 N 
ATOM     28  C   UNL A   1      33.768  31.405  27.306  1.00  0.00     0.251 C 
ATOM     29  H   UNL A   1      32.393  30.985  25.912  1.00  0.00     0.163 HD
ATOM     30  O   UNL A   1      33.206  32.450  27.624  1.00  0.00    -0.269 OA
BRANCH  28  31
ATOM     31  C   UNL A   1      35.037  31.011  27.965  1.00  0.00     0.039 A 
ATOM     32  C   UNL A   1      35.101  29.764  28.593  1.00  0.00     0.014 A 
ATOM     33  C   UNL A   1      36.146  31.861  28.001  1.00  0.00     0.014 A 
ATOM     34  C   UNL A   1      36.285  29.351  29.210  1.00  0.00     0.010 A 
ATOM     35  C   UNL A   1      37.351  31.417  28.548  1.00  0.00     0.010 A 
ATOM     36  C   UNL A   1      37.431  30.163  29.172  1.00  0.00    -0.014 A 
BRANCH  36  37
ATOM     37  C   UNL A   1      38.699  29.718  29.813  1.00  0.00     0.031 A 
ATOM     38  C   UNL A   1      39.094  30.251  31.165  1.00  0.00     0.074 A 
ATOM     39  C   UNL A   1      39.509  28.855  29.168  1.00  0.00     0.049 A 
ATOM     40  N   UNL A   1      40.160  29.990  31.882  1.00  0.00    -0.248 NA
ATOM     41  C   UNL A   1      38.186  31.230  31.780  1.00  0.00     0.031 C 
ATOM     42  C   UNL A   1      39.265  28.305  27.831  1.00  0.00     0.029 A 
ATOM     43  N   UNL A   1      40.700  28.285  29.547  1.00  0.00    -0.354 N 
ATOM     44  C   UNL A   1      40.053  30.778  33.024  1.00  0.00     0.074 A 
ATOM     45  C   UNL A   1      38.856  31.577  32.867  1.00  0.00     0.031 C 
ATOM     46  C   UNL A   1      40.256  27.454  27.519  1.00  0.00     0.029 A 
ATOM     47  C   UNL A   1      41.222  27.420  28.612  1.00  0.00     0.049 A 
ATOM     48  H   UNL A   1      41.138  28.478  30.406  1.00  0.00     0.167 HD
ATOM     49  C   UNL A   1      40.861  30.812  34.114  1.00  0.00     0.034 A 
ATOM     50  C   UNL A   1      42.348  26.680  28.636  1.00  0.00     0.034 A 
ATOM     51  C   UNL A   1      42.045  30.000  34.262  1.00  0.00     0.049 A 
ATOM     52  C   UNL A   1      43.224  26.724  29.863  1.00  0.00     0.074 A 
ATOM     53  C   UNL A   1      42.913  29.926  35.339  1.00  0.00     0.029 A 
ATOM     54  N   UNL A   1      42.530  29.117  33.305  1.00  0.00    -0.354 N 
ATOM     55  N   UNL A   1      43.081  27.436  30.958  1.00  0.00    -0.248 NA
ATOM     56  C   UNL A   1      44.398  25.843  29.867  1.00  0.00     0.031 C 
ATOM     57  C   UNL A   1      43.951  29.047  35.008  1.00  0.00     0.029 A 
ATOM     58  C   UNL A   1      43.692  28.511  33.758  1.00  0.00     0.049 A 
ATOM     59  H   UNL A   1      42.109  28.946  32.432  1.00  0.00     0.167 HD
ATOM     60  C   UNL A   1      44.129  27.058  31.795  1.00  0.00     0.074 A 
ATOM     61  C   UNL A   1      44.880  26.043  31.083  1.00  0.00     0.031 C 
ATOM     62  C   UNL A   1      44.439  27.504  33.039  1.00  0.00     0.034 A 
BRANCH  49  63
ATOM     63  C   UNL A   1      40.495  31.781  35.216  1.00  0.00     0.023 A 
ATOM     64  C   UNL A   1      39.540  31.457  36.197  1.00  0.00     0.031 A 
ATOM     65  C   UNL A   1      41.079  33.059  35.269  1.00  0.00     0.131 A 
ATOM     66  C   UNL A   1      39.136  32.422  37.131  1.00  0.00     0.055 A 
ATOM     67  C   UNL A   1      40.736  33.985  36.256  1.00  0.00     0.041 A 
ATOM     68  F   UNL A   1      41.982  33.437  34.350  1.00  0.00    -0.206 F 
ATOM     69  C   UNL A   1      39.747  33.677  37.183  1.00  0.00     0.022 A 
BRANCH  66  70
ATOM     70  S   UNL A   1      37.692  32.070  38.170  1.00  0.00     0.124 S 
ATOM     71  O   UNL A   1      38.235  32.282  39.510  1.00  0.00    -0.237 OA
ATOM     72  O   UNL A   1      36.723  33.058  37.709  1.00  0.00    -0.237 OA
ATOM     73  O   UNL A   1      37.369  30.681  37.849  1.00  0.00    -0.744 OA
ENDBRANCH  66  70
ENDBRANCH  49  63
BRANCH  50  74
ATOM     74  C   UNL A   1      42.713  25.822  27.473  1.00  0.00     0.023 A 
ATOM     75  C   UNL A   1      42.351  24.466  27.431  1.00  0.00     0.031 A 
ATOM     76  C   UNL A   1      43.473  26.334  26.407  1.00  0.00     0.131 A 
ATOM     77  C   UNL A   1      42.793  23.655  26.374  1.00  0.00     0.055 A 
ATOM     78  C   UNL A   1      43.865  25.537  25.330  1.00  0.00     0.041 A 
ATOM     79  F   UNL A   1      43.840  27.626  26.393  1.00  0.00    -0.206 F 
ATOM     80  C   UNL A   1      43.538  24.184  25.317  1.00  0.00     0.022 A 
BRANCH  77  81
ATOM     81  S   UNL A   1      42.453  21.875  26.443  1.00  0.00     0.124 S 
ATOM     82  O   UNL A   1      41.364  21.743  25.482  1.00  0.00    -0.237 OA
ATOM     83  O   UNL A   1      43.736  21.306  26.040  1.00  0.00    -0.237 OA
ATOM     84  O   UNL A   1      42.086  21.652  27.839  1.00  0.00    -0.744 OA
ENDBRANCH  77  81
ENDBRANCH  50  74
BRANCH  62  85
ATOM     85  C   UNL A   1      45.613  26.849  33.727  1.00  0.00     0.023 A 
ATOM     86  C   UNL A   1      45.463  25.702  34.527  1.00  0.00     0.031 A 
ATOM     87  C   UNL A   1      46.899  27.408  33.612  1.00  0.00     0.131 A 
ATOM     88  C   UNL A   1      46.560  25.199  35.242  1.00  0.00     0.055 A 
ATOM     89  C   UNL A   1      48.001  26.862  34.272  1.00  0.00     0.041 A 
ATOM     90  F   UNL A   1      47.104  28.503  32.862  1.00  0.00    -0.206 F 
ATOM     91  C   UNL A   1      47.832  25.762  35.108  1.00  0.00     0.022 A 
BRANCH  88  92
ATOM     92  S   UNL A   1      46.277  23.877  36.452  1.00  0.00     0.124 S 
ATOM     93  O   UNL A   1      44.820  23.835  36.523  1.00  0.00    -0.237 OA
ATOM     94  O   UNL A   1      46.916  22.730  35.813  1.00  0.00    -0.237 OA
ATOM     95  O   UNL A   1      46.944  24.366  37.657  1.00  0.00    -0.744 OA
ENDBRANCH  88  92
ENDBRANCH  62  85
ENDBRANCH  36  37
ENDBRANCH  28  31
ENDBRANCH  26  27
ENDBRANCH  25  26
ENDBRANCH   1  25
TORSDOF 17
ENDMDL
