MODEL 1
REMARK VINA RESULT:     -11.7      0.000      0.000
REMARK SMILES O=C(NCCCNC(=O)[C@H]1CC[C@@H](CNC(=O)[C@@H]2CCC[NH2+]C2)O1)c1ccc(-c2c3nc(c(-c4cc(S(=O)(=O)[O-])ccc4F)c4ccc([nH]4)c(-c4cc(S(=O)(=O)[O-])ccc4F)c4nc(c(-c5cc(S(=O)(=O)[O-])ccc5F)c5ccc2[nH]5)C=C4)C=C3)cc1
REMARK SMILES IDX 5 1 4 2 3 3 1 4 2 5 25 7 26 8 87 9 27 10 86 11 28 12 29 13
REMARK SMILES IDX 30 14 80 15 31 16 85 17 79 18 81 19 32 20 84 21 78 22 77 23
REMARK SMILES IDX 33 25 65 26 45 27 64 28 46 29 49 30 63 31 82 32 47 33 48 34
REMARK SMILES IDX 62 36 83 37 50 38 34 39 35 40 43 41 36 42 42 43 44 44 41 45
REMARK SMILES IDX 37 46 38 47 39 48 40 49 66 50 67 51 75 52 68 53 74 54 76 55
REMARK SMILES IDX 73 56 69 57 70 58 71 59 72 60 51 61 52 62 60 63 53 64 59 65
REMARK SMILES IDX 61 66 58 67 54 68 55 69 56 70 57 71 6 72 7 73 8 74 9 76
REMARK SMILES IDX 10 77 11 78 24 79 12 80 13 81 14 82 15 83 16 84 17 86 18 87
REMARK SMILES IDX 19 88 23 89 20 90 22 91 21 92
REMARK H PARENT 3 6 81 24 49 35 7 75 15 85 22 93 22 94
REMARK Flexibility Score: inf
ROOT
ATOM      1  C   UNL A   1      38.232  20.119  24.995  1.00  0.00     0.042 C 
ENDROOT
BRANCH   1   2
ATOM      2  C   UNL A   1      39.300  20.303  26.073  1.00  0.00     0.118 C 
BRANCH   2   3
ATOM      3  N   UNL A   1      40.333  19.283  26.076  1.00  0.00    -0.352 N 
ATOM      4  O   UNL A   1      42.384  18.371  26.001  1.00  0.00    -0.269 OA
ATOM      5  C   UNL A   1      41.702  19.385  26.147  1.00  0.00     0.251 C 
ATOM      6  H   UNL A   1      39.996  18.359  26.017  1.00  0.00     0.163 HD
BRANCH   5   7
ATOM      7  C   UNL A   1      42.370  20.686  26.367  1.00  0.00     0.039 A 
ATOM      8  C   UNL A   1      42.750  21.489  25.294  1.00  0.00     0.014 A 
ATOM      9  C   UNL A   1      42.514  21.163  27.678  1.00  0.00     0.014 A 
ATOM     10  C   UNL A   1      43.364  22.715  25.522  1.00  0.00     0.010 A 
ATOM     11  C   UNL A   1      43.048  22.436  27.905  1.00  0.00     0.010 A 
ATOM     12  C   UNL A   1      43.478  23.219  26.826  1.00  0.00    -0.014 A 
BRANCH  12  13
ATOM     13  C   UNL A   1      43.899  24.629  26.994  1.00  0.00     0.031 A 
ATOM     14  C   UNL A   1      42.961  25.670  27.518  1.00  0.00     0.074 A 
ATOM     15  C   UNL A   1      45.178  24.937  26.702  1.00  0.00     0.049 A 
ATOM     16  N   UNL A   1      43.207  26.916  27.832  1.00  0.00    -0.248 NA
ATOM     17  C   UNL A   1      41.562  25.265  27.701  1.00  0.00     0.031 C 
ATOM     18  C   UNL A   1      46.157  23.996  26.148  1.00  0.00     0.029 A 
ATOM     19  N   UNL A   1      45.884  26.101  26.846  1.00  0.00    -0.354 N 
ATOM     20  C   UNL A   1      41.995  27.449  28.255  1.00  0.00     0.074 A 
ATOM     21  C   UNL A   1      41.008  26.397  28.113  1.00  0.00     0.031 C 
ATOM     22  C   UNL A   1      47.344  24.607  26.042  1.00  0.00     0.029 A 
ATOM     23  C   UNL A   1      47.202  25.994  26.469  1.00  0.00     0.049 A 
ATOM     24  H   UNL A   1      45.487  26.936  27.187  1.00  0.00     0.167 HD
ATOM     25  C   UNL A   1      41.742  28.697  28.724  1.00  0.00     0.034 A 
ATOM     26  C   UNL A   1      48.187  26.910  26.454  1.00  0.00     0.034 A 
ATOM     27  C   UNL A   1      42.747  29.731  28.823  1.00  0.00     0.049 A 
ATOM     28  C   UNL A   1      47.883  28.290  26.961  1.00  0.00     0.074 A 
ATOM     29  C   UNL A   1      42.619  31.022  29.305  1.00  0.00     0.029 A 
ATOM     30  N   UNL A   1      44.068  29.596  28.406  1.00  0.00    -0.354 N 
ATOM     31  N   UNL A   1      46.745  28.763  27.415  1.00  0.00    -0.248 NA
ATOM     32  C   UNL A   1      48.987  29.255  26.962  1.00  0.00     0.031 C 
ATOM     33  C   UNL A   1      43.840  31.685  29.121  1.00  0.00     0.029 A 
ATOM     34  C   UNL A   1      44.753  30.789  28.587  1.00  0.00     0.049 A 
ATOM     35  H   UNL A   1      44.461  28.772  28.037  1.00  0.00     0.167 HD
ATOM     36  C   UNL A   1      46.996  30.084  27.763  1.00  0.00     0.074 A 
ATOM     37  C   UNL A   1      48.400  30.325  27.481  1.00  0.00     0.031 C 
ATOM     38  C   UNL A   1      46.147  31.012  28.272  1.00  0.00     0.034 A 
BRANCH  25  39
ATOM     39  C   UNL A   1      40.313  29.010  29.104  1.00  0.00     0.023 A 
ATOM     40  C   UNL A   1      39.892  29.023  30.447  1.00  0.00     0.031 A 
ATOM     41  C   UNL A   1      39.343  29.234  28.112  1.00  0.00     0.131 A 
ATOM     42  C   UNL A   1      38.530  29.161  30.756  1.00  0.00     0.055 A 
ATOM     43  C   UNL A   1      38.000  29.451  28.430  1.00  0.00     0.041 A 
ATOM     44  F   UNL A   1      39.677  29.216  26.813  1.00  0.00    -0.206 F 
ATOM     45  C   UNL A   1      37.583  29.395  29.756  1.00  0.00     0.022 A 
BRANCH  42  46
ATOM     46  S   UNL A   1      37.995  28.853  32.463  1.00  0.00     0.124 S 
ATOM     47  O   UNL A   1      38.141  27.401  32.565  1.00  0.00    -0.237 OA
ATOM     48  O   UNL A   1      38.936  29.645  33.237  1.00  0.00    -0.237 OA
ATOM     49  O   UNL A   1      36.610  29.329  32.479  1.00  0.00    -0.744 OA
ENDBRANCH  42  46
ENDBRANCH  25  39
BRANCH  26  50
ATOM     50  C   UNL A   1      49.523  26.539  25.913  1.00  0.00     0.023 A 
ATOM     51  C   UNL A   1      49.950  26.965  24.647  1.00  0.00     0.031 A 
ATOM     52  C   UNL A   1      50.418  25.786  26.696  1.00  0.00     0.131 A 
ATOM     53  C   UNL A   1      51.238  26.629  24.198  1.00  0.00     0.055 A 
ATOM     54  C   UNL A   1      51.709  25.488  26.262  1.00  0.00     0.041 A 
ATOM     55  F   UNL A   1      50.059  25.369  27.922  1.00  0.00    -0.206 F 
ATOM     56  C   UNL A   1      52.124  25.907  25.003  1.00  0.00     0.022 A 
BRANCH  53  57
ATOM     57  S   UNL A   1      51.740  27.133  22.529  1.00  0.00     0.124 S 
ATOM     58  O   UNL A   1      52.815  26.190  22.242  1.00  0.00    -0.237 OA
ATOM     59  O   UNL A   1      50.506  26.950  21.772  1.00  0.00    -0.237 OA
ATOM     60  O   UNL A   1      52.158  28.523  22.704  1.00  0.00    -0.744 OA
ENDBRANCH  53  57
ENDBRANCH  26  50
BRANCH  38  61
ATOM     61  C   UNL A   1      46.730  32.367  28.571  1.00  0.00     0.023 A 
ATOM     62  C   UNL A   1      46.813  33.365  27.584  1.00  0.00     0.031 A 
ATOM     63  C   UNL A   1      47.205  32.662  29.861  1.00  0.00     0.131 A 
ATOM     64  C   UNL A   1      47.394  34.602  27.895  1.00  0.00     0.055 A 
ATOM     65  C   UNL A   1      47.741  33.911  30.175  1.00  0.00     0.041 A 
ATOM     66  F   UNL A   1      47.150  31.740  30.836  1.00  0.00    -0.206 F 
ATOM     67  C   UNL A   1      47.844  34.887  29.188  1.00  0.00     0.022 A 
BRANCH  64  68
ATOM     68  S   UNL A   1      47.600  35.827  26.572  1.00  0.00     0.124 S 
ATOM     69  O   UNL A   1      48.375  35.079  25.588  1.00  0.00    -0.237 OA
ATOM     70  O   UNL A   1      46.220  36.128  26.204  1.00  0.00    -0.237 OA
ATOM     71  O   UNL A   1      48.318  36.920  27.227  1.00  0.00    -0.744 OA
ENDBRANCH  64  68
ENDBRANCH  38  61
ENDBRANCH  12  13
ENDBRANCH   5   7
ENDBRANCH   2   3
ENDBRANCH   1   2
BRANCH   1  72
ATOM     72  C   UNL A   1      37.412  21.367  24.666  1.00  0.00     0.117 C 
BRANCH  72  73
ATOM     73  N   UNL A   1      37.875  22.561  25.350  1.00  0.00    -0.354 N 
ATOM     74  C   UNL A   1      37.260  23.722  25.686  1.00  0.00     0.249 C 
ATOM     75  H   UNL A   1      38.820  22.520  25.622  1.00  0.00     0.163 HD
ATOM     76  O   UNL A   1      37.907  24.473  26.430  1.00  0.00    -0.272 OA
BRANCH  74  77
ATOM     77  C   UNL A   1      35.837  24.119  25.259  1.00  0.00     0.207 C 
ATOM     78  C   UNL A   1      35.504  24.254  23.782  1.00  0.00     0.045 C 
ATOM     79  O   UNL A   1      34.854  23.248  25.839  1.00  0.00    -0.363 OA
ATOM     80  C   UNL A   1      34.521  23.123  23.535  1.00  0.00     0.037 C 
ATOM     81  C   UNL A   1      33.807  23.044  24.872  1.00  0.00     0.138 C 
BRANCH  81  82
ATOM     82  C   UNL A   1      33.046  21.759  25.230  1.00  0.00     0.147 C 
BRANCH  82  83
ATOM     83  N   UNL A   1      32.660  20.918  24.113  1.00  0.00    -0.353 N 
ATOM     84  C   UNL A   1      32.622  19.551  24.041  1.00  0.00     0.228 C 
ATOM     85  H   UNL A   1      32.386  21.395  23.296  1.00  0.00     0.163 HD
ATOM     86  O   UNL A   1      31.926  19.064  23.152  1.00  0.00    -0.275 OA
BRANCH  84  87
ATOM     87  C   UNL A   1      33.401  18.715  25.066  1.00  0.00     0.133 C 
ATOM     88  C   UNL A   1      34.691  18.141  24.473  1.00  0.00     0.025 C 
ATOM     89  C   UNL A   1      32.561  17.568  25.662  1.00  0.00     0.274 C 
ATOM     90  C   UNL A   1      34.372  17.009  23.505  1.00  0.00     0.062 C 
ATOM     91  N   UNL A   1      32.348  16.430  24.766  1.00  0.00    -0.346 N 
ATOM     92  C   UNL A   1      33.587  15.906  24.200  1.00  0.00     0.260 C 
ATOM     93  H   UNL A   1      31.891  15.685  25.291  1.00  0.00     0.346 HD
ATOM     94  H   UNL A   1      31.775  16.758  23.989  1.00  0.00     0.346 HD
ENDBRANCH  84  87
ENDBRANCH  82  83
ENDBRANCH  81  82
ENDBRANCH  74  77
ENDBRANCH  72  73
ENDBRANCH   1  72
TORSDOF 16
ENDMDL
MODEL 2
REMARK VINA RESULT:     -11.7      2.320      2.884
REMARK SMILES O=C(NCCCNC(=O)[C@H]1CC[C@@H](CNC(=O)[C@@H]2CCC[NH2+]C2)O1)c1ccc(-c2c3nc(c(-c4cc(S(=O)(=O)[O-])ccc4F)c4ccc([nH]4)c(-c4cc(S(=O)(=O)[O-])ccc4F)c4nc(c(-c5cc(S(=O)(=O)[O-])ccc5F)c5ccc2[nH]5)C=C4)C=C3)cc1
REMARK SMILES IDX 5 1 4 2 3 3 1 4 2 5 25 7 26 8 87 9 27 10 86 11 28 12 29 13
REMARK SMILES IDX 30 14 80 15 31 16 85 17 79 18 81 19 32 20 84 21 78 22 77 23
REMARK SMILES IDX 33 25 65 26 45 27 64 28 46 29 49 30 63 31 82 32 47 33 48 34
REMARK SMILES IDX 62 36 83 37 50 38 34 39 35 40 43 41 36 42 42 43 44 44 41 45
REMARK SMILES IDX 37 46 38 47 39 48 40 49 66 50 67 51 75 52 68 53 74 54 76 55
REMARK SMILES IDX 73 56 69 57 70 58 71 59 72 60 51 61 52 62 60 63 53 64 59 65
REMARK SMILES IDX 61 66 58 67 54 68 55 69 56 70 57 71 6 72 7 73 8 74 9 76
REMARK SMILES IDX 10 77 11 78 24 79 12 80 13 81 14 82 15 83 16 84 17 86 18 87
REMARK SMILES IDX 19 88 23 89 20 90 22 91 21 92
REMARK H PARENT 3 6 81 24 49 35 7 75 15 85 22 93 22 94
REMARK Flexibility Score: inf
ROOT
ATOM      1  C   UNL A   1      37.727  19.797  25.117  1.00  0.00     0.042 C 
ENDROOT
BRANCH   1   2
ATOM      2  C   UNL A   1      39.208  20.173  25.134  1.00  0.00     0.118 C 
BRANCH   2   3
ATOM      3  N   UNL A   1      39.993  19.476  26.137  1.00  0.00    -0.352 N 
ATOM      4  O   UNL A   1      41.521  19.140  27.748  1.00  0.00    -0.269 OA
ATOM      5  C   UNL A   1      40.867  19.947  27.087  1.00  0.00     0.251 C 
ATOM      6  H   UNL A   1      39.881  18.497  26.136  1.00  0.00     0.163 HD
BRANCH   5   7
ATOM      7  C   UNL A   1      41.058  21.396  27.311  1.00  0.00     0.039 A 
ATOM      8  C   UNL A   1      41.861  21.863  28.350  1.00  0.00     0.014 A 
ATOM      9  C   UNL A   1      40.513  22.304  26.392  1.00  0.00     0.014 A 
ATOM     10  C   UNL A   1      42.038  23.229  28.536  1.00  0.00     0.010 A 
ATOM     11  C   UNL A   1      40.767  23.673  26.525  1.00  0.00     0.010 A 
ATOM     12  C   UNL A   1      41.530  24.143  27.602  1.00  0.00    -0.014 A 
BRANCH  12  13
ATOM     13  C   UNL A   1      41.963  25.557  27.703  1.00  0.00     0.031 A 
ATOM     14  C   UNL A   1      41.152  26.574  28.442  1.00  0.00     0.074 A 
ATOM     15  C   UNL A   1      43.143  25.889  27.142  1.00  0.00     0.049 A 
ATOM     16  N   UNL A   1      41.449  27.817  28.719  1.00  0.00    -0.248 NA
ATOM     17  C   UNL A   1      39.833  26.144  28.921  1.00  0.00     0.031 C 
ATOM     18  C   UNL A   1      43.985  24.972  26.367  1.00  0.00     0.029 A 
ATOM     19  N   UNL A   1      43.851  27.060  27.152  1.00  0.00    -0.354 N 
ATOM     20  C   UNL A   1      40.355  28.324  29.411  1.00  0.00     0.074 A 
ATOM     21  C   UNL A   1      39.372  27.260  29.468  1.00  0.00     0.031 C 
ATOM     22  C   UNL A   1      45.113  25.602  26.014  1.00  0.00     0.029 A 
ATOM     23  C   UNL A   1      45.054  26.979  26.491  1.00  0.00     0.049 A 
ATOM     24  H   UNL A   1      43.530  27.882  27.588  1.00  0.00     0.167 HD
ATOM     25  C   UNL A   1      40.198  29.560  29.949  1.00  0.00     0.034 A 
ATOM     26  C   UNL A   1      46.002  27.911  26.278  1.00  0.00     0.034 A 
ATOM     27  C   UNL A   1      41.188  30.607  29.846  1.00  0.00     0.049 A 
ATOM     28  C   UNL A   1      45.802  29.276  26.868  1.00  0.00     0.074 A 
ATOM     29  C   UNL A   1      41.156  31.887  30.371  1.00  0.00     0.029 A 
ATOM     30  N   UNL A   1      42.387  30.499  29.146  1.00  0.00    -0.354 N 
ATOM     31  N   UNL A   1      44.788  29.724  27.572  1.00  0.00    -0.248 NA
ATOM     32  C   UNL A   1      46.868  30.258  26.646  1.00  0.00     0.031 C 
ATOM     33  C   UNL A   1      42.300  32.571  29.937  1.00  0.00     0.029 A 
ATOM     34  C   UNL A   1      43.082  31.699  29.196  1.00  0.00     0.049 A 
ATOM     35  H   UNL A   1      42.697  29.688  28.682  1.00  0.00     0.167 HD
ATOM     36  C   UNL A   1      45.095  31.043  27.883  1.00  0.00     0.074 A 
ATOM     37  C   UNL A   1      46.399  31.309  27.303  1.00  0.00     0.031 C 
ATOM     38  C   UNL A   1      44.369  31.948  28.587  1.00  0.00     0.034 A 
BRANCH  25  39
ATOM     39  C   UNL A   1      38.885  29.844  30.642  1.00  0.00     0.023 A 
ATOM     40  C   UNL A   1      37.916  30.690  30.069  1.00  0.00     0.031 A 
ATOM     41  C   UNL A   1      38.621  29.318  31.918  1.00  0.00     0.131 A 
ATOM     42  C   UNL A   1      36.780  31.058  30.806  1.00  0.00     0.055 A 
ATOM     43  C   UNL A   1      37.449  29.623  32.614  1.00  0.00     0.041 A 
ATOM     44  F   UNL A   1      39.513  28.520  32.525  1.00  0.00    -0.206 F 
ATOM     45  C   UNL A   1      36.530  30.514  32.068  1.00  0.00     0.022 A 
BRANCH  42  46
ATOM     46  S   UNL A   1      35.726  32.390  30.165  1.00  0.00     0.124 S 
ATOM     47  O   UNL A   1      35.647  32.051  28.744  1.00  0.00    -0.237 OA
ATOM     48  O   UNL A   1      34.502  32.222  30.930  1.00  0.00    -0.237 OA
ATOM     49  O   UNL A   1      36.491  33.603  30.460  1.00  0.00    -0.744 OA
ENDBRANCH  42  46
ENDBRANCH  25  39
BRANCH  26  50
ATOM     50  C   UNL A   1      47.189  27.569  25.448  1.00  0.00     0.023 A 
ATOM     51  C   UNL A   1      47.224  27.826  24.070  1.00  0.00     0.031 A 
ATOM     52  C   UNL A   1      48.338  27.022  26.050  1.00  0.00     0.131 A 
ATOM     53  C   UNL A   1      48.384  27.530  23.336  1.00  0.00     0.055 A 
ATOM     54  C   UNL A   1      49.501  26.766  25.325  1.00  0.00     0.041 A 
ATOM     55  F   UNL A   1      48.357  26.774  27.370  1.00  0.00    -0.206 F 
ATOM     56  C   UNL A   1      49.527  27.016  23.958  1.00  0.00     0.022 A 
BRANCH  53  57
ATOM     57  S   UNL A   1      48.379  27.807  21.544  1.00  0.00     0.124 S 
ATOM     58  O   UNL A   1      47.005  28.238  21.311  1.00  0.00    -0.237 OA
ATOM     59  O   UNL A   1      49.407  28.831  21.392  1.00  0.00    -0.237 OA
ATOM     60  O   UNL A   1      48.725  26.497  20.995  1.00  0.00    -0.744 OA
ENDBRANCH  53  57
ENDBRANCH  26  50
BRANCH  38  61
ATOM     61  C   UNL A   1      44.990  33.306  28.777  1.00  0.00     0.023 A 
ATOM     62  C   UNL A   1      45.835  33.582  29.865  1.00  0.00     0.031 A 
ATOM     63  C   UNL A   1      44.732  34.335  27.853  1.00  0.00     0.131 A 
ATOM     64  C   UNL A   1      46.366  34.870  30.024  1.00  0.00     0.055 A 
ATOM     65  C   UNL A   1      45.300  35.601  27.993  1.00  0.00     0.041 A 
ATOM     66  F   UNL A   1      43.929  34.120  26.799  1.00  0.00    -0.206 F 
ATOM     67  C   UNL A   1      46.117  35.876  29.086  1.00  0.00     0.022 A 
BRANCH  64  68
ATOM     68  S   UNL A   1      47.354  35.231  31.502  1.00  0.00     0.124 S 
ATOM     69  O   UNL A   1      46.776  34.316  32.481  1.00  0.00    -0.237 OA
ATOM     70  O   UNL A   1      48.709  34.919  31.059  1.00  0.00    -0.237 OA
ATOM     71  O   UNL A   1      47.095  36.649  31.748  1.00  0.00    -0.744 OA
ENDBRANCH  64  68
ENDBRANCH  38  61
ENDBRANCH  12  13
ENDBRANCH   5   7
ENDBRANCH   2   3
ENDBRANCH   1   2
BRANCH   1  72
ATOM     72  C   UNL A   1      36.755  20.972  24.999  1.00  0.00     0.117 C 
BRANCH  72  73
ATOM     73  N   UNL A   1      37.262  22.204  25.576  1.00  0.00    -0.354 N 
ATOM     74  C   UNL A   1      36.718  23.436  25.729  1.00  0.00     0.249 C 
ATOM     75  H   UNL A   1      38.180  22.130  25.924  1.00  0.00     0.163 HD
ATOM     76  O   UNL A   1      37.369  24.224  26.431  1.00  0.00    -0.272 OA
BRANCH  74  77
ATOM     77  C   UNL A   1      35.363  23.878  25.152  1.00  0.00     0.207 C 
ATOM     78  C   UNL A   1      35.198  24.026  23.648  1.00  0.00     0.045 C 
ATOM     79  O   UNL A   1      34.296  23.037  25.616  1.00  0.00    -0.363 OA
ATOM     80  C   UNL A   1      34.215  22.927  23.288  1.00  0.00     0.037 C 
ATOM     81  C   UNL A   1      33.356  22.868  24.538  1.00  0.00     0.138 C 
BRANCH  81  82
ATOM     82  C   UNL A   1      32.522  21.605  24.803  1.00  0.00     0.147 C 
BRANCH  82  83
ATOM     83  N   UNL A   1      32.411  20.674  23.697  1.00  0.00    -0.353 N 
ATOM     84  C   UNL A   1      32.629  19.322  23.689  1.00  0.00     0.228 C 
ATOM     85  H   UNL A   1      32.141  21.067  22.836  1.00  0.00     0.163 HD
ATOM     86  O   UNL A   1      32.127  18.688  22.762  1.00  0.00    -0.275 OA
BRANCH  84  87
ATOM     87  C   UNL A   1      33.436  18.676  24.823  1.00  0.00     0.133 C 
ATOM     88  C   UNL A   1      34.616  17.859  24.292  1.00  0.00     0.025 C 
ATOM     89  C   UNL A   1      32.572  17.786  25.738  1.00  0.00     0.274 C 
ATOM     90  C   UNL A   1      34.122  16.568  23.650  1.00  0.00     0.062 C 
ATOM     91  N   UNL A   1      32.189  16.496  25.160  1.00  0.00    -0.346 N 
ATOM     92  C   UNL A   1      33.325  15.738  24.646  1.00  0.00     0.260 C 
ATOM     93  H   UNL A   1      31.728  15.941  25.881  1.00  0.00     0.346 HD
ATOM     94  H   UNL A   1      31.571  16.688  24.372  1.00  0.00     0.346 HD
ENDBRANCH  84  87
ENDBRANCH  82  83
ENDBRANCH  81  82
ENDBRANCH  74  77
ENDBRANCH  72  73
ENDBRANCH   1  72
TORSDOF 16
ENDMDL
MODEL 3
REMARK VINA RESULT:     -11.7      6.280     12.056
REMARK SMILES O=C(NCCCNC(=O)[C@H]1CC[C@@H](CNC(=O)[C@@H]2CCC[NH2+]C2)O1)c1ccc(-c2c3nc(c(-c4cc(S(=O)(=O)[O-])ccc4F)c4ccc([nH]4)c(-c4cc(S(=O)(=O)[O-])ccc4F)c4nc(c(-c5cc(S(=O)(=O)[O-])ccc5F)c5ccc2[nH]5)C=C4)C=C3)cc1
REMARK SMILES IDX 5 1 4 2 3 3 1 4 2 5 25 7 26 8 87 9 27 10 86 11 28 12 29 13
REMARK SMILES IDX 30 14 80 15 31 16 85 17 79 18 81 19 32 20 84 21 78 22 77 23
REMARK SMILES IDX 33 25 65 26 45 27 64 28 46 29 49 30 63 31 82 32 47 33 48 34
REMARK SMILES IDX 62 36 83 37 50 38 34 39 35 40 43 41 36 42 42 43 44 44 41 45
REMARK SMILES IDX 37 46 38 47 39 48 40 49 66 50 67 51 75 52 68 53 74 54 76 55
REMARK SMILES IDX 73 56 69 57 70 58 71 59 72 60 51 61 52 62 60 63 53 64 59 65
REMARK SMILES IDX 61 66 58 67 54 68 55 69 56 70 57 71 6 72 7 73 8 74 9 76
REMARK SMILES IDX 10 77 11 78 24 79 12 80 13 81 14 82 15 83 16 84 17 86 18 87
REMARK SMILES IDX 19 88 23 89 20 90 22 91 21 92
REMARK H PARENT 3 6 81 24 49 35 7 75 15 85 22 93 22 94
REMARK Flexibility Score: inf
ROOT
ATOM      1  C   UNL A   1      31.498  31.816  26.618  1.00  0.00     0.042 C 
ENDROOT
BRANCH   1   2
ATOM      2  C   UNL A   1      32.696  32.460  27.315  1.00  0.00     0.118 C 
BRANCH   2   3
ATOM      3  N   UNL A   1      32.538  33.875  27.596  1.00  0.00    -0.352 N 
ATOM      4  O   UNL A   1      32.758  35.844  28.655  1.00  0.00    -0.269 OA
ATOM      5  C   UNL A   1      33.157  34.688  28.516  1.00  0.00     0.251 C 
ATOM      6  H   UNL A   1      31.873  34.332  27.031  1.00  0.00     0.163 HD
BRANCH   5   7
ATOM      7  C   UNL A   1      34.269  34.195  29.357  1.00  0.00     0.039 A 
ATOM      8  C   UNL A   1      34.023  33.455  30.512  1.00  0.00     0.014 A 
ATOM      9  C   UNL A   1      35.588  34.381  28.918  1.00  0.00     0.014 A 
ATOM     10  C   UNL A   1      35.083  32.990  31.282  1.00  0.00     0.010 A 
ATOM     11  C   UNL A   1      36.652  33.834  29.644  1.00  0.00     0.010 A 
ATOM     12  C   UNL A   1      36.403  33.136  30.833  1.00  0.00    -0.014 A 
BRANCH  12  13
ATOM     13  C   UNL A   1      37.470  32.401  31.553  1.00  0.00     0.031 A 
ATOM     14  C   UNL A   1      38.209  31.268  30.914  1.00  0.00     0.074 A 
ATOM     15  C   UNL A   1      37.787  32.821  32.793  1.00  0.00     0.049 A 
ATOM     16  N   UNL A   1      39.242  30.603  31.364  1.00  0.00    -0.248 NA
ATOM     17  C   UNL A   1      37.718  30.813  29.607  1.00  0.00     0.031 C 
ATOM     18  C   UNL A   1      37.095  33.894  33.513  1.00  0.00     0.029 A 
ATOM     19  N   UNL A   1      38.773  32.425  33.657  1.00  0.00    -0.354 N 
ATOM     20  C   UNL A   1      39.532  29.649  30.395  1.00  0.00     0.074 A 
ATOM     21  C   UNL A   1      38.533  29.798  29.355  1.00  0.00     0.031 C 
ATOM     22  C   UNL A   1      37.704  34.100  34.688  1.00  0.00     0.029 A 
ATOM     23  C   UNL A   1      38.795  33.144  34.829  1.00  0.00     0.049 A 
ATOM     24  H   UNL A   1      39.406  31.697  33.459  1.00  0.00     0.167 HD
ATOM     25  C   UNL A   1      40.543  28.744  30.381  1.00  0.00     0.034 A 
ATOM     26  C   UNL A   1      39.595  33.039  35.907  1.00  0.00     0.034 A 
ATOM     27  C   UNL A   1      41.503  28.603  31.451  1.00  0.00     0.049 A 
ATOM     28  C   UNL A   1      40.697  32.020  35.879  1.00  0.00     0.074 A 
ATOM     29  C   UNL A   1      42.585  27.744  31.540  1.00  0.00     0.029 A 
ATOM     30  N   UNL A   1      41.480  29.330  32.638  1.00  0.00    -0.354 N 
ATOM     31  N   UNL A   1      40.997  31.164  34.928  1.00  0.00    -0.248 NA
ATOM     32  C   UNL A   1      41.570  31.954  37.054  1.00  0.00     0.031 C 
ATOM     33  C   UNL A   1      43.174  27.906  32.800  1.00  0.00     0.029 A 
ATOM     34  C   UNL A   1      42.505  28.914  33.476  1.00  0.00     0.049 A 
ATOM     35  H   UNL A   1      40.831  30.039  32.852  1.00  0.00     0.167 HD
ATOM     36  C   UNL A   1      42.101  30.458  35.389  1.00  0.00     0.074 A 
ATOM     37  C   UNL A   1      42.422  31.003  36.696  1.00  0.00     0.031 C 
ATOM     38  C   UNL A   1      42.788  29.455  34.787  1.00  0.00     0.034 A 
BRANCH  25  39
ATOM     39  C   UNL A   1      40.610  27.811  29.194  1.00  0.00     0.023 A 
ATOM     40  C   UNL A   1      41.548  27.997  28.161  1.00  0.00     0.031 A 
ATOM     41  C   UNL A   1      39.686  26.761  29.057  1.00  0.00     0.131 A 
ATOM     42  C   UNL A   1      41.482  27.210  27.000  1.00  0.00     0.055 A 
ATOM     43  C   UNL A   1      39.676  25.928  27.935  1.00  0.00     0.041 A 
ATOM     44  F   UNL A   1      38.755  26.543  29.998  1.00  0.00    -0.206 F 
ATOM     45  C   UNL A   1      40.564  26.164  26.889  1.00  0.00     0.022 A 
BRANCH  42  46
ATOM     46  S   UNL A   1      42.494  27.689  25.571  1.00  0.00     0.124 S 
ATOM     47  O   UNL A   1      42.395  26.501  24.723  1.00  0.00    -0.237 OA
ATOM     48  O   UNL A   1      41.813  28.878  25.086  1.00  0.00    -0.237 OA
ATOM     49  O   UNL A   1      43.819  27.917  26.151  1.00  0.00    -0.744 OA
ENDBRANCH  42  46
ENDBRANCH  25  39
BRANCH  26  50
ATOM     50  C   UNL A   1      39.344  33.905  37.091  1.00  0.00     0.023 A 
ATOM     51  C   UNL A   1      38.713  33.415  38.243  1.00  0.00     0.031 A 
ATOM     52  C   UNL A   1      39.790  35.241  37.096  1.00  0.00     0.131 A 
ATOM     53  C   UNL A   1      38.540  34.257  39.354  1.00  0.00     0.055 A 
ATOM     54  C   UNL A   1      39.650  36.061  38.214  1.00  0.00     0.041 A 
ATOM     55  F   UNL A   1      40.413  35.750  36.021  1.00  0.00    -0.206 F 
ATOM     56  C   UNL A   1      39.018  35.572  39.351  1.00  0.00     0.022 A 
BRANCH  53  57
ATOM     57  S   UNL A   1      37.660  33.619  40.805  1.00  0.00     0.124 S 
ATOM     58  O   UNL A   1      38.649  32.715  41.382  1.00  0.00    -0.237 OA
ATOM     59  O   UNL A   1      37.392  34.840  41.558  1.00  0.00    -0.237 OA
ATOM     60  O   UNL A   1      36.481  32.973  40.233  1.00  0.00    -0.744 OA
ENDBRANCH  53  57
ENDBRANCH  26  50
BRANCH  38  61
ATOM     61  C   UNL A   1      43.967  28.901  35.540  1.00  0.00     0.023 A 
ATOM     62  C   UNL A   1      43.835  27.807  36.412  1.00  0.00     0.031 A 
ATOM     63  C   UNL A   1      45.241  29.475  35.377  1.00  0.00     0.131 A 
ATOM     64  C   UNL A   1      44.952  27.342  37.120  1.00  0.00     0.055 A 
ATOM     65  C   UNL A   1      46.357  28.979  36.051  1.00  0.00     0.041 A 
ATOM     66  F   UNL A   1      45.417  30.524  34.558  1.00  0.00    -0.206 F 
ATOM     67  C   UNL A   1      46.216  27.911  36.933  1.00  0.00     0.022 A 
BRANCH  64  68
ATOM     68  S   UNL A   1      44.728  26.009  38.329  1.00  0.00     0.124 S 
ATOM     69  O   UNL A   1      44.141  26.723  39.458  1.00  0.00    -0.237 OA
ATOM     70  O   UNL A   1      43.841  25.089  37.625  1.00  0.00    -0.237 OA
ATOM     71  O   UNL A   1      46.086  25.513  38.547  1.00  0.00    -0.744 OA
ENDBRANCH  64  68
ENDBRANCH  38  61
ENDBRANCH  12  13
ENDBRANCH   5   7
ENDBRANCH   2   3
ENDBRANCH   1   2
BRANCH   1  72
ATOM     72  C   UNL A   1      31.818  30.583  25.772  1.00  0.00     0.117 C 
BRANCH  72  73
ATOM     73  N   UNL A   1      30.920  30.405  24.645  1.00  0.00    -0.354 N 
ATOM     74  C   UNL A   1      30.722  29.377  23.784  1.00  0.00     0.249 C 
ATOM     75  H   UNL A   1      30.341  31.183  24.473  1.00  0.00     0.163 HD
ATOM     76  O   UNL A   1      29.740  29.487  23.035  1.00  0.00    -0.272 OA
BRANCH  74  77
ATOM     77  C   UNL A   1      31.581  28.102  23.724  1.00  0.00     0.207 C 
ATOM     78  C   UNL A   1      33.091  28.218  23.589  1.00  0.00     0.045 C 
ATOM     79  O   UNL A   1      31.318  27.240  24.841  1.00  0.00    -0.363 OA
ATOM     80  C   UNL A   1      33.607  27.675  24.910  1.00  0.00     0.037 C 
ATOM     81  C   UNL A   1      32.559  26.628  25.239  1.00  0.00     0.138 C 
BRANCH  81  82
ATOM     82  C   UNL A   1      32.429  26.142  26.690  1.00  0.00     0.147 C 
BRANCH  82  83
ATOM     83  N   UNL A   1      31.571  24.992  26.900  1.00  0.00    -0.353 N 
ATOM     84  C   UNL A   1      31.898  23.662  26.870  1.00  0.00     0.228 C 
ATOM     85  H   UNL A   1      30.627  25.194  27.091  1.00  0.00     0.163 HD
ATOM     86  O   UNL A   1      31.121  22.891  27.430  1.00  0.00    -0.275 OA
BRANCH  84  87
ATOM     87  C   UNL A   1      33.198  23.215  26.188  1.00  0.00     0.133 C 
ATOM     88  C   UNL A   1      32.935  22.562  24.829  1.00  0.00     0.025 C 
ATOM     89  C   UNL A   1      34.029  22.254  27.061  1.00  0.00     0.274 C 
ATOM     90  C   UNL A   1      32.329  21.176  25.013  1.00  0.00     0.062 C 
ATOM     91  N   UNL A   1      33.503  20.890  27.149  1.00  0.00    -0.346 N 
ATOM     92  C   UNL A   1      33.246  20.290  25.845  1.00  0.00     0.260 C 
ATOM     93  H   UNL A   1      34.183  20.312  27.644  1.00  0.00     0.346 HD
ATOM     94  H   UNL A   1      32.612  20.939  27.642  1.00  0.00     0.346 HD
ENDBRANCH  84  87
ENDBRANCH  82  83
ENDBRANCH  81  82
ENDBRANCH  74  77
ENDBRANCH  72  73
ENDBRANCH   1  72
TORSDOF 16
ENDMDL
