MODEL 1
REMARK VINA RESULT:     -13.3      0.000      0.000
REMARK SMILES CS(=O)(=O)c1ccc(-n2nc(C(F)(F)F)cc2-c2ccc(CC(=O)NCCCNC(=O)c3ccc(-c4c5nc(c(-c6cc(S(=O)(=O)[O-])ccc6F)c6ccc([nH]6)c(-c6cc(S(=O)(=O)[O-])ccc6F)c6nc(c(-c7cc(S(=O)(=O)[O-])ccc7F)c7ccc4[nH]7)C=C6)C=C5)cc3)cc2)cc1
REMARK SMILES IDX 26 1 25 2 23 3 24 4 22 6 21 7 18 8 19 9 96 10 20 11 95 12
REMARK SMILES IDX 17 13 9 14 10 15 11 16 16 17 8 18 5 19 6 20 98 21 7 22 97 23
REMARK SMILES IDX 2 24 1 25 3 26 4 27 12 28 13 29 14 30 15 31 27 32 28 33
REMARK SMILES IDX 29 34 30 35 31 37 32 38 33 39 94 40 34 41 93 42 35 43 36 44
REMARK SMILES IDX 37 45 87 46 38 47 92 48 86 49 88 50 39 51 91 52 85 53 84 54
REMARK SMILES IDX 40 56 72 57 52 58 71 59 53 60 56 61 70 62 89 63 54 64 55 65
REMARK SMILES IDX 69 67 90 68 57 69 41 70 42 71 50 72 43 73 49 74 51 75 48 76
REMARK SMILES IDX 44 77 45 78 46 79 47 80 73 81 74 82 82 83 75 84 81 85 83 86
REMARK SMILES IDX 80 87 76 88 77 89 78 90 79 91 58 92 59 93 67 94 60 95 66 96
REMARK SMILES IDX 68 97 65 98 61 99 62 100 63 101 64 102
REMARK H PARENT 25 5 29 36 88 55 56 66
REMARK Flexibility Score: inf
ROOT
ATOM      1  C   UNL A   1      32.949  28.140  26.391  1.00  0.00     0.117 C 
ENDROOT
BRANCH   1   2
ATOM      2  N   UNL A   1      32.403  28.008  25.049  1.00  0.00    -0.356 N 
ATOM      3  C   UNL A   1      31.897  26.899  24.430  1.00  0.00     0.224 C 
ATOM      4  O   UNL A   1      31.483  27.002  23.274  1.00  0.00    -0.275 OA
ATOM      5  H   UNL A   1      32.397  28.832  24.512  1.00  0.00     0.163 HD
BRANCH   3   6
ATOM      6  C   UNL A   1      31.818  25.579  25.176  1.00  0.00     0.135 C 
BRANCH   6   7
ATOM      7  C   UNL A   1      33.147  24.875  25.314  1.00  0.00    -0.039 A 
ATOM      8  C   UNL A   1      35.599  23.496  25.533  1.00  0.00     0.000 A 
ATOM      9  C   UNL A   1      34.674  23.494  26.590  1.00  0.00     0.010 A 
ATOM     10  C   UNL A   1      35.302  24.231  24.383  1.00  0.00     0.010 A 
ATOM     11  C   UNL A   1      33.454  24.164  26.478  1.00  0.00     0.005 A 
ATOM     12  C   UNL A   1      34.092  24.923  24.279  1.00  0.00     0.005 A 
BRANCH   8  13
ATOM     13  C   UNL A   1      36.863  22.758  25.633  1.00  0.00     0.075 A 
ATOM     14  N   UNL A   1      37.009  21.385  25.474  1.00  0.00    -0.233 N 
ATOM     15  N   UNL A   1      38.218  20.945  25.894  1.00  0.00    -0.163 NA
ATOM     16  C   UNL A   1      38.924  22.057  26.157  1.00  0.00     0.167 A 
ATOM     17  C   UNL A   1      38.110  23.210  26.020  1.00  0.00     0.064 A 
BRANCH  14  18
ATOM     18  C   UNL A   1      36.037  20.463  25.034  1.00  0.00     0.065 A 
ATOM     19  C   UNL A   1      34.133  18.528  24.550  1.00  0.00     0.067 A 
ATOM     20  C   UNL A   1      33.722  19.851  24.730  1.00  0.00     0.022 A 
ATOM     21  C   UNL A   1      35.487  18.183  24.532  1.00  0.00     0.022 A 
ATOM     22  C   UNL A   1      34.682  20.823  24.997  1.00  0.00     0.030 A 
ATOM     23  C   UNL A   1      36.450  19.160  24.742  1.00  0.00     0.030 A 
BRANCH  19  24
ATOM     24  S   UNL A   1      32.966  17.222  24.278  1.00  0.00     0.175 S 
ATOM     25  C   UNL A   1      33.433  15.890  25.353  1.00  0.00     0.163 C 
ATOM     26  O   UNL A   1      33.175  16.771  22.909  1.00  0.00    -0.224 OA
ATOM     27  O   UNL A   1      31.716  17.790  24.712  1.00  0.00    -0.224 OA
ENDBRANCH  19  24
ENDBRANCH  14  18
BRANCH  16  28
ATOM     28  C   UNL A   1      40.366  22.013  26.576  1.00  0.00     0.435 C 
ATOM     29  F   UNL A   1      41.216  22.436  25.604  1.00  0.00    -0.164 F 
ATOM     30  F   UNL A   1      40.604  22.776  27.677  1.00  0.00    -0.164 F 
ATOM     31  F   UNL A   1      40.755  20.748  26.901  1.00  0.00    -0.164 F 
ENDBRANCH  16  28
ENDBRANCH   8  13
ENDBRANCH   6   7
ENDBRANCH   3   6
ENDBRANCH   1   2
BRANCH   1  32
ATOM     32  C   UNL A   1      33.750  29.433  26.586  1.00  0.00     0.042 C 
BRANCH  32  33
ATOM     33  C   UNL A   1      35.087  29.182  27.265  1.00  0.00     0.118 C 
BRANCH  33  34
ATOM     34  N   UNL A   1      35.226  29.853  28.570  1.00  0.00    -0.352 N 
ATOM     35  C   UNL A   1      36.267  29.751  29.492  1.00  0.00     0.251 C 
ATOM     36  H   UNL A   1      34.487  30.452  28.823  1.00  0.00     0.163 HD
ATOM     37  O   UNL A   1      36.106  30.096  30.657  1.00  0.00    -0.269 OA
BRANCH  35  38
ATOM     38  C   UNL A   1      37.562  29.223  29.020  1.00  0.00     0.039 A 
ATOM     39  C   UNL A   1      38.280  29.714  27.925  1.00  0.00     0.014 A 
ATOM     40  C   UNL A   1      38.111  28.246  29.823  1.00  0.00     0.014 A 
ATOM     41  C   UNL A   1      39.592  29.254  27.726  1.00  0.00     0.010 A 
ATOM     42  C   UNL A   1      39.462  28.108  29.837  1.00  0.00     0.010 A 
ATOM     43  C   UNL A   1      40.191  28.458  28.714  1.00  0.00    -0.014 A 
BRANCH  43  44
ATOM     44  C   UNL A   1      41.590  28.013  28.718  1.00  0.00     0.031 A 
ATOM     45  C   UNL A   1      41.882  26.785  27.920  1.00  0.00     0.074 A 
ATOM     46  C   UNL A   1      42.585  28.837  29.158  1.00  0.00     0.049 A 
ATOM     47  N   UNL A   1      42.593  25.767  28.265  1.00  0.00    -0.248 NA
ATOM     48  C   UNL A   1      41.291  26.640  26.580  1.00  0.00     0.031 C 
ATOM     49  C   UNL A   1      42.471  30.194  29.736  1.00  0.00     0.029 A 
ATOM     50  N   UNL A   1      43.939  28.704  29.058  1.00  0.00    -0.354 N 
ATOM     51  C   UNL A   1      42.712  24.950  27.141  1.00  0.00     0.074 A 
ATOM     52  C   UNL A   1      41.853  25.512  26.140  1.00  0.00     0.031 C 
ATOM     53  C   UNL A   1      43.664  30.827  29.701  1.00  0.00     0.029 A 
ATOM     54  C   UNL A   1      44.677  29.872  29.298  1.00  0.00     0.049 A 
ATOM     55  H   UNL A   1      44.368  27.848  28.833  1.00  0.00     0.167 HD
ATOM     56  C   UNL A   1      43.632  23.949  27.097  1.00  0.00     0.034 A 
ATOM     57  C   UNL A   1      46.026  30.055  29.222  1.00  0.00     0.034 A 
ATOM     58  C   UNL A   1      44.021  23.557  28.427  1.00  0.00     0.049 A 
ATOM     59  C   UNL A   1      46.623  28.705  29.346  1.00  0.00     0.074 A 
ATOM     60  C   UNL A   1      43.308  23.079  29.509  1.00  0.00     0.029 A 
ATOM     61  N   UNL A   1      45.187  24.069  28.947  1.00  0.00    -0.354 N 
ATOM     62  N   UNL A   1      46.507  27.979  30.425  1.00  0.00    -0.248 NA
ATOM     63  C   UNL A   1      46.875  27.966  28.119  1.00  0.00     0.031 C 
ATOM     64  C   UNL A   1      43.792  23.844  30.608  1.00  0.00     0.029 A 
ATOM     65  C   UNL A   1      44.856  24.634  30.158  1.00  0.00     0.049 A 
ATOM     66  H   UNL A   1      46.081  24.037  28.535  1.00  0.00     0.167 HD
ATOM     67  C   UNL A   1      46.222  26.704  29.964  1.00  0.00     0.074 A 
ATOM     68  C   UNL A   1      46.546  26.738  28.534  1.00  0.00     0.031 C 
ATOM     69  C   UNL A   1      45.484  25.823  30.703  1.00  0.00     0.034 A 
BRANCH  56  70
ATOM     70  C   UNL A   1      44.402  23.518  25.880  1.00  0.00     0.023 A 
ATOM     71  C   UNL A   1      44.274  22.179  25.466  1.00  0.00     0.031 A 
ATOM     72  C   UNL A   1      45.487  24.238  25.338  1.00  0.00     0.131 A 
ATOM     73  C   UNL A   1      45.249  21.581  24.649  1.00  0.00     0.055 A 
ATOM     74  C   UNL A   1      46.420  23.658  24.471  1.00  0.00     0.041 A 
ATOM     75  F   UNL A   1      45.757  25.493  25.710  1.00  0.00    -0.206 F 
ATOM     76  C   UNL A   1      46.323  22.313  24.149  1.00  0.00     0.022 A 
BRANCH  73  77
ATOM     77  S   UNL A   1      45.190  19.783  24.428  1.00  0.00     0.124 S 
ATOM     78  O   UNL A   1      44.545  19.663  23.125  1.00  0.00    -0.237 OA
ATOM     79  O   UNL A   1      46.604  19.426  24.480  1.00  0.00    -0.237 OA
ATOM     80  O   UNL A   1      44.389  19.327  25.562  1.00  0.00    -0.744 OA
ENDBRANCH  73  77
ENDBRANCH  56  70
BRANCH  57  81
ATOM     81  C   UNL A   1      46.788  31.251  28.743  1.00  0.00     0.023 A 
ATOM     82  C   UNL A   1      46.408  32.048  27.634  1.00  0.00     0.031 A 
ATOM     83  C   UNL A   1      47.799  31.780  29.577  1.00  0.00     0.131 A 
ATOM     84  C   UNL A   1      47.026  33.308  27.407  1.00  0.00     0.055 A 
ATOM     85  C   UNL A   1      48.397  33.025  29.353  1.00  0.00     0.041 A 
ATOM     86  F   UNL A   1      48.180  31.134  30.691  1.00  0.00    -0.206 F 
ATOM     87  C   UNL A   1      48.006  33.799  28.273  1.00  0.00     0.022 A 
BRANCH  84  88
ATOM     88  S   UNL A   1      46.519  34.377  26.011  1.00  0.00     0.124 S 
ATOM     89  O   UNL A   1      47.772  34.570  25.293  1.00  0.00    -0.237 OA
ATOM     90  O   UNL A   1      45.505  33.568  25.345  1.00  0.00    -0.237 OA
ATOM     91  O   UNL A   1      46.003  35.580  26.669  1.00  0.00    -0.744 OA
ENDBRANCH  84  88
ENDBRANCH  57  81
BRANCH  69  92
ATOM     92  C   UNL A   1      45.119  26.186  32.136  1.00  0.00     0.023 A 
ATOM     93  C   UNL A   1      43.931  26.842  32.539  1.00  0.00     0.031 A 
ATOM     94  C   UNL A   1      45.959  25.695  33.151  1.00  0.00     0.131 A 
ATOM     95  C   UNL A   1      43.629  26.985  33.911  1.00  0.00     0.055 A 
ATOM     96  C   UNL A   1      45.643  25.810  34.504  1.00  0.00     0.041 A 
ATOM     97  F   UNL A   1      47.092  25.041  32.841  1.00  0.00    -0.206 F 
ATOM     98  C   UNL A   1      44.479  26.461  34.890  1.00  0.00     0.022 A 
BRANCH  95  99
ATOM     99  S   UNL A   1      42.132  27.875  34.460  1.00  0.00     0.124 S 
ATOM    100  O   UNL A   1      41.522  26.964  35.421  1.00  0.00    -0.237 OA
ATOM    101  O   UNL A   1      42.678  29.112  35.011  1.00  0.00    -0.237 OA
ATOM    102  O   UNL A   1      41.368  28.050  33.222  1.00  0.00    -0.744 OA
ENDBRANCH  95  99
ENDBRANCH  69  92
ENDBRANCH  43  44
ENDBRANCH  35  38
ENDBRANCH  33  34
ENDBRANCH  32  33
ENDBRANCH   1  32
TORSDOF 18
ENDMDL
MODEL 2
REMARK VINA RESULT:     -12.4      2.234      6.854
REMARK SMILES CS(=O)(=O)c1ccc(-n2nc(C(F)(F)F)cc2-c2ccc(CC(=O)NCCCNC(=O)c3ccc(-c4c5nc(c(-c6cc(S(=O)(=O)[O-])ccc6F)c6ccc([nH]6)c(-c6cc(S(=O)(=O)[O-])ccc6F)c6nc(c(-c7cc(S(=O)(=O)[O-])ccc7F)c7ccc4[nH]7)C=C6)C=C5)cc3)cc2)cc1
REMARK SMILES IDX 26 1 25 2 23 3 24 4 22 6 21 7 18 8 19 9 96 10 20 11 95 12
REMARK SMILES IDX 17 13 9 14 10 15 11 16 16 17 8 18 5 19 6 20 98 21 7 22 97 23
REMARK SMILES IDX 2 24 1 25 3 26 4 27 12 28 13 29 14 30 15 31 27 32 28 33
REMARK SMILES IDX 29 34 30 35 31 37 32 38 33 39 94 40 34 41 93 42 35 43 36 44
REMARK SMILES IDX 37 45 87 46 38 47 92 48 86 49 88 50 39 51 91 52 85 53 84 54
REMARK SMILES IDX 40 56 72 57 52 58 71 59 53 60 56 61 70 62 89 63 54 64 55 65
REMARK SMILES IDX 69 67 90 68 57 69 41 70 42 71 50 72 43 73 49 74 51 75 48 76
REMARK SMILES IDX 44 77 45 78 46 79 47 80 73 81 74 82 82 83 75 84 81 85 83 86
REMARK SMILES IDX 80 87 76 88 77 89 78 90 79 91 58 92 59 93 67 94 60 95 66 96
REMARK SMILES IDX 68 97 65 98 61 99 62 100 63 101 64 102
REMARK H PARENT 25 5 29 36 88 55 56 66
REMARK Flexibility Score: inf
ROOT
ATOM      1  C   UNL A   1      31.955  28.275  26.198  1.00  0.00     0.117 C 
ENDROOT
BRANCH   1   2
ATOM      2  N   UNL A   1      31.442  28.233  24.837  1.00  0.00    -0.356 N 
ATOM      3  C   UNL A   1      31.022  27.155  24.107  1.00  0.00     0.224 C 
ATOM      4  O   UNL A   1      30.621  27.337  22.957  1.00  0.00    -0.275 OA
ATOM      5  H   UNL A   1      31.390  29.101  24.377  1.00  0.00     0.163 HD
BRANCH   3   6
ATOM      6  C   UNL A   1      31.019  25.770  24.728  1.00  0.00     0.135 C 
BRANCH   6   7
ATOM      7  C   UNL A   1      32.399  25.209  24.978  1.00  0.00    -0.039 A 
ATOM      8  C   UNL A   1      34.953  24.093  25.410  1.00  0.00     0.000 A 
ATOM      9  C   UNL A   1      33.986  24.092  26.428  1.00  0.00     0.010 A 
ATOM     10  C   UNL A   1      34.643  24.696  24.189  1.00  0.00     0.010 A 
ATOM     11  C   UNL A   1      32.716  24.632  26.211  1.00  0.00     0.005 A 
ATOM     12  C   UNL A   1      33.382  25.259  23.979  1.00  0.00     0.005 A 
BRANCH   8  13
ATOM     13  C   UNL A   1      36.274  23.489  25.622  1.00  0.00     0.075 A 
ATOM     14  N   UNL A   1      36.567  22.134  25.521  1.00  0.00    -0.233 N 
ATOM     15  N   UNL A   1      37.779  21.830  26.038  1.00  0.00    -0.163 NA
ATOM     16  C   UNL A   1      38.351  23.014  26.312  1.00  0.00     0.167 A 
ATOM     17  C   UNL A   1      37.439  24.075  26.079  1.00  0.00     0.064 A 
BRANCH  14  18
ATOM     18  C   UNL A   1      35.724  21.107  25.045  1.00  0.00     0.065 A 
ATOM     19  C   UNL A   1      34.060  18.979  24.497  1.00  0.00     0.067 A 
ATOM     20  C   UNL A   1      33.510  20.259  24.599  1.00  0.00     0.022 A 
ATOM     21  C   UNL A   1      35.439  18.770  24.588  1.00  0.00     0.022 A 
ATOM     22  C   UNL A   1      34.348  21.329  24.899  1.00  0.00     0.030 A 
ATOM     23  C   UNL A   1      36.283  19.844  24.831  1.00  0.00     0.030 A 
BRANCH  19  24
ATOM     24  S   UNL A   1      33.050  17.555  24.188  1.00  0.00     0.175 S 
ATOM     25  C   UNL A   1      33.907  16.164  24.881  1.00  0.00     0.163 C 
ATOM     26  O   UNL A   1      33.029  17.378  22.743  1.00  0.00    -0.224 OA
ATOM     27  O   UNL A   1      31.853  17.820  24.943  1.00  0.00    -0.224 OA
ENDBRANCH  19  24
ENDBRANCH  14  18
BRANCH  16  28
ATOM     28  C   UNL A   1      39.756  23.127  26.831  1.00  0.00     0.435 C 
ATOM     29  F   UNL A   1      40.101  22.105  27.658  1.00  0.00    -0.164 F 
ATOM     30  F   UNL A   1      40.674  23.157  25.827  1.00  0.00    -0.164 F 
ATOM     31  F   UNL A   1      39.937  24.274  27.544  1.00  0.00    -0.164 F 
ENDBRANCH  16  28
ENDBRANCH   8  13
ENDBRANCH   6   7
ENDBRANCH   3   6
ENDBRANCH   1   2
BRANCH   1  32
ATOM     32  C   UNL A   1      33.406  28.765  26.275  1.00  0.00     0.042 C 
BRANCH  32  33
ATOM     33  C   UNL A   1      33.654  29.632  27.498  1.00  0.00     0.118 C 
BRANCH  33  34
ATOM     34  N   UNL A   1      34.177  30.973  27.181  1.00  0.00    -0.352 N 
ATOM     35  C   UNL A   1      35.332  31.591  27.659  1.00  0.00     0.251 C 
ATOM     36  H   UNL A   1      33.640  31.502  26.547  1.00  0.00     0.163 HD
ATOM     37  O   UNL A   1      35.473  32.805  27.573  1.00  0.00    -0.269 OA
BRANCH  35  38
ATOM     38  C   UNL A   1      36.375  30.737  28.262  1.00  0.00     0.039 A 
ATOM     39  C   UNL A   1      36.552  29.375  27.999  1.00  0.00     0.014 A 
ATOM     40  C   UNL A   1      37.283  31.411  29.051  1.00  0.00     0.014 A 
ATOM     41  C   UNL A   1      37.711  28.747  28.479  1.00  0.00     0.010 A 
ATOM     42  C   UNL A   1      38.535  30.899  29.171  1.00  0.00     0.010 A 
ATOM     43  C   UNL A   1      38.723  29.533  29.052  1.00  0.00    -0.014 A 
BRANCH  43  44
ATOM     44  C   UNL A   1      40.043  29.049  29.476  1.00  0.00     0.031 A 
ATOM     45  C   UNL A   1      40.278  29.014  30.951  1.00  0.00     0.074 A 
ATOM     46  C   UNL A   1      40.860  28.391  28.603  1.00  0.00     0.049 A 
ATOM     47  N   UNL A   1      41.317  29.419  31.596  1.00  0.00    -0.248 NA
ATOM     48  C   UNL A   1      39.222  28.498  31.836  1.00  0.00     0.031 C 
ATOM     49  C   UNL A   1      40.644  28.117  27.166  1.00  0.00     0.029 A 
ATOM     50  N   UNL A   1      42.009  27.694  28.837  1.00  0.00    -0.354 N 
ATOM     51  C   UNL A   1      41.147  29.037  32.927  1.00  0.00     0.074 A 
ATOM     52  C   UNL A   1      39.817  28.512  33.031  1.00  0.00     0.031 C 
ATOM     53  C   UNL A   1      41.474  27.140  26.738  1.00  0.00     0.029 A 
ATOM     54  C   UNL A   1      42.424  26.852  27.794  1.00  0.00     0.049 A 
ATOM     55  H   UNL A   1      42.512  27.776  29.678  1.00  0.00     0.167 HD
ATOM     56  C   UNL A   1      42.189  29.064  33.801  1.00  0.00     0.034 A 
ATOM     57  C   UNL A   1      43.493  26.006  27.761  1.00  0.00     0.034 A 
ATOM     58  C   UNL A   1      43.216  29.963  33.341  1.00  0.00     0.049 A 
ATOM     59  C   UNL A   1      44.429  26.498  28.798  1.00  0.00     0.074 A 
ATOM     60  C   UNL A   1      43.215  31.312  33.044  1.00  0.00     0.029 A 
ATOM     61  N   UNL A   1      44.301  29.436  32.680  1.00  0.00    -0.354 N 
ATOM     62  N   UNL A   1      45.006  27.667  28.731  1.00  0.00    -0.248 NA
ATOM     63  C   UNL A   1      44.306  25.938  30.134  1.00  0.00     0.031 C 
ATOM     64  C   UNL A   1      43.904  31.392  31.800  1.00  0.00     0.029 A 
ATOM     65  C   UNL A   1      44.397  30.120  31.488  1.00  0.00     0.049 A 
ATOM     66  H   UNL A   1      44.892  28.715  32.996  1.00  0.00     0.167 HD
ATOM     67  C   UNL A   1      44.909  28.183  30.013  1.00  0.00     0.074 A 
ATOM     68  C   UNL A   1      44.546  27.039  30.854  1.00  0.00     0.031 C 
ATOM     69  C   UNL A   1      44.847  29.529  30.242  1.00  0.00     0.034 A 
BRANCH  56  70
ATOM     70  C   UNL A   1      42.429  28.078  34.910  1.00  0.00     0.023 A 
ATOM     71  C   UNL A   1      43.277  26.987  34.642  1.00  0.00     0.031 A 
ATOM     72  C   UNL A   1      41.618  27.970  36.059  1.00  0.00     0.131 A 
ATOM     73  C   UNL A   1      43.218  25.820  35.422  1.00  0.00     0.055 A 
ATOM     74  C   UNL A   1      41.610  26.833  36.874  1.00  0.00     0.041 A 
ATOM     75  F   UNL A   1      40.720  28.908  36.378  1.00  0.00    -0.206 F 
ATOM     76  C   UNL A   1      42.388  25.735  36.538  1.00  0.00     0.022 A 
BRANCH  73  77
ATOM     77  S   UNL A   1      44.093  24.349  34.825  1.00  0.00     0.124 S 
ATOM     78  O   UNL A   1      45.239  24.941  34.142  1.00  0.00    -0.237 OA
ATOM     79  O   UNL A   1      44.383  23.644  36.070  1.00  0.00    -0.237 OA
ATOM     80  O   UNL A   1      43.117  23.701  33.954  1.00  0.00    -0.744 OA
ENDBRANCH  73  77
ENDBRANCH  56  70
BRANCH  57  81
ATOM     81  C   UNL A   1      43.605  24.656  27.126  1.00  0.00     0.023 A 
ATOM     82  C   UNL A   1      44.382  24.377  25.974  1.00  0.00     0.031 A 
ATOM     83  C   UNL A   1      43.123  23.536  27.841  1.00  0.00     0.131 A 
ATOM     84  C   UNL A   1      44.648  23.034  25.591  1.00  0.00     0.055 A 
ATOM     85  C   UNL A   1      43.396  22.217  27.465  1.00  0.00     0.041 A 
ATOM     86  F   UNL A   1      42.437  23.693  28.985  1.00  0.00    -0.206 F 
ATOM     87  C   UNL A   1      44.169  21.959  26.344  1.00  0.00     0.022 A 
BRANCH  84  88
ATOM     88  S   UNL A   1      45.689  22.649  24.136  1.00  0.00     0.124 S 
ATOM     89  O   UNL A   1      46.527  21.563  24.629  1.00  0.00    -0.237 OA
ATOM     90  O   UNL A   1      44.700  22.298  23.124  1.00  0.00    -0.237 OA
ATOM     91  O   UNL A   1      46.403  23.902  23.881  1.00  0.00    -0.744 OA
ENDBRANCH  84  88
ENDBRANCH  57  81
BRANCH  69  92
ATOM     92  C   UNL A   1      45.068  30.486  29.078  1.00  0.00     0.023 A 
ATOM     93  C   UNL A   1      46.326  30.954  28.628  1.00  0.00     0.031 A 
ATOM     94  C   UNL A   1      43.944  30.808  28.297  1.00  0.00     0.131 A 
ATOM     95  C   UNL A   1      46.418  31.712  27.440  1.00  0.00     0.055 A 
ATOM     96  C   UNL A   1      44.042  31.531  27.109  1.00  0.00     0.041 A 
ATOM     97  F   UNL A   1      42.721  30.377  28.652  1.00  0.00    -0.206 F 
ATOM     98  C   UNL A   1      45.279  31.991  26.679  1.00  0.00     0.022 A 
BRANCH  95  99
ATOM     99  S   UNL A   1      48.020  32.375  26.866  1.00  0.00     0.124 S 
ATOM    100  O   UNL A   1      48.767  31.184  26.479  1.00  0.00    -0.237 OA
ATOM    101  O   UNL A   1      47.627  33.264  25.776  1.00  0.00    -0.237 OA
ATOM    102  O   UNL A   1      48.545  33.063  28.048  1.00  0.00    -0.744 OA
ENDBRANCH  95  99
ENDBRANCH  69  92
ENDBRANCH  43  44
ENDBRANCH  35  38
ENDBRANCH  33  34
ENDBRANCH  32  33
ENDBRANCH   1  32
TORSDOF 18
ENDMDL
MODEL 3
REMARK VINA RESULT:     -12.0      3.613      8.640
REMARK SMILES CS(=O)(=O)c1ccc(-n2nc(C(F)(F)F)cc2-c2ccc(CC(=O)NCCCNC(=O)c3ccc(-c4c5nc(c(-c6cc(S(=O)(=O)[O-])ccc6F)c6ccc([nH]6)c(-c6cc(S(=O)(=O)[O-])ccc6F)c6nc(c(-c7cc(S(=O)(=O)[O-])ccc7F)c7ccc4[nH]7)C=C6)C=C5)cc3)cc2)cc1
REMARK SMILES IDX 26 1 25 2 23 3 24 4 22 6 21 7 18 8 19 9 96 10 20 11 95 12
REMARK SMILES IDX 17 13 9 14 10 15 11 16 16 17 8 18 5 19 6 20 98 21 7 22 97 23
REMARK SMILES IDX 2 24 1 25 3 26 4 27 12 28 13 29 14 30 15 31 27 32 28 33
REMARK SMILES IDX 29 34 30 35 31 37 32 38 33 39 94 40 34 41 93 42 35 43 36 44
REMARK SMILES IDX 37 45 87 46 38 47 92 48 86 49 88 50 39 51 91 52 85 53 84 54
REMARK SMILES IDX 40 56 72 57 52 58 71 59 53 60 56 61 70 62 89 63 54 64 55 65
REMARK SMILES IDX 69 67 90 68 57 69 41 70 42 71 50 72 43 73 49 74 51 75 48 76
REMARK SMILES IDX 44 77 45 78 46 79 47 80 73 81 74 82 82 83 75 84 81 85 83 86
REMARK SMILES IDX 80 87 76 88 77 89 78 90 79 91 58 92 59 93 67 94 60 95 66 96
REMARK SMILES IDX 68 97 65 98 61 99 62 100 63 101 64 102
REMARK H PARENT 25 5 29 36 88 55 56 66
REMARK Flexibility Score: inf
ROOT
ATOM      1  C   UNL A   1      34.701  33.419  28.405  1.00  0.00     0.117 C 
ENDROOT
BRANCH   1   2
ATOM      2  N   UNL A   1      33.454  32.997  27.786  1.00  0.00    -0.356 N 
ATOM      3  C   UNL A   1      33.031  31.736  27.471  1.00  0.00     0.224 C 
ATOM      4  O   UNL A   1      31.928  31.595  26.942  1.00  0.00    -0.275 OA
ATOM      5  H   UNL A   1      32.828  33.722  27.562  1.00  0.00     0.163 HD
BRANCH   3   6
ATOM      6  C   UNL A   1      33.898  30.536  27.808  1.00  0.00     0.135 C 
BRANCH   6   7
ATOM      7  C   UNL A   1      33.519  29.280  27.060  1.00  0.00    -0.039 A 
ATOM      8  C   UNL A   1      32.862  26.892  25.708  1.00  0.00     0.000 A 
ATOM      9  C   UNL A   1      33.841  27.762  25.199  1.00  0.00     0.010 A 
ATOM     10  C   UNL A   1      32.187  27.251  26.877  1.00  0.00     0.010 A 
ATOM     11  C   UNL A   1      34.177  28.937  25.875  1.00  0.00     0.005 A 
ATOM     12  C   UNL A   1      32.504  28.440  27.540  1.00  0.00     0.005 A 
BRANCH   8  13
ATOM     13  C   UNL A   1      32.537  25.636  25.022  1.00  0.00     0.075 A 
ATOM     14  N   UNL A   1      31.496  25.457  24.120  1.00  0.00    -0.233 N 
ATOM     15  N   UNL A   1      31.257  24.150  23.863  1.00  0.00    -0.163 NA
ATOM     16  C   UNL A   1      32.261  23.487  24.460  1.00  0.00     0.167 A 
ATOM     17  C   UNL A   1      33.075  24.376  25.206  1.00  0.00     0.064 A 
BRANCH  14  18
ATOM     18  C   UNL A   1      30.663  26.449  23.562  1.00  0.00     0.065 A 
ATOM     19  C   UNL A   1      29.087  28.585  22.816  1.00  0.00     0.067 A 
ATOM     20  C   UNL A   1      30.400  28.516  22.345  1.00  0.00     0.022 A 
ATOM     21  C   UNL A   1      28.536  27.558  23.588  1.00  0.00     0.022 A 
ATOM     22  C   UNL A   1      31.202  27.449  22.740  1.00  0.00     0.030 A 
ATOM     23  C   UNL A   1      29.317  26.465  23.938  1.00  0.00     0.030 A 
BRANCH  19  24
ATOM     24  S   UNL A   1      28.025  29.947  22.415  1.00  0.00     0.175 S 
ATOM     25  C   UNL A   1      28.769  31.395  23.120  1.00  0.00     0.163 C 
ATOM     26  O   UNL A   1      26.776  29.709  23.124  1.00  0.00    -0.224 OA
ATOM     27  O   UNL A   1      28.088  30.012  20.978  1.00  0.00    -0.224 OA
ENDBRANCH  19  24
ENDBRANCH  14  18
BRANCH  16  28
ATOM     28  C   UNL A   1      32.418  21.997  24.347  1.00  0.00     0.435 C 
ATOM     29  F   UNL A   1      31.819  21.319  25.361  1.00  0.00    -0.164 F 
ATOM     30  F   UNL A   1      31.904  21.513  23.184  1.00  0.00    -0.164 F 
ATOM     31  F   UNL A   1      33.730  21.628  24.364  1.00  0.00    -0.164 F 
ENDBRANCH  16  28
ENDBRANCH   8  13
ENDBRANCH   6   7
ENDBRANCH   3   6
ENDBRANCH   1   2
BRANCH   1  32
ATOM     32  C   UNL A   1      34.735  33.162  29.916  1.00  0.00     0.042 C 
BRANCH  32  33
ATOM     33  C   UNL A   1      36.151  33.177  30.469  1.00  0.00     0.118 C 
BRANCH  33  34
ATOM     34  N   UNL A   1      37.080  34.027  29.703  1.00  0.00    -0.352 N 
ATOM     35  C   UNL A   1      38.465  33.918  29.590  1.00  0.00     0.251 C 
ATOM     36  H   UNL A   1      36.667  34.770  29.205  1.00  0.00     0.163 HD
ATOM     37  O   UNL A   1      39.137  34.866  29.199  1.00  0.00    -0.269 OA
BRANCH  35  38
ATOM     38  C   UNL A   1      39.091  32.629  29.949  1.00  0.00     0.039 A 
ATOM     39  C   UNL A   1      38.698  31.380  29.458  1.00  0.00     0.014 A 
ATOM     40  C   UNL A   1      40.211  32.737  30.746  1.00  0.00     0.014 A 
ATOM     41  C   UNL A   1      39.518  30.272  29.721  1.00  0.00     0.010 A 
ATOM     42  C   UNL A   1      41.154  31.762  30.665  1.00  0.00     0.010 A 
ATOM     43  C   UNL A   1      40.773  30.479  30.314  1.00  0.00    -0.014 A 
BRANCH  43  44
ATOM     44  C   UNL A   1      41.796  29.448  30.529  1.00  0.00     0.031 A 
ATOM     45  C   UNL A   1      42.045  29.068  31.952  1.00  0.00     0.074 A 
ATOM     46  C   UNL A   1      42.247  28.683  29.492  1.00  0.00     0.049 A 
ATOM     47  N   UNL A   1      43.179  28.912  32.542  1.00  0.00    -0.248 NA
ATOM     48  C   UNL A   1      40.900  28.867  32.854  1.00  0.00     0.031 C 
ATOM     49  C   UNL A   1      41.892  28.770  28.059  1.00  0.00     0.029 A 
ATOM     50  N   UNL A   1      43.021  27.560  29.506  1.00  0.00    -0.354 N 
ATOM     51  C   UNL A   1      42.913  28.404  33.813  1.00  0.00     0.074 A 
ATOM     52  C   UNL A   1      41.488  28.436  33.972  1.00  0.00     0.031 C 
ATOM     53  C   UNL A   1      42.239  27.635  27.414  1.00  0.00     0.029 A 
ATOM     54  C   UNL A   1      43.025  26.818  28.317  1.00  0.00     0.049 A 
ATOM     55  H   UNL A   1      43.541  27.290  30.297  1.00  0.00     0.167 HD
ATOM     56  C   UNL A   1      43.904  27.865  34.574  1.00  0.00     0.034 A 
ATOM     57  C   UNL A   1      43.657  25.638  28.054  1.00  0.00     0.034 A 
ATOM     58  C   UNL A   1      45.191  28.351  34.150  1.00  0.00     0.049 A 
ATOM     59  C   UNL A   1      44.745  25.533  29.053  1.00  0.00     0.074 A 
ATOM     60  C   UNL A   1      45.728  29.620  34.054  1.00  0.00     0.029 A 
ATOM     61  N   UNL A   1      45.947  27.562  33.314  1.00  0.00    -0.354 N 
ATOM     62  N   UNL A   1      45.744  26.372  29.100  1.00  0.00    -0.248 NA
ATOM     63  C   UNL A   1      44.449  24.844  30.299  1.00  0.00     0.031 C 
ATOM     64  C   UNL A   1      46.349  29.636  32.772  1.00  0.00     0.029 A 
ATOM     65  C   UNL A   1      46.273  28.348  32.231  1.00  0.00     0.049 A 
ATOM     66  H   UNL A   1      46.204  26.624  33.461  1.00  0.00     0.167 HD
ATOM     67  C   UNL A   1      45.907  26.653  30.447  1.00  0.00     0.074 A 
ATOM     68  C   UNL A   1      45.139  25.618  31.144  1.00  0.00     0.031 C 
ATOM     69  C   UNL A   1      46.404  27.853  30.873  1.00  0.00     0.034 A 
BRANCH  56  70
ATOM     70  C   UNL A   1      43.759  26.688  35.499  1.00  0.00     0.023 A 
ATOM     71  C   UNL A   1      44.094  26.877  36.853  1.00  0.00     0.031 A 
ATOM     72  C   UNL A   1      43.650  25.352  35.062  1.00  0.00     0.131 A 
ATOM     73  C   UNL A   1      44.411  25.782  37.675  1.00  0.00     0.055 A 
ATOM     74  C   UNL A   1      43.900  24.261  35.902  1.00  0.00     0.041 A 
ATOM     75  F   UNL A   1      43.409  25.045  33.784  1.00  0.00    -0.206 F 
ATOM     76  C   UNL A   1      44.317  24.473  37.208  1.00  0.00     0.022 A 
BRANCH  73  77
ATOM     77  S   UNL A   1      45.144  26.119  39.298  1.00  0.00     0.124 S 
ATOM     78  O   UNL A   1      44.049  26.796  39.985  1.00  0.00    -0.237 OA
ATOM     79  O   UNL A   1      45.463  24.775  39.769  1.00  0.00    -0.237 OA
ATOM     80  O   UNL A   1      46.296  26.959  38.984  1.00  0.00    -0.744 OA
ENDBRANCH  73  77
ENDBRANCH  56  70
BRANCH  57  81
ATOM     81  C   UNL A   1      43.190  24.485  27.222  1.00  0.00     0.023 A 
ATOM     82  C   UNL A   1      44.019  23.755  26.333  1.00  0.00     0.031 A 
ATOM     83  C   UNL A   1      41.929  23.917  27.509  1.00  0.00     0.131 A 
ATOM     84  C   UNL A   1      43.576  22.521  25.784  1.00  0.00     0.055 A 
ATOM     85  C   UNL A   1      41.502  22.698  26.974  1.00  0.00     0.041 A 
ATOM     86  F   UNL A   1      41.099  24.495  28.394  1.00  0.00    -0.206 F 
ATOM     87  C   UNL A   1      42.328  21.989  26.116  1.00  0.00     0.022 A 
BRANCH  84  88
ATOM     88  S   UNL A   1      44.646  21.537  24.672  1.00  0.00     0.124 S 
ATOM     89  O   UNL A   1      43.979  20.241  24.663  1.00  0.00    -0.237 OA
ATOM     90  O   UNL A   1      44.599  22.301  23.431  1.00  0.00    -0.237 OA
ATOM     91  O   UNL A   1      45.946  21.548  25.347  1.00  0.00    -0.744 OA
ENDBRANCH  84  88
ENDBRANCH  57  81
BRANCH  69  92
ATOM     92  C   UNL A   1      46.956  28.831  29.845  1.00  0.00     0.023 A 
ATOM     93  C   UNL A   1      46.189  29.519  28.873  1.00  0.00     0.031 A 
ATOM     94  C   UNL A   1      48.309  29.192  29.972  1.00  0.00     0.131 A 
ATOM     95  C   UNL A   1      46.786  30.521  28.077  1.00  0.00     0.055 A 
ATOM     96  C   UNL A   1      48.887  30.203  29.206  1.00  0.00     0.041 A 
ATOM     97  F   UNL A   1      49.089  28.597  30.890  1.00  0.00    -0.206 F 
ATOM     98  C   UNL A   1      48.130  30.867  28.251  1.00  0.00     0.022 A 
BRANCH  95  99
ATOM     99  S   UNL A   1      45.836  31.384  26.779  1.00  0.00     0.124 S 
ATOM    100  O   UNL A   1      44.458  31.303  27.249  1.00  0.00    -0.237 OA
ATOM    101  O   UNL A   1      46.432  32.718  26.778  1.00  0.00    -0.237 OA
ATOM    102  O   UNL A   1      46.114  30.597  25.575  1.00  0.00    -0.744 OA
ENDBRANCH  95  99
ENDBRANCH  69  92
ENDBRANCH  43  44
ENDBRANCH  35  38
ENDBRANCH  33  34
ENDBRANCH  32  33
ENDBRANCH   1  32
TORSDOF 18
ENDMDL
