MODEL 1
REMARK VINA RESULT:     -11.8      0.000      0.000
REMARK SMILES O=C(NCCCNC(=O)[C@@H]1CC[C@@H](CNC(=O)c2cccc(O)c2)O1)c1ccc(-c2c3nc(c(-c4cc(S(=O)(=O)[O-])ccc4F)c4ccc([nH]4)c(-c4cc(S(=O)(=O)[O-])ccc4F)c4nc(c(-c5cc(S(=O)(=O)[O-])ccc5F)c5ccc2[nH]5)C=C4)C=C3)cc1
REMARK SMILES IDX 5 1 4 2 3 3 1 4 2 5 26 7 27 8 88 9 28 10 87 11 29 12 30 13
REMARK SMILES IDX 31 14 81 15 32 16 86 17 80 18 82 19 33 20 85 21 79 22 78 23
REMARK SMILES IDX 34 25 66 26 46 27 65 28 47 29 50 30 64 31 83 32 48 33 49 34
REMARK SMILES IDX 63 36 84 37 51 38 35 39 36 40 44 41 37 42 43 43 45 44 42 45
REMARK SMILES IDX 38 46 39 47 40 48 41 49 67 50 68 51 76 52 69 53 75 54 77 55
REMARK SMILES IDX 74 56 70 57 71 58 72 59 73 60 52 61 53 62 61 63 54 64 60 65
REMARK SMILES IDX 62 66 59 67 55 68 56 69 57 70 58 71 6 72 7 73 8 74 9 76
REMARK SMILES IDX 10 77 11 78 25 79 12 80 13 81 14 82 15 83 16 84 17 86 18 87
REMARK SMILES IDX 19 88 24 89 20 90 22 91 21 92 23 93
REMARK H PARENT 3 6 82 24 50 35 7 75 15 85 23 94
REMARK Flexibility Score: inf
ROOT
ATOM      1  C   UNL A   1      31.390  31.953  26.519  1.00  0.00     0.042 C 
ENDROOT
BRANCH   1   2
ATOM      2  C   UNL A   1      32.672  32.462  27.162  1.00  0.00     0.118 C 
BRANCH   2   3
ATOM      3  N   UNL A   1      32.560  33.849  27.606  1.00  0.00    -0.352 N 
ATOM      4  O   UNL A   1      32.790  35.614  28.979  1.00  0.00    -0.269 OA
ATOM      5  C   UNL A   1      33.195  34.505  28.630  1.00  0.00     0.251 C 
ATOM      6  H   UNL A   1      31.928  34.399  27.090  1.00  0.00     0.163 HD
BRANCH   5   7
ATOM      7  C   UNL A   1      34.353  33.888  29.308  1.00  0.00     0.039 A 
ATOM      8  C   UNL A   1      34.162  32.882  30.257  1.00  0.00     0.014 A 
ATOM      9  C   UNL A   1      35.647  34.290  28.966  1.00  0.00     0.014 A 
ATOM     10  C   UNL A   1      35.246  32.388  30.969  1.00  0.00     0.010 A 
ATOM     11  C   UNL A   1      36.746  33.716  29.611  1.00  0.00     0.010 A 
ATOM     12  C   UNL A   1      36.553  32.777  30.636  1.00  0.00    -0.014 A 
BRANCH  12  13
ATOM     13  C   UNL A   1      37.695  32.129  31.328  1.00  0.00     0.031 A 
ATOM     14  C   UNL A   1      38.465  31.015  30.679  1.00  0.00     0.074 A 
ATOM     15  C   UNL A   1      38.049  32.586  32.546  1.00  0.00     0.049 A 
ATOM     16  N   UNL A   1      39.492  30.346  31.140  1.00  0.00    -0.248 NA
ATOM     17  C   UNL A   1      38.021  30.589  29.344  1.00  0.00     0.031 C 
ATOM     18  C   UNL A   1      37.368  33.664  33.269  1.00  0.00     0.029 A 
ATOM     19  N   UNL A   1      39.072  32.223  33.383  1.00  0.00    -0.354 N 
ATOM     20  C   UNL A   1      39.812  29.413  30.161  1.00  0.00     0.074 A 
ATOM     21  C   UNL A   1      38.843  29.578  29.096  1.00  0.00     0.031 C 
ATOM     22  C   UNL A   1      38.020  33.909  34.414  1.00  0.00     0.029 A 
ATOM     23  C   UNL A   1      39.113  32.954  34.548  1.00  0.00     0.049 A 
ATOM     24  H   UNL A   1      39.716  31.510  33.171  1.00  0.00     0.167 HD
ATOM     25  C   UNL A   1      40.827  28.512  30.150  1.00  0.00     0.034 A 
ATOM     26  C   UNL A   1      39.920  32.850  35.621  1.00  0.00     0.034 A 
ATOM     27  C   UNL A   1      41.777  28.361  31.229  1.00  0.00     0.049 A 
ATOM     28  C   UNL A   1      40.998  31.800  35.610  1.00  0.00     0.074 A 
ATOM     29  C   UNL A   1      42.855  27.498  31.314  1.00  0.00     0.029 A 
ATOM     30  N   UNL A   1      41.755  29.081  32.419  1.00  0.00    -0.354 N 
ATOM     31  N   UNL A   1      41.299  30.937  34.666  1.00  0.00    -0.248 NA
ATOM     32  C   UNL A   1      41.846  31.713  36.803  1.00  0.00     0.031 C 
ATOM     33  C   UNL A   1      43.436  27.642  32.579  1.00  0.00     0.029 A 
ATOM     34  C   UNL A   1      42.778  28.655  33.255  1.00  0.00     0.049 A 
ATOM     35  H   UNL A   1      41.108  29.791  32.636  1.00  0.00     0.167 HD
ATOM     36  C   UNL A   1      42.389  30.218  35.147  1.00  0.00     0.074 A 
ATOM     37  C   UNL A   1      42.703  30.767  36.451  1.00  0.00     0.031 C 
ATOM     38  C   UNL A   1      43.069  29.200  34.562  1.00  0.00     0.034 A 
BRANCH  25  39
ATOM     39  C   UNL A   1      40.929  27.588  28.958  1.00  0.00     0.023 A 
ATOM     40  C   UNL A   1      41.889  27.784  27.949  1.00  0.00     0.031 A 
ATOM     41  C   UNL A   1      40.042  26.506  28.817  1.00  0.00     0.131 A 
ATOM     42  C   UNL A   1      41.894  26.957  26.815  1.00  0.00     0.055 A 
ATOM     43  C   UNL A   1      40.104  25.637  27.726  1.00  0.00     0.041 A 
ATOM     44  F   UNL A   1      39.088  26.281  29.736  1.00  0.00    -0.206 F 
ATOM     45  C   UNL A   1      41.025  25.868  26.709  1.00  0.00     0.022 A 
BRANCH  42  46
ATOM     46  S   UNL A   1      42.955  27.411  25.415  1.00  0.00     0.124 S 
ATOM     47  O   UNL A   1      43.047  26.146  24.687  1.00  0.00    -0.237 OA
ATOM     48  O   UNL A   1      42.186  28.465  24.762  1.00  0.00    -0.237 OA
ATOM     49  O   UNL A   1      44.197  27.845  26.050  1.00  0.00    -0.744 OA
ENDBRANCH  42  46
ENDBRANCH  25  39
BRANCH  26  50
ATOM     50  C   UNL A   1      39.713  33.733  36.803  1.00  0.00     0.023 A 
ATOM     51  C   UNL A   1      39.104  33.250  37.971  1.00  0.00     0.031 A 
ATOM     52  C   UNL A   1      40.099  35.085  36.772  1.00  0.00     0.131 A 
ATOM     53  C   UNL A   1      38.858  34.124  39.042  1.00  0.00     0.055 A 
ATOM     54  C   UNL A   1      39.909  35.934  37.862  1.00  0.00     0.041 A 
ATOM     55  F   UNL A   1      40.688  35.598  35.680  1.00  0.00    -0.206 F 
ATOM     56  C   UNL A   1      39.271  35.457  39.002  1.00  0.00     0.022 A 
BRANCH  53  57
ATOM     57  S   UNL A   1      37.905  33.511  40.458  1.00  0.00     0.124 S 
ATOM     58  O   UNL A   1      36.732  32.944  39.804  1.00  0.00    -0.237 OA
ATOM     59  O   UNL A   1      38.832  32.554  41.055  1.00  0.00    -0.237 OA
ATOM     60  O   UNL A   1      37.660  34.715  41.248  1.00  0.00    -0.744 OA
ENDBRANCH  53  57
ENDBRANCH  26  50
BRANCH  38  61
ATOM     61  C   UNL A   1      44.248  28.646  35.323  1.00  0.00     0.023 A 
ATOM     62  C   UNL A   1      44.101  27.621  36.275  1.00  0.00     0.031 A 
ATOM     63  C   UNL A   1      45.536  29.170  35.111  1.00  0.00     0.131 A 
ATOM     64  C   UNL A   1      45.210  27.197  37.024  1.00  0.00     0.055 A 
ATOM     65  C   UNL A   1      46.647  28.699  35.810  1.00  0.00     0.041 A 
ATOM     66  F   UNL A   1      45.735  30.153  34.218  1.00  0.00    -0.206 F 
ATOM     67  C   UNL A   1      46.485  27.717  36.784  1.00  0.00     0.022 A 
BRANCH  64  68
ATOM     68  S   UNL A   1      44.946  26.032  38.387  1.00  0.00     0.124 S 
ATOM     69  O   UNL A   1      44.688  24.785  37.674  1.00  0.00    -0.237 OA
ATOM     70  O   UNL A   1      46.214  26.102  39.107  1.00  0.00    -0.237 OA
ATOM     71  O   UNL A   1      43.798  26.590  39.098  1.00  0.00    -0.744 OA
ENDBRANCH  64  68
ENDBRANCH  38  61
ENDBRANCH  12  13
ENDBRANCH   5   7
ENDBRANCH   2   3
ENDBRANCH   1   2
BRANCH   1  72
ATOM     72  C   UNL A   1      31.502  30.521  26.018  1.00  0.00     0.117 C 
BRANCH  72  73
ATOM     73  N   UNL A   1      31.039  30.368  24.652  1.00  0.00    -0.354 N 
ATOM     74  C   UNL A   1      31.047  29.257  23.858  1.00  0.00     0.249 C 
ATOM     75  H   UNL A   1      30.666  31.180  24.239  1.00  0.00     0.163 HD
ATOM     76  O   UNL A   1      30.565  29.353  22.726  1.00  0.00    -0.272 OA
BRANCH  74  77
ATOM     77  C   UNL A   1      31.554  27.910  24.397  1.00  0.00     0.207 C 
ATOM     78  C   UNL A   1      33.062  27.775  24.259  1.00  0.00     0.045 C 
ATOM     79  O   UNL A   1      30.973  26.761  23.774  1.00  0.00    -0.363 OA
ATOM     80  C   UNL A   1      33.262  26.280  24.245  1.00  0.00     0.037 C 
ATOM     81  C   UNL A   1      31.990  25.761  23.591  1.00  0.00     0.138 C 
BRANCH  81  82
ATOM     82  C   UNL A   1      31.516  24.395  24.108  1.00  0.00     0.148 C 
BRANCH  82  83
ATOM     83  N   UNL A   1      31.334  24.364  25.556  1.00  0.00    -0.349 N 
ATOM     84  C   UNL A   1      31.993  23.611  26.496  1.00  0.00     0.251 C 
ATOM     85  H   UNL A   1      30.640  24.968  25.908  1.00  0.00     0.163 HD
ATOM     86  O   UNL A   1      31.509  23.497  27.621  1.00  0.00    -0.269 OA
BRANCH  84  87
ATOM     87  C   UNL A   1      33.281  22.957  26.176  1.00  0.00     0.043 A 
ATOM     88  C   UNL A   1      34.485  23.669  26.245  1.00  0.00     0.014 A 
ATOM     89  C   UNL A   1      33.292  21.589  25.892  1.00  0.00     0.060 A 
ATOM     90  C   UNL A   1      35.692  23.029  25.959  1.00  0.00     0.005 A 
ATOM     91  C   UNL A   1      34.504  20.959  25.625  1.00  0.00     0.116 A 
ATOM     92  C   UNL A   1      35.702  21.669  25.643  1.00  0.00     0.046 A 
BRANCH  91  93
ATOM     93  O   UNL A   1      34.482  19.623  25.351  1.00  0.00    -0.508 OA
ATOM     94  H   UNL A   1      34.518  19.001  26.050  1.00  0.00     0.293 HD
ENDBRANCH  91  93
ENDBRANCH  84  87
ENDBRANCH  82  83
ENDBRANCH  81  82
ENDBRANCH  74  77
ENDBRANCH  72  73
ENDBRANCH   1  72
TORSDOF 17
ENDMDL
MODEL 2
REMARK VINA RESULT:     -11.8      1.599      7.787
REMARK SMILES O=C(NCCCNC(=O)[C@@H]1CC[C@@H](CNC(=O)c2cccc(O)c2)O1)c1ccc(-c2c3nc(c(-c4cc(S(=O)(=O)[O-])ccc4F)c4ccc([nH]4)c(-c4cc(S(=O)(=O)[O-])ccc4F)c4nc(c(-c5cc(S(=O)(=O)[O-])ccc5F)c5ccc2[nH]5)C=C4)C=C3)cc1
REMARK SMILES IDX 5 1 4 2 3 3 1 4 2 5 26 7 27 8 88 9 28 10 87 11 29 12 30 13
REMARK SMILES IDX 31 14 81 15 32 16 86 17 80 18 82 19 33 20 85 21 79 22 78 23
REMARK SMILES IDX 34 25 66 26 46 27 65 28 47 29 50 30 64 31 83 32 48 33 49 34
REMARK SMILES IDX 63 36 84 37 51 38 35 39 36 40 44 41 37 42 43 43 45 44 42 45
REMARK SMILES IDX 38 46 39 47 40 48 41 49 67 50 68 51 76 52 69 53 75 54 77 55
REMARK SMILES IDX 74 56 70 57 71 58 72 59 73 60 52 61 53 62 61 63 54 64 60 65
REMARK SMILES IDX 62 66 59 67 55 68 56 69 57 70 58 71 6 72 7 73 8 74 9 76
REMARK SMILES IDX 10 77 11 78 25 79 12 80 13 81 14 82 15 83 16 84 17 86 18 87
REMARK SMILES IDX 19 88 24 89 20 90 22 91 21 92 23 93
REMARK H PARENT 3 6 82 24 50 35 7 75 15 85 23 94
REMARK Flexibility Score: inf
ROOT
ATOM      1  C   UNL A   1      31.296  31.264  26.051  1.00  0.00     0.042 C 
ENDROOT
BRANCH   1   2
ATOM      2  C   UNL A   1      32.441  31.669  26.968  1.00  0.00     0.118 C 
BRANCH   2   3
ATOM      3  N   UNL A   1      32.466  33.105  27.229  1.00  0.00    -0.352 N 
ATOM      4  O   UNL A   1      32.958  35.010  28.318  1.00  0.00    -0.269 OA
ATOM      5  C   UNL A   1      33.251  33.838  28.083  1.00  0.00     0.251 C 
ATOM      6  H   UNL A   1      31.816  33.632  26.710  1.00  0.00     0.163 HD
BRANCH   5   7
ATOM      7  C   UNL A   1      34.437  33.226  28.717  1.00  0.00     0.039 A 
ATOM      8  C   UNL A   1      34.288  32.206  29.658  1.00  0.00     0.014 A 
ATOM      9  C   UNL A   1      35.715  33.648  28.340  1.00  0.00     0.014 A 
ATOM     10  C   UNL A   1      35.400  31.716  30.329  1.00  0.00     0.010 A 
ATOM     11  C   UNL A   1      36.841  33.080  28.943  1.00  0.00     0.010 A 
ATOM     12  C   UNL A   1      36.690  32.126  29.961  1.00  0.00    -0.014 A 
BRANCH  12  13
ATOM     13  C   UNL A   1      37.861  31.482  30.609  1.00  0.00     0.031 A 
ATOM     14  C   UNL A   1      38.248  31.817  32.021  1.00  0.00     0.074 A 
ATOM     15  C   UNL A   1      38.554  30.560  29.911  1.00  0.00     0.049 A 
ATOM     16  N   UNL A   1      39.235  31.343  32.739  1.00  0.00    -0.248 NA
ATOM     17  C   UNL A   1      37.429  32.822  32.715  1.00  0.00     0.031 C 
ATOM     18  C   UNL A   1      38.262  30.159  28.531  1.00  0.00     0.029 A 
ATOM     19  N   UNL A   1      39.625  29.781  30.261  1.00  0.00    -0.354 N 
ATOM     20  C   UNL A   1      39.165  31.995  33.964  1.00  0.00     0.074 A 
ATOM     21  C   UNL A   1      38.061  32.930  33.876  1.00  0.00     0.031 C 
ATOM     22  C   UNL A   1      39.099  29.177  28.171  1.00  0.00     0.029 A 
ATOM     23  C   UNL A   1      40.038  28.933  29.259  1.00  0.00     0.049 A 
ATOM     24  H   UNL A   1      40.057  29.822  31.145  1.00  0.00     0.167 HD
ATOM     25  C   UNL A   1      39.946  31.822  35.061  1.00  0.00     0.034 A 
ATOM     26  C   UNL A   1      41.075  28.076  29.207  1.00  0.00     0.034 A 
ATOM     27  C   UNL A   1      41.048  30.888  35.121  1.00  0.00     0.049 A 
ATOM     28  C   UNL A   1      41.963  27.948  30.416  1.00  0.00     0.074 A 
ATOM     29  C   UNL A   1      41.888  30.615  36.186  1.00  0.00     0.029 A 
ATOM     30  N   UNL A   1      41.472  30.085  34.068  1.00  0.00    -0.354 N 
ATOM     31  N   UNL A   1      41.871  28.561  31.574  1.00  0.00    -0.248 NA
ATOM     32  C   UNL A   1      43.087  27.013  30.312  1.00  0.00     0.031 C 
ATOM     33  C   UNL A   1      42.863  29.707  35.755  1.00  0.00     0.029 A 
ATOM     34  C   UNL A   1      42.583  29.345  34.449  1.00  0.00     0.049 A 
ATOM     35  H   UNL A   1      41.046  30.046  33.182  1.00  0.00     0.167 HD
ATOM     36  C   UNL A   1      42.918  28.065  32.346  1.00  0.00     0.074 A 
ATOM     37  C   UNL A   1      43.609  27.089  31.527  1.00  0.00     0.031 C 
ATOM     38  C   UNL A   1      43.273  28.387  33.615  1.00  0.00     0.034 A 
BRANCH  25  39
ATOM     39  C   UNL A   1      39.665  32.694  36.263  1.00  0.00     0.023 A 
ATOM     40  C   UNL A   1      38.839  32.261  37.316  1.00  0.00     0.031 A 
ATOM     41  C   UNL A   1      40.217  33.984  36.351  1.00  0.00     0.131 A 
ATOM     42  C   UNL A   1      38.532  33.133  38.372  1.00  0.00     0.055 A 
ATOM     43  C   UNL A   1      39.974  34.818  37.445  1.00  0.00     0.041 A 
ATOM     44  F   UNL A   1      40.995  34.463  35.368  1.00  0.00    -0.206 F 
ATOM     45  C   UNL A   1      39.115  34.400  38.457  1.00  0.00     0.022 A 
BRANCH  42  46
ATOM     46  S   UNL A   1      37.249  32.643  39.557  1.00  0.00     0.124 S 
ATOM     47  O   UNL A   1      36.034  32.778  38.756  1.00  0.00    -0.237 OA
ATOM     48  O   UNL A   1      37.636  31.278  39.897  1.00  0.00    -0.237 OA
ATOM     49  O   UNL A   1      37.385  33.618  40.636  1.00  0.00    -0.744 OA
ENDBRANCH  42  46
ENDBRANCH  25  39
BRANCH  26  50
ATOM     50  C   UNL A   1      41.352  27.309  27.960  1.00  0.00     0.023 A 
ATOM     51  C   UNL A   1      41.103  25.930  27.886  1.00  0.00     0.031 A 
ATOM     52  C   UNL A   1      41.898  27.942  26.828  1.00  0.00     0.131 A 
ATOM     53  C   UNL A   1      41.440  25.222  26.722  1.00  0.00     0.055 A 
ATOM     54  C   UNL A   1      42.173  27.245  25.652  1.00  0.00     0.041 A 
ATOM     55  F   UNL A   1      42.153  29.260  26.844  1.00  0.00    -0.206 F 
ATOM     56  C   UNL A   1      41.957  25.872  25.600  1.00  0.00     0.022 A 
BRANCH  53  57
ATOM     57  S   UNL A   1      41.277  23.416  26.730  1.00  0.00     0.124 S 
ATOM     58  O   UNL A   1      39.844  23.247  26.518  1.00  0.00    -0.237 OA
ATOM     59  O   UNL A   1      42.140  23.030  25.618  1.00  0.00    -0.237 OA
ATOM     60  O   UNL A   1      41.762  23.037  28.054  1.00  0.00    -0.744 OA
ENDBRANCH  53  57
ENDBRANCH  26  50
BRANCH  38  61
ATOM     61  C   UNL A   1      44.444  27.636  34.203  1.00  0.00     0.023 A 
ATOM     62  C   UNL A   1      44.273  26.432  34.908  1.00  0.00     0.031 A 
ATOM     63  C   UNL A   1      45.747  28.149  34.077  1.00  0.00     0.131 A 
ATOM     64  C   UNL A   1      45.377  25.813  35.513  1.00  0.00     0.055 A 
ATOM     65  C   UNL A   1      46.851  27.495  34.624  1.00  0.00     0.041 A 
ATOM     66  F   UNL A   1      45.969  29.299  33.419  1.00  0.00    -0.206 F 
ATOM     67  C   UNL A   1      46.668  26.327  35.360  1.00  0.00     0.022 A 
BRANCH  64  68
ATOM     68  S   UNL A   1      45.093  24.383  36.592  1.00  0.00     0.124 S 
ATOM     69  O   UNL A   1      46.451  24.037  37.000  1.00  0.00    -0.237 OA
ATOM     70  O   UNL A   1      44.238  24.943  37.633  1.00  0.00    -0.237 OA
ATOM     71  O   UNL A   1      44.443  23.414  35.711  1.00  0.00    -0.744 OA
ENDBRANCH  64  68
ENDBRANCH  38  61
ENDBRANCH  12  13
ENDBRANCH   5   7
ENDBRANCH   2   3
ENDBRANCH   1   2
BRANCH   1  72
ATOM     72  C   UNL A   1      31.519  29.920  25.376  1.00  0.00     0.117 C 
BRANCH  72  73
ATOM     73  N   UNL A   1      30.966  29.866  24.037  1.00  0.00    -0.354 N 
ATOM     74  C   UNL A   1      30.869  28.803  23.185  1.00  0.00     0.249 C 
ATOM     75  H   UNL A   1      30.610  30.717  23.692  1.00  0.00     0.163 HD
ATOM     76  O   UNL A   1      30.325  28.986  22.092  1.00  0.00    -0.272 OA
BRANCH  74  77
ATOM     77  C   UNL A   1      31.339  27.406  23.617  1.00  0.00     0.207 C 
ATOM     78  C   UNL A   1      32.690  27.051  23.017  1.00  0.00     0.045 C 
ATOM     79  O   UNL A   1      30.441  26.344  23.282  1.00  0.00    -0.363 OA
ATOM     80  C   UNL A   1      32.675  25.543  23.032  1.00  0.00     0.037 C 
ATOM     81  C   UNL A   1      31.203  25.204  22.848  1.00  0.00     0.138 C 
BRANCH  81  82
ATOM     82  C   UNL A   1      30.744  23.929  23.571  1.00  0.00     0.148 C 
BRANCH  82  83
ATOM     83  N   UNL A   1      30.387  24.162  24.967  1.00  0.00    -0.349 N 
ATOM     84  C   UNL A   1      31.008  23.712  26.106  1.00  0.00     0.251 C 
ATOM     85  H   UNL A   1      29.588  24.719  25.112  1.00  0.00     0.163 HD
ATOM     86  O   UNL A   1      30.404  23.757  27.176  1.00  0.00    -0.269 OA
BRANCH  84  87
ATOM     87  C   UNL A   1      32.394  23.198  26.061  1.00  0.00     0.043 A 
ATOM     88  C   UNL A   1      33.486  24.058  26.234  1.00  0.00     0.014 A 
ATOM     89  C   UNL A   1      32.600  21.822  25.935  1.00  0.00     0.060 A 
ATOM     90  C   UNL A   1      34.786  23.549  26.208  1.00  0.00     0.005 A 
ATOM     91  C   UNL A   1      33.900  21.326  25.928  1.00  0.00     0.116 A 
ATOM     92  C   UNL A   1      34.995  22.178  26.051  1.00  0.00     0.046 A 
BRANCH  91  93
ATOM     93  O   UNL A   1      34.069  19.977  25.804  1.00  0.00    -0.508 OA
ATOM     94  H   UNL A   1      34.543  19.503  26.457  1.00  0.00     0.293 HD
ENDBRANCH  91  93
ENDBRANCH  84  87
ENDBRANCH  82  83
ENDBRANCH  81  82
ENDBRANCH  74  77
ENDBRANCH  72  73
ENDBRANCH   1  72
TORSDOF 17
ENDMDL
MODEL 3
REMARK VINA RESULT:     -11.7      3.640      8.419
REMARK SMILES O=C(NCCCNC(=O)[C@@H]1CC[C@@H](CNC(=O)c2cccc(O)c2)O1)c1ccc(-c2c3nc(c(-c4cc(S(=O)(=O)[O-])ccc4F)c4ccc([nH]4)c(-c4cc(S(=O)(=O)[O-])ccc4F)c4nc(c(-c5cc(S(=O)(=O)[O-])ccc5F)c5ccc2[nH]5)C=C4)C=C3)cc1
REMARK SMILES IDX 5 1 4 2 3 3 1 4 2 5 26 7 27 8 88 9 28 10 87 11 29 12 30 13
REMARK SMILES IDX 31 14 81 15 32 16 86 17 80 18 82 19 33 20 85 21 79 22 78 23
REMARK SMILES IDX 34 25 66 26 46 27 65 28 47 29 50 30 64 31 83 32 48 33 49 34
REMARK SMILES IDX 63 36 84 37 51 38 35 39 36 40 44 41 37 42 43 43 45 44 42 45
REMARK SMILES IDX 38 46 39 47 40 48 41 49 67 50 68 51 76 52 69 53 75 54 77 55
REMARK SMILES IDX 74 56 70 57 71 58 72 59 73 60 52 61 53 62 61 63 54 64 60 65
REMARK SMILES IDX 62 66 59 67 55 68 56 69 57 70 58 71 6 72 7 73 8 74 9 76
REMARK SMILES IDX 10 77 11 78 25 79 12 80 13 81 14 82 15 83 16 84 17 86 18 87
REMARK SMILES IDX 19 88 24 89 20 90 22 91 21 92 23 93
REMARK H PARENT 3 6 82 24 50 35 7 75 15 85 23 94
REMARK Flexibility Score: inf
ROOT
ATOM      1  C   UNL A   1      33.136  29.117  24.970  1.00  0.00     0.042 C 
ENDROOT
BRANCH   1   2
ATOM      2  C   UNL A   1      33.945  29.372  26.235  1.00  0.00     0.118 C 
BRANCH   2   3
ATOM      3  N   UNL A   1      33.782  30.734  26.736  1.00  0.00    -0.352 N 
ATOM      4  O   UNL A   1      34.024  32.472  28.140  1.00  0.00    -0.269 OA
ATOM      5  C   UNL A   1      34.468  31.406  27.716  1.00  0.00     0.251 C 
ATOM      6  H   UNL A   1      33.065  31.251  26.302  1.00  0.00     0.163 HD
BRANCH   5   7
ATOM      7  C   UNL A   1      35.727  30.855  28.257  1.00  0.00     0.039 A 
ATOM      8  C   UNL A   1      35.711  29.714  29.060  1.00  0.00     0.014 A 
ATOM      9  C   UNL A   1      36.943  31.462  27.928  1.00  0.00     0.014 A 
ATOM     10  C   UNL A   1      36.884  29.269  29.655  1.00  0.00     0.010 A 
ATOM     11  C   UNL A   1      38.136  30.951  28.445  1.00  0.00     0.010 A 
ATOM     12  C   UNL A   1      38.114  29.864  29.333  1.00  0.00    -0.014 A 
BRANCH  12  13
ATOM     13  C   UNL A   1      39.362  29.279  29.885  1.00  0.00     0.031 A 
ATOM     14  C   UNL A   1      39.979  29.814  31.145  1.00  0.00     0.074 A 
ATOM     15  C   UNL A   1      39.914  28.229  29.245  1.00  0.00     0.049 A 
ATOM     16  N   UNL A   1      41.060  29.414  31.766  1.00  0.00    -0.248 NA
ATOM     17  C   UNL A   1      39.303  30.950  31.787  1.00  0.00     0.031 C 
ATOM     18  C   UNL A   1      39.395  27.630  28.012  1.00  0.00     0.029 A 
ATOM     19  N   UNL A   1      41.013  27.467  29.544  1.00  0.00    -0.354 N 
ATOM     20  C   UNL A   1      41.203  30.253  32.865  1.00  0.00     0.074 A 
ATOM     21  C   UNL A   1      40.117  31.211  32.801  1.00  0.00     0.031 C 
ATOM     22  C   UNL A   1      40.144  26.566  27.689  1.00  0.00     0.029 A 
ATOM     23  C   UNL A   1      41.242  26.455  28.641  1.00  0.00     0.049 A 
ATOM     24  H   UNL A   1      41.583  27.627  30.330  1.00  0.00     0.167 HD
ATOM     25  C   UNL A   1      42.147  30.219  33.839  1.00  0.00     0.034 A 
ATOM     26  C   UNL A   1      42.240  25.555  28.566  1.00  0.00     0.034 A 
ATOM     27  C   UNL A   1      43.226  29.258  33.876  1.00  0.00     0.049 A 
ATOM     28  C   UNL A   1      43.309  25.578  29.625  1.00  0.00     0.074 A 
ATOM     29  C   UNL A   1      44.224  29.118  34.825  1.00  0.00     0.029 A 
ATOM     30  N   UNL A   1      43.459  28.281  32.913  1.00  0.00    -0.354 N 
ATOM     31  N   UNL A   1      43.419  26.369  30.668  1.00  0.00    -0.248 NA
ATOM     32  C   UNL A   1      44.385  24.589  29.498  1.00  0.00     0.031 C 
ATOM     33  C   UNL A   1      45.098  28.111  34.400  1.00  0.00     0.029 A 
ATOM     34  C   UNL A   1      44.603  27.561  33.230  1.00  0.00     0.049 A 
ATOM     35  H   UNL A   1      42.894  28.123  32.123  1.00  0.00     0.167 HD
ATOM     36  C   UNL A   1      44.567  25.954  31.336  1.00  0.00     0.074 A 
ATOM     37  C   UNL A   1      45.097  24.831  30.587  1.00  0.00     0.031 C 
ATOM     38  C   UNL A   1      45.130  26.454  32.464  1.00  0.00     0.034 A 
BRANCH  25  39
ATOM     39  C   UNL A   1      42.082  31.281  34.913  1.00  0.00     0.023 A 
ATOM     40  C   UNL A   1      42.791  32.491  34.804  1.00  0.00     0.031 A 
ATOM     41  C   UNL A   1      41.314  31.073  36.073  1.00  0.00     0.131 A 
ATOM     42  C   UNL A   1      42.774  33.412  35.863  1.00  0.00     0.055 A 
ATOM     43  C   UNL A   1      41.236  32.030  37.087  1.00  0.00     0.041 A 
ATOM     44  F   UNL A   1      40.632  29.930  36.246  1.00  0.00    -0.206 F 
ATOM     45  C   UNL A   1      41.980  33.202  36.992  1.00  0.00     0.022 A 
BRANCH  42  46
ATOM     46  S   UNL A   1      43.917  34.820  35.804  1.00  0.00     0.124 S 
ATOM     47  O   UNL A   1      44.632  34.574  34.553  1.00  0.00    -0.237 OA
ATOM     48  O   UNL A   1      43.011  35.964  35.803  1.00  0.00    -0.237 OA
ATOM     49  O   UNL A   1      44.722  34.661  37.013  1.00  0.00    -0.744 OA
ENDBRANCH  42  46
ENDBRANCH  25  39
BRANCH  26  50
ATOM     50  C   UNL A   1      42.296  24.589  27.432  1.00  0.00     0.023 A 
ATOM     51  C   UNL A   1      41.547  23.404  27.451  1.00  0.00     0.031 A 
ATOM     52  C   UNL A   1      43.126  24.827  26.321  1.00  0.00     0.131 A 
ATOM     53  C   UNL A   1      41.675  22.481  26.401  1.00  0.00     0.055 A 
ATOM     54  C   UNL A   1      43.203  23.936  25.251  1.00  0.00     0.041 A 
ATOM     55  F   UNL A   1      43.863  25.947  26.251  1.00  0.00    -0.206 F 
ATOM     56  C   UNL A   1      42.484  22.747  25.294  1.00  0.00     0.022 A 
BRANCH  53  57
ATOM     57  S   UNL A   1      40.835  20.881  26.548  1.00  0.00     0.124 S 
ATOM     58  O   UNL A   1      40.780  20.705  27.994  1.00  0.00    -0.237 OA
ATOM     59  O   UNL A   1      39.561  21.146  25.885  1.00  0.00    -0.237 OA
ATOM     60  O   UNL A   1      41.724  19.964  25.840  1.00  0.00    -0.744 OA
ENDBRANCH  53  57
ENDBRANCH  26  50
BRANCH  38  61
ATOM     61  C   UNL A   1      46.366  25.753  32.975  1.00  0.00     0.023 A 
ATOM     62  C   UNL A   1      47.643  26.030  32.455  1.00  0.00     0.031 A 
ATOM     63  C   UNL A   1      46.259  24.774  33.979  1.00  0.00     0.131 A 
ATOM     64  C   UNL A   1      48.752  25.293  32.896  1.00  0.00     0.055 A 
ATOM     65  C   UNL A   1      47.375  24.090  34.461  1.00  0.00     0.041 A 
ATOM     66  F   UNL A   1      45.064  24.465  34.508  1.00  0.00    -0.206 F 
ATOM     67  C   UNL A   1      48.629  24.338  33.909  1.00  0.00     0.022 A 
BRANCH  64  68
ATOM     68  S   UNL A   1      50.342  25.524  32.056  1.00  0.00     0.124 S 
ATOM     69  O   UNL A   1      50.515  24.243  31.378  1.00  0.00    -0.237 OA
ATOM     70  O   UNL A   1      50.075  26.669  31.192  1.00  0.00    -0.237 OA
ATOM     71  O   UNL A   1      51.276  25.778  33.151  1.00  0.00    -0.744 OA
ENDBRANCH  64  68
ENDBRANCH  38  61
ENDBRANCH  12  13
ENDBRANCH   5   7
ENDBRANCH   2   3
ENDBRANCH   1   2
BRANCH   1  72
ATOM     72  C   UNL A   1      31.645  29.348  25.159  1.00  0.00     0.117 C 
BRANCH  72  73
ATOM     73  N   UNL A   1      30.913  29.342  23.907  1.00  0.00    -0.354 N 
ATOM     74  C   UNL A   1      30.786  28.340  22.988  1.00  0.00     0.249 C 
ATOM     75  H   UNL A   1      30.441  30.178  23.690  1.00  0.00     0.163 HD
ATOM     76  O   UNL A   1      30.077  28.551  21.999  1.00  0.00    -0.272 OA
BRANCH  74  77
ATOM     77  C   UNL A   1      31.429  26.966  23.229  1.00  0.00     0.207 C 
ATOM     78  C   UNL A   1      32.345  26.559  22.086  1.00  0.00     0.045 C 
ATOM     79  O   UNL A   1      30.499  25.897  23.420  1.00  0.00    -0.363 OA
ATOM     80  C   UNL A   1      32.366  25.056  22.195  1.00  0.00     0.037 C 
ATOM     81  C   UNL A   1      30.987  24.724  22.746  1.00  0.00     0.138 C 
BRANCH  81  82
ATOM     82  C   UNL A   1      30.947  23.501  23.674  1.00  0.00     0.148 C 
BRANCH  82  83
ATOM     83  N   UNL A   1      30.647  23.845  25.060  1.00  0.00    -0.349 N 
ATOM     84  C   UNL A   1      31.492  23.903  26.141  1.00  0.00     0.251 C 
ATOM     85  H   UNL A   1      29.705  24.066  25.247  1.00  0.00     0.163 HD
ATOM     86  O   UNL A   1      31.016  23.919  27.274  1.00  0.00    -0.269 OA
BRANCH  84  87
ATOM     87  C   UNL A   1      32.958  23.967  25.953  1.00  0.00     0.043 A 
ATOM     88  C   UNL A   1      33.578  25.149  25.529  1.00  0.00     0.014 A 
ATOM     89  C   UNL A   1      33.732  22.854  26.294  1.00  0.00     0.060 A 
ATOM     90  C   UNL A   1      34.964  25.195  25.379  1.00  0.00     0.005 A 
ATOM     91  C   UNL A   1      35.114  22.918  26.154  1.00  0.00     0.116 A 
ATOM     92  C   UNL A   1      35.737  24.074  25.688  1.00  0.00     0.046 A 
BRANCH  91  93
ATOM     93  O   UNL A   1      35.843  21.816  26.495  1.00  0.00    -0.508 OA
ATOM     94  H   UNL A   1      36.454  21.453  25.886  1.00  0.00     0.293 HD
ENDBRANCH  91  93
ENDBRANCH  84  87
ENDBRANCH  82  83
ENDBRANCH  81  82
ENDBRANCH  74  77
ENDBRANCH  72  73
ENDBRANCH   1  72
TORSDOF 17
ENDMDL
