MODEL 1
REMARK VINA RESULT:     -12.9      0.000      0.000
REMARK SMILES COc1ccc2[nH]c(C(=O)c3cc(C)ccn3)c(CC(=O)NCCCNC(=O)c3ccc(-c4c5nc(c(-c6cc(S(=O)(=O)[O-])ccc6F)c6ccc([nH]6)c(-c6cc(S(=O)(=O)[O-])ccc6F)c6nc(c(-c7cc(S(=O)(=O)[O-])ccc7F)c7ccc4[nH]7)C=C6)C=C5)cc3)c2c1
REMARK SMILES IDX 24 1 23 2 22 3 20 4 21 5 19 7 18 8 3 9 4 10 93 11 5 12 92 13
REMARK SMILES IDX 6 14 7 15 8 16 2 18 1 19 9 20 10 21 11 22 12 23 17 24 13 25
REMARK SMILES IDX 16 26 14 27 15 28 25 29 26 30 27 31 28 33 29 34 30 35 91 36
REMARK SMILES IDX 31 37 90 38 32 39 33 40 34 41 84 42 35 43 89 44 83 45 85 46
REMARK SMILES IDX 36 47 88 48 82 49 81 50 37 52 69 53 49 54 68 55 50 56 53 57
REMARK SMILES IDX 67 58 86 59 51 60 52 61 66 63 87 64 54 65 38 66 39 67 47 68
REMARK SMILES IDX 40 69 46 70 48 71 45 72 41 73 42 74 43 75 44 76 70 77 71 78
REMARK SMILES IDX 79 79 72 80 78 81 80 82 77 83 73 84 74 85 75 86 76 87 55 88
REMARK SMILES IDX 56 89 64 90 57 91 63 92 65 93 62 94 58 95 59 96 60 97 61 98
REMARK H PARENT 22 6 7 17 26 32 85 51 53 62
REMARK Flexibility Score: inf
ROOT
ATOM      1  C   UNL A   1      32.013  28.357  26.043  1.00  0.00     0.042 C 
ENDROOT
BRANCH   1   2
ATOM      2  C   UNL A   1      32.781  27.040  25.995  1.00  0.00     0.117 C 
BRANCH   2   3
ATOM      3  N   UNL A   1      32.019  25.915  26.496  1.00  0.00    -0.356 N 
ATOM      4  C   UNL A   1      32.256  24.574  26.378  1.00  0.00     0.224 C 
ATOM      5  O   UNL A   1      31.589  23.826  27.098  1.00  0.00    -0.275 OA
ATOM      6  H   UNL A   1      31.206  26.152  26.998  1.00  0.00     0.163 HD
BRANCH   4   7
ATOM      7  C   UNL A   1      33.385  24.037  25.505  1.00  0.00     0.138 C 
BRANCH   7   8
ATOM      8  C   UNL A   1      32.942  23.290  24.274  1.00  0.00    -0.002 A 
ATOM      9  C   UNL A   1      32.473  19.513  24.747  1.00  0.00     0.119 A 
ATOM     10  C   UNL A   1      32.196  19.233  23.412  1.00  0.00     0.048 A 
ATOM     11  C   UNL A   1      32.694  20.832  25.156  1.00  0.00     0.057 A 
ATOM     12  C   UNL A   1      32.153  20.256  22.455  1.00  0.00     0.030 A 
ATOM     13  C   UNL A   1      32.682  21.879  24.211  1.00  0.00     0.008 A 
ATOM     14  C   UNL A   1      32.401  21.564  22.887  1.00  0.00     0.046 A 
ATOM     15  N   UNL A   1      32.437  22.740  22.178  1.00  0.00    -0.352 N 
ATOM     16  C   UNL A   1      32.662  23.818  23.012  1.00  0.00     0.093 A 
ATOM     17  H   UNL A   1      32.317  22.807  21.203  1.00  0.00     0.167 HD
BRANCH   9  18
ATOM     18  O   UNL A   1      32.525  18.582  25.752  1.00  0.00    -0.497 OA
ATOM     19  C   UNL A   1      32.554  17.224  25.323  1.00  0.00     0.278 C 
ENDBRANCH   9  18
BRANCH  16  20
ATOM     20  C   UNL A   1      32.625  25.218  22.601  1.00  0.00     0.227 C 
ATOM     21  O   UNL A   1      33.572  25.789  22.061  1.00  0.00    -0.285 OA
BRANCH  20  22
ATOM     22  C   UNL A   1      31.424  26.032  22.921  1.00  0.00     0.113 A 
ATOM     23  C   UNL A   1      31.354  27.352  22.486  1.00  0.00     0.036 A 
ATOM     24  N   UNL A   1      30.445  25.412  23.625  1.00  0.00    -0.253 NA
ATOM     25  C   UNL A   1      30.209  28.090  22.792  1.00  0.00    -0.047 A 
ATOM     26  C   UNL A   1      29.340  26.139  23.887  1.00  0.00     0.112 A 
ATOM     27  C   UNL A   1      30.065  29.519  22.363  1.00  0.00     0.044 C 
ATOM     28  C   UNL A   1      29.180  27.463  23.500  1.00  0.00     0.023 A 
ENDBRANCH  20  22
ENDBRANCH  16  20
ENDBRANCH   7   8
ENDBRANCH   4   7
ENDBRANCH   2   3
ENDBRANCH   1   2
BRANCH   1  29
ATOM     29  C   UNL A   1      32.707  29.525  25.346  1.00  0.00     0.118 C 
BRANCH  29  30
ATOM     30  N   UNL A   1      32.272  30.820  25.848  1.00  0.00    -0.352 N 
ATOM     31  C   UNL A   1      32.730  31.575  26.900  1.00  0.00     0.251 C 
ATOM     32  H   UNL A   1      31.525  31.223  25.351  1.00  0.00     0.163 HD
ATOM     33  O   UNL A   1      32.080  32.557  27.249  1.00  0.00    -0.269 OA
BRANCH  31  34
ATOM     34  C   UNL A   1      33.972  31.217  27.625  1.00  0.00     0.039 A 
ATOM     35  C   UNL A   1      34.908  32.225  27.884  1.00  0.00     0.014 A 
ATOM     36  C   UNL A   1      34.255  29.901  28.001  1.00  0.00     0.014 A 
ATOM     37  C   UNL A   1      36.091  31.927  28.567  1.00  0.00     0.010 A 
ATOM     38  C   UNL A   1      35.405  29.616  28.739  1.00  0.00     0.010 A 
ATOM     39  C   UNL A   1      36.337  30.625  29.028  1.00  0.00    -0.014 A 
BRANCH  39  40
ATOM     40  C   UNL A   1      37.563  30.299  29.805  1.00  0.00     0.031 A 
ATOM     41  C   UNL A   1      38.608  29.387  29.221  1.00  0.00     0.074 A 
ATOM     42  C   UNL A   1      37.703  30.768  31.061  1.00  0.00     0.049 A 
ATOM     43  N   UNL A   1      39.692  28.904  29.776  1.00  0.00    -0.248 NA
ATOM     44  C   UNL A   1      38.388  28.937  27.839  1.00  0.00     0.031 C 
ATOM     45  C   UNL A   1      36.743  31.634  31.750  1.00  0.00     0.029 A 
ATOM     46  N   UNL A   1      38.698  30.575  31.986  1.00  0.00    -0.354 N 
ATOM     47  C   UNL A   1      40.273  28.079  28.819  1.00  0.00     0.074 A 
ATOM     48  C   UNL A   1      39.392  28.090  27.669  1.00  0.00     0.031 C 
ATOM     49  C   UNL A   1      37.203  31.905  32.983  1.00  0.00     0.029 A 
ATOM     50  C   UNL A   1      38.466  31.201  33.188  1.00  0.00     0.049 A 
ATOM     51  H   UNL A   1      39.503  30.038  31.806  1.00  0.00     0.167 HD
ATOM     52  C   UNL A   1      41.440  27.390  28.887  1.00  0.00     0.034 A 
ATOM     53  C   UNL A   1      39.178  31.199  34.332  1.00  0.00     0.034 A 
ATOM     54  C   UNL A   1      42.317  27.403  30.033  1.00  0.00     0.049 A 
ATOM     55  C   UNL A   1      40.470  30.422  34.387  1.00  0.00     0.074 A 
ATOM     56  C   UNL A   1      43.546  26.786  30.187  1.00  0.00     0.029 A 
ATOM     57  N   UNL A   1      42.057  28.065  31.226  1.00  0.00    -0.354 N 
ATOM     58  N   UNL A   1      41.024  29.676  33.459  1.00  0.00    -0.248 NA
ATOM     59  C   UNL A   1      41.234  30.498  35.637  1.00  0.00     0.031 C 
ATOM     60  C   UNL A   1      44.001  27.026  31.489  1.00  0.00     0.029 A 
ATOM     61  C   UNL A   1      43.088  27.850  32.127  1.00  0.00     0.049 A 
ATOM     62  H   UNL A   1      41.255  28.608  31.406  1.00  0.00     0.167 HD
ATOM     63  C   UNL A   1      42.218  29.218  34.007  1.00  0.00     0.074 A 
ATOM     64  C   UNL A   1      42.308  29.781  35.339  1.00  0.00     0.031 C 
ATOM     65  C   UNL A   1      43.159  28.410  33.457  1.00  0.00     0.034 A 
BRANCH  52  66
ATOM     66  C   UNL A   1      41.815  26.542  27.693  1.00  0.00     0.023 A 
ATOM     67  C   UNL A   1      41.452  25.186  27.607  1.00  0.00     0.031 A 
ATOM     68  C   UNL A   1      42.571  27.088  26.642  1.00  0.00     0.131 A 
ATOM     69  C   UNL A   1      41.912  24.405  26.536  1.00  0.00     0.055 A 
ATOM     70  C   UNL A   1      42.957  26.325  25.538  1.00  0.00     0.041 A 
ATOM     71  F   UNL A   1      42.963  28.372  26.676  1.00  0.00    -0.206 F 
ATOM     72  C   UNL A   1      42.642  24.969  25.488  1.00  0.00     0.022 A 
BRANCH  69  73
ATOM     73  S   UNL A   1      41.664  22.609  26.607  1.00  0.00     0.124 S 
ATOM     74  O   UNL A   1      42.380  22.262  27.832  1.00  0.00    -0.237 OA
ATOM     75  O   UNL A   1      40.212  22.494  26.660  1.00  0.00    -0.237 OA
ATOM     76  O   UNL A   1      42.285  22.129  25.374  1.00  0.00    -0.744 OA
ENDBRANCH  69  73
ENDBRANCH  52  66
BRANCH  53  77
ATOM     77  C   UNL A   1      38.688  31.941  35.526  1.00  0.00     0.023 A 
ATOM     78  C   UNL A   1      38.151  31.261  36.629  1.00  0.00     0.031 A 
ATOM     79  C   UNL A   1      38.716  33.347  35.566  1.00  0.00     0.131 A 
ATOM     80  C   UNL A   1      37.624  31.988  37.710  1.00  0.00     0.055 A 
ATOM     81  C   UNL A   1      38.235  34.063  36.662  1.00  0.00     0.041 A 
ATOM     82  F   UNL A   1      39.228  34.045  34.538  1.00  0.00    -0.206 F 
ATOM     83  C   UNL A   1      37.673  33.383  37.737  1.00  0.00     0.022 A 
BRANCH  80  84
ATOM     84  S   UNL A   1      36.805  31.080  39.050  1.00  0.00     0.124 S 
ATOM     85  O   UNL A   1      37.778  31.204  40.130  1.00  0.00    -0.237 OA
ATOM     86  O   UNL A   1      35.567  31.834  39.211  1.00  0.00    -0.237 OA
ATOM     87  O   UNL A   1      36.648  29.735  38.501  1.00  0.00    -0.744 OA
ENDBRANCH  80  84
ENDBRANCH  53  77
BRANCH  65  88
ATOM     88  C   UNL A   1      44.388  28.129  34.285  1.00  0.00     0.023 A 
ATOM     89  C   UNL A   1      44.464  27.021  35.146  1.00  0.00     0.031 A 
ATOM     90  C   UNL A   1      45.494  28.997  34.223  1.00  0.00     0.131 A 
ATOM     91  C   UNL A   1      45.598  26.837  35.950  1.00  0.00     0.055 A 
ATOM     92  C   UNL A   1      46.642  28.779  34.984  1.00  0.00     0.041 A 
ATOM     93  F   UNL A   1      45.474  30.071  33.419  1.00  0.00    -0.206 F 
ATOM     94  C   UNL A   1      46.694  27.701  35.864  1.00  0.00     0.022 A 
BRANCH  91  95
ATOM     95  S   UNL A   1      45.592  25.500  37.175  1.00  0.00     0.124 S 
ATOM     96  O   UNL A   1      46.986  25.070  37.164  1.00  0.00    -0.237 OA
ATOM     97  O   UNL A   1      45.147  26.187  38.385  1.00  0.00    -0.237 OA
ATOM     98  O   UNL A   1      44.639  24.536  36.628  1.00  0.00    -0.744 OA
ENDBRANCH  91  95
ENDBRANCH  65  88
ENDBRANCH  39  40
ENDBRANCH  31  34
ENDBRANCH  29  30
ENDBRANCH   1  29
TORSDOF 17
ENDMDL
MODEL 2
REMARK VINA RESULT:     -12.6      2.317      3.085
REMARK SMILES COc1ccc2[nH]c(C(=O)c3cc(C)ccn3)c(CC(=O)NCCCNC(=O)c3ccc(-c4c5nc(c(-c6cc(S(=O)(=O)[O-])ccc6F)c6ccc([nH]6)c(-c6cc(S(=O)(=O)[O-])ccc6F)c6nc(c(-c7cc(S(=O)(=O)[O-])ccc7F)c7ccc4[nH]7)C=C6)C=C5)cc3)c2c1
REMARK SMILES IDX 24 1 23 2 22 3 20 4 21 5 19 7 18 8 3 9 4 10 93 11 5 12 92 13
REMARK SMILES IDX 6 14 7 15 8 16 2 18 1 19 9 20 10 21 11 22 12 23 17 24 13 25
REMARK SMILES IDX 16 26 14 27 15 28 25 29 26 30 27 31 28 33 29 34 30 35 91 36
REMARK SMILES IDX 31 37 90 38 32 39 33 40 34 41 84 42 35 43 89 44 83 45 85 46
REMARK SMILES IDX 36 47 88 48 82 49 81 50 37 52 69 53 49 54 68 55 50 56 53 57
REMARK SMILES IDX 67 58 86 59 51 60 52 61 66 63 87 64 54 65 38 66 39 67 47 68
REMARK SMILES IDX 40 69 46 70 48 71 45 72 41 73 42 74 43 75 44 76 70 77 71 78
REMARK SMILES IDX 79 79 72 80 78 81 80 82 77 83 73 84 74 85 75 86 76 87 55 88
REMARK SMILES IDX 56 89 64 90 57 91 63 92 65 93 62 94 58 95 59 96 60 97 61 98
REMARK H PARENT 22 6 7 17 26 32 85 51 53 62
REMARK Flexibility Score: inf
ROOT
ATOM      1  C   UNL A   1      31.487  31.629  26.497  1.00  0.00     0.042 C 
ENDROOT
BRANCH   1   2
ATOM      2  C   UNL A   1      31.742  30.368  25.676  1.00  0.00     0.117 C 
BRANCH   2   3
ATOM      3  N   UNL A   1      31.440  29.147  26.395  1.00  0.00    -0.356 N 
ATOM      4  C   UNL A   1      32.201  28.027  26.576  1.00  0.00     0.224 C 
ATOM      5  O   UNL A   1      31.810  27.223  27.429  1.00  0.00    -0.275 OA
ATOM      6  H   UNL A   1      30.550  29.121  26.816  1.00  0.00     0.163 HD
BRANCH   4   7
ATOM      7  C   UNL A   1      33.537  27.845  25.865  1.00  0.00     0.138 C 
BRANCH   7   8
ATOM      8  C   UNL A   1      33.528  26.856  24.729  1.00  0.00    -0.002 A 
ATOM      9  C   UNL A   1      34.596  23.294  25.668  1.00  0.00     0.119 A 
ATOM     10  C   UNL A   1      34.556  22.785  24.372  1.00  0.00     0.048 A 
ATOM     11  C   UNL A   1      34.232  24.622  25.911  1.00  0.00     0.057 A 
ATOM     12  C   UNL A   1      34.174  23.592  23.292  1.00  0.00     0.030 A 
ATOM     13  C   UNL A   1      33.867  25.465  24.840  1.00  0.00     0.008 A 
ATOM     14  C   UNL A   1      33.837  24.924  23.560  1.00  0.00     0.046 A 
ATOM     15  N   UNL A   1      33.446  25.928  22.708  1.00  0.00    -0.352 N 
ATOM     16  C   UNL A   1      33.153  27.085  23.403  1.00  0.00     0.093 A 
ATOM     17  H   UNL A   1      33.383  25.836  21.730  1.00  0.00     0.167 HD
BRANCH   9  18
ATOM     18  O   UNL A   1      34.946  22.579  26.783  1.00  0.00    -0.497 OA
ATOM     19  C   UNL A   1      33.872  22.251  27.658  1.00  0.00     0.278 C 
ENDBRANCH   9  18
BRANCH  16  20
ATOM     20  C   UNL A   1      32.583  28.293  22.817  1.00  0.00     0.227 C 
ATOM     21  O   UNL A   1      33.264  29.233  22.410  1.00  0.00    -0.285 OA
BRANCH  20  22
ATOM     22  C   UNL A   1      31.105  28.449  22.781  1.00  0.00     0.113 A 
ATOM     23  C   UNL A   1      30.297  27.478  23.366  1.00  0.00     0.036 A 
ATOM     24  N   UNL A   1      30.631  29.564  22.173  1.00  0.00    -0.253 NA
ATOM     25  C   UNL A   1      28.914  27.656  23.327  1.00  0.00    -0.047 A 
ATOM     26  C   UNL A   1      29.292  29.724  22.169  1.00  0.00     0.112 A 
ATOM     27  C   UNL A   1      27.981  26.649  23.930  1.00  0.00     0.044 C 
ATOM     28  C   UNL A   1      28.406  28.809  22.722  1.00  0.00     0.023 A 
ENDBRANCH  20  22
ENDBRANCH  16  20
ENDBRANCH   7   8
ENDBRANCH   4   7
ENDBRANCH   2   3
ENDBRANCH   1   2
BRANCH   1  29
ATOM     29  C   UNL A   1      32.722  32.196  27.193  1.00  0.00     0.118 C 
BRANCH  29  30
ATOM     30  N   UNL A   1      32.573  33.600  27.550  1.00  0.00    -0.352 N 
ATOM     31  C   UNL A   1      33.222  34.360  28.492  1.00  0.00     0.251 C 
ATOM     32  H   UNL A   1      31.893  34.085  27.030  1.00  0.00     0.163 HD
ATOM     33  O   UNL A   1      32.793  35.485  28.740  1.00  0.00    -0.269 OA
BRANCH  31  34
ATOM     34  C   UNL A   1      34.406  33.846  29.219  1.00  0.00     0.039 A 
ATOM     35  C   UNL A   1      34.207  32.913  30.244  1.00  0.00     0.014 A 
ATOM     36  C   UNL A   1      35.697  34.308  28.949  1.00  0.00     0.014 A 
ATOM     37  C   UNL A   1      35.300  32.403  30.952  1.00  0.00     0.010 A 
ATOM     38  C   UNL A   1      36.792  33.752  29.612  1.00  0.00     0.010 A 
ATOM     39  C   UNL A   1      36.605  32.795  30.622  1.00  0.00    -0.014 A 
BRANCH  39  40
ATOM     40  C   UNL A   1      37.786  32.224  31.325  1.00  0.00     0.031 A 
ATOM     41  C   UNL A   1      38.583  31.117  30.689  1.00  0.00     0.074 A 
ATOM     42  C   UNL A   1      38.099  32.654  32.563  1.00  0.00     0.049 A 
ATOM     43  N   UNL A   1      39.578  30.422  31.181  1.00  0.00    -0.248 NA
ATOM     44  C   UNL A   1      38.188  30.722  29.329  1.00  0.00     0.031 C 
ATOM     45  C   UNL A   1      37.382  33.698  33.300  1.00  0.00     0.029 A 
ATOM     46  N   UNL A   1      39.089  32.261  33.427  1.00  0.00    -0.354 N 
ATOM     47  C   UNL A   1      39.915  29.495  30.201  1.00  0.00     0.074 A 
ATOM     48  C   UNL A   1      38.985  29.687  29.108  1.00  0.00     0.031 C 
ATOM     49  C   UNL A   1      37.965  33.869  34.499  1.00  0.00     0.029 A 
ATOM     50  C   UNL A   1      39.067  32.921  34.634  1.00  0.00     0.049 A 
ATOM     51  H   UNL A   1      39.755  31.569  33.205  1.00  0.00     0.167 HD
ATOM     52  C   UNL A   1      40.919  28.581  30.204  1.00  0.00     0.034 A 
ATOM     53  C   UNL A   1      39.835  32.771  35.731  1.00  0.00     0.034 A 
ATOM     54  C   UNL A   1      41.851  28.414  31.294  1.00  0.00     0.049 A 
ATOM     55  C   UNL A   1      40.941  31.746  35.715  1.00  0.00     0.074 A 
ATOM     56  C   UNL A   1      42.935  27.558  31.378  1.00  0.00     0.029 A 
ATOM     57  N   UNL A   1      41.808  29.116  32.492  1.00  0.00    -0.354 N 
ATOM     58  N   UNL A   1      41.270  30.903  34.765  1.00  0.00    -0.248 NA
ATOM     59  C   UNL A   1      41.783  31.663  36.915  1.00  0.00     0.031 C 
ATOM     60  C   UNL A   1      43.511  27.699  32.647  1.00  0.00     0.029 A 
ATOM     61  C   UNL A   1      42.829  28.693  33.330  1.00  0.00     0.049 A 
ATOM     62  H   UNL A   1      41.148  29.811  32.715  1.00  0.00     0.167 HD
ATOM     63  C   UNL A   1      42.378  30.209  35.242  1.00  0.00     0.074 A 
ATOM     64  C   UNL A   1      42.666  30.742  36.560  1.00  0.00     0.031 C 
ATOM     65  C   UNL A   1      43.097  29.226  34.645  1.00  0.00     0.034 A 
BRANCH  52  66
ATOM     66  C   UNL A   1      41.036  27.675  29.001  1.00  0.00     0.023 A 
ATOM     67  C   UNL A   1      42.031  27.866  28.026  1.00  0.00     0.031 A 
ATOM     68  C   UNL A   1      40.121  26.625  28.810  1.00  0.00     0.131 A 
ATOM     69  C   UNL A   1      42.039  27.073  26.869  1.00  0.00     0.055 A 
ATOM     70  C   UNL A   1      40.184  25.787  27.694  1.00  0.00     0.041 A 
ATOM     71  F   UNL A   1      39.137  26.404  29.696  1.00  0.00    -0.206 F 
ATOM     72  C   UNL A   1      41.137  26.019  26.706  1.00  0.00     0.022 A 
BRANCH  69  73
ATOM     73  S   UNL A   1      43.153  27.533  25.513  1.00  0.00     0.124 S 
ATOM     74  O   UNL A   1      43.608  26.224  25.050  1.00  0.00    -0.237 OA
ATOM     75  O   UNL A   1      42.268  28.259  24.611  1.00  0.00    -0.237 OA
ATOM     76  O   UNL A   1      44.176  28.344  26.171  1.00  0.00    -0.744 OA
ENDBRANCH  69  73
ENDBRANCH  52  66
BRANCH  53  77
ATOM     77  C   UNL A   1      39.583  33.599  36.944  1.00  0.00     0.023 A 
ATOM     78  C   UNL A   1      38.879  33.078  38.040  1.00  0.00     0.031 A 
ATOM     79  C   UNL A   1      40.015  34.936  37.009  1.00  0.00     0.131 A 
ATOM     80  C   UNL A   1      38.588  33.902  39.139  1.00  0.00     0.055 A 
ATOM     81  C   UNL A   1      39.764  35.737  38.124  1.00  0.00     0.041 A 
ATOM     82  F   UNL A   1      40.700  35.479  35.990  1.00  0.00    -0.206 F 
ATOM     83  C   UNL A   1      39.036  35.224  39.192  1.00  0.00     0.022 A 
BRANCH  80  84
ATOM     84  S   UNL A   1      37.549  33.240  40.470  1.00  0.00     0.124 S 
ATOM     85  O   UNL A   1      38.387  32.167  40.994  1.00  0.00    -0.237 OA
ATOM     86  O   UNL A   1      37.385  34.406  41.332  1.00  0.00    -0.237 OA
ATOM     87  O   UNL A   1      36.340  32.808  39.773  1.00  0.00    -0.744 OA
ENDBRANCH  80  84
ENDBRANCH  53  77
BRANCH  65  88
ATOM     88  C   UNL A   1      44.292  28.699  35.399  1.00  0.00     0.023 A 
ATOM     89  C   UNL A   1      44.181  27.640  36.318  1.00  0.00     0.031 A 
ATOM     90  C   UNL A   1      45.559  29.279  35.207  1.00  0.00     0.131 A 
ATOM     91  C   UNL A   1      45.305  27.228  37.048  1.00  0.00     0.055 A 
ATOM     92  C   UNL A   1      46.685  28.829  35.895  1.00  0.00     0.041 A 
ATOM     93  F   UNL A   1      45.721  30.294  34.343  1.00  0.00    -0.206 F 
ATOM     94  C   UNL A   1      46.560  27.806  36.832  1.00  0.00     0.022 A 
BRANCH  91  95
ATOM     95  S   UNL A   1      45.092  25.982  38.348  1.00  0.00     0.124 S 
ATOM     96  O   UNL A   1      44.500  24.871  37.611  1.00  0.00    -0.237 OA
ATOM     97  O   UNL A   1      46.461  25.780  38.815  1.00  0.00    -0.237 OA
ATOM     98  O   UNL A   1      44.203  26.635  39.308  1.00  0.00    -0.744 OA
ENDBRANCH  91  95
ENDBRANCH  65  88
ENDBRANCH  39  40
ENDBRANCH  31  34
ENDBRANCH  29  30
ENDBRANCH   1  29
TORSDOF 17
ENDMDL
MODEL 3
REMARK VINA RESULT:     -12.6      2.508      7.728
REMARK SMILES COc1ccc2[nH]c(C(=O)c3cc(C)ccn3)c(CC(=O)NCCCNC(=O)c3ccc(-c4c5nc(c(-c6cc(S(=O)(=O)[O-])ccc6F)c6ccc([nH]6)c(-c6cc(S(=O)(=O)[O-])ccc6F)c6nc(c(-c7cc(S(=O)(=O)[O-])ccc7F)c7ccc4[nH]7)C=C6)C=C5)cc3)c2c1
REMARK SMILES IDX 24 1 23 2 22 3 20 4 21 5 19 7 18 8 3 9 4 10 93 11 5 12 92 13
REMARK SMILES IDX 6 14 7 15 8 16 2 18 1 19 9 20 10 21 11 22 12 23 17 24 13 25
REMARK SMILES IDX 16 26 14 27 15 28 25 29 26 30 27 31 28 33 29 34 30 35 91 36
REMARK SMILES IDX 31 37 90 38 32 39 33 40 34 41 84 42 35 43 89 44 83 45 85 46
REMARK SMILES IDX 36 47 88 48 82 49 81 50 37 52 69 53 49 54 68 55 50 56 53 57
REMARK SMILES IDX 67 58 86 59 51 60 52 61 66 63 87 64 54 65 38 66 39 67 47 68
REMARK SMILES IDX 40 69 46 70 48 71 45 72 41 73 42 74 43 75 44 76 70 77 71 78
REMARK SMILES IDX 79 79 72 80 78 81 80 82 77 83 73 84 74 85 75 86 76 87 55 88
REMARK SMILES IDX 56 89 64 90 57 91 63 92 65 93 62 94 58 95 59 96 60 97 61 98
REMARK H PARENT 22 6 7 17 26 32 85 51 53 62
REMARK Flexibility Score: inf
ROOT
ATOM      1  C   UNL A   1      32.681  28.168  27.115  1.00  0.00     0.042 C 
ENDROOT
BRANCH   1   2
ATOM      2  C   UNL A   1      31.637  27.512  26.215  1.00  0.00     0.117 C 
BRANCH   2   3
ATOM      3  N   UNL A   1      31.190  26.224  26.704  1.00  0.00    -0.356 N 
ATOM      4  C   UNL A   1      31.735  24.984  26.528  1.00  0.00     0.224 C 
ATOM      5  O   UNL A   1      31.298  24.079  27.245  1.00  0.00    -0.275 OA
ATOM      6  H   UNL A   1      30.367  26.246  27.244  1.00  0.00     0.163 HD
BRANCH   4   7
ATOM      7  C   UNL A   1      32.918  24.756  25.594  1.00  0.00     0.138 C 
BRANCH   7   8
ATOM      8  C   UNL A   1      32.602  23.994  24.334  1.00  0.00    -0.002 A 
ATOM      9  C   UNL A   1      32.429  20.184  24.740  1.00  0.00     0.119 A 
ATOM     10  C   UNL A   1      32.244  19.903  23.389  1.00  0.00     0.048 A 
ATOM     11  C   UNL A   1      32.517  21.510  25.175  1.00  0.00     0.057 A 
ATOM     12  C   UNL A   1      32.163  20.933  22.443  1.00  0.00     0.030 A 
ATOM     13  C   UNL A   1      32.465  22.567  24.242  1.00  0.00     0.008 A 
ATOM     14  C   UNL A   1      32.278  22.251  22.901  1.00  0.00     0.046 A 
ATOM     15  N   UNL A   1      32.251  23.436  22.208  1.00  0.00    -0.352 N 
ATOM     16  C   UNL A   1      32.343  24.516  23.065  1.00  0.00     0.093 A 
ATOM     17  H   UNL A   1      32.176  23.508  21.229  1.00  0.00     0.167 HD
BRANCH   9  18
ATOM     18  O   UNL A   1      32.508  19.245  25.736  1.00  0.00    -0.497 OA
ATOM     19  C   UNL A   1      32.624  17.897  25.293  1.00  0.00     0.278 C 
ENDBRANCH   9  18
BRANCH  16  20
ATOM     20  C   UNL A   1      32.210  25.914  22.668  1.00  0.00     0.227 C 
ATOM     21  O   UNL A   1      33.136  26.576  22.202  1.00  0.00    -0.285 OA
BRANCH  20  22
ATOM     22  C   UNL A   1      30.921  26.613  22.912  1.00  0.00     0.113 A 
ATOM     23  C   UNL A   1      30.744  27.911  22.442  1.00  0.00     0.036 A 
ATOM     24  N   UNL A   1      29.974  25.914  23.585  1.00  0.00    -0.253 NA
ATOM     25  C   UNL A   1      29.520  28.540  22.677  1.00  0.00    -0.047 A 
ATOM     26  C   UNL A   1      28.792  26.536  23.778  1.00  0.00     0.112 A 
ATOM     27  C   UNL A   1      29.260  29.939  22.206  1.00  0.00     0.044 C 
ATOM     28  C   UNL A   1      28.524  27.829  23.352  1.00  0.00     0.023 A 
ENDBRANCH  20  22
ENDBRANCH  16  20
ENDBRANCH   7   8
ENDBRANCH   4   7
ENDBRANCH   2   3
ENDBRANCH   1   2
BRANCH   1  29
ATOM     29  C   UNL A   1      33.681  29.061  26.384  1.00  0.00     0.118 C 
BRANCH  29  30
ATOM     30  N   UNL A   1      33.582  30.459  26.779  1.00  0.00    -0.352 N 
ATOM     31  C   UNL A   1      34.355  31.206  27.633  1.00  0.00     0.251 C 
ATOM     32  H   UNL A   1      32.836  30.950  26.367  1.00  0.00     0.163 HD
ATOM     33  O   UNL A   1      33.965  32.326  27.956  1.00  0.00    -0.269 OA
BRANCH  31  34
ATOM     34  C   UNL A   1      35.630  30.684  28.180  1.00  0.00     0.039 A 
ATOM     35  C   UNL A   1      35.581  29.833  29.290  1.00  0.00     0.014 A 
ATOM     36  C   UNL A   1      36.868  31.064  27.656  1.00  0.00     0.014 A 
ATOM     37  C   UNL A   1      36.763  29.319  29.833  1.00  0.00     0.010 A 
ATOM     38  C   UNL A   1      38.043  30.500  28.158  1.00  0.00     0.010 A 
ATOM     39  C   UNL A   1      38.003  29.623  29.253  1.00  0.00    -0.014 A 
BRANCH  39  40
ATOM     40  C   UNL A   1      39.267  29.043  29.782  1.00  0.00     0.031 A 
ATOM     41  C   UNL A   1      39.967  29.688  30.947  1.00  0.00     0.074 A 
ATOM     42  C   UNL A   1      39.819  27.976  29.171  1.00  0.00     0.049 A 
ATOM     43  N   UNL A   1      41.123  29.395  31.487  1.00  0.00    -0.248 NA
ATOM     44  C   UNL A   1      39.287  30.833  31.568  1.00  0.00     0.031 C 
ATOM     45  C   UNL A   1      39.253  27.281  28.011  1.00  0.00     0.029 A 
ATOM     46  N   UNL A   1      40.982  27.295  29.428  1.00  0.00    -0.354 N 
ATOM     47  C   UNL A   1      41.319  30.330  32.497  1.00  0.00     0.074 A 
ATOM     48  C   UNL A   1      40.184  31.228  32.459  1.00  0.00     0.031 C 
ATOM     49  C   UNL A   1      40.065  26.268  27.667  1.00  0.00     0.029 A 
ATOM     50  C   UNL A   1      41.228  26.265  28.551  1.00  0.00     0.049 A 
ATOM     51  H   UNL A   1      41.586  27.524  30.171  1.00  0.00     0.167 HD
ATOM     52  C   UNL A   1      42.342  30.420  33.385  1.00  0.00     0.034 A 
ATOM     53  C   UNL A   1      42.275  25.422  28.456  1.00  0.00     0.034 A 
ATOM     54  C   UNL A   1      43.459  29.506  33.422  1.00  0.00     0.049 A 
ATOM     55  C   UNL A   1      43.403  25.544  29.449  1.00  0.00     0.074 A 
ATOM     56  C   UNL A   1      44.519  29.474  34.311  1.00  0.00     0.029 A 
ATOM     57  N   UNL A   1      43.662  28.462  32.529  1.00  0.00    -0.354 N 
ATOM     58  N   UNL A   1      43.555  26.412  30.423  1.00  0.00    -0.248 NA
ATOM     59  C   UNL A   1      44.492  24.566  29.337  1.00  0.00     0.031 C 
ATOM     60  C   UNL A   1      45.391  28.451  33.921  1.00  0.00     0.029 A 
ATOM     61  C   UNL A   1      44.842  27.799  32.829  1.00  0.00     0.049 A 
ATOM     62  H   UNL A   1      43.057  28.228  31.788  1.00  0.00     0.167 HD
ATOM     63  C   UNL A   1      44.743  26.064  31.057  1.00  0.00     0.074 A 
ATOM     64  C   UNL A   1      45.261  24.902  30.362  1.00  0.00     0.031 C 
ATOM     65  C   UNL A   1      45.351  26.648  32.121  1.00  0.00     0.034 A 
BRANCH  52  66
ATOM     66  C   UNL A   1      42.308  31.568  34.366  1.00  0.00     0.023 A 
ATOM     67  C   UNL A   1      41.499  31.534  35.516  1.00  0.00     0.031 A 
ATOM     68  C   UNL A   1      43.072  32.725  34.135  1.00  0.00     0.131 A 
ATOM     69  C   UNL A   1      41.411  32.663  36.345  1.00  0.00     0.055 A 
ATOM     70  C   UNL A   1      43.042  33.815  35.008  1.00  0.00     0.041 A 
ATOM     71  F   UNL A   1      43.850  32.825  33.046  1.00  0.00    -0.206 F 
ATOM     72  C   UNL A   1      42.195  33.795  36.113  1.00  0.00     0.022 A 
BRANCH  69  73
ATOM     73  S   UNL A   1      40.149  32.683  37.647  1.00  0.00     0.124 S 
ATOM     74  O   UNL A   1      40.932  32.307  38.821  1.00  0.00    -0.237 OA
ATOM     75  O   UNL A   1      39.677  34.062  37.608  1.00  0.00    -0.237 OA
ATOM     76  O   UNL A   1      39.183  31.679  37.203  1.00  0.00    -0.744 OA
ENDBRANCH  69  73
ENDBRANCH  52  66
BRANCH  53  77
ATOM     77  C   UNL A   1      42.321  24.397  27.377  1.00  0.00     0.023 A 
ATOM     78  C   UNL A   1      41.615  23.190  27.497  1.00  0.00     0.031 A 
ATOM     79  C   UNL A   1      43.101  24.595  26.224  1.00  0.00     0.131 A 
ATOM     80  C   UNL A   1      41.736  22.207  26.501  1.00  0.00     0.055 A 
ATOM     81  C   UNL A   1      43.181  23.635  25.214  1.00  0.00     0.041 A 
ATOM     82  F   UNL A   1      43.788  25.736  26.057  1.00  0.00    -0.206 F 
ATOM     83  C   UNL A   1      42.505  22.427  25.356  1.00  0.00     0.022 A 
BRANCH  80  84
ATOM     84  S   UNL A   1      40.929  20.604  26.760  1.00  0.00     0.124 S 
ATOM     85  O   UNL A   1      39.672  20.785  26.044  1.00  0.00    -0.237 OA
ATOM     86  O   UNL A   1      41.887  19.684  26.156  1.00  0.00    -0.237 OA
ATOM     87  O   UNL A   1      40.814  20.514  28.214  1.00  0.00    -0.744 OA
ENDBRANCH  80  84
ENDBRANCH  53  77
BRANCH  65  88
ATOM     88  C   UNL A   1      46.619  26.003  32.622  1.00  0.00     0.023 A 
ATOM     89  C   UNL A   1      47.865  26.257  32.024  1.00  0.00     0.031 A 
ATOM     90  C   UNL A   1      46.574  25.108  33.706  1.00  0.00     0.131 A 
ATOM     91  C   UNL A   1      49.008  25.583  32.478  1.00  0.00     0.055 A 
ATOM     92  C   UNL A   1      47.723  24.481  34.189  1.00  0.00     0.041 A 
ATOM     93  F   UNL A   1      45.410  24.828  34.313  1.00  0.00    -0.206 F 
ATOM     94  C   UNL A   1      48.948  24.708  33.567  1.00  0.00     0.022 A 
BRANCH  91  95
ATOM     95  S   UNL A   1      50.565  25.799  31.574  1.00  0.00     0.124 S 
ATOM     96  O   UNL A   1      51.141  24.460  31.635  1.00  0.00    -0.237 OA
ATOM     97  O   UNL A   1      50.105  26.235  30.259  1.00  0.00    -0.237 OA
ATOM     98  O   UNL A   1      51.275  26.816  32.348  1.00  0.00    -0.744 OA
ENDBRANCH  91  95
ENDBRANCH  65  88
ENDBRANCH  39  40
ENDBRANCH  31  34
ENDBRANCH  29  30
ENDBRANCH   1  29
TORSDOF 17
ENDMDL
