MODEL 1
REMARK VINA RESULT:     -13.1      0.000      0.000
REMARK SMILES O=C(CC1(CC(=O)Nc2ccc3ccccc3n2)CCCCC1)NCCCNC(=O)c1ccc(-c2c3nc(c(-c4cc(S(=O)(=O)[O-])ccc4F)c4ccc([nH]4)c(-c4cc(S(=O)(=O)[O-])ccc4F)c4nc(c(-c5cc(S(=O)(=O)[O-])ccc5F)c5ccc2[nH]5)C=C4)C=C3)cc1
REMARK SMILES IDX 25 1 24 2 1 3 2 4 3 6 4 7 19 8 23 9 20 10 22 11 21 12 5 13
REMARK SMILES IDX 6 14 7 15 8 16 9 18 10 19 18 20 11 21 17 22 12 23 16 24
REMARK SMILES IDX 13 25 15 26 14 27 26 28 27 29 28 30 29 31 30 33 31 34 32 35
REMARK SMILES IDX 93 36 33 37 92 38 34 39 35 40 36 41 86 42 37 43 91 44 85 45
REMARK SMILES IDX 87 46 38 47 90 48 84 49 83 50 39 52 71 53 51 54 70 55 52 56
REMARK SMILES IDX 55 57 69 58 88 59 53 60 54 61 68 63 89 64 56 65 40 66 41 67
REMARK SMILES IDX 49 68 42 69 48 70 50 71 47 72 43 73 44 74 45 75 46 76 72 77
REMARK SMILES IDX 73 78 81 79 74 80 80 81 82 82 79 83 75 84 76 85 77 86 78 87
REMARK SMILES IDX 57 88 58 89 66 90 59 91 65 92 67 93 64 94 60 95 61 96 62 97
REMARK SMILES IDX 63 98
REMARK H PARENT 24 5 8 17 28 32 87 51 55 62
REMARK Flexibility Score: inf
ROOT
ATOM      1  C   UNL A   1      35.774  23.316  23.193  1.00  0.00     0.117 C 
ENDROOT
BRANCH   1   2
ATOM      2  N   UNL A   1      34.478  23.645  23.756  1.00  0.00    -0.356 N 
ATOM      3  O   UNL A   1      33.747  24.884  21.961  1.00  0.00    -0.275 OA
ATOM      4  C   UNL A   1      33.547  24.396  23.070  1.00  0.00     0.220 C 
ATOM      5  H   UNL A   1      34.255  23.320  24.658  1.00  0.00     0.163 HD
BRANCH   4   6
ATOM      6  C   UNL A   1      32.208  24.556  23.784  1.00  0.00     0.107 C 
BRANCH   6   7
ATOM      7  C   UNL A   1      32.222  25.359  25.128  1.00  0.00    -0.012 C 
ATOM      8  C   UNL A   1      33.434  26.354  25.108  1.00  0.00     0.008 C 
ATOM      9  C   UNL A   1      31.033  26.308  25.267  1.00  0.00     0.008 C 
ATOM     10  C   UNL A   1      33.488  27.362  26.276  1.00  0.00     0.001 C 
ATOM     11  C   UNL A   1      31.006  27.058  26.596  1.00  0.00     0.001 C 
ATOM     12  C   UNL A   1      32.158  28.038  26.611  1.00  0.00     0.000 C 
BRANCH   7  13
ATOM     13  C   UNL A   1      32.339  24.354  26.321  1.00  0.00     0.108 C 
BRANCH  13  14
ATOM     14  C   UNL A   1      31.273  23.273  26.623  1.00  0.00     0.226 C 
ATOM     15  O   UNL A   1      30.319  23.578  27.353  1.00  0.00    -0.275 OA
ATOM     16  N   UNL A   1      31.166  22.097  25.939  1.00  0.00    -0.311 N 
ATOM     17  H   UNL A   1      30.239  21.824  25.752  1.00  0.00     0.171 HD
BRANCH  16  18
ATOM     18  C   UNL A   1      32.128  21.209  25.454  1.00  0.00     0.133 A 
ATOM     19  C   UNL A   1      33.347  21.126  26.101  1.00  0.00     0.048 A 
ATOM     20  N   UNL A   1      31.887  20.510  24.339  1.00  0.00    -0.231 NA
ATOM     21  C   UNL A   1      34.234  20.114  25.724  1.00  0.00     0.014 A 
ATOM     22  C   UNL A   1      32.721  19.502  23.983  1.00  0.00     0.073 A 
ATOM     23  C   UNL A   1      33.889  19.225  24.698  1.00  0.00     0.000 A 
ATOM     24  C   UNL A   1      32.358  18.625  22.959  1.00  0.00     0.029 A 
ATOM     25  C   UNL A   1      34.624  18.054  24.416  1.00  0.00     0.010 A 
ATOM     26  C   UNL A   1      33.044  17.437  22.712  1.00  0.00     0.002 A 
ATOM     27  C   UNL A   1      34.177  17.145  23.453  1.00  0.00     0.001 A 
ENDBRANCH  16  18
ENDBRANCH  13  14
ENDBRANCH   7  13
ENDBRANCH   6   7
ENDBRANCH   4   6
ENDBRANCH   1   2
BRANCH   1  28
ATOM     28  C   UNL A   1      36.406  22.064  23.786  1.00  0.00     0.042 C 
BRANCH  28  29
ATOM     29  C   UNL A   1      37.099  22.241  25.134  1.00  0.00     0.118 C 
BRANCH  29  30
ATOM     30  N   UNL A   1      38.090  21.218  25.442  1.00  0.00    -0.352 N 
ATOM     31  C   UNL A   1      39.295  21.319  26.099  1.00  0.00     0.251 C 
ATOM     32  H   UNL A   1      37.862  20.313  25.129  1.00  0.00     0.163 HD
ATOM     33  O   UNL A   1      40.028  20.333  26.186  1.00  0.00    -0.269 OA
BRANCH  31  34
ATOM     34  C   UNL A   1      39.734  22.611  26.677  1.00  0.00     0.039 A 
ATOM     35  C   UNL A   1      40.705  22.613  27.685  1.00  0.00     0.014 A 
ATOM     36  C   UNL A   1      39.200  23.823  26.233  1.00  0.00     0.014 A 
ATOM     37  C   UNL A   1      41.206  23.825  28.170  1.00  0.00     0.010 A 
ATOM     38  C   UNL A   1      39.757  25.029  26.658  1.00  0.00     0.010 A 
ATOM     39  C   UNL A   1      40.775  25.046  27.623  1.00  0.00    -0.014 A 
BRANCH  39  40
ATOM     40  C   UNL A   1      41.393  26.342  28.023  1.00  0.00     0.031 A 
ATOM     41  C   UNL A   1      40.570  27.399  28.713  1.00  0.00     0.074 A 
ATOM     42  C   UNL A   1      42.677  26.600  27.700  1.00  0.00     0.049 A 
ATOM     43  N   UNL A   1      40.902  28.618  29.052  1.00  0.00    -0.248 NA
ATOM     44  C   UNL A   1      39.181  27.043  29.037  1.00  0.00     0.031 C 
ATOM     45  C   UNL A   1      43.573  25.675  27.001  1.00  0.00     0.029 A 
ATOM     46  N   UNL A   1      43.452  27.716  27.904  1.00  0.00    -0.354 N 
ATOM     47  C   UNL A   1      39.763  29.181  29.618  1.00  0.00     0.074 A 
ATOM     48  C   UNL A   1      38.716  28.187  29.518  1.00  0.00     0.031 C 
ATOM     49  C   UNL A   1      44.777  26.251  26.857  1.00  0.00     0.029 A 
ATOM     50  C   UNL A   1      44.729  27.605  27.401  1.00  0.00     0.049 A 
ATOM     51  H   UNL A   1      43.125  28.521  28.367  1.00  0.00     0.167 HD
ATOM     52  C   UNL A   1      39.611  30.404  30.187  1.00  0.00     0.034 A 
ATOM     53  C   UNL A   1      45.742  28.495  27.361  1.00  0.00     0.034 A 
ATOM     54  C   UNL A   1      40.667  31.384  30.284  1.00  0.00     0.049 A 
ATOM     55  C   UNL A   1      45.536  29.864  27.961  1.00  0.00     0.074 A 
ATOM     56  C   UNL A   1      40.632  32.631  30.884  1.00  0.00     0.029 A 
ATOM     57  N   UNL A   1      41.944  31.237  29.757  1.00  0.00    -0.354 N 
ATOM     58  N   UNL A   1      44.465  30.363  28.535  1.00  0.00    -0.248 NA
ATOM     59  C   UNL A   1      46.678  30.787  27.917  1.00  0.00     0.031 C 
ATOM     60  C   UNL A   1      41.856  33.267  30.651  1.00  0.00     0.029 A 
ATOM     61  C   UNL A   1      42.691  32.383  29.987  1.00  0.00     0.049 A 
ATOM     62  H   UNL A   1      42.272  30.436  29.286  1.00  0.00     0.167 HD
ATOM     63  C   UNL A   1      44.820  31.642  28.955  1.00  0.00     0.074 A 
ATOM     64  C   UNL A   1      46.205  31.835  28.576  1.00  0.00     0.031 C 
ATOM     65  C   UNL A   1      44.071  32.570  29.603  1.00  0.00     0.034 A 
BRANCH  52  66
ATOM     66  C   UNL A   1      38.243  30.757  30.725  1.00  0.00     0.023 A 
ATOM     67  C   UNL A   1      37.278  31.400  29.929  1.00  0.00     0.031 A 
ATOM     68  C   UNL A   1      37.901  30.461  32.057  1.00  0.00     0.131 A 
ATOM     69  C   UNL A   1      36.055  31.795  30.491  1.00  0.00     0.055 A 
ATOM     70  C   UNL A   1      36.648  30.778  32.585  1.00  0.00     0.041 A 
ATOM     71  F   UNL A   1      38.786  29.868  32.874  1.00  0.00    -0.206 F 
ATOM     72  C   UNL A   1      35.722  31.463  31.806  1.00  0.00     0.022 A 
BRANCH  69  73
ATOM     73  S   UNL A   1      34.971  32.883  29.526  1.00  0.00     0.124 S 
ATOM     74  O   UNL A   1      34.178  33.518  30.578  1.00  0.00    -0.237 OA
ATOM     75  O   UNL A   1      35.922  33.747  28.837  1.00  0.00    -0.237 OA
ATOM     76  O   UNL A   1      34.230  31.959  28.671  1.00  0.00    -0.744 OA
ENDBRANCH  69  73
ENDBRANCH  52  66
BRANCH  53  77
ATOM     77  C   UNL A   1      47.042  28.136  26.720  1.00  0.00     0.023 A 
ATOM     78  C   UNL A   1      47.176  28.108  25.322  1.00  0.00     0.031 A 
ATOM     79  C   UNL A   1      48.155  27.766  27.495  1.00  0.00     0.131 A 
ATOM     80  C   UNL A   1      48.378  27.671  24.743  1.00  0.00     0.055 A 
ATOM     81  C   UNL A   1      49.368  27.391  26.914  1.00  0.00     0.041 A 
ATOM     82  F   UNL A   1      48.084  27.775  28.836  1.00  0.00    -0.206 F 
ATOM     83  C   UNL A   1      49.479  27.328  25.529  1.00  0.00     0.022 A 
BRANCH  80  84
ATOM     84  S   UNL A   1      48.447  27.461  22.942  1.00  0.00     0.124 S 
ATOM     85  O   UNL A   1      49.725  28.085  22.621  1.00  0.00    -0.237 OA
ATOM     86  O   UNL A   1      48.389  26.009  22.804  1.00  0.00    -0.237 OA
ATOM     87  O   UNL A   1      47.265  28.178  22.471  1.00  0.00    -0.744 OA
ENDBRANCH  80  84
ENDBRANCH  53  77
BRANCH  65  88
ATOM     88  C   UNL A   1      44.755  33.858  30.002  1.00  0.00     0.023 A 
ATOM     89  C   UNL A   1      44.758  34.992  29.172  1.00  0.00     0.031 A 
ATOM     90  C   UNL A   1      45.415  33.946  31.242  1.00  0.00     0.131 A 
ATOM     91  C   UNL A   1      45.453  36.145  29.568  1.00  0.00     0.055 A 
ATOM     92  C   UNL A   1      46.048  35.117  31.659  1.00  0.00     0.041 A 
ATOM     93  F   UNL A   1      45.449  32.893  32.075  1.00  0.00    -0.206 F 
ATOM     94  C   UNL A   1      46.081  36.222  30.814  1.00  0.00     0.022 A 
BRANCH  91  95
ATOM     95  S   UNL A   1      45.605  37.520  28.394  1.00  0.00     0.124 S 
ATOM     96  O   UNL A   1      45.109  36.920  27.159  1.00  0.00    -0.237 OA
ATOM     97  O   UNL A   1      44.752  38.541  28.994  1.00  0.00    -0.237 OA
ATOM     98  O   UNL A   1      47.035  37.825  28.404  1.00  0.00    -0.744 OA
ENDBRANCH  91  95
ENDBRANCH  65  88
ENDBRANCH  39  40
ENDBRANCH  31  34
ENDBRANCH  29  30
ENDBRANCH  28  29
ENDBRANCH   1  28
TORSDOF 17
ENDMDL
MODEL 2
REMARK VINA RESULT:     -13.1      4.298      7.229
REMARK SMILES O=C(CC1(CC(=O)Nc2ccc3ccccc3n2)CCCCC1)NCCCNC(=O)c1ccc(-c2c3nc(c(-c4cc(S(=O)(=O)[O-])ccc4F)c4ccc([nH]4)c(-c4cc(S(=O)(=O)[O-])ccc4F)c4nc(c(-c5cc(S(=O)(=O)[O-])ccc5F)c5ccc2[nH]5)C=C4)C=C3)cc1
REMARK SMILES IDX 25 1 24 2 1 3 2 4 3 6 4 7 19 8 23 9 20 10 22 11 21 12 5 13
REMARK SMILES IDX 6 14 7 15 8 16 9 18 10 19 18 20 11 21 17 22 12 23 16 24
REMARK SMILES IDX 13 25 15 26 14 27 26 28 27 29 28 30 29 31 30 33 31 34 32 35
REMARK SMILES IDX 93 36 33 37 92 38 34 39 35 40 36 41 86 42 37 43 91 44 85 45
REMARK SMILES IDX 87 46 38 47 90 48 84 49 83 50 39 52 71 53 51 54 70 55 52 56
REMARK SMILES IDX 55 57 69 58 88 59 53 60 54 61 68 63 89 64 56 65 40 66 41 67
REMARK SMILES IDX 49 68 42 69 48 70 50 71 47 72 43 73 44 74 45 75 46 76 72 77
REMARK SMILES IDX 73 78 81 79 74 80 80 81 82 82 79 83 75 84 76 85 77 86 78 87
REMARK SMILES IDX 57 88 58 89 66 90 59 91 65 92 67 93 64 94 60 95 61 96 62 97
REMARK SMILES IDX 63 98
REMARK H PARENT 24 5 8 17 28 32 87 51 55 62
REMARK Flexibility Score: inf
ROOT
ATOM      1  C   UNL A   1      31.620  28.157  27.383  1.00  0.00     0.117 C 
ENDROOT
BRANCH   1   2
ATOM      2  N   UNL A   1      31.194  26.949  26.701  1.00  0.00    -0.356 N 
ATOM      3  O   UNL A   1      30.778  27.955  24.674  1.00  0.00    -0.275 OA
ATOM      4  C   UNL A   1      30.823  26.945  25.373  1.00  0.00     0.220 C 
ATOM      5  H   UNL A   1      31.170  26.103  27.203  1.00  0.00     0.163 HD
BRANCH   4   6
ATOM      6  C   UNL A   1      30.499  25.567  24.806  1.00  0.00     0.107 C 
BRANCH   6   7
ATOM      7  C   UNL A   1      31.708  24.724  24.276  1.00  0.00    -0.012 C 
ATOM      8  C   UNL A   1      31.153  23.517  23.443  1.00  0.00     0.008 C 
ATOM      9  C   UNL A   1      32.544  25.472  23.238  1.00  0.00     0.008 C 
ATOM     10  C   UNL A   1      32.212  22.689  22.684  1.00  0.00     0.001 C 
ATOM     11  C   UNL A   1      33.756  24.681  22.752  1.00  0.00     0.001 C 
ATOM     12  C   UNL A   1      33.261  23.510  21.933  1.00  0.00     0.000 C 
BRANCH   7  13
ATOM     13  C   UNL A   1      32.555  24.226  25.493  1.00  0.00     0.108 C 
BRANCH  13  14
ATOM     14  C   UNL A   1      32.012  23.232  26.550  1.00  0.00     0.226 C 
ATOM     15  O   UNL A   1      31.464  23.693  27.562  1.00  0.00    -0.275 OA
ATOM     16  N   UNL A   1      31.857  21.894  26.328  1.00  0.00    -0.311 N 
ATOM     17  H   UNL A   1      31.032  21.517  26.711  1.00  0.00     0.171 HD
BRANCH  16  18
ATOM     18  C   UNL A   1      32.651  20.961  25.658  1.00  0.00     0.133 A 
ATOM     19  C   UNL A   1      33.990  21.244  25.459  1.00  0.00     0.048 A 
ATOM     20  N   UNL A   1      32.096  19.850  25.160  1.00  0.00    -0.231 NA
ATOM     21  C   UNL A   1      34.814  20.237  24.951  1.00  0.00     0.014 A 
ATOM     22  C   UNL A   1      32.887  18.852  24.697  1.00  0.00     0.073 A 
ATOM     23  C   UNL A   1      34.278  18.982  24.636  1.00  0.00     0.000 A 
ATOM     24  C   UNL A   1      32.334  17.608  24.391  1.00  0.00     0.029 A 
ATOM     25  C   UNL A   1      35.076  17.858  24.336  1.00  0.00     0.010 A 
ATOM     26  C   UNL A   1      33.115  16.479  24.151  1.00  0.00     0.002 A 
ATOM     27  C   UNL A   1      34.495  16.603  24.134  1.00  0.00     0.001 A 
ENDBRANCH  16  18
ENDBRANCH  13  14
ENDBRANCH   7  13
ENDBRANCH   6   7
ENDBRANCH   4   6
ENDBRANCH   1   2
BRANCH   1  28
ATOM     28  C   UNL A   1      33.119  28.417  27.300  1.00  0.00     0.042 C 
BRANCH  28  29
ATOM     29  C   UNL A   1      33.541  29.621  26.463  1.00  0.00     0.118 C 
BRANCH  29  30
ATOM     30  N   UNL A   1      33.526  30.889  27.180  1.00  0.00    -0.352 N 
ATOM     31  C   UNL A   1      34.414  31.399  28.100  1.00  0.00     0.251 C 
ATOM     32  H   UNL A   1      32.760  31.472  26.975  1.00  0.00     0.163 HD
ATOM     33  O   UNL A   1      34.172  32.472  28.653  1.00  0.00    -0.269 OA
BRANCH  31  34
ATOM     34  C   UNL A   1      35.646  30.653  28.454  1.00  0.00     0.039 A 
ATOM     35  C   UNL A   1      36.790  30.813  27.666  1.00  0.00     0.014 A 
ATOM     36  C   UNL A   1      35.683  29.800  29.560  1.00  0.00     0.014 A 
ATOM     37  C   UNL A   1      37.989  30.198  28.043  1.00  0.00     0.010 A 
ATOM     38  C   UNL A   1      36.896  29.256  29.980  1.00  0.00     0.010 A 
ATOM     39  C   UNL A   1      38.068  29.457  29.234  1.00  0.00    -0.014 A 
BRANCH  39  40
ATOM     40  C   UNL A   1      39.363  28.911  29.729  1.00  0.00     0.031 A 
ATOM     41  C   UNL A   1      40.113  29.609  30.833  1.00  0.00     0.074 A 
ATOM     42  C   UNL A   1      39.903  27.826  29.136  1.00  0.00     0.049 A 
ATOM     43  N   UNL A   1      41.293  29.341  31.332  1.00  0.00    -0.248 NA
ATOM     44  C   UNL A   1      39.460  30.781  31.434  1.00  0.00     0.031 C 
ATOM     45  C   UNL A   1      39.296  27.078  28.032  1.00  0.00     0.029 A 
ATOM     46  N   UNL A   1      41.087  27.169  29.365  1.00  0.00    -0.354 N 
ATOM     47  C   UNL A   1      41.531  30.316  32.296  1.00  0.00     0.074 A 
ATOM     48  C   UNL A   1      40.396  31.215  32.265  1.00  0.00     0.031 C 
ATOM     49  C   UNL A   1      40.096  26.054  27.700  1.00  0.00     0.029 A 
ATOM     50  C   UNL A   1      41.301  26.101  28.523  1.00  0.00     0.049 A 
ATOM     51  H   UNL A   1      41.725  27.436  30.066  1.00  0.00     0.167 HD
ATOM     52  C   UNL A   1      42.585  30.437  33.142  1.00  0.00     0.034 A 
ATOM     53  C   UNL A   1      42.353  25.264  28.409  1.00  0.00     0.034 A 
ATOM     54  C   UNL A   1      43.708  29.529  33.164  1.00  0.00     0.049 A 
ATOM     55  C   UNL A   1      43.534  25.444  29.331  1.00  0.00     0.074 A 
ATOM     56  C   UNL A   1      44.801  29.534  34.013  1.00  0.00     0.029 A 
ATOM     57  N   UNL A   1      43.891  28.464  32.291  1.00  0.00    -0.354 N 
ATOM     58  N   UNL A   1      43.720  26.344  30.270  1.00  0.00    -0.248 NA
ATOM     59  C   UNL A   1      44.642  24.491  29.185  1.00  0.00     0.031 C 
ATOM     60  C   UNL A   1      45.680  28.525  33.604  1.00  0.00     0.029 A 
ATOM     61  C   UNL A   1      45.095  27.829  32.559  1.00  0.00     0.049 A 
ATOM     62  H   UNL A   1      43.259  28.198  31.584  1.00  0.00     0.167 HD
ATOM     63  C   UNL A   1      44.948  26.037  30.851  1.00  0.00     0.074 A 
ATOM     64  C   UNL A   1      45.453  24.867  30.164  1.00  0.00     0.031 C 
ATOM     65  C   UNL A   1      45.595  26.663  31.867  1.00  0.00     0.034 A 
BRANCH  52  66
ATOM     66  C   UNL A   1      42.583  31.611  34.095  1.00  0.00     0.023 A 
ATOM     67  C   UNL A   1      41.909  31.562  35.328  1.00  0.00     0.031 A 
ATOM     68  C   UNL A   1      43.251  32.803  33.759  1.00  0.00     0.131 A 
ATOM     69  C   UNL A   1      41.851  32.704  36.142  1.00  0.00     0.055 A 
ATOM     70  C   UNL A   1      43.263  33.906  34.615  1.00  0.00     0.041 A 
ATOM     71  F   UNL A   1      43.893  32.920  32.587  1.00  0.00    -0.206 F 
ATOM     72  C   UNL A   1      42.548  33.867  35.807  1.00  0.00     0.022 A 
BRANCH  69  73
ATOM     73  S   UNL A   1      40.727  32.696  37.565  1.00  0.00     0.124 S 
ATOM     74  O   UNL A   1      40.427  34.119  37.712  1.00  0.00    -0.237 OA
ATOM     75  O   UNL A   1      39.629  31.859  37.096  1.00  0.00    -0.237 OA
ATOM     76  O   UNL A   1      41.536  32.124  38.639  1.00  0.00    -0.744 OA
ENDBRANCH  69  73
ENDBRANCH  52  66
BRANCH  53  77
ATOM     77  C   UNL A   1      42.355  24.185  27.376  1.00  0.00     0.023 A 
ATOM     78  C   UNL A   1      41.765  22.937  27.631  1.00  0.00     0.031 A 
ATOM     79  C   UNL A   1      42.992  24.371  26.136  1.00  0.00     0.131 A 
ATOM     80  C   UNL A   1      41.868  21.907  26.683  1.00  0.00     0.055 A 
ATOM     81  C   UNL A   1      43.037  23.363  25.171  1.00  0.00     0.041 A 
ATOM     82  F   UNL A   1      43.572  25.544  25.837  1.00  0.00    -0.206 F 
ATOM     83  C   UNL A   1      42.485  22.116  25.449  1.00  0.00     0.022 A 
BRANCH  80  84
ATOM     84  S   UNL A   1      41.267  20.254  27.129  1.00  0.00     0.124 S 
ATOM     85  O   UNL A   1      42.488  19.462  27.043  1.00  0.00    -0.237 OA
ATOM     86  O   UNL A   1      40.738  20.475  28.471  1.00  0.00    -0.237 OA
ATOM     87  O   UNL A   1      40.264  19.970  26.105  1.00  0.00    -0.744 OA
ENDBRANCH  80  84
ENDBRANCH  53  77
BRANCH  65  88
ATOM     88  C   UNL A   1      46.894  26.053  32.343  1.00  0.00     0.023 A 
ATOM     89  C   UNL A   1      48.130  26.377  31.757  1.00  0.00     0.031 A 
ATOM     90  C   UNL A   1      46.887  25.130  33.404  1.00  0.00     0.131 A 
ATOM     91  C   UNL A   1      49.300  25.742  32.202  1.00  0.00     0.055 A 
ATOM     92  C   UNL A   1      48.062  24.552  33.886  1.00  0.00     0.041 A 
ATOM     93  F   UNL A   1      45.736  24.779  33.999  1.00  0.00    -0.206 F 
ATOM     94  C   UNL A   1      49.278  24.847  33.274  1.00  0.00     0.022 A 
BRANCH  91  95
ATOM     95  S   UNL A   1      50.847  26.031  31.299  1.00  0.00     0.124 S 
ATOM     96  O   UNL A   1      50.603  25.326  30.045  1.00  0.00    -0.237 OA
ATOM     97  O   UNL A   1      50.893  27.487  31.213  1.00  0.00    -0.237 OA
ATOM     98  O   UNL A   1      51.865  25.430  32.159  1.00  0.00    -0.744 OA
ENDBRANCH  91  95
ENDBRANCH  65  88
ENDBRANCH  39  40
ENDBRANCH  31  34
ENDBRANCH  29  30
ENDBRANCH  28  29
ENDBRANCH   1  28
TORSDOF 17
ENDMDL
MODEL 3
REMARK VINA RESULT:     -13.0      5.542     10.008
REMARK SMILES O=C(CC1(CC(=O)Nc2ccc3ccccc3n2)CCCCC1)NCCCNC(=O)c1ccc(-c2c3nc(c(-c4cc(S(=O)(=O)[O-])ccc4F)c4ccc([nH]4)c(-c4cc(S(=O)(=O)[O-])ccc4F)c4nc(c(-c5cc(S(=O)(=O)[O-])ccc5F)c5ccc2[nH]5)C=C4)C=C3)cc1
REMARK SMILES IDX 25 1 24 2 1 3 2 4 3 6 4 7 19 8 23 9 20 10 22 11 21 12 5 13
REMARK SMILES IDX 6 14 7 15 8 16 9 18 10 19 18 20 11 21 17 22 12 23 16 24
REMARK SMILES IDX 13 25 15 26 14 27 26 28 27 29 28 30 29 31 30 33 31 34 32 35
REMARK SMILES IDX 93 36 33 37 92 38 34 39 35 40 36 41 86 42 37 43 91 44 85 45
REMARK SMILES IDX 87 46 38 47 90 48 84 49 83 50 39 52 71 53 51 54 70 55 52 56
REMARK SMILES IDX 55 57 69 58 88 59 53 60 54 61 68 63 89 64 56 65 40 66 41 67
REMARK SMILES IDX 49 68 42 69 48 70 50 71 47 72 43 73 44 74 45 75 46 76 72 77
REMARK SMILES IDX 73 78 81 79 74 80 80 81 82 82 79 83 75 84 76 85 77 86 78 87
REMARK SMILES IDX 57 88 58 89 66 90 59 91 65 92 67 93 64 94 60 95 61 96 62 97
REMARK SMILES IDX 63 98
REMARK H PARENT 24 5 8 17 28 32 87 51 55 62
REMARK Flexibility Score: inf
ROOT
ATOM      1  C   UNL A   1      32.255  29.748  27.145  1.00  0.00     0.117 C 
ENDROOT
BRANCH   1   2
ATOM      2  N   UNL A   1      31.824  28.787  26.148  1.00  0.00    -0.356 N 
ATOM      3  O   UNL A   1      31.243  27.137  27.642  1.00  0.00    -0.275 OA
ATOM      4  C   UNL A   1      31.323  27.547  26.487  1.00  0.00     0.220 C 
ATOM      5  H   UNL A   1      31.890  29.028  25.196  1.00  0.00     0.163 HD
BRANCH   4   6
ATOM      6  C   UNL A   1      30.833  26.713  25.308  1.00  0.00     0.107 C 
BRANCH   6   7
ATOM      7  C   UNL A   1      31.805  25.603  24.782  1.00  0.00    -0.012 C 
ATOM      8  C   UNL A   1      31.100  24.829  23.615  1.00  0.00     0.008 C 
ATOM      9  C   UNL A   1      33.040  26.173  24.088  1.00  0.00     0.008 C 
ATOM     10  C   UNL A   1      31.988  23.824  22.851  1.00  0.00     0.001 C 
ATOM     11  C   UNL A   1      34.021  25.102  23.618  1.00  0.00     0.001 C 
ATOM     12  C   UNL A   1      33.379  24.338  22.481  1.00  0.00     0.000 C 
BRANCH   7  13
ATOM     13  C   UNL A   1      32.161  24.638  25.961  1.00  0.00     0.108 C 
BRANCH  13  14
ATOM     14  C   UNL A   1      31.213  23.516  26.451  1.00  0.00     0.226 C 
ATOM     15  O   UNL A   1      30.293  23.821  27.224  1.00  0.00    -0.275 OA
ATOM     16  N   UNL A   1      31.155  22.272  25.894  1.00  0.00    -0.311 N 
ATOM     17  H   UNL A   1      30.242  21.912  25.810  1.00  0.00     0.171 HD
BRANCH  16  18
ATOM     18  C   UNL A   1      32.149  21.413  25.420  1.00  0.00     0.133 A 
ATOM     19  C   UNL A   1      33.453  21.606  25.839  1.00  0.00     0.048 A 
ATOM     20  N   UNL A   1      31.843  20.472  24.520  1.00  0.00    -0.231 NA
ATOM     21  C   UNL A   1      34.408  20.642  25.506  1.00  0.00     0.014 A 
ATOM     22  C   UNL A   1      32.749  19.511  24.216  1.00  0.00     0.073 A 
ATOM     23  C   UNL A   1      34.042  19.523  24.747  1.00  0.00     0.000 A 
ATOM     24  C   UNL A   1      32.364  18.402  23.460  1.00  0.00     0.029 A 
ATOM     25  C   UNL A   1      34.887  18.408  24.564  1.00  0.00     0.010 A 
ATOM     26  C   UNL A   1      33.169  17.273  23.323  1.00  0.00     0.002 A 
ATOM     27  C   UNL A   1      34.433  17.272  23.888  1.00  0.00     0.001 A 
ENDBRANCH  16  18
ENDBRANCH  13  14
ENDBRANCH   7  13
ENDBRANCH   6   7
ENDBRANCH   4   6
ENDBRANCH   1   2
BRANCH   1  28
ATOM     28  C   UNL A   1      31.985  31.197  26.764  1.00  0.00     0.042 C 
BRANCH  28  29
ATOM     29  C   UNL A   1      33.111  32.185  27.060  1.00  0.00     0.118 C 
BRANCH  29  30
ATOM     30  N   UNL A   1      32.659  33.518  27.435  1.00  0.00    -0.352 N 
ATOM     31  C   UNL A   1      33.117  34.366  28.418  1.00  0.00     0.251 C 
ATOM     32  H   UNL A   1      31.908  33.866  26.903  1.00  0.00     0.163 HD
ATOM     33  O   UNL A   1      32.537  35.433  28.623  1.00  0.00    -0.269 OA
BRANCH  31  34
ATOM     34  C   UNL A   1      34.285  33.994  29.253  1.00  0.00     0.039 A 
ATOM     35  C   UNL A   1      34.088  33.187  30.378  1.00  0.00     0.014 A 
ATOM     36  C   UNL A   1      35.572  34.433  28.935  1.00  0.00     0.014 A 
ATOM     37  C   UNL A   1      35.188  32.742  31.119  1.00  0.00     0.010 A 
ATOM     38  C   UNL A   1      36.672  33.923  29.623  1.00  0.00     0.010 A 
ATOM     39  C   UNL A   1      36.496  33.062  30.717  1.00  0.00    -0.014 A 
BRANCH  39  40
ATOM     40  C   UNL A   1      37.687  32.487  31.405  1.00  0.00     0.031 A 
ATOM     41  C   UNL A   1      38.440  31.335  30.792  1.00  0.00     0.074 A 
ATOM     42  C   UNL A   1      38.047  32.951  32.619  1.00  0.00     0.049 A 
ATOM     43  N   UNL A   1      39.438  30.643  31.280  1.00  0.00    -0.248 NA
ATOM     44  C   UNL A   1      37.992  30.888  29.465  1.00  0.00     0.031 C 
ATOM     45  C   UNL A   1      37.379  34.038  33.340  1.00  0.00     0.029 A 
ATOM     46  N   UNL A   1      39.054  32.564  33.470  1.00  0.00    -0.354 N 
ATOM     47  C   UNL A   1      39.730  29.671  30.329  1.00  0.00     0.074 A 
ATOM     48  C   UNL A   1      38.761  29.828  29.265  1.00  0.00     0.031 C 
ATOM     49  C   UNL A   1      38.008  34.245  34.507  1.00  0.00     0.029 A 
ATOM     50  C   UNL A   1      39.088  33.274  34.649  1.00  0.00     0.049 A 
ATOM     51  H   UNL A   1      39.693  31.846  33.256  1.00  0.00     0.167 HD
ATOM     52  C   UNL A   1      40.726  28.748  30.334  1.00  0.00     0.034 A 
ATOM     53  C   UNL A   1      39.883  33.148  35.732  1.00  0.00     0.034 A 
ATOM     54  C   UNL A   1      41.687  28.607  31.401  1.00  0.00     0.049 A 
ATOM     55  C   UNL A   1      40.955  32.086  35.733  1.00  0.00     0.074 A 
ATOM     56  C   UNL A   1      42.763  27.739  31.480  1.00  0.00     0.029 A 
ATOM     57  N   UNL A   1      41.684  29.340  32.581  1.00  0.00    -0.354 N 
ATOM     58  N   UNL A   1      41.247  31.205  34.803  1.00  0.00    -0.248 NA
ATOM     59  C   UNL A   1      41.811  32.008  36.924  1.00  0.00     0.031 C 
ATOM     60  C   UNL A   1      43.359  27.892  32.737  1.00  0.00     0.029 A 
ATOM     61  C   UNL A   1      42.716  28.919  33.407  1.00  0.00     0.049 A 
ATOM     62  H   UNL A   1      41.042  30.054  32.801  1.00  0.00     0.167 HD
ATOM     63  C   UNL A   1      42.346  30.497  35.283  1.00  0.00     0.074 A 
ATOM     64  C   UNL A   1      42.668  31.058  36.579  1.00  0.00     0.031 C 
ATOM     65  C   UNL A   1      43.031  29.481  34.701  1.00  0.00     0.034 A 
BRANCH  52  66
ATOM     66  C   UNL A   1      40.804  27.803  29.156  1.00  0.00     0.023 A 
ATOM     67  C   UNL A   1      41.727  27.995  28.113  1.00  0.00     0.031 A 
ATOM     68  C   UNL A   1      39.934  26.701  29.067  1.00  0.00     0.131 A 
ATOM     69  C   UNL A   1      41.705  27.150  26.992  1.00  0.00     0.055 A 
ATOM     70  C   UNL A   1      39.978  25.812  27.990  1.00  0.00     0.041 A 
ATOM     71  F   UNL A   1      39.016  26.476  30.019  1.00  0.00    -0.206 F 
ATOM     72  C   UNL A   1      40.856  26.043  26.938  1.00  0.00     0.022 A 
BRANCH  69  73
ATOM     73  S   UNL A   1      42.694  27.610  25.543  1.00  0.00     0.124 S 
ATOM     74  O   UNL A   1      44.021  27.781  26.133  1.00  0.00    -0.237 OA
ATOM     75  O   UNL A   1      42.529  26.456  24.668  1.00  0.00    -0.237 OA
ATOM     76  O   UNL A   1      42.066  28.844  25.077  1.00  0.00    -0.744 OA
ENDBRANCH  69  73
ENDBRANCH  52  66
BRANCH  53  77
ATOM     77  C   UNL A   1      39.694  34.036  36.918  1.00  0.00     0.023 A 
ATOM     78  C   UNL A   1      39.127  33.547  38.106  1.00  0.00     0.031 A 
ATOM     79  C   UNL A   1      40.032  35.400  36.864  1.00  0.00     0.131 A 
ATOM     80  C   UNL A   1      38.867  34.423  39.172  1.00  0.00     0.055 A 
ATOM     81  C   UNL A   1      39.829  36.254  37.949  1.00  0.00     0.041 A 
ATOM     82  F   UNL A   1      40.578  35.922  35.754  1.00  0.00    -0.206 F 
ATOM     83  C   UNL A   1      39.230  35.770  39.107  1.00  0.00     0.022 A 
BRANCH  80  84
ATOM     84  S   UNL A   1      37.957  33.796  40.609  1.00  0.00     0.124 S 
ATOM     85  O   UNL A   1      36.869  33.062  39.973  1.00  0.00    -0.237 OA
ATOM     86  O   UNL A   1      38.970  32.989  41.282  1.00  0.00    -0.237 OA
ATOM     87  O   UNL A   1      37.560  35.011  41.317  1.00  0.00    -0.744 OA
ENDBRANCH  80  84
ENDBRANCH  53  77
BRANCH  65  88
ATOM     88  C   UNL A   1      44.242  28.950  35.434  1.00  0.00     0.023 A 
ATOM     89  C   UNL A   1      44.149  27.918  36.383  1.00  0.00     0.031 A 
ATOM     90  C   UNL A   1      45.513  29.493  35.172  1.00  0.00     0.131 A 
ATOM     91  C   UNL A   1      45.297  27.499  37.074  1.00  0.00     0.055 A 
ATOM     92  C   UNL A   1      46.661  29.027  35.813  1.00  0.00     0.041 A 
ATOM     93  F   UNL A   1      45.663  30.485  34.278  1.00  0.00    -0.206 F 
ATOM     94  C   UNL A   1      46.554  28.032  36.781  1.00  0.00     0.022 A 
BRANCH  91  95
ATOM     95  S   UNL A   1      45.114  26.308  38.429  1.00  0.00     0.124 S 
ATOM     96  O   UNL A   1      43.723  26.507  38.823  1.00  0.00    -0.237 OA
ATOM     97  O   UNL A   1      45.415  25.039  37.774  1.00  0.00    -0.237 OA
ATOM     98  O   UNL A   1      46.105  26.747  39.410  1.00  0.00    -0.744 OA
ENDBRANCH  91  95
ENDBRANCH  65  88
ENDBRANCH  39  40
ENDBRANCH  31  34
ENDBRANCH  29  30
ENDBRANCH  28  29
ENDBRANCH   1  28
TORSDOF 17
ENDMDL
