MODEL 1
REMARK VINA RESULT:     -12.2      0.000      0.000
REMARK SMILES CCC(=O)N1[C@H](C(=O)NCCCNC(=O)c2ccc(-c3c4nc(c(-c5cc(S(=O)(=O)[O-])ccc5F)c5ccc([nH]5)c(-c5cc(S(=O)(=O)[O-])ccc5F)c5nc(c(-c6cc(S(=O)(=O)[O-])ccc6F)c6ccc3[nH]6)C=C5)C=C4)cc2)Cc2c([nH]c3ccccc23)[C@@H]1CC(C)C
REMARK SMILES IDX 11 1 10 2 9 3 7 4 8 5 6 7 5 8 89 9 79 10 81 11 80 12 82 13
REMARK SMILES IDX 88 14 83 15 87 17 84 18 86 19 85 20 3 21 4 22 2 23 1 24
REMARK SMILES IDX 90 25 91 26 92 27 93 28 12 29 13 30 14 31 15 33 16 34 17 35
REMARK SMILES IDX 78 36 18 37 77 38 19 39 20 40 21 41 71 42 22 43 76 44 70 45
REMARK SMILES IDX 72 46 23 47 75 48 69 49 68 50 24 52 56 53 36 54 55 55 37 56
REMARK SMILES IDX 40 57 54 58 73 59 38 60 39 61 53 63 74 64 41 65 25 66 26 67
REMARK SMILES IDX 34 68 27 69 33 70 35 71 32 72 28 73 29 74 30 75 31 76 57 77
REMARK SMILES IDX 58 78 66 79 59 80 65 81 67 82 64 83 60 84 61 85 62 86 63 87
REMARK SMILES IDX 42 88 43 89 51 90 44 91 50 92 52 93 49 94 45 95 46 96 47 97
REMARK SMILES IDX 48 98
REMARK H PARENT 9 6 82 16 13 32 72 51 40 62
REMARK Flexibility Score: inf
ROOT
ATOM      1  C   UNL A   1      31.646  28.247  27.642  1.00  0.00     0.042 C 
ENDROOT
BRANCH   1   2
ATOM      2  C   UNL A   1      31.169  26.991  26.845  1.00  0.00     0.117 C 
BRANCH   2   3
ATOM      3  N   UNL A   1      31.812  25.638  26.737  1.00  0.00    -0.354 N 
ATOM      4  C   UNL A   1      32.888  24.866  26.432  1.00  0.00     0.243 C 
ATOM      5  O   UNL A   1      32.719  23.661  26.707  1.00  0.00    -0.273 OA
ATOM      6  H   UNL A   1      31.117  25.004  27.028  1.00  0.00     0.163 HD
BRANCH   4   7
ATOM      7  C   UNL A   1      34.261  25.213  25.813  1.00  0.00     0.179 C 
ATOM      8  N   UNL A   1      34.773  24.247  24.818  1.00  0.00    -0.322 N 
ATOM      9  C   UNL A   1      33.949  24.072  23.638  1.00  0.00     0.133 C 
ATOM     10  C   UNL A   1      34.252  26.657  25.297  1.00  0.00     0.073 C 
ATOM     11  C   UNL A   1      33.454  25.490  23.240  1.00  0.00     0.042 A 
ATOM     12  C   UNL A   1      33.552  26.657  24.000  1.00  0.00    -0.015 A 
ATOM     13  N   UNL A   1      32.898  25.924  22.043  1.00  0.00    -0.356 N 
ATOM     14  C   UNL A   1      32.572  27.570  23.527  1.00  0.00     0.003 A 
ATOM     15  C   UNL A   1      32.112  27.046  22.320  1.00  0.00     0.046 A 
ATOM     16  H   UNL A   1      33.034  25.514  21.159  1.00  0.00     0.166 HD
ATOM     17  C   UNL A   1      31.866  28.626  24.149  1.00  0.00     0.010 A 
ATOM     18  C   UNL A   1      30.947  27.528  21.702  1.00  0.00     0.026 A 
ATOM     19  C   UNL A   1      30.621  28.992  23.626  1.00  0.00     0.001 A 
ATOM     20  C   UNL A   1      30.168  28.445  22.427  1.00  0.00     0.002 A 
BRANCH   8  21
ATOM     21  C   UNL A   1      36.079  23.789  24.740  1.00  0.00     0.223 C 
ATOM     22  O   UNL A   1      36.565  23.361  23.689  1.00  0.00    -0.275 OA
BRANCH  21  23
ATOM     23  C   UNL A   1      36.819  23.546  26.042  1.00  0.00     0.097 C 
ATOM     24  C   UNL A   1      38.242  24.038  26.135  1.00  0.00     0.014 C 
ENDBRANCH  21  23
ENDBRANCH   8  21
BRANCH   9  25
ATOM     25  C   UNL A   1      33.068  22.725  23.826  1.00  0.00     0.034 C 
BRANCH  25  26
ATOM     26  C   UNL A   1      33.385  21.146  24.155  1.00  0.00    -0.015 C 
ATOM     27  C   UNL A   1      34.548  20.482  24.957  1.00  0.00     0.007 C 
ATOM     28  C   UNL A   1      32.139  20.660  24.953  1.00  0.00     0.007 C 
ENDBRANCH  25  26
ENDBRANCH   9  25
ENDBRANCH   4   7
ENDBRANCH   2   3
ENDBRANCH   1   2
BRANCH   1  29
ATOM     29  C   UNL A   1      33.007  28.938  27.568  1.00  0.00     0.118 C 
BRANCH  29  30
ATOM     30  N   UNL A   1      32.908  30.358  27.371  1.00  0.00    -0.352 N 
ATOM     31  C   UNL A   1      33.838  31.311  27.715  1.00  0.00     0.251 C 
ATOM     32  H   UNL A   1      32.084  30.685  26.942  1.00  0.00     0.163 HD
ATOM     33  O   UNL A   1      33.511  32.484  27.755  1.00  0.00    -0.269 OA
BRANCH  31  34
ATOM     34  C   UNL A   1      35.213  30.892  28.083  1.00  0.00     0.039 A 
ATOM     35  C   UNL A   1      35.423  29.564  28.456  1.00  0.00     0.014 A 
ATOM     36  C   UNL A   1      36.268  31.808  28.121  1.00  0.00     0.014 A 
ATOM     37  C   UNL A   1      36.688  29.158  28.881  1.00  0.00     0.010 A 
ATOM     38  C   UNL A   1      37.549  31.384  28.487  1.00  0.00     0.010 A 
ATOM     39  C   UNL A   1      37.765  30.062  28.905  1.00  0.00    -0.014 A 
BRANCH  39  40
ATOM     40  C   UNL A   1      39.077  29.620  29.458  1.00  0.00     0.031 A 
ATOM     41  C   UNL A   1      39.534  30.126  30.804  1.00  0.00     0.074 A 
ATOM     42  C   UNL A   1      39.809  28.709  28.787  1.00  0.00     0.049 A 
ATOM     43  N   UNL A   1      40.571  29.765  31.516  1.00  0.00    -0.248 NA
ATOM     44  C   UNL A   1      38.729  31.189  31.424  1.00  0.00     0.031 C 
ATOM     45  C   UNL A   1      39.476  28.173  27.465  1.00  0.00     0.029 A 
ATOM     46  N   UNL A   1      40.958  28.042  29.133  1.00  0.00    -0.354 N 
ATOM     47  C   UNL A   1      40.528  30.538  32.673  1.00  0.00     0.074 A 
ATOM     48  C   UNL A   1      39.418  31.454  32.523  1.00  0.00     0.031 C 
ATOM     49  C   UNL A   1      40.359  27.213  27.144  1.00  0.00     0.029 A 
ATOM     50  C   UNL A   1      41.343  27.090  28.214  1.00  0.00     0.049 A 
ATOM     51  H   UNL A   1      41.460  28.227  29.959  1.00  0.00     0.167 HD
ATOM     52  C   UNL A   1      41.310  30.463  33.778  1.00  0.00     0.034 A 
ATOM     53  C   UNL A   1      42.364  26.208  28.243  1.00  0.00     0.034 A 
ATOM     54  C   UNL A   1      42.416  29.548  33.909  1.00  0.00     0.049 A 
ATOM     55  C   UNL A   1      43.251  26.183  29.467  1.00  0.00     0.074 A 
ATOM     56  C   UNL A   1      43.285  29.385  34.974  1.00  0.00     0.029 A 
ATOM     57  N   UNL A   1      42.805  28.633  32.938  1.00  0.00    -0.354 N 
ATOM     58  N   UNL A   1      43.166  26.896  30.567  1.00  0.00    -0.248 NA
ATOM     59  C   UNL A   1      44.355  25.218  29.459  1.00  0.00     0.031 C 
ATOM     60  C   UNL A   1      44.237  28.422  34.620  1.00  0.00     0.029 A 
ATOM     61  C   UNL A   1      43.911  27.921  33.370  1.00  0.00     0.049 A 
ATOM     62  H   UNL A   1      42.359  28.511  32.069  1.00  0.00     0.167 HD
ATOM     63  C   UNL A   1      44.184  26.433  31.397  1.00  0.00     0.074 A 
ATOM     64  C   UNL A   1      44.840  25.358  30.681  1.00  0.00     0.031 C 
ATOM     65  C   UNL A   1      44.552  26.855  32.636  1.00  0.00     0.034 A 
BRANCH  52  66
ATOM     66  C   UNL A   1      40.995  31.407  34.918  1.00  0.00     0.023 A 
ATOM     67  C   UNL A   1      39.888  31.194  35.760  1.00  0.00     0.031 A 
ATOM     68  C   UNL A   1      41.785  32.545  35.150  1.00  0.00     0.131 A 
ATOM     69  C   UNL A   1      39.558  32.143  36.740  1.00  0.00     0.055 A 
ATOM     70  C   UNL A   1      41.501  33.441  36.185  1.00  0.00     0.041 A 
ATOM     71  F   UNL A   1      42.841  32.817  34.367  1.00  0.00    -0.206 F 
ATOM     72  C   UNL A   1      40.374  33.251  36.977  1.00  0.00     0.022 A 
BRANCH  69  73
ATOM     73  S   UNL A   1      37.967  31.985  37.598  1.00  0.00     0.124 S 
ATOM     74  O   UNL A   1      37.645  30.579  37.363  1.00  0.00    -0.237 OA
ATOM     75  O   UNL A   1      38.310  32.342  38.970  1.00  0.00    -0.237 OA
ATOM     76  O   UNL A   1      37.106  32.939  36.902  1.00  0.00    -0.744 OA
ENDBRANCH  69  73
ENDBRANCH  52  66
BRANCH  53  77
ATOM     77  C   UNL A   1      42.612  25.270  27.105  1.00  0.00     0.023 A 
ATOM     78  C   UNL A   1      42.078  23.970  27.103  1.00  0.00     0.031 A 
ATOM     79  C   UNL A   1      43.466  25.625  26.045  1.00  0.00     0.131 A 
ATOM     80  C   UNL A   1      42.465  23.052  26.113  1.00  0.00     0.055 A 
ATOM     81  C   UNL A   1      43.789  24.732  25.021  1.00  0.00     0.041 A 
ATOM     82  F   UNL A   1      44.009  26.853  25.990  1.00  0.00    -0.206 F 
ATOM     83  C   UNL A   1      43.305  23.428  25.064  1.00  0.00     0.022 A 
BRANCH  80  84
ATOM     84  S   UNL A   1      41.968  21.315  26.298  1.00  0.00     0.124 S 
ATOM     85  O   UNL A   1      40.556  21.373  25.943  1.00  0.00    -0.237 OA
ATOM     86  O   UNL A   1      42.845  20.648  25.342  1.00  0.00    -0.237 OA
ATOM     87  O   UNL A   1      42.249  21.030  27.704  1.00  0.00    -0.744 OA
ENDBRANCH  80  84
ENDBRANCH  53  77
BRANCH  65  88
ATOM     88  C   UNL A   1      45.687  26.109  33.298  1.00  0.00     0.023 A 
ATOM     89  C   UNL A   1      47.030  26.395  33.002  1.00  0.00     0.031 A 
ATOM     90  C   UNL A   1      45.418  25.062  34.198  1.00  0.00     0.131 A 
ATOM     91  C   UNL A   1      48.048  25.583  33.521  1.00  0.00     0.055 A 
ATOM     92  C   UNL A   1      46.441  24.312  34.780  1.00  0.00     0.041 A 
ATOM     93  F   UNL A   1      44.154  24.742  34.519  1.00  0.00    -0.206 F 
ATOM     94  C   UNL A   1      47.764  24.556  34.424  1.00  0.00     0.022 A 
BRANCH  91  95
ATOM     95  S   UNL A   1      49.730  25.788  32.874  1.00  0.00     0.124 S 
ATOM     96  O   UNL A   1      50.299  26.749  33.814  1.00  0.00    -0.237 OA
ATOM     97  O   UNL A   1      50.262  24.432  32.952  1.00  0.00    -0.237 OA
ATOM     98  O   UNL A   1      49.517  26.295  31.520  1.00  0.00    -0.744 OA
ENDBRANCH  91  95
ENDBRANCH  65  88
ENDBRANCH  39  40
ENDBRANCH  31  34
ENDBRANCH  29  30
ENDBRANCH   1  29
TORSDOF 17
ENDMDL
MODEL 2
REMARK VINA RESULT:     -12.2      5.165      8.418
REMARK SMILES CCC(=O)N1[C@H](C(=O)NCCCNC(=O)c2ccc(-c3c4nc(c(-c5cc(S(=O)(=O)[O-])ccc5F)c5ccc([nH]5)c(-c5cc(S(=O)(=O)[O-])ccc5F)c5nc(c(-c6cc(S(=O)(=O)[O-])ccc6F)c6ccc3[nH]6)C=C5)C=C4)cc2)Cc2c([nH]c3ccccc23)[C@@H]1CC(C)C
REMARK SMILES IDX 11 1 10 2 9 3 7 4 8 5 6 7 5 8 89 9 79 10 81 11 80 12 82 13
REMARK SMILES IDX 88 14 83 15 87 17 84 18 86 19 85 20 3 21 4 22 2 23 1 24
REMARK SMILES IDX 90 25 91 26 92 27 93 28 12 29 13 30 14 31 15 33 16 34 17 35
REMARK SMILES IDX 78 36 18 37 77 38 19 39 20 40 21 41 71 42 22 43 76 44 70 45
REMARK SMILES IDX 72 46 23 47 75 48 69 49 68 50 24 52 56 53 36 54 55 55 37 56
REMARK SMILES IDX 40 57 54 58 73 59 38 60 39 61 53 63 74 64 41 65 25 66 26 67
REMARK SMILES IDX 34 68 27 69 33 70 35 71 32 72 28 73 29 74 30 75 31 76 57 77
REMARK SMILES IDX 58 78 66 79 59 80 65 81 67 82 64 83 60 84 61 85 62 86 63 87
REMARK SMILES IDX 42 88 43 89 51 90 44 91 50 92 52 93 49 94 45 95 46 96 47 97
REMARK SMILES IDX 48 98
REMARK H PARENT 9 6 82 16 13 32 72 51 40 62
REMARK Flexibility Score: inf
ROOT
ATOM      1  C   UNL A   1      38.390  19.709  24.980  1.00  0.00     0.042 C 
ENDROOT
BRANCH   1   2
ATOM      2  C   UNL A   1      36.913  20.219  25.006  1.00  0.00     0.117 C 
BRANCH   2   3
ATOM      3  N   UNL A   1      36.390  21.614  24.818  1.00  0.00    -0.354 N 
ATOM      4  C   UNL A   1      35.516  22.600  25.153  1.00  0.00     0.243 C 
ATOM      5  O   UNL A   1      35.752  23.680  24.574  1.00  0.00    -0.273 OA
ATOM      6  H   UNL A   1      36.954  22.003  24.110  1.00  0.00     0.163 HD
BRANCH   4   7
ATOM      7  C   UNL A   1      34.300  22.615  26.106  1.00  0.00     0.179 C 
ATOM      8  N   UNL A   1      33.134  23.394  25.637  1.00  0.00    -0.322 N 
ATOM      9  C   UNL A   1      32.535  22.936  24.398  1.00  0.00     0.133 C 
ATOM     10  C   UNL A   1      33.938  21.184  26.518  1.00  0.00     0.073 C 
ATOM     11  C   UNL A   1      32.523  21.383  24.471  1.00  0.00     0.042 A 
ATOM     12  C   UNL A   1      33.186  20.581  25.402  1.00  0.00    -0.015 A 
ATOM     13  N   UNL A   1      31.805  20.474  23.706  1.00  0.00    -0.356 N 
ATOM     14  C   UNL A   1      33.330  19.287  24.838  1.00  0.00     0.003 A 
ATOM     15  C   UNL A   1      32.504  19.263  23.716  1.00  0.00     0.046 A 
ATOM     16  H   UNL A   1      30.956  20.650  23.240  1.00  0.00     0.166 HD
ATOM     17  C   UNL A   1      34.281  18.257  25.032  1.00  0.00     0.010 A 
ATOM     18  C   UNL A   1      32.598  18.247  22.751  1.00  0.00     0.026 A 
ATOM     19  C   UNL A   1      34.491  17.341  23.995  1.00  0.00     0.001 A 
ATOM     20  C   UNL A   1      33.667  17.343  22.872  1.00  0.00     0.002 A 
BRANCH   8  21
ATOM     21  C   UNL A   1      32.373  24.251  26.417  1.00  0.00     0.223 C 
ATOM     22  O   UNL A   1      31.534  23.838  27.222  1.00  0.00    -0.275 OA
BRANCH  21  23
ATOM     23  C   UNL A   1      32.376  25.725  26.054  1.00  0.00     0.097 C 
ATOM     24  C   UNL A   1      33.716  26.405  25.925  1.00  0.00     0.014 C 
ENDBRANCH  21  23
ENDBRANCH   8  21
BRANCH   9  25
ATOM     25  C   UNL A   1      33.077  23.873  23.193  1.00  0.00     0.034 C 
BRANCH  25  26
ATOM     26  C   UNL A   1      32.471  25.113  22.301  1.00  0.00    -0.015 C 
ATOM     27  C   UNL A   1      31.222  26.021  22.528  1.00  0.00     0.007 C 
ATOM     28  C   UNL A   1      33.619  26.166  22.272  1.00  0.00     0.007 C 
ENDBRANCH  25  26
ENDBRANCH   9  25
ENDBRANCH   4   7
ENDBRANCH   2   3
ENDBRANCH   1   2
BRANCH   1  29
ATOM     29  C   UNL A   1      39.584  20.266  25.752  1.00  0.00     0.118 C 
BRANCH  29  30
ATOM     30  N   UNL A   1      40.486  19.245  26.208  1.00  0.00    -0.352 N 
ATOM     31  C   UNL A   1      41.836  19.372  26.438  1.00  0.00     0.251 C 
ATOM     32  H   UNL A   1      40.096  18.356  26.374  1.00  0.00     0.163 HD
ATOM     33  O   UNL A   1      42.526  18.374  26.543  1.00  0.00    -0.269 OA
BRANCH  31  34
ATOM     34  C   UNL A   1      42.442  20.725  26.505  1.00  0.00     0.039 A 
ATOM     35  C   UNL A   1      42.521  21.355  27.747  1.00  0.00     0.014 A 
ATOM     36  C   UNL A   1      42.869  21.390  25.351  1.00  0.00     0.014 A 
ATOM     37  C   UNL A   1      43.015  22.657  27.831  1.00  0.00     0.010 A 
ATOM     38  C   UNL A   1      43.421  22.671  25.447  1.00  0.00     0.010 A 
ATOM     39  C   UNL A   1      43.468  23.331  26.684  1.00  0.00    -0.014 A 
BRANCH  39  40
ATOM     40  C   UNL A   1      43.896  24.755  26.795  1.00  0.00     0.031 A 
ATOM     41  C   UNL A   1      42.942  25.787  27.344  1.00  0.00     0.074 A 
ATOM     42  C   UNL A   1      45.161  25.096  26.478  1.00  0.00     0.049 A 
ATOM     43  N   UNL A   1      43.161  27.042  27.644  1.00  0.00    -0.248 NA
ATOM     44  C   UNL A   1      41.554  25.355  27.572  1.00  0.00     0.031 C 
ATOM     45  C   UNL A   1      46.160  24.185  25.913  1.00  0.00     0.029 A 
ATOM     46  N   UNL A   1      45.839  26.281  26.621  1.00  0.00    -0.354 N 
ATOM     47  C   UNL A   1      41.949  27.539  28.114  1.00  0.00     0.074 A 
ATOM     48  C   UNL A   1      40.977  26.478  27.970  1.00  0.00     0.031 C 
ATOM     49  C   UNL A   1      47.337  24.825  25.821  1.00  0.00     0.029 A 
ATOM     50  C   UNL A   1      47.173  26.200  26.283  1.00  0.00     0.049 A 
ATOM     51  H   UNL A   1      45.413  27.111  26.935  1.00  0.00     0.167 HD
ATOM     52  C   UNL A   1      41.679  28.752  28.659  1.00  0.00     0.034 A 
ATOM     53  C   UNL A   1      48.152  27.125  26.355  1.00  0.00     0.034 A 
ATOM     54  C   UNL A   1      42.659  29.800  28.790  1.00  0.00     0.049 A 
ATOM     55  C   UNL A   1      47.809  28.485  26.919  1.00  0.00     0.074 A 
ATOM     56  C   UNL A   1      42.503  31.071  29.315  1.00  0.00     0.029 A 
ATOM     57  N   UNL A   1      43.986  29.697  28.391  1.00  0.00    -0.354 N 
ATOM     58  N   UNL A   1      46.665  28.920  27.396  1.00  0.00    -0.248 NA
ATOM     59  C   UNL A   1      48.897  29.467  26.974  1.00  0.00     0.031 C 
ATOM     60  C   UNL A   1      43.716  31.756  29.173  1.00  0.00     0.029 A 
ATOM     61  C   UNL A   1      44.653  30.886  28.640  1.00  0.00     0.049 A 
ATOM     62  H   UNL A   1      44.393  28.895  27.991  1.00  0.00     0.167 HD
ATOM     63  C   UNL A   1      46.910  30.215  27.845  1.00  0.00     0.074 A 
ATOM     64  C   UNL A   1      48.318  30.470  27.613  1.00  0.00     0.031 C 
ATOM     65  C   UNL A   1      46.056  31.119  28.395  1.00  0.00     0.034 A 
BRANCH  52  66
ATOM     66  C   UNL A   1      40.265  28.999  29.137  1.00  0.00     0.023 A 
ATOM     67  C   UNL A   1      39.926  28.907  30.500  1.00  0.00     0.031 A 
ATOM     68  C   UNL A   1      39.238  29.300  28.226  1.00  0.00     0.131 A 
ATOM     69  C   UNL A   1      38.588  29.035  30.901  1.00  0.00     0.055 A 
ATOM     70  C   UNL A   1      37.922  29.513  28.644  1.00  0.00     0.041 A 
ATOM     71  F   UNL A   1      39.492  29.379  26.910  1.00  0.00    -0.206 F 
ATOM     72  C   UNL A   1      37.587  29.366  29.986  1.00  0.00     0.022 A 
BRANCH  69  73
ATOM     73  S   UNL A   1      38.153  28.616  32.612  1.00  0.00     0.124 S 
ATOM     74  O   UNL A   1      36.801  29.160  32.713  1.00  0.00    -0.237 OA
ATOM     75  O   UNL A   1      38.261  27.162  32.620  1.00  0.00    -0.237 OA
ATOM     76  O   UNL A   1      39.160  29.321  33.404  1.00  0.00    -0.744 OA
ENDBRANCH  69  73
ENDBRANCH  52  66
BRANCH  53  77
ATOM     77  C   UNL A   1      49.544  26.819  25.902  1.00  0.00     0.023 A 
ATOM     78  C   UNL A   1      50.013  27.248  24.647  1.00  0.00     0.031 A 
ATOM     79  C   UNL A   1      50.398  26.011  26.674  1.00  0.00     0.131 A 
ATOM     80  C   UNL A   1      51.256  26.805  24.171  1.00  0.00     0.055 A 
ATOM     81  C   UNL A   1      51.666  25.633  26.227  1.00  0.00     0.041 A 
ATOM     82  F   UNL A   1      50.009  25.568  27.880  1.00  0.00    -0.206 F 
ATOM     83  C   UNL A   1      52.093  26.012  24.958  1.00  0.00     0.022 A 
BRANCH  80  84
ATOM     84  S   UNL A   1      51.703  27.160  22.448  1.00  0.00     0.124 S 
ATOM     85  O   UNL A   1      50.464  26.841  21.750  1.00  0.00    -0.237 OA
ATOM     86  O   UNL A   1      52.060  28.572  22.513  1.00  0.00    -0.237 OA
ATOM     87  O   UNL A   1      52.817  26.247  22.192  1.00  0.00    -0.744 OA
ENDBRANCH  80  84
ENDBRANCH  53  77
BRANCH  65  88
ATOM     88  C   UNL A   1      46.649  32.441  28.821  1.00  0.00     0.023 A 
ATOM     89  C   UNL A   1      46.711  33.539  27.945  1.00  0.00     0.031 A 
ATOM     90  C   UNL A   1      47.208  32.589  30.103  1.00  0.00     0.131 A 
ATOM     91  C   UNL A   1      47.402  34.697  28.325  1.00  0.00     0.055 A 
ATOM     92  C   UNL A   1      47.818  33.777  30.507  1.00  0.00     0.041 A 
ATOM     93  F   UNL A   1      47.180  31.575  30.983  1.00  0.00    -0.206 F 
ATOM     94  C   UNL A   1      47.939  34.832  29.607  1.00  0.00     0.022 A 
BRANCH  91  95
ATOM     95  S   UNL A   1      47.725  35.961  27.065  1.00  0.00     0.124 S 
ATOM     96  O   UNL A   1      47.969  37.146  27.881  1.00  0.00    -0.237 OA
ATOM     97  O   UNL A   1      48.887  35.418  26.369  1.00  0.00    -0.237 OA
ATOM     98  O   UNL A   1      46.491  35.989  26.283  1.00  0.00    -0.744 OA
ENDBRANCH  91  95
ENDBRANCH  65  88
ENDBRANCH  39  40
ENDBRANCH  31  34
ENDBRANCH  29  30
ENDBRANCH   1  29
TORSDOF 17
ENDMDL
MODEL 3
REMARK VINA RESULT:     -11.9      4.711      9.898
REMARK SMILES CCC(=O)N1[C@H](C(=O)NCCCNC(=O)c2ccc(-c3c4nc(c(-c5cc(S(=O)(=O)[O-])ccc5F)c5ccc([nH]5)c(-c5cc(S(=O)(=O)[O-])ccc5F)c5nc(c(-c6cc(S(=O)(=O)[O-])ccc6F)c6ccc3[nH]6)C=C5)C=C4)cc2)Cc2c([nH]c3ccccc23)[C@@H]1CC(C)C
REMARK SMILES IDX 11 1 10 2 9 3 7 4 8 5 6 7 5 8 89 9 79 10 81 11 80 12 82 13
REMARK SMILES IDX 88 14 83 15 87 17 84 18 86 19 85 20 3 21 4 22 2 23 1 24
REMARK SMILES IDX 90 25 91 26 92 27 93 28 12 29 13 30 14 31 15 33 16 34 17 35
REMARK SMILES IDX 78 36 18 37 77 38 19 39 20 40 21 41 71 42 22 43 76 44 70 45
REMARK SMILES IDX 72 46 23 47 75 48 69 49 68 50 24 52 56 53 36 54 55 55 37 56
REMARK SMILES IDX 40 57 54 58 73 59 38 60 39 61 53 63 74 64 41 65 25 66 26 67
REMARK SMILES IDX 34 68 27 69 33 70 35 71 32 72 28 73 29 74 30 75 31 76 57 77
REMARK SMILES IDX 58 78 66 79 59 80 65 81 67 82 64 83 60 84 61 85 62 86 63 87
REMARK SMILES IDX 42 88 43 89 51 90 44 91 50 92 52 93 49 94 45 95 46 96 47 97
REMARK SMILES IDX 48 98
REMARK H PARENT 9 6 82 16 13 32 72 51 40 62
REMARK Flexibility Score: inf
ROOT
ATOM      1  C   UNL A   1      38.549  19.897  25.058  1.00  0.00     0.042 C 
ENDROOT
BRANCH   1   2
ATOM      2  C   UNL A   1      37.053  20.340  24.966  1.00  0.00     0.117 C 
BRANCH   2   3
ATOM      3  N   UNL A   1      36.479  21.637  24.477  1.00  0.00    -0.354 N 
ATOM      4  C   UNL A   1      35.545  22.621  24.568  1.00  0.00     0.243 C 
ATOM      5  O   UNL A   1      35.761  23.574  23.791  1.00  0.00    -0.273 OA
ATOM      6  H   UNL A   1      37.059  21.905  23.728  1.00  0.00     0.163 HD
BRANCH   4   7
ATOM      7  C   UNL A   1      34.283  22.763  25.448  1.00  0.00     0.179 C 
ATOM      8  N   UNL A   1      33.157  23.498  24.832  1.00  0.00    -0.322 N 
ATOM      9  C   UNL A   1      32.613  22.907  23.625  1.00  0.00     0.133 C 
ATOM     10  C   UNL A   1      33.873  21.394  26.001  1.00  0.00     0.073 C 
ATOM     11  C   UNL A   1      32.568  21.374  23.874  1.00  0.00     0.042 A 
ATOM     12  C   UNL A   1      33.167  20.676  24.925  1.00  0.00    -0.015 A 
ATOM     13  N   UNL A   1      31.872  20.391  23.182  1.00  0.00    -0.356 N 
ATOM     14  C   UNL A   1      33.315  19.323  24.521  1.00  0.00     0.003 A 
ATOM     15  C   UNL A   1      32.547  19.181  23.367  1.00  0.00     0.046 A 
ATOM     16  H   UNL A   1      31.051  20.524  22.656  1.00  0.00     0.166 HD
ATOM     17  C   UNL A   1      34.235  18.310  24.881  1.00  0.00     0.010 A 
ATOM     18  C   UNL A   1      32.669  18.059  22.531  1.00  0.00     0.026 A 
ATOM     19  C   UNL A   1      34.480  17.278  23.969  1.00  0.00     0.001 A 
ATOM     20  C   UNL A   1      33.713  17.162  22.811  1.00  0.00     0.002 A 
BRANCH   8  21
ATOM     21  C   UNL A   1      32.374  24.449  25.468  1.00  0.00     0.223 C 
ATOM     22  O   UNL A   1      32.819  25.180  26.358  1.00  0.00    -0.275 OA
BRANCH  21  23
ATOM     23  C   UNL A   1      30.873  24.379  25.260  1.00  0.00     0.097 C 
ATOM     24  C   UNL A   1      30.177  25.635  24.800  1.00  0.00     0.014 C 
ENDBRANCH  21  23
ENDBRANCH   8  21
BRANCH   9  25
ATOM     25  C   UNL A   1      33.233  23.692  22.350  1.00  0.00     0.034 C 
BRANCH  25  26
ATOM     26  C   UNL A   1      32.991  25.150  21.632  1.00  0.00    -0.015 C 
ATOM     27  C   UNL A   1      31.675  25.930  21.320  1.00  0.00     0.007 C 
ATOM     28  C   UNL A   1      33.741  26.162  22.549  1.00  0.00     0.007 C 
ENDBRANCH  25  26
ENDBRANCH   9  25
ENDBRANCH   4   7
ENDBRANCH   2   3
ENDBRANCH   1   2
BRANCH   1  29
ATOM     29  C   UNL A   1      39.591  20.338  26.085  1.00  0.00     0.118 C 
BRANCH  29  30
ATOM     30  N   UNL A   1      40.879  19.736  25.874  1.00  0.00    -0.352 N 
ATOM     31  C   UNL A   1      42.105  20.355  25.937  1.00  0.00     0.251 C 
ATOM     32  H   UNL A   1      40.885  18.774  25.661  1.00  0.00     0.163 HD
ATOM     33  O   UNL A   1      43.082  19.806  25.462  1.00  0.00    -0.269 OA
BRANCH  31  34
ATOM     34  C   UNL A   1      42.211  21.708  26.538  1.00  0.00     0.039 A 
ATOM     35  C   UNL A   1      42.231  22.811  25.685  1.00  0.00     0.014 A 
ATOM     36  C   UNL A   1      42.353  21.883  27.919  1.00  0.00     0.014 A 
ATOM     37  C   UNL A   1      42.408  24.091  26.214  1.00  0.00     0.010 A 
ATOM     38  C   UNL A   1      42.467  23.171  28.451  1.00  0.00     0.010 A 
ATOM     39  C   UNL A   1      42.531  24.286  27.601  1.00  0.00    -0.014 A 
BRANCH  39  40
ATOM     40  C   UNL A   1      42.817  25.652  28.124  1.00  0.00     0.031 A 
ATOM     41  C   UNL A   1      44.208  26.226  28.006  1.00  0.00     0.074 A 
ATOM     42  C   UNL A   1      41.813  26.397  28.626  1.00  0.00     0.049 A 
ATOM     43  N   UNL A   1      44.631  27.435  28.276  1.00  0.00    -0.248 NA
ATOM     44  C   UNL A   1      45.265  25.317  27.539  1.00  0.00     0.031 C 
ATOM     45  C   UNL A   1      40.435  25.933  28.812  1.00  0.00     0.029 A 
ATOM     46  N   UNL A   1      41.776  27.707  29.034  1.00  0.00    -0.354 N 
ATOM     47  C   UNL A   1      45.993  27.435  27.990  1.00  0.00     0.074 A 
ATOM     48  C   UNL A   1      46.343  26.082  27.619  1.00  0.00     0.031 C 
ATOM     49  C   UNL A   1      39.677  26.959  29.231  1.00  0.00     0.029 A 
ATOM     50  C   UNL A   1      40.516  28.144  29.382  1.00  0.00     0.049 A 
ATOM     51  H   UNL A   1      42.575  28.280  29.074  1.00  0.00     0.167 HD
ATOM     52  C   UNL A   1      46.864  28.475  27.991  1.00  0.00     0.034 A 
ATOM     53  C   UNL A   1      40.087  29.365  29.761  1.00  0.00     0.034 A 
ATOM     54  C   UNL A   1      46.499  29.817  28.369  1.00  0.00     0.049 A 
ATOM     55  C   UNL A   1      41.092  30.494  29.803  1.00  0.00     0.074 A 
ATOM     56  C   UNL A   1      47.294  30.949  28.420  1.00  0.00     0.029 A 
ATOM     57  N   UNL A   1      45.226  30.210  28.762  1.00  0.00    -0.354 N 
ATOM     58  N   UNL A   1      42.368  30.480  29.489  1.00  0.00    -0.248 NA
ATOM     59  C   UNL A   1      40.591  31.805  30.228  1.00  0.00     0.031 C 
ATOM     60  C   UNL A   1      46.518  32.008  28.906  1.00  0.00     0.029 A 
ATOM     61  C   UNL A   1      45.218  31.559  29.076  1.00  0.00     0.049 A 
ATOM     62  H   UNL A   1      44.443  29.615  28.811  1.00  0.00     0.167 HD
ATOM     63  C   UNL A   1      42.809  31.792  29.641  1.00  0.00     0.074 A 
ATOM     64  C   UNL A   1      41.653  32.570  30.039  1.00  0.00     0.031 C 
ATOM     65  C   UNL A   1      44.053  32.313  29.475  1.00  0.00     0.034 A 
BRANCH  52  66
ATOM     66  C   UNL A   1      48.292  28.186  27.582  1.00  0.00     0.023 A 
ATOM     67  C   UNL A   1      48.663  28.106  26.227  1.00  0.00     0.031 A 
ATOM     68  C   UNL A   1      49.286  27.958  28.548  1.00  0.00     0.131 A 
ATOM     69  C   UNL A   1      49.969  27.730  25.877  1.00  0.00     0.055 A 
ATOM     70  C   UNL A   1      50.607  27.670  28.192  1.00  0.00     0.041 A 
ATOM     71  F   UNL A   1      48.991  27.997  29.857  1.00  0.00    -0.206 F 
ATOM     72  C   UNL A   1      50.952  27.540  26.851  1.00  0.00     0.022 A 
BRANCH  69  73
ATOM     73  S   UNL A   1      50.325  27.350  24.140  1.00  0.00     0.124 S 
ATOM     74  O   UNL A   1      50.579  28.681  23.594  1.00  0.00    -0.237 OA
ATOM     75  O   UNL A   1      51.482  26.467  24.239  1.00  0.00    -0.237 OA
ATOM     76  O   UNL A   1      49.095  26.716  23.669  1.00  0.00    -0.744 OA
ENDBRANCH  69  73
ENDBRANCH  52  66
BRANCH  53  77
ATOM     77  C   UNL A   1      38.656  29.608  30.122  1.00  0.00     0.023 A 
ATOM     78  C   UNL A   1      37.762  30.192  29.207  1.00  0.00     0.031 A 
ATOM     79  C   UNL A   1      38.180  29.349  31.420  1.00  0.00     0.131 A 
ATOM     80  C   UNL A   1      36.476  30.569  29.622  1.00  0.00     0.055 A 
ATOM     81  C   UNL A   1      36.875  29.657  31.807  1.00  0.00     0.041 A 
ATOM     82  F   UNL A   1      38.985  28.792  32.341  1.00  0.00    -0.206 F 
ATOM     83  C   UNL A   1      36.020  30.292  30.912  1.00  0.00     0.022 A 
BRANCH  80  84
ATOM     84  S   UNL A   1      35.454  31.558  28.494  1.00  0.00     0.124 S 
ATOM     85  O   UNL A   1      34.503  32.168  29.416  1.00  0.00    -0.237 OA
ATOM     86  O   UNL A   1      36.440  32.454  27.900  1.00  0.00    -0.237 OA
ATOM     87  O   UNL A   1      34.891  30.561  27.584  1.00  0.00    -0.744 OA
ENDBRANCH  80  84
ENDBRANCH  53  77
BRANCH  65  88
ATOM     88  C   UNL A   1      44.198  33.803  29.679  1.00  0.00     0.023 A 
ATOM     89  C   UNL A   1      43.911  34.720  28.654  1.00  0.00     0.031 A 
ATOM     90  C   UNL A   1      44.680  34.308  30.901  1.00  0.00     0.131 A 
ATOM     91  C   UNL A   1      44.201  36.080  28.832  1.00  0.00     0.055 A 
ATOM     92  C   UNL A   1      44.883  35.674  31.102  1.00  0.00     0.041 A 
ATOM     93  F   UNL A   1      44.972  33.480  31.916  1.00  0.00    -0.206 F 
ATOM     94  C   UNL A   1      44.666  36.566  30.056  1.00  0.00     0.022 A 
BRANCH  91  95
ATOM     95  S   UNL A   1      44.110  37.177  27.391  1.00  0.00     0.124 S 
ATOM     96  O   UNL A   1      43.122  36.500  26.558  1.00  0.00    -0.237 OA
ATOM     97  O   UNL A   1      43.681  38.439  27.987  1.00  0.00    -0.237 OA
ATOM     98  O   UNL A   1      45.474  37.170  26.868  1.00  0.00    -0.744 OA
ENDBRANCH  91  95
ENDBRANCH  65  88
ENDBRANCH  39  40
ENDBRANCH  31  34
ENDBRANCH  29  30
ENDBRANCH   1  29
TORSDOF 17
ENDMDL
