MODEL 1
REMARK VINA RESULT:     -13.5      0.000      0.000
REMARK SMILES O=C(NCCCNC(=O)c1ccc(N2C(=O)C[C@H](c3c[nH]c4ccccc34)C2=O)cc1O)c1ccc(-c2c3nc(c(-c4cc(S(=O)(=O)[O-])ccc4F)c4ccc([nH]4)c(-c4cc(S(=O)(=O)[O-])ccc4F)c4nc(c(-c5cc(S(=O)(=O)[O-])ccc5F)c5ccc2[nH]5)C=C4)C=C3)cc1
REMARK SMILES IDX 4 1 3 2 1 3 2 4 33 6 34 7 95 8 35 9 94 10 36 11 37 12 38 13
REMARK SMILES IDX 88 14 39 15 93 16 87 17 89 18 40 19 92 20 86 21 85 22 41 24
REMARK SMILES IDX 73 25 53 26 72 27 54 28 57 29 71 30 90 31 55 32 56 33 70 35
REMARK SMILES IDX 91 36 58 37 42 38 43 39 51 40 44 41 50 42 52 43 49 44 45 45
REMARK SMILES IDX 46 46 47 47 48 48 74 49 75 50 83 51 76 52 82 53 84 54 81 55
REMARK SMILES IDX 77 56 78 57 79 58 80 59 59 60 60 61 68 62 61 63 67 64 69 65
REMARK SMILES IDX 66 66 62 67 63 68 64 69 65 70 5 71 6 72 7 73 8 74 9 76 10 77
REMARK SMILES IDX 11 78 31 79 12 80 30 81 13 82 32 83 14 85 15 86 28 87 16 88
REMARK SMILES IDX 17 89 18 90 29 91 19 92 20 93 27 94 21 95 22 96 26 97 23 99
REMARK SMILES IDX 25 100 24 101
REMARK H PARENT 3 5 89 23 57 34 7 75 32 84 21 98
REMARK Flexibility Score: inf
ROOT
ATOM      1  C   UNL A   1      32.643  32.129  26.825  1.00  0.00     0.118 C 
ENDROOT
BRANCH   1   2
ATOM      2  N   UNL A   1      32.556  33.486  27.354  1.00  0.00    -0.352 N 
ATOM      3  O   UNL A   1      32.911  35.197  28.771  1.00  0.00    -0.269 OA
ATOM      4  C   UNL A   1      33.276  34.099  28.351  1.00  0.00     0.251 C 
ATOM      5  H   UNL A   1      31.875  34.052  26.927  1.00  0.00     0.163 HD
BRANCH   4   6
ATOM      6  C   UNL A   1      34.468  33.443  28.929  1.00  0.00     0.039 A 
ATOM      7  C   UNL A   1      34.339  32.308  29.731  1.00  0.00     0.014 A 
ATOM      8  C   UNL A   1      35.739  33.952  28.642  1.00  0.00     0.014 A 
ATOM      9  C   UNL A   1      35.452  31.788  30.378  1.00  0.00     0.010 A 
ATOM     10  C   UNL A   1      36.871  33.359  29.210  1.00  0.00     0.010 A 
ATOM     11  C   UNL A   1      36.735  32.291  30.110  1.00  0.00    -0.014 A 
BRANCH  11  12
ATOM     12  C   UNL A   1      37.912  31.636  30.737  1.00  0.00     0.031 A 
ATOM     13  C   UNL A   1      38.318  31.954  32.151  1.00  0.00     0.074 A 
ATOM     14  C   UNL A   1      38.591  30.714  30.027  1.00  0.00     0.049 A 
ATOM     15  N   UNL A   1      39.308  31.466  32.853  1.00  0.00    -0.248 NA
ATOM     16  C   UNL A   1      37.513  32.956  32.864  1.00  0.00     0.031 C 
ATOM     17  C   UNL A   1      38.284  30.326  28.646  1.00  0.00     0.029 A 
ATOM     18  N   UNL A   1      39.654  29.917  30.363  1.00  0.00    -0.354 N 
ATOM     19  C   UNL A   1      39.256  32.106  34.088  1.00  0.00     0.074 A 
ATOM     20  C   UNL A   1      38.157  33.047  34.020  1.00  0.00     0.031 C 
ATOM     21  C   UNL A   1      39.104  29.333  28.274  1.00  0.00     0.029 A 
ATOM     22  C   UNL A   1      40.044  29.065  29.355  1.00  0.00     0.049 A 
ATOM     23  H   UNL A   1      40.097  29.952  31.241  1.00  0.00     0.167 HD
ATOM     24  C   UNL A   1      40.045  31.916  35.175  1.00  0.00     0.034 A 
ATOM     25  C   UNL A   1      41.059  28.183  29.295  1.00  0.00     0.034 A 
ATOM     26  C   UNL A   1      41.139  30.972  35.219  1.00  0.00     0.049 A 
ATOM     27  C   UNL A   1      41.950  28.029  30.497  1.00  0.00     0.074 A 
ATOM     28  C   UNL A   1      41.994  30.689  36.271  1.00  0.00     0.029 A 
ATOM     29  N   UNL A   1      41.536  30.161  34.162  1.00  0.00    -0.354 N 
ATOM     30  N   UNL A   1      41.882  28.641  31.657  1.00  0.00    -0.248 NA
ATOM     31  C   UNL A   1      43.052  27.069  30.382  1.00  0.00     0.031 C 
ATOM     32  C   UNL A   1      42.944  29.760  35.831  1.00  0.00     0.029 A 
ATOM     33  C   UNL A   1      42.638  29.403  34.527  1.00  0.00     0.049 A 
ATOM     34  H   UNL A   1      41.097  30.130  33.281  1.00  0.00     0.167 HD
ATOM     35  C   UNL A   1      42.924  28.121  32.418  1.00  0.00     0.074 A 
ATOM     36  C   UNL A   1      43.586  27.131  31.592  1.00  0.00     0.031 C 
ATOM     37  C   UNL A   1      43.300  28.433  33.685  1.00  0.00     0.034 A 
BRANCH  24  38
ATOM     38  C   UNL A   1      39.779  32.778  36.388  1.00  0.00     0.023 A 
ATOM     39  C   UNL A   1      38.934  32.356  37.430  1.00  0.00     0.031 A 
ATOM     40  C   UNL A   1      40.365  34.053  36.496  1.00  0.00     0.131 A 
ATOM     41  C   UNL A   1      38.646  33.222  38.497  1.00  0.00     0.055 A 
ATOM     42  C   UNL A   1      40.137  34.880  37.598  1.00  0.00     0.041 A 
ATOM     43  F   UNL A   1      41.164  34.523  35.524  1.00  0.00    -0.206 F 
ATOM     44  C   UNL A   1      39.262  34.472  38.601  1.00  0.00     0.022 A 
BRANCH  41  45
ATOM     45  S   UNL A   1      37.351  32.749  39.676  1.00  0.00     0.124 S 
ATOM     46  O   UNL A   1      37.846  31.463  40.162  1.00  0.00    -0.237 OA
ATOM     47  O   UNL A   1      37.378  33.848  40.634  1.00  0.00    -0.237 OA
ATOM     48  O   UNL A   1      36.147  32.671  38.851  1.00  0.00    -0.744 OA
ENDBRANCH  41  45
ENDBRANCH  24  38
BRANCH  25  49
ATOM     49  C   UNL A   1      41.309  27.410  28.046  1.00  0.00     0.023 A 
ATOM     50  C   UNL A   1      40.998  26.045  27.961  1.00  0.00     0.031 A 
ATOM     51  C   UNL A   1      41.897  28.024  26.924  1.00  0.00     0.131 A 
ATOM     52  C   UNL A   1      41.313  25.329  26.796  1.00  0.00     0.055 A 
ATOM     53  C   UNL A   1      42.154  27.321  25.747  1.00  0.00     0.041 A 
ATOM     54  F   UNL A   1      42.212  29.329  26.951  1.00  0.00    -0.206 F 
ATOM     55  C   UNL A   1      41.875  25.961  25.683  1.00  0.00     0.022 A 
BRANCH  52  56
ATOM     56  S   UNL A   1      41.061  23.533  26.788  1.00  0.00     0.124 S 
ATOM     57  O   UNL A   1      42.019  23.103  25.776  1.00  0.00    -0.237 OA
ATOM     58  O   UNL A   1      41.378  23.177  28.167  1.00  0.00    -0.237 OA
ATOM     59  O   UNL A   1      39.654  23.390  26.417  1.00  0.00    -0.744 OA
ENDBRANCH  52  56
ENDBRANCH  25  49
BRANCH  37  60
ATOM     60  C   UNL A   1      44.463  27.660  34.253  1.00  0.00     0.023 A 
ATOM     61  C   UNL A   1      44.285  26.420  34.890  1.00  0.00     0.031 A 
ATOM     62  C   UNL A   1      45.764  28.190  34.186  1.00  0.00     0.131 A 
ATOM     63  C   UNL A   1      45.380  25.779  35.491  1.00  0.00     0.055 A 
ATOM     64  C   UNL A   1      46.859  27.519  34.732  1.00  0.00     0.041 A 
ATOM     65  F   UNL A   1      45.991  29.372  33.592  1.00  0.00    -0.206 F 
ATOM     66  C   UNL A   1      46.668  26.314  35.402  1.00  0.00     0.022 A 
BRANCH  63  67
ATOM     67  S   UNL A   1      45.081  24.285  36.476  1.00  0.00     0.124 S 
ATOM     68  O   UNL A   1      44.806  24.842  37.796  1.00  0.00    -0.237 OA
ATOM     69  O   UNL A   1      43.944  23.680  35.789  1.00  0.00    -0.237 OA
ATOM     70  O   UNL A   1      46.337  23.545  36.364  1.00  0.00    -0.744 OA
ENDBRANCH  63  67
ENDBRANCH  37  60
ENDBRANCH  11  12
ENDBRANCH   4   6
ENDBRANCH   1   2
BRANCH   1  71
ATOM     71  C   UNL A   1      31.284  31.555  26.457  1.00  0.00     0.042 C 
BRANCH  71  72
ATOM     72  C   UNL A   1      31.363  30.218  25.736  1.00  0.00     0.118 C 
BRANCH  72  73
ATOM     73  N   UNL A   1      30.997  30.329  24.332  1.00  0.00    -0.352 N 
ATOM     74  C   UNL A   1      30.864  29.331  23.400  1.00  0.00     0.255 C 
ATOM     75  H   UNL A   1      30.822  31.241  24.007  1.00  0.00     0.163 HD
ATOM     76  O   UNL A   1      30.660  29.597  22.220  1.00  0.00    -0.269 OA
BRANCH  74  77
ATOM     77  C   UNL A   1      31.029  27.927  23.813  1.00  0.00     0.081 A 
ATOM     78  C   UNL A   1      29.878  27.158  23.988  1.00  0.00     0.020 A 
ATOM     79  C   UNL A   1      32.284  27.359  24.032  1.00  0.00     0.130 A 
ATOM     80  C   UNL A   1      29.989  25.809  24.339  1.00  0.00     0.028 A 
ATOM     81  C   UNL A   1      32.388  26.016  24.395  1.00  0.00     0.073 A 
ATOM     82  C   UNL A   1      31.244  25.216  24.554  1.00  0.00     0.055 A 
BRANCH  79  83
ATOM     83  O   UNL A   1      33.421  28.104  23.873  1.00  0.00    -0.507 OA
ATOM     84  H   UNL A   1      34.248  27.760  24.148  1.00  0.00     0.293 HD
ENDBRANCH  79  83
BRANCH  82  85
ATOM     85  N   UNL A   1      31.358  23.853  24.957  1.00  0.00    -0.250 N 
ATOM     86  C   UNL A   1      31.173  23.422  26.249  1.00  0.00     0.234 C 
ATOM     87  C   UNL A   1      31.622  22.802  24.102  1.00  0.00     0.241 C 
ATOM     88  O   UNL A   1      30.931  24.079  27.256  1.00  0.00    -0.274 OA
ATOM     89  C   UNL A   1      31.170  21.930  26.278  1.00  0.00     0.119 C 
ATOM     90  C   UNL A   1      31.653  21.520  24.899  1.00  0.00     0.121 C 
ATOM     91  O   UNL A   1      31.826  22.845  22.895  1.00  0.00    -0.273 OA
BRANCH  90  92
ATOM     92  C   UNL A   1      32.983  20.828  24.966  1.00  0.00    -0.010 A 
ATOM     93  C   UNL A   1      34.160  21.247  25.556  1.00  0.00     0.088 A 
ATOM     94  C   UNL A   1      33.244  19.526  24.418  1.00  0.00     0.003 A 
ATOM     95  N   UNL A   1      35.107  20.269  25.382  1.00  0.00    -0.361 N 
ATOM     96  C   UNL A   1      34.565  19.196  24.713  1.00  0.00     0.046 A 
ATOM     97  C   UNL A   1      32.456  18.593  23.711  1.00  0.00     0.010 A 
ATOM     98  H   UNL A   1      36.040  20.327  25.692  1.00  0.00     0.166 HD
ATOM     99  C   UNL A   1      35.138  17.974  24.342  1.00  0.00     0.026 A 
ATOM    100  C   UNL A   1      33.012  17.367  23.333  1.00  0.00     0.001 A 
ATOM    101  C   UNL A   1      34.334  17.063  23.649  1.00  0.00     0.002 A 
ENDBRANCH  90  92
ENDBRANCH  82  85
ENDBRANCH  74  77
ENDBRANCH  72  73
ENDBRANCH  71  72
ENDBRANCH   1  71
TORSDOF 16
ENDMDL
MODEL 2
REMARK VINA RESULT:     -13.5      1.601      7.613
REMARK SMILES O=C(NCCCNC(=O)c1ccc(N2C(=O)C[C@H](c3c[nH]c4ccccc34)C2=O)cc1O)c1ccc(-c2c3nc(c(-c4cc(S(=O)(=O)[O-])ccc4F)c4ccc([nH]4)c(-c4cc(S(=O)(=O)[O-])ccc4F)c4nc(c(-c5cc(S(=O)(=O)[O-])ccc5F)c5ccc2[nH]5)C=C4)C=C3)cc1
REMARK SMILES IDX 4 1 3 2 1 3 2 4 33 6 34 7 95 8 35 9 94 10 36 11 37 12 38 13
REMARK SMILES IDX 88 14 39 15 93 16 87 17 89 18 40 19 92 20 86 21 85 22 41 24
REMARK SMILES IDX 73 25 53 26 72 27 54 28 57 29 71 30 90 31 55 32 56 33 70 35
REMARK SMILES IDX 91 36 58 37 42 38 43 39 51 40 44 41 50 42 52 43 49 44 45 45
REMARK SMILES IDX 46 46 47 47 48 48 74 49 75 50 83 51 76 52 82 53 84 54 81 55
REMARK SMILES IDX 77 56 78 57 79 58 80 59 59 60 60 61 68 62 61 63 67 64 69 65
REMARK SMILES IDX 66 66 62 67 63 68 64 69 65 70 5 71 6 72 7 73 8 74 9 76 10 77
REMARK SMILES IDX 11 78 31 79 12 80 30 81 13 82 32 83 14 85 15 86 28 87 16 88
REMARK SMILES IDX 17 89 18 90 29 91 19 92 20 93 27 94 21 95 22 96 26 97 23 99
REMARK SMILES IDX 25 100 24 101
REMARK H PARENT 3 5 89 23 57 34 7 75 32 84 21 98
REMARK Flexibility Score: inf
ROOT
ATOM      1  C   UNL A   1      32.701  32.153  27.139  1.00  0.00     0.118 C 
ENDROOT
BRANCH   1   2
ATOM      2  N   UNL A   1      32.631  33.569  27.484  1.00  0.00    -0.352 N 
ATOM      3  O   UNL A   1      32.947  35.435  28.699  1.00  0.00    -0.269 OA
ATOM      4  C   UNL A   1      33.297  34.282  28.451  1.00  0.00     0.251 C 
ATOM      5  H   UNL A   1      32.007  34.097  26.937  1.00  0.00     0.163 HD
BRANCH   4   6
ATOM      6  C   UNL A   1      34.414  33.668  29.201  1.00  0.00     0.039 A 
ATOM      7  C   UNL A   1      35.732  34.064  28.968  1.00  0.00     0.014 A 
ATOM      8  C   UNL A   1      34.139  32.701  30.173  1.00  0.00     0.014 A 
ATOM      9  C   UNL A   1      36.777  33.382  29.576  1.00  0.00     0.010 A 
ATOM     10  C   UNL A   1      35.190  32.090  30.865  1.00  0.00     0.010 A 
ATOM     11  C   UNL A   1      36.521  32.403  30.548  1.00  0.00    -0.014 A 
BRANCH  11  12
ATOM     12  C   UNL A   1      37.666  31.773  31.257  1.00  0.00     0.031 A 
ATOM     13  C   UNL A   1      38.505  30.715  30.595  1.00  0.00     0.074 A 
ATOM     14  C   UNL A   1      37.969  32.201  32.499  1.00  0.00     0.049 A 
ATOM     15  N   UNL A   1      39.544  30.073  31.064  1.00  0.00    -0.248 NA
ATOM     16  C   UNL A   1      38.121  30.319  29.232  1.00  0.00     0.031 C 
ATOM     17  C   UNL A   1      37.222  33.224  33.239  1.00  0.00     0.029 A 
ATOM     18  N   UNL A   1      38.986  31.858  33.350  1.00  0.00    -0.354 N 
ATOM     19  C   UNL A   1      39.936  29.190  30.063  1.00  0.00     0.074 A 
ATOM     20  C   UNL A   1      38.993  29.353  28.975  1.00  0.00     0.031 C 
ATOM     21  C   UNL A   1      37.837  33.462  34.406  1.00  0.00     0.029 A 
ATOM     22  C   UNL A   1      38.972  32.556  34.535  1.00  0.00     0.049 A 
ATOM     23  H   UNL A   1      39.663  31.176  33.134  1.00  0.00     0.167 HD
ATOM     24  C   UNL A   1      40.988  28.333  30.052  1.00  0.00     0.034 A 
ATOM     25  C   UNL A   1      39.767  32.465  35.618  1.00  0.00     0.034 A 
ATOM     26  C   UNL A   1      41.914  28.184  31.151  1.00  0.00     0.049 A 
ATOM     27  C   UNL A   1      40.895  31.470  35.599  1.00  0.00     0.074 A 
ATOM     28  C   UNL A   1      43.021  27.357  31.242  1.00  0.00     0.029 A 
ATOM     29  N   UNL A   1      41.839  28.873  32.357  1.00  0.00    -0.354 N 
ATOM     30  N   UNL A   1      41.251  30.646  34.641  1.00  0.00    -0.248 NA
ATOM     31  C   UNL A   1      41.726  31.393  36.805  1.00  0.00     0.031 C 
ATOM     32  C   UNL A   1      43.573  27.497  32.521  1.00  0.00     0.029 A 
ATOM     33  C   UNL A   1      42.859  28.468  33.205  1.00  0.00     0.049 A 
ATOM     34  H   UNL A   1      41.159  29.551  32.576  1.00  0.00     0.167 HD
ATOM     35  C   UNL A   1      42.365  29.965  35.125  1.00  0.00     0.074 A 
ATOM     36  C   UNL A   1      42.631  30.495  36.447  1.00  0.00     0.031 C 
ATOM     37  C   UNL A   1      43.100  28.992  34.529  1.00  0.00     0.034 A 
BRANCH  24  38
ATOM     38  C   UNL A   1      41.162  27.461  28.830  1.00  0.00     0.023 A 
ATOM     39  C   UNL A   1      42.177  27.699  27.885  1.00  0.00     0.031 A 
ATOM     40  C   UNL A   1      40.288  26.383  28.595  1.00  0.00     0.131 A 
ATOM     41  C   UNL A   1      42.251  26.917  26.721  1.00  0.00     0.055 A 
ATOM     42  C   UNL A   1      40.415  25.560  27.474  1.00  0.00     0.041 A 
ATOM     43  F   UNL A   1      39.286  26.118  29.448  1.00  0.00    -0.206 F 
ATOM     44  C   UNL A   1      41.393  25.833  26.521  1.00  0.00     0.022 A 
BRANCH  41  45
ATOM     45  S   UNL A   1      43.396  27.420  25.407  1.00  0.00     0.124 S 
ATOM     46  O   UNL A   1      42.475  27.779  24.331  1.00  0.00    -0.237 OA
ATOM     47  O   UNL A   1      44.119  28.526  26.024  1.00  0.00    -0.237 OA
ATOM     48  O   UNL A   1      44.188  26.216  25.161  1.00  0.00    -0.744 OA
ENDBRANCH  41  45
ENDBRANCH  24  38
BRANCH  25  49
ATOM     49  C   UNL A   1      39.502  33.306  36.818  1.00  0.00     0.023 A 
ATOM     50  C   UNL A   1      38.808  32.796  37.925  1.00  0.00     0.031 A 
ATOM     51  C   UNL A   1      39.915  34.651  36.861  1.00  0.00     0.131 A 
ATOM     52  C   UNL A   1      38.510  33.636  39.010  1.00  0.00     0.055 A 
ATOM     53  C   UNL A   1      39.667  35.466  37.966  1.00  0.00     0.041 A 
ATOM     54  F   UNL A   1      40.585  35.189  35.829  1.00  0.00    -0.206 F 
ATOM     55  C   UNL A   1      38.949  34.962  39.044  1.00  0.00     0.022 A 
BRANCH  52  56
ATOM     56  S   UNL A   1      37.459  32.993  40.340  1.00  0.00     0.124 S 
ATOM     57  O   UNL A   1      36.212  32.729  39.633  1.00  0.00    -0.237 OA
ATOM     58  O   UNL A   1      38.210  31.821  40.779  1.00  0.00    -0.237 OA
ATOM     59  O   UNL A   1      37.413  34.095  41.299  1.00  0.00    -0.744 OA
ENDBRANCH  52  56
ENDBRANCH  25  49
BRANCH  37  60
ATOM     60  C   UNL A   1      44.283  28.471  35.306  1.00  0.00     0.023 A 
ATOM     61  C   UNL A   1      44.145  27.461  36.274  1.00  0.00     0.031 A 
ATOM     62  C   UNL A   1      45.561  29.020  35.099  1.00  0.00     0.131 A 
ATOM     63  C   UNL A   1      45.253  27.074  37.044  1.00  0.00     0.055 A 
ATOM     64  C   UNL A   1      46.672  28.588  35.825  1.00  0.00     0.041 A 
ATOM     65  F   UNL A   1      45.750  29.989  34.189  1.00  0.00    -0.206 F 
ATOM     66  C   UNL A   1      46.518  27.620  36.814  1.00  0.00     0.022 A 
BRANCH  63  67
ATOM     67  S   UNL A   1      44.998  25.917  38.417  1.00  0.00     0.124 S 
ATOM     68  O   UNL A   1      44.329  24.802  37.754  1.00  0.00    -0.237 OA
ATOM     69  O   UNL A   1      46.362  25.664  38.871  1.00  0.00    -0.237 OA
ATOM     70  O   UNL A   1      44.164  26.672  39.351  1.00  0.00    -0.744 OA
ENDBRANCH  63  67
ENDBRANCH  37  60
ENDBRANCH  11  12
ENDBRANCH   4   6
ENDBRANCH   1   2
BRANCH   1  71
ATOM     71  C   UNL A   1      31.406  31.630  26.538  1.00  0.00     0.042 C 
BRANCH  71  72
ATOM     72  C   UNL A   1      31.570  30.321  25.781  1.00  0.00     0.118 C 
BRANCH  72  73
ATOM     73  N   UNL A   1      30.952  30.366  24.465  1.00  0.00    -0.352 N 
ATOM     74  C   UNL A   1      30.750  29.339  23.578  1.00  0.00     0.255 C 
ATOM     75  H   UNL A   1      30.638  31.251  24.171  1.00  0.00     0.163 HD
ATOM     76  O   UNL A   1      30.315  29.558  22.452  1.00  0.00    -0.269 OA
BRANCH  74  77
ATOM     77  C   UNL A   1      31.115  27.965  23.964  1.00  0.00     0.081 A 
ATOM     78  C   UNL A   1      30.084  27.080  24.283  1.00  0.00     0.020 A 
ATOM     79  C   UNL A   1      32.441  27.537  24.021  1.00  0.00     0.130 A 
ATOM     80  C   UNL A   1      30.382  25.755  24.615  1.00  0.00     0.028 A 
ATOM     81  C   UNL A   1      32.733  26.217  24.365  1.00  0.00     0.073 A 
ATOM     82  C   UNL A   1      31.711  25.302  24.667  1.00  0.00     0.055 A 
BRANCH  79  83
ATOM     83  O   UNL A   1      33.462  28.397  23.719  1.00  0.00    -0.507 OA
ATOM     84  H   UNL A   1      33.721  29.051  24.339  1.00  0.00     0.293 HD
ENDBRANCH  79  83
BRANCH  82  85
ATOM     85  N   UNL A   1      32.021  23.964  25.049  1.00  0.00    -0.250 N 
ATOM     86  C   UNL A   1      31.855  23.478  26.325  1.00  0.00     0.234 C 
ATOM     87  C   UNL A   1      32.478  22.987  24.188  1.00  0.00     0.241 C 
ATOM     88  O   UNL A   1      31.475  24.065  27.332  1.00  0.00    -0.274 OA
ATOM     89  C   UNL A   1      32.083  22.003  26.326  1.00  0.00     0.119 C 
ATOM     90  C   UNL A   1      32.677  21.706  24.961  1.00  0.00     0.121 C 
ATOM     91  O   UNL A   1      32.718  23.090  22.991  1.00  0.00    -0.273 OA
BRANCH  90  92
ATOM     92  C   UNL A   1      34.095  21.227  25.071  1.00  0.00    -0.010 A 
ATOM     93  C   UNL A   1      34.606  19.954  24.906  1.00  0.00     0.088 A 
ATOM     94  C   UNL A   1      35.215  22.082  25.352  1.00  0.00     0.003 A 
ATOM     95  N   UNL A   1      35.967  20.005  25.080  1.00  0.00    -0.361 N 
ATOM     96  C   UNL A   1      36.366  21.297  25.328  1.00  0.00     0.046 A 
ATOM     97  C   UNL A   1      35.344  23.464  25.607  1.00  0.00     0.010 A 
ATOM     98  H   UNL A   1      36.569  19.228  25.034  1.00  0.00     0.166 HD
ATOM     99  C   UNL A   1      37.644  21.828  25.538  1.00  0.00     0.026 A 
ATOM    100  C   UNL A   1      36.613  24.011  25.818  1.00  0.00     0.001 A 
ATOM    101  C   UNL A   1      37.746  23.202  25.781  1.00  0.00     0.002 A 
ENDBRANCH  90  92
ENDBRANCH  82  85
ENDBRANCH  74  77
ENDBRANCH  72  73
ENDBRANCH  71  72
ENDBRANCH   1  71
TORSDOF 16
ENDMDL
MODEL 3
REMARK VINA RESULT:     -13.3      5.212     11.226
REMARK SMILES O=C(NCCCNC(=O)c1ccc(N2C(=O)C[C@H](c3c[nH]c4ccccc34)C2=O)cc1O)c1ccc(-c2c3nc(c(-c4cc(S(=O)(=O)[O-])ccc4F)c4ccc([nH]4)c(-c4cc(S(=O)(=O)[O-])ccc4F)c4nc(c(-c5cc(S(=O)(=O)[O-])ccc5F)c5ccc2[nH]5)C=C4)C=C3)cc1
REMARK SMILES IDX 4 1 3 2 1 3 2 4 33 6 34 7 95 8 35 9 94 10 36 11 37 12 38 13
REMARK SMILES IDX 88 14 39 15 93 16 87 17 89 18 40 19 92 20 86 21 85 22 41 24
REMARK SMILES IDX 73 25 53 26 72 27 54 28 57 29 71 30 90 31 55 32 56 33 70 35
REMARK SMILES IDX 91 36 58 37 42 38 43 39 51 40 44 41 50 42 52 43 49 44 45 45
REMARK SMILES IDX 46 46 47 47 48 48 74 49 75 50 83 51 76 52 82 53 84 54 81 55
REMARK SMILES IDX 77 56 78 57 79 58 80 59 59 60 60 61 68 62 61 63 67 64 69 65
REMARK SMILES IDX 66 66 62 67 63 68 64 69 65 70 5 71 6 72 7 73 8 74 9 76 10 77
REMARK SMILES IDX 11 78 31 79 12 80 30 81 13 82 32 83 14 85 15 86 28 87 16 88
REMARK SMILES IDX 17 89 18 90 29 91 19 92 20 93 27 94 21 95 22 96 26 97 23 99
REMARK SMILES IDX 25 100 24 101
REMARK H PARENT 3 5 89 23 57 34 7 75 32 84 21 98
REMARK Flexibility Score: inf
ROOT
ATOM      1  C   UNL A   1      38.511  20.436  25.411  1.00  0.00     0.118 C 
ENDROOT
BRANCH   1   2
ATOM      2  N   UNL A   1      39.574  19.536  25.845  1.00  0.00    -0.352 N 
ATOM      3  O   UNL A   1      41.646  18.895  26.445  1.00  0.00    -0.269 OA
ATOM      4  C   UNL A   1      40.836  19.813  26.314  1.00  0.00     0.251 C 
ATOM      5  H   UNL A   1      39.352  18.579  25.795  1.00  0.00     0.163 HD
BRANCH   4   6
ATOM      6  C   UNL A   1      41.227  21.200  26.642  1.00  0.00     0.039 A 
ATOM      7  C   UNL A   1      41.370  22.158  25.638  1.00  0.00     0.014 A 
ATOM      8  C   UNL A   1      41.428  21.558  27.979  1.00  0.00     0.014 A 
ATOM      9  C   UNL A   1      41.873  23.415  25.946  1.00  0.00     0.010 A 
ATOM     10  C   UNL A   1      41.830  22.860  28.299  1.00  0.00     0.010 A 
ATOM     11  C   UNL A   1      42.088  23.790  27.281  1.00  0.00    -0.014 A 
BRANCH  11  12
ATOM     12  C   UNL A   1      42.521  25.181  27.579  1.00  0.00     0.031 A 
ATOM     13  C   UNL A   1      43.879  25.679  27.165  1.00  0.00     0.074 A 
ATOM     14  C   UNL A   1      41.652  26.008  28.194  1.00  0.00     0.049 A 
ATOM     15  N   UNL A   1      44.410  26.862  27.334  1.00  0.00    -0.248 NA
ATOM     16  C   UNL A   1      44.758  24.720  26.481  1.00  0.00     0.031 C 
ATOM     17  C   UNL A   1      40.307  25.631  28.639  1.00  0.00     0.029 A 
ATOM     18  N   UNL A   1      41.750  27.333  28.529  1.00  0.00    -0.354 N 
ATOM     19  C   UNL A   1      45.688  26.793  26.789  1.00  0.00     0.074 A 
ATOM     20  C   UNL A   1      45.864  25.434  26.320  1.00  0.00     0.031 C 
ATOM     21  C   UNL A   1      39.689  26.710  29.139  1.00  0.00     0.029 A 
ATOM     22  C   UNL A   1      40.616  27.835  29.124  1.00  0.00     0.049 A 
ATOM     23  H   UNL A   1      42.555  27.874  28.360  1.00  0.00     0.167 HD
ATOM     24  C   UNL A   1      46.619  27.775  26.683  1.00  0.00     0.034 A 
ATOM     25  C   UNL A   1      40.355  29.057  29.625  1.00  0.00     0.034 A 
ATOM     26  C   UNL A   1      46.422  29.124  27.162  1.00  0.00     0.049 A 
ATOM     27  C   UNL A   1      41.424  30.112  29.540  1.00  0.00     0.074 A 
ATOM     28  C   UNL A   1      47.291  30.199  27.095  1.00  0.00     0.029 A 
ATOM     29  N   UNL A   1      45.278  29.583  27.805  1.00  0.00    -0.354 N 
ATOM     30  N   UNL A   1      42.625  30.028  29.018  1.00  0.00    -0.248 NA
ATOM     31  C   UNL A   1      41.102  31.424  30.113  1.00  0.00     0.031 C 
ATOM     32  C   UNL A   1      46.702  31.286  27.753  1.00  0.00     0.029 A 
ATOM     33  C   UNL A   1      45.432  30.914  28.165  1.00  0.00     0.049 A 
ATOM     34  H   UNL A   1      44.475  29.042  27.980  1.00  0.00     0.167 HD
ATOM     35  C   UNL A   1      43.196  31.286  29.181  1.00  0.00     0.074 A 
ATOM     36  C   UNL A   1      42.197  32.113  29.828  1.00  0.00     0.031 C 
ATOM     37  C   UNL A   1      44.433  31.719  28.828  1.00  0.00     0.034 A 
BRANCH  24  38
ATOM     38  C   UNL A   1      47.948  27.409  26.064  1.00  0.00     0.023 A 
ATOM     39  C   UNL A   1      48.212  27.605  24.697  1.00  0.00     0.031 A 
ATOM     40  C   UNL A   1      48.965  26.837  26.851  1.00  0.00     0.131 A 
ATOM     41  C   UNL A   1      49.429  27.173  24.146  1.00  0.00     0.055 A 
ATOM     42  C   UNL A   1      50.203  26.480  26.313  1.00  0.00     0.041 A 
ATOM     43  F   UNL A   1      48.768  26.603  28.159  1.00  0.00    -0.206 F 
ATOM     44  C   UNL A   1      50.436  26.635  24.950  1.00  0.00     0.022 A 
BRANCH  41  45
ATOM     45  S   UNL A   1      49.624  27.198  22.342  1.00  0.00     0.124 S 
ATOM     46  O   UNL A   1      51.069  27.036  22.197  1.00  0.00    -0.237 OA
ATOM     47  O   UNL A   1      48.808  26.066  21.920  1.00  0.00    -0.237 OA
ATOM     48  O   UNL A   1      49.113  28.513  21.959  1.00  0.00    -0.744 OA
ENDBRANCH  41  45
ENDBRANCH  24  38
BRANCH  25  49
ATOM     49  C   UNL A   1      39.047  29.336  30.283  1.00  0.00     0.023 A 
ATOM     50  C   UNL A   1      38.076  30.135  29.661  1.00  0.00     0.031 A 
ATOM     51  C   UNL A   1      38.762  28.828  31.564  1.00  0.00     0.131 A 
ATOM     52  C   UNL A   1      36.885  30.439  30.338  1.00  0.00     0.055 A 
ATOM     53  C   UNL A   1      37.552  29.085  32.208  1.00  0.00     0.041 A 
ATOM     54  F   UNL A   1      39.655  28.056  32.203  1.00  0.00    -0.206 F 
ATOM     55  C   UNL A   1      36.610  29.906  31.600  1.00  0.00     0.022 A 
BRANCH  52  56
ATOM     56  S   UNL A   1      35.734  31.617  29.579  1.00  0.00     0.124 S 
ATOM     57  O   UNL A   1      36.644  32.631  29.063  1.00  0.00    -0.237 OA
ATOM     58  O   UNL A   1      35.064  30.787  28.583  1.00  0.00    -0.237 OA
ATOM     59  O   UNL A   1      34.895  32.041  30.698  1.00  0.00    -0.744 OA
ENDBRANCH  52  56
ENDBRANCH  25  49
BRANCH  37  60
ATOM     60  C   UNL A   1      44.746  33.168  29.111  1.00  0.00     0.023 A 
ATOM     61  C   UNL A   1      44.311  34.197  28.259  1.00  0.00     0.031 A 
ATOM     62  C   UNL A   1      45.522  33.517  30.230  1.00  0.00     0.131 A 
ATOM     63  C   UNL A   1      44.706  35.522  28.504  1.00  0.00     0.055 A 
ATOM     64  C   UNL A   1      45.861  34.843  30.503  1.00  0.00     0.041 A 
ATOM     65  F   UNL A   1      45.967  32.573  31.075  1.00  0.00    -0.206 F 
ATOM     66  C   UNL A   1      45.465  35.852  29.630  1.00  0.00     0.022 A 
BRANCH  63  67
ATOM     67  S   UNL A   1      44.296  36.794  27.278  1.00  0.00     0.124 S 
ATOM     68  O   UNL A   1      43.747  37.856  28.115  1.00  0.00    -0.237 OA
ATOM     69  O   UNL A   1      45.593  37.069  26.667  1.00  0.00    -0.237 OA
ATOM     70  O   UNL A   1      43.329  36.130  26.406  1.00  0.00    -0.744 OA
ENDBRANCH  63  67
ENDBRANCH  37  60
ENDBRANCH  11  12
ENDBRANCH   4   6
ENDBRANCH   1   2
BRANCH   1  71
ATOM     71  C   UNL A   1      37.260  19.694  24.967  1.00  0.00     0.042 C 
BRANCH  71  72
ATOM     72  C   UNL A   1      36.001  20.546  25.003  1.00  0.00     0.118 C 
BRANCH  72  73
ATOM     73  N   UNL A   1      34.825  19.774  25.374  1.00  0.00    -0.352 N 
ATOM     74  C   UNL A   1      33.505  20.140  25.312  1.00  0.00     0.255 C 
ATOM     75  H   UNL A   1      35.000  18.866  25.714  1.00  0.00     0.163 HD
ATOM     76  O   UNL A   1      32.629  19.414  25.772  1.00  0.00    -0.269 OA
BRANCH  74  77
ATOM     77  C   UNL A   1      33.142  21.448  24.741  1.00  0.00     0.081 A 
ATOM     78  C   UNL A   1      32.621  21.475  23.447  1.00  0.00     0.020 A 
ATOM     79  C   UNL A   1      33.305  22.639  25.449  1.00  0.00     0.130 A 
ATOM     80  C   UNL A   1      32.224  22.690  22.881  1.00  0.00     0.028 A 
ATOM     81  C   UNL A   1      32.920  23.851  24.874  1.00  0.00     0.073 A 
ATOM     82  C   UNL A   1      32.372  23.899  23.581  1.00  0.00     0.055 A 
BRANCH  79  83
ATOM     83  O   UNL A   1      33.823  22.629  26.715  1.00  0.00    -0.507 OA
ATOM     84  H   UNL A   1      34.749  22.550  26.842  1.00  0.00     0.293 HD
ENDBRANCH  79  83
BRANCH  82  85
ATOM     85  N   UNL A   1      32.010  25.145  22.990  1.00  0.00    -0.250 N 
ATOM     86  C   UNL A   1      32.821  25.841  22.125  1.00  0.00     0.234 C 
ATOM     87  C   UNL A   1      30.798  25.779  23.173  1.00  0.00     0.241 C 
ATOM     88  O   UNL A   1      33.957  25.575  21.746  1.00  0.00    -0.274 OA
ATOM     89  C   UNL A   1      32.060  26.987  21.547  1.00  0.00     0.119 C 
ATOM     90  C   UNL A   1      30.791  27.060  22.375  1.00  0.00     0.121 C 
ATOM     91  O   UNL A   1      29.857  25.418  23.870  1.00  0.00    -0.273 OA
BRANCH  90  92
ATOM     92  C   UNL A   1      30.732  28.326  23.180  1.00  0.00    -0.010 A 
ATOM     93  C   UNL A   1      31.647  28.834  24.082  1.00  0.00     0.088 A 
ATOM     94  C   UNL A   1      29.660  29.280  23.107  1.00  0.00     0.003 A 
ATOM     95  N   UNL A   1      31.174  30.033  24.554  1.00  0.00    -0.361 N 
ATOM     96  C   UNL A   1      29.975  30.340  23.954  1.00  0.00     0.046 A 
ATOM     97  C   UNL A   1      28.456  29.334  22.374  1.00  0.00     0.010 A 
ATOM     98  H   UNL A   1      31.628  30.594  25.224  1.00  0.00     0.166 HD
ATOM     99  C   UNL A   1      29.147  31.460  24.099  1.00  0.00     0.026 A 
ATOM    100  C   UNL A   1      27.617  30.446  22.506  1.00  0.00     0.001 A 
ATOM    101  C   UNL A   1      27.962  31.494  23.355  1.00  0.00     0.002 A 
ENDBRANCH  90  92
ENDBRANCH  82  85
ENDBRANCH  74  77
ENDBRANCH  72  73
ENDBRANCH  71  72
ENDBRANCH   1  71
TORSDOF 16
ENDMDL
