MODEL 1
REMARK VINA RESULT:     -10.5      0.000      0.000
REMARK SMILES Nc1ccc(O)c(C(=O)NCCCNC(=O)c2ccc(-c3c4nc(c(-c5cc(S(=O)(=O)[O-])ccc5F)c5ccc([nH]5)c(-c5cc(S(=O)(=O)[O-])ccc5F)c5nc(c(-c6cc(S(=O)(=O)[O-])ccc6F)c6ccc3[nH]6)C=C5)C=C4)cc2)c1
REMARK SMILES IDX 13 1 12 2 11 3 10 4 8 5 9 6 7 8 2 9 3 10 80 11 4 12 5 13
REMARK SMILES IDX 1 14 6 17 14 19 15 20 16 22 17 23 18 24 79 25 19 26 78 27
REMARK SMILES IDX 20 28 21 29 22 30 72 31 23 32 77 33 71 34 73 35 24 36 76 37
REMARK SMILES IDX 70 38 69 39 25 41 57 42 37 43 56 44 38 45 41 46 55 47 74 48
REMARK SMILES IDX 39 49 40 50 54 52 75 53 42 54 26 55 27 56 35 57 28 58 34 59
REMARK SMILES IDX 36 60 33 61 29 62 30 63 31 64 32 65 58 66 59 67 67 68 60 69
REMARK SMILES IDX 66 70 68 71 65 72 61 73 62 74 63 75 64 76 43 77 44 78 52 79
REMARK SMILES IDX 45 80 51 81 53 82 50 83 46 84 47 85 48 86 49 87
REMARK H PARENT 10 7 1 15 1 16 6 18 14 21 73 40 41 51
REMARK Flexibility Score: inf
ROOT
ATOM      1  C   UNL A   1      34.182  33.920  28.951  1.00  0.00     0.118 C 
ENDROOT
BRANCH   1   2
ATOM      2  C   UNL A   1      33.288  35.100  29.328  1.00  0.00     0.042 C 
BRANCH   2   3
ATOM      3  C   UNL A   1      33.521  35.584  30.759  1.00  0.00     0.118 C 
BRANCH   3   4
ATOM      4  N   UNL A   1      33.283  34.514  31.709  1.00  0.00    -0.352 N 
ATOM      5  C   UNL A   1      34.088  33.829  32.579  1.00  0.00     0.255 C 
ATOM      6  O   UNL A   1      33.539  32.979  33.290  1.00  0.00    -0.269 OA
ATOM      7  H   UNL A   1      32.344  34.219  31.735  1.00  0.00     0.163 HD
BRANCH   5   8
ATOM      8  C   UNL A   1      35.544  34.074  32.781  1.00  0.00     0.083 A 
ATOM      9  C   UNL A   1      37.794  34.620  31.994  1.00  0.00     0.032 A 
ATOM     10  C   UNL A   1      38.255  34.619  33.310  1.00  0.00     0.029 A 
ATOM     11  C   UNL A   1      36.459  34.281  31.740  1.00  0.00     0.043 A 
ATOM     12  C   UNL A   1      37.384  34.341  34.361  1.00  0.00     0.049 A 
ATOM     13  C   UNL A   1      36.042  34.079  34.098  1.00  0.00     0.128 A 
BRANCH   9  14
ATOM     14  N   UNL A   1      38.673  34.843  30.946  1.00  0.00    -0.399 N 
ATOM     15  H   UNL A   1      39.402  35.496  31.046  1.00  0.00     0.156 HD
ATOM     16  H   UNL A   1      38.567  34.349  30.101  1.00  0.00     0.156 HD
ENDBRANCH   9  14
BRANCH  13  17
ATOM     17  O   UNL A   1      35.268  33.818  35.201  1.00  0.00    -0.507 OA
ATOM     18  H   UNL A   1      34.371  34.089  35.217  1.00  0.00     0.293 HD
ENDBRANCH  13  17
ENDBRANCH   5   8
ENDBRANCH   3   4
ENDBRANCH   2   3
ENDBRANCH   1   2
BRANCH   1  19
ATOM     19  N   UNL A   1      33.479  32.957  28.109  1.00  0.00    -0.352 N 
ATOM     20  C   UNL A   1      33.913  31.761  27.590  1.00  0.00     0.251 C 
ATOM     21  H   UNL A   1      32.553  33.202  27.878  1.00  0.00     0.163 HD
ATOM     22  O   UNL A   1      33.271  31.224  26.695  1.00  0.00    -0.269 OA
BRANCH  20  23
ATOM     23  C   UNL A   1      35.151  31.140  28.105  1.00  0.00     0.039 A 
ATOM     24  C   UNL A   1      36.350  31.855  28.042  1.00  0.00     0.014 A 
ATOM     25  C   UNL A   1      35.129  29.849  28.637  1.00  0.00     0.014 A 
ATOM     26  C   UNL A   1      37.514  31.301  28.582  1.00  0.00     0.010 A 
ATOM     27  C   UNL A   1      36.270  29.332  29.242  1.00  0.00     0.010 A 
ATOM     28  C   UNL A   1      37.473  30.053  29.224  1.00  0.00    -0.014 A 
BRANCH  28  29
ATOM     29  C   UNL A   1      38.670  29.476  29.890  1.00  0.00     0.031 A 
ATOM     30  C   UNL A   1      39.100  29.997  31.234  1.00  0.00     0.074 A 
ATOM     31  C   UNL A   1      39.416  28.559  29.245  1.00  0.00     0.049 A 
ATOM     32  N   UNL A   1      40.188  29.739  31.912  1.00  0.00    -0.248 NA
ATOM     33  C   UNL A   1      38.199  30.961  31.884  1.00  0.00     0.031 C 
ATOM     34  C   UNL A   1      39.112  27.997  27.927  1.00  0.00     0.029 A 
ATOM     35  N   UNL A   1      40.594  27.947  29.599  1.00  0.00    -0.354 N 
ATOM     36  C   UNL A   1      40.113  30.521  33.060  1.00  0.00     0.074 A 
ATOM     37  C   UNL A   1      38.901  31.306  32.953  1.00  0.00     0.031 C 
ATOM     38  C   UNL A   1      40.068  27.115  27.591  1.00  0.00     0.029 A 
ATOM     39  C   UNL A   1      41.083  27.091  28.638  1.00  0.00     0.049 A 
ATOM     40  H   UNL A   1      41.046  28.107  30.459  1.00  0.00     0.167 HD
ATOM     41  C   UNL A   1      40.968  30.567  34.112  1.00  0.00     0.034 A 
ATOM     42  C   UNL A   1      42.233  26.388  28.594  1.00  0.00     0.034 A 
ATOM     43  C   UNL A   1      42.167  29.769  34.201  1.00  0.00     0.049 A 
ATOM     44  C   UNL A   1      43.193  26.490  29.753  1.00  0.00     0.074 A 
ATOM     45  C   UNL A   1      43.076  29.695  35.241  1.00  0.00     0.029 A 
ATOM     46  N   UNL A   1      42.631  28.915  33.207  1.00  0.00    -0.354 N 
ATOM     47  N   UNL A   1      43.089  27.205  30.850  1.00  0.00    -0.248 NA
ATOM     48  C   UNL A   1      44.421  25.689  29.673  1.00  0.00     0.031 C 
ATOM     49  C   UNL A   1      44.128  28.862  34.846  1.00  0.00     0.029 A 
ATOM     50  C   UNL A   1      43.831  28.340  33.596  1.00  0.00     0.049 A 
ATOM     51  H   UNL A   1      42.173  28.742  32.353  1.00  0.00     0.167 HD
ATOM     52  C   UNL A   1      44.220  26.909  31.605  1.00  0.00     0.074 A 
ATOM     53  C   UNL A   1      44.988  25.946  30.843  1.00  0.00     0.031 C 
ATOM     54  C   UNL A   1      44.586  27.382  32.824  1.00  0.00     0.034 A 
BRANCH  41  55
ATOM     55  C   UNL A   1      40.650  31.531  35.230  1.00  0.00     0.023 A 
ATOM     56  C   UNL A   1      39.620  31.279  36.154  1.00  0.00     0.031 A 
ATOM     57  C   UNL A   1      41.370  32.731  35.363  1.00  0.00     0.131 A 
ATOM     58  C   UNL A   1      39.289  32.244  37.117  1.00  0.00     0.055 A 
ATOM     59  C   UNL A   1      41.094  33.648  36.379  1.00  0.00     0.041 A 
ATOM     60  F   UNL A   1      42.350  33.040  34.499  1.00  0.00    -0.206 F 
ATOM     61  C   UNL A   1      40.037  33.416  37.253  1.00  0.00     0.022 A 
BRANCH  58  62
ATOM     62  S   UNL A   1      37.772  32.016  38.083  1.00  0.00     0.124 S 
ATOM     63  O   UNL A   1      36.915  33.068  37.539  1.00  0.00    -0.237 OA
ATOM     64  O   UNL A   1      37.390  30.648  37.754  1.00  0.00    -0.237 OA
ATOM     65  O   UNL A   1      38.208  32.230  39.462  1.00  0.00    -0.744 OA
ENDBRANCH  58  62
ENDBRANCH  41  55
BRANCH  42  66
ATOM     66  C   UNL A   1      42.557  25.543  27.407  1.00  0.00     0.023 A 
ATOM     67  C   UNL A   1      42.131  24.207  27.332  1.00  0.00     0.031 A 
ATOM     68  C   UNL A   1      43.336  26.044  26.348  1.00  0.00     0.131 A 
ATOM     69  C   UNL A   1      42.526  23.406  26.251  1.00  0.00     0.055 A 
ATOM     70  C   UNL A   1      43.676  25.259  25.245  1.00  0.00     0.041 A 
ATOM     71  F   UNL A   1      43.770  27.315  26.366  1.00  0.00    -0.206 F 
ATOM     72  C   UNL A   1      43.282  23.926  25.199  1.00  0.00     0.022 A 
BRANCH  69  73
ATOM     73  S   UNL A   1      42.119  21.638  26.288  1.00  0.00     0.124 S 
ATOM     74  O   UNL A   1      42.360  21.308  27.687  1.00  0.00    -0.237 OA
ATOM     75  O   UNL A   1      40.723  21.641  25.858  1.00  0.00    -0.237 OA
ATOM     76  O   UNL A   1      43.061  21.053  25.335  1.00  0.00    -0.744 OA
ENDBRANCH  69  73
ENDBRANCH  42  66
BRANCH  54  77
ATOM     77  C   UNL A   1      45.846  26.819  33.436  1.00  0.00     0.023 A 
ATOM     78  C   UNL A   1      45.851  25.617  34.163  1.00  0.00     0.031 A 
ATOM     79  C   UNL A   1      47.069  27.496  33.268  1.00  0.00     0.131 A 
ATOM     80  C   UNL A   1      47.046  25.148  34.729  1.00  0.00     0.055 A 
ATOM     81  C   UNL A   1      48.264  26.993  33.780  1.00  0.00     0.041 A 
ATOM     82  F   UNL A   1      47.121  28.653  32.587  1.00  0.00    -0.206 F 
ATOM     83  C   UNL A   1      48.256  25.818  34.525  1.00  0.00     0.022 A 
BRANCH  80  84
ATOM     84  S   UNL A   1      46.991  23.688  35.804  1.00  0.00     0.124 S 
ATOM     85  O   UNL A   1      45.590  23.668  36.214  1.00  0.00    -0.237 OA
ATOM     86  O   UNL A   1      47.406  22.619  34.902  1.00  0.00    -0.237 OA
ATOM     87  O   UNL A   1      47.944  24.007  36.866  1.00  0.00    -0.744 OA
ENDBRANCH  80  84
ENDBRANCH  54  77
ENDBRANCH  28  29
ENDBRANCH  20  23
ENDBRANCH   1  19
TORSDOF 15
ENDMDL
MODEL 2
REMARK VINA RESULT:     -10.3      5.212     12.157
REMARK SMILES Nc1ccc(O)c(C(=O)NCCCNC(=O)c2ccc(-c3c4nc(c(-c5cc(S(=O)(=O)[O-])ccc5F)c5ccc([nH]5)c(-c5cc(S(=O)(=O)[O-])ccc5F)c5nc(c(-c6cc(S(=O)(=O)[O-])ccc6F)c6ccc3[nH]6)C=C5)C=C4)cc2)c1
REMARK SMILES IDX 13 1 12 2 11 3 10 4 8 5 9 6 7 8 2 9 3 10 80 11 4 12 5 13
REMARK SMILES IDX 1 14 6 17 14 19 15 20 16 22 17 23 18 24 79 25 19 26 78 27
REMARK SMILES IDX 20 28 21 29 22 30 72 31 23 32 77 33 71 34 73 35 24 36 76 37
REMARK SMILES IDX 70 38 69 39 25 41 57 42 37 43 56 44 38 45 41 46 55 47 74 48
REMARK SMILES IDX 39 49 40 50 54 52 75 53 42 54 26 55 27 56 35 57 28 58 34 59
REMARK SMILES IDX 36 60 33 61 29 62 30 63 31 64 32 65 58 66 59 67 67 68 60 69
REMARK SMILES IDX 66 70 68 71 65 72 61 73 62 74 63 75 64 76 43 77 44 78 52 79
REMARK SMILES IDX 45 80 51 81 53 82 50 83 46 84 47 85 48 86 49 87
REMARK H PARENT 10 7 1 15 1 16 6 18 14 21 73 40 41 51
REMARK Flexibility Score: inf
ROOT
ATOM      1  C   UNL A   1      41.569  20.576  26.708  1.00  0.00     0.118 C 
ENDROOT
BRANCH   1   2
ATOM      2  C   UNL A   1      42.372  19.444  26.067  1.00  0.00     0.042 C 
BRANCH   2   3
ATOM      3  C   UNL A   1      43.813  19.846  25.756  1.00  0.00     0.118 C 
BRANCH   3   4
ATOM      4  N   UNL A   1      43.862  20.744  24.617  1.00  0.00    -0.352 N 
ATOM      5  C   UNL A   1      44.387  21.993  24.424  1.00  0.00     0.255 C 
ATOM      6  O   UNL A   1      44.283  22.468  23.287  1.00  0.00    -0.269 OA
ATOM      7  H   UNL A   1      43.427  20.376  23.814  1.00  0.00     0.163 HD
BRANCH   5   8
ATOM      8  C   UNL A   1      45.127  22.785  25.447  1.00  0.00     0.083 A 
ATOM      9  C   UNL A   1      45.547  23.543  27.734  1.00  0.00     0.032 A 
ATOM     10  C   UNL A   1      46.671  24.243  27.295  1.00  0.00     0.029 A 
ATOM     11  C   UNL A   1      44.750  22.877  26.793  1.00  0.00     0.043 A 
ATOM     12  C   UNL A   1      47.027  24.231  25.948  1.00  0.00     0.049 A 
ATOM     13  C   UNL A   1      46.266  23.504  25.037  1.00  0.00     0.128 A 
BRANCH   9  14
ATOM     14  N   UNL A   1      45.164  23.600  29.064  1.00  0.00    -0.399 N 
ATOM     15  H   UNL A   1      45.515  24.310  29.648  1.00  0.00     0.156 HD
ATOM     16  H   UNL A   1      44.541  22.928  29.425  1.00  0.00     0.156 HD
ENDBRANCH   9  14
BRANCH  13  17
ATOM     17  O   UNL A   1      46.700  23.556  23.736  1.00  0.00    -0.507 OA
ATOM     18  H   UNL A   1      47.135  22.817  23.358  1.00  0.00     0.293 HD
ENDBRANCH  13  17
ENDBRANCH   5   8
ENDBRANCH   3   4
ENDBRANCH   2   3
ENDBRANCH   1   2
BRANCH   1  19
ATOM     19  N   UNL A   1      40.209  20.637  26.183  1.00  0.00    -0.352 N 
ATOM     20  C   UNL A   1      39.273  21.639  26.280  1.00  0.00     0.251 C 
ATOM     21  H   UNL A   1      39.917  19.840  25.683  1.00  0.00     0.163 HD
ATOM     22  O   UNL A   1      38.103  21.401  26.003  1.00  0.00    -0.269 OA
BRANCH  20  23
ATOM     23  C   UNL A   1      39.681  22.988  26.728  1.00  0.00     0.039 A 
ATOM     24  C   UNL A   1      40.636  23.111  27.740  1.00  0.00     0.014 A 
ATOM     25  C   UNL A   1      39.110  24.127  26.156  1.00  0.00     0.014 A 
ATOM     26  C   UNL A   1      41.072  24.381  28.127  1.00  0.00     0.010 A 
ATOM     27  C   UNL A   1      39.601  25.386  26.488  1.00  0.00     0.010 A 
ATOM     28  C   UNL A   1      40.589  25.526  27.474  1.00  0.00    -0.014 A 
BRANCH  28  29
ATOM     29  C   UNL A   1      41.100  26.884  27.796  1.00  0.00     0.031 A 
ATOM     30  C   UNL A   1      42.535  27.230  27.507  1.00  0.00     0.074 A 
ATOM     31  C   UNL A   1      40.302  27.765  28.429  1.00  0.00     0.049 A 
ATOM     32  N   UNL A   1      43.213  28.296  27.843  1.00  0.00    -0.248 NA
ATOM     33  C   UNL A   1      43.317  26.226  26.769  1.00  0.00     0.031 C 
ATOM     34  C   UNL A   1      38.900  27.532  28.784  1.00  0.00     0.029 A 
ATOM     35  N   UNL A   1      40.556  29.028  28.907  1.00  0.00    -0.354 N 
ATOM     36  C   UNL A   1      44.507  28.085  27.376  1.00  0.00     0.074 A 
ATOM     37  C   UNL A   1      44.528  26.763  26.786  1.00  0.00     0.031 C 
ATOM     38  C   UNL A   1      38.416  28.619  29.407  1.00  0.00     0.029 A 
ATOM     39  C   UNL A   1      39.484  29.602  29.551  1.00  0.00     0.049 A 
ATOM     40  H   UNL A   1      41.424  29.479  28.798  1.00  0.00     0.167 HD
ATOM     41  C   UNL A   1      45.571  28.925  27.420  1.00  0.00     0.034 A 
ATOM     42  C   UNL A   1      39.381  30.774  30.209  1.00  0.00     0.034 A 
ATOM     43  C   UNL A   1      45.525  30.242  28.006  1.00  0.00     0.049 A 
ATOM     44  C   UNL A   1      40.591  31.672  30.288  1.00  0.00     0.074 A 
ATOM     45  C   UNL A   1      46.525  31.196  28.059  1.00  0.00     0.029 A 
ATOM     46  N   UNL A   1      44.421  30.788  28.651  1.00  0.00    -0.354 N 
ATOM     47  N   UNL A   1      41.798  31.476  29.805  1.00  0.00    -0.248 NA
ATOM     48  C   UNL A   1      40.428  32.950  30.993  1.00  0.00     0.031 C 
ATOM     49  C   UNL A   1      46.056  32.283  28.804  1.00  0.00     0.029 A 
ATOM     50  C   UNL A   1      44.731  32.049  29.137  1.00  0.00     0.049 A 
ATOM     51  H   UNL A   1      43.548  30.344  28.749  1.00  0.00     0.167 HD
ATOM     52  C   UNL A   1      42.523  32.622  30.117  1.00  0.00     0.074 A 
ATOM     53  C   UNL A   1      41.618  33.507  30.821  1.00  0.00     0.031 C 
ATOM     54  C   UNL A   1      43.817  32.921  29.838  1.00  0.00     0.034 A 
BRANCH  41  55
ATOM     55  C   UNL A   1      46.877  28.428  26.847  1.00  0.00     0.023 A 
ATOM     56  C   UNL A   1      47.097  28.356  25.460  1.00  0.00     0.031 A 
ATOM     57  C   UNL A   1      47.912  27.998  27.697  1.00  0.00     0.131 A 
ATOM     58  C   UNL A   1      48.284  27.795  24.965  1.00  0.00     0.055 A 
ATOM     59  C   UNL A   1      49.127  27.525  27.199  1.00  0.00     0.041 A 
ATOM     60  F   UNL A   1      47.755  28.021  29.030  1.00  0.00    -0.206 F 
ATOM     61  C   UNL A   1      49.312  27.404  25.825  1.00  0.00     0.022 A 
BRANCH  58  62
ATOM     62  S   UNL A   1      48.398  27.442  23.190  1.00  0.00     0.124 S 
ATOM     63  O   UNL A   1      49.717  27.984  22.867  1.00  0.00    -0.237 OA
ATOM     64  O   UNL A   1      48.277  25.989  23.148  1.00  0.00    -0.237 OA
ATOM     65  O   UNL A   1      47.273  28.181  22.620  1.00  0.00    -0.744 OA
ENDBRANCH  58  62
ENDBRANCH  41  55
BRANCH  42  66
ATOM     66  C   UNL A   1      38.099  31.164  30.865  1.00  0.00     0.023 A 
ATOM     67  C   UNL A   1      37.099  31.846  30.152  1.00  0.00     0.031 A 
ATOM     68  C   UNL A   1      37.869  30.900  32.228  1.00  0.00     0.131 A 
ATOM     69  C   UNL A   1      35.942  32.283  30.813  1.00  0.00     0.055 A 
ATOM     70  C   UNL A   1      36.689  31.284  32.866  1.00  0.00     0.041 A 
ATOM     71  F   UNL A   1      38.789  30.249  32.958  1.00  0.00    -0.206 F 
ATOM     72  C   UNL A   1      35.722  31.993  32.161  1.00  0.00     0.022 A 
BRANCH  69  73
ATOM     73  S   UNL A   1      34.768  33.327  29.907  1.00  0.00     0.124 S 
ATOM     74  O   UNL A   1      33.928  33.834  30.985  1.00  0.00    -0.237 OA
ATOM     75  O   UNL A   1      35.654  34.298  29.271  1.00  0.00    -0.237 OA
ATOM     76  O   UNL A   1      34.116  32.390  28.993  1.00  0.00    -0.744 OA
ENDBRANCH  69  73
ENDBRANCH  42  66
BRANCH  54  77
ATOM     77  C   UNL A   1      44.316  34.287  30.243  1.00  0.00     0.023 A 
ATOM     78  C   UNL A   1      44.155  35.415  29.421  1.00  0.00     0.031 A 
ATOM     79  C   UNL A   1      44.949  34.460  31.488  1.00  0.00     0.131 A 
ATOM     80  C   UNL A   1      44.656  36.658  29.835  1.00  0.00     0.055 A 
ATOM     81  C   UNL A   1      45.389  35.710  31.922  1.00  0.00     0.041 A 
ATOM     82  F   UNL A   1      45.134  33.415  32.312  1.00  0.00    -0.206 F 
ATOM     83  C   UNL A   1      45.253  36.817  31.089  1.00  0.00     0.022 A 
BRANCH  80  84
ATOM     84  S   UNL A   1      44.587  38.057  28.683  1.00  0.00     0.124 S 
ATOM     85  O   UNL A   1      46.002  38.342  28.469  1.00  0.00    -0.237 OA
ATOM     86  O   UNL A   1      43.873  37.489  27.544  1.00  0.00    -0.237 OA
ATOM     87  O   UNL A   1      43.854  39.079  29.427  1.00  0.00    -0.744 OA
ENDBRANCH  80  84
ENDBRANCH  54  77
ENDBRANCH  28  29
ENDBRANCH  20  23
ENDBRANCH   1  19
TORSDOF 15
ENDMDL
MODEL 3
REMARK VINA RESULT:     -10.3      3.419      9.841
REMARK SMILES Nc1ccc(O)c(C(=O)NCCCNC(=O)c2ccc(-c3c4nc(c(-c5cc(S(=O)(=O)[O-])ccc5F)c5ccc([nH]5)c(-c5cc(S(=O)(=O)[O-])ccc5F)c5nc(c(-c6cc(S(=O)(=O)[O-])ccc6F)c6ccc3[nH]6)C=C5)C=C4)cc2)c1
REMARK SMILES IDX 13 1 12 2 11 3 10 4 8 5 9 6 7 8 2 9 3 10 80 11 4 12 5 13
REMARK SMILES IDX 1 14 6 17 14 19 15 20 16 22 17 23 18 24 79 25 19 26 78 27
REMARK SMILES IDX 20 28 21 29 22 30 72 31 23 32 77 33 71 34 73 35 24 36 76 37
REMARK SMILES IDX 70 38 69 39 25 41 57 42 37 43 56 44 38 45 41 46 55 47 74 48
REMARK SMILES IDX 39 49 40 50 54 52 75 53 42 54 26 55 27 56 35 57 28 58 34 59
REMARK SMILES IDX 36 60 33 61 29 62 30 63 31 64 32 65 58 66 59 67 67 68 60 69
REMARK SMILES IDX 66 70 68 71 65 72 61 73 62 74 63 75 64 76 43 77 44 78 52 79
REMARK SMILES IDX 45 80 51 81 53 82 50 83 46 84 47 85 48 86 49 87
REMARK H PARENT 10 7 1 15 1 16 6 18 14 21 73 40 41 51
REMARK Flexibility Score: inf
ROOT
ATOM      1  C   UNL A   1      32.083  29.897  26.725  1.00  0.00     0.118 C 
ENDROOT
BRANCH   1   2
ATOM      2  C   UNL A   1      32.272  29.283  25.338  1.00  0.00     0.042 C 
BRANCH   2   3
ATOM      3  C   UNL A   1      31.827  27.823  25.273  1.00  0.00     0.118 C 
BRANCH   3   4
ATOM      4  N   UNL A   1      31.931  27.313  23.918  1.00  0.00    -0.352 N 
ATOM      5  C   UNL A   1      31.157  27.448  22.798  1.00  0.00     0.255 C 
ATOM      6  O   UNL A   1      31.566  26.896  21.770  1.00  0.00    -0.269 OA
ATOM      7  H   UNL A   1      32.728  26.752  23.774  1.00  0.00     0.163 HD
BRANCH   5   8
ATOM      8  C   UNL A   1      29.909  28.259  22.705  1.00  0.00     0.083 A 
ATOM      9  C   UNL A   1      27.532  28.660  23.119  1.00  0.00     0.032 A 
ATOM     10  C   UNL A   1      27.649  29.931  22.558  1.00  0.00     0.029 A 
ATOM     11  C   UNL A   1      28.649  27.813  23.125  1.00  0.00     0.043 A 
ATOM     12  C   UNL A   1      28.874  30.373  22.062  1.00  0.00     0.049 A 
ATOM     13  C   UNL A   1      29.992  29.547  22.142  1.00  0.00     0.128 A 
BRANCH   9  14
ATOM     14  N   UNL A   1      26.302  28.202  23.562  1.00  0.00    -0.399 N 
ATOM     15  H   UNL A   1      25.643  28.836  23.926  1.00  0.00     0.156 HD
ATOM     16  H   UNL A   1      26.087  27.243  23.513  1.00  0.00     0.156 HD
ENDBRANCH   9  14
BRANCH  13  17
ATOM     17  O   UNL A   1      31.150  30.075  21.627  1.00  0.00    -0.507 OA
ATOM     18  H   UNL A   1      31.520  29.715  20.845  1.00  0.00     0.293 HD
ENDBRANCH  13  17
ENDBRANCH   5   8
ENDBRANCH   3   4
ENDBRANCH   2   3
ENDBRANCH   1   2
BRANCH   1  19
ATOM     19  N   UNL A   1      32.002  31.352  26.664  1.00  0.00    -0.352 N 
ATOM     20  C   UNL A   1      32.800  32.303  27.255  1.00  0.00     0.251 C 
ATOM     21  H   UNL A   1      31.263  31.707  26.118  1.00  0.00     0.163 HD
ATOM     22  O   UNL A   1      32.418  33.467  27.302  1.00  0.00    -0.269 OA
BRANCH  20  23
ATOM     23  C   UNL A   1      34.102  31.914  27.836  1.00  0.00     0.039 A 
ATOM     24  C   UNL A   1      35.090  32.887  28.009  1.00  0.00     0.014 A 
ATOM     25  C   UNL A   1      34.349  30.588  28.198  1.00  0.00     0.014 A 
ATOM     26  C   UNL A   1      36.301  32.542  28.615  1.00  0.00     0.010 A 
ATOM     27  C   UNL A   1      35.524  30.263  28.869  1.00  0.00     0.010 A 
ATOM     28  C   UNL A   1      36.510  31.236  29.088  1.00  0.00    -0.014 A 
BRANCH  28  29
ATOM     29  C   UNL A   1      37.748  30.858  29.818  1.00  0.00     0.031 A 
ATOM     30  C   UNL A   1      38.700  29.864  29.212  1.00  0.00     0.074 A 
ATOM     31  C   UNL A   1      37.962  31.336  31.060  1.00  0.00     0.049 A 
ATOM     32  N   UNL A   1      39.748  29.291  29.743  1.00  0.00    -0.248 NA
ATOM     33  C   UNL A   1      38.412  29.435  27.835  1.00  0.00     0.031 C 
ATOM     34  C   UNL A   1      37.096  32.286  31.762  1.00  0.00     0.029 A 
ATOM     35  N   UNL A   1      38.964  31.076  31.963  1.00  0.00    -0.354 N 
ATOM     36  C   UNL A   1      40.235  28.420  28.774  1.00  0.00     0.074 A 
ATOM     37  C   UNL A   1      39.330  28.499  27.647  1.00  0.00     0.031 C 
ATOM     38  C   UNL A   1      37.611  32.539  32.976  1.00  0.00     0.029 A 
ATOM     39  C   UNL A   1      38.807  31.728  33.165  1.00  0.00     0.049 A 
ATOM     40  H   UNL A   1      39.722  30.479  31.768  1.00  0.00     0.167 HD
ATOM     41  C   UNL A   1      41.345  27.641  28.816  1.00  0.00     0.034 A 
ATOM     42  C   UNL A   1      39.530  31.657  34.301  1.00  0.00     0.034 A 
ATOM     43  C   UNL A   1      42.238  27.584  29.947  1.00  0.00     0.049 A 
ATOM     44  C   UNL A   1      40.733  30.748  34.343  1.00  0.00     0.074 A 
ATOM     45  C   UNL A   1      43.417  26.872  30.078  1.00  0.00     0.029 A 
ATOM     46  N   UNL A   1      42.046  28.257  31.148  1.00  0.00    -0.354 N 
ATOM     47  N   UNL A   1      41.204  29.959  33.403  1.00  0.00    -0.248 NA
ATOM     48  C   UNL A   1      41.505  30.720  35.592  1.00  0.00     0.031 C 
ATOM     49  C   UNL A   1      43.894  27.050  31.381  1.00  0.00     0.029 A 
ATOM     50  C   UNL A   1      43.064  27.947  32.036  1.00  0.00     0.049 A 
ATOM     51  H   UNL A   1      41.296  28.866  31.340  1.00  0.00     0.167 HD
ATOM     52  C   UNL A   1      42.348  29.373  33.938  1.00  0.00     0.074 A 
ATOM     53  C   UNL A   1      42.500  29.903  35.276  1.00  0.00     0.031 C 
ATOM     54  C   UNL A   1      43.202  28.484  33.369  1.00  0.00     0.034 A 
BRANCH  41  55
ATOM     55  C   UNL A   1      41.631  26.768  27.617  1.00  0.00     0.023 A 
ATOM     56  C   UNL A   1      41.269  25.410  27.587  1.00  0.00     0.031 A 
ATOM     57  C   UNL A   1      42.296  27.294  26.495  1.00  0.00     0.131 A 
ATOM     58  C   UNL A   1      41.642  24.607  26.498  1.00  0.00     0.055 A 
ATOM     59  C   UNL A   1      42.585  26.511  25.375  1.00  0.00     0.041 A 
ATOM     60  F   UNL A   1      42.688  28.577  26.472  1.00  0.00    -0.206 F 
ATOM     61  C   UNL A   1      42.273  25.155  25.379  1.00  0.00     0.022 A 
BRANCH  58  62
ATOM     62  S   UNL A   1      41.427  22.812  26.634  1.00  0.00     0.124 S 
ATOM     63  O   UNL A   1      42.167  22.338  25.466  1.00  0.00    -0.237 OA
ATOM     64  O   UNL A   1      42.025  22.519  27.931  1.00  0.00    -0.237 OA
ATOM     65  O   UNL A   1      39.978  22.633  26.558  1.00  0.00    -0.744 OA
ENDBRANCH  58  62
ENDBRANCH  41  55
BRANCH  42  66
ATOM     66  C   UNL A   1      39.132  32.450  35.502  1.00  0.00     0.023 A 
ATOM     67  C   UNL A   1      39.586  33.766  35.683  1.00  0.00     0.031 A 
ATOM     68  C   UNL A   1      38.326  31.889  36.509  1.00  0.00     0.131 A 
ATOM     69  C   UNL A   1      39.275  34.458  36.863  1.00  0.00     0.055 A 
ATOM     70  C   UNL A   1      37.968  32.603  37.653  1.00  0.00     0.041 A 
ATOM     71  F   UNL A   1      37.861  30.634  36.387  1.00  0.00    -0.206 F 
ATOM     72  C   UNL A   1      38.456  33.892  37.842  1.00  0.00     0.022 A 
BRANCH  69  73
ATOM     73  S   UNL A   1      40.040  36.078  37.145  1.00  0.00     0.124 S 
ATOM     74  O   UNL A   1      39.799  36.745  35.872  1.00  0.00    -0.237 OA
ATOM     75  O   UNL A   1      39.278  36.577  38.287  1.00  0.00    -0.237 OA
ATOM     76  O   UNL A   1      41.436  35.750  37.426  1.00  0.00    -0.744 OA
ENDBRANCH  69  73
ENDBRANCH  42  66
BRANCH  54  77
ATOM     77  C   UNL A   1      44.412  28.073  34.173  1.00  0.00     0.023 A 
ATOM     78  C   UNL A   1      44.414  26.933  34.993  1.00  0.00     0.031 A 
ATOM     79  C   UNL A   1      45.594  28.835  34.096  1.00  0.00     0.131 A 
ATOM     80  C   UNL A   1      45.558  26.608  35.735  1.00  0.00     0.055 A 
ATOM     81  C   UNL A   1      46.749  28.471  34.787  1.00  0.00     0.041 A 
ATOM     82  F   UNL A   1      45.648  29.938  33.331  1.00  0.00    -0.206 F 
ATOM     83  C   UNL A   1      46.733  27.357  35.621  1.00  0.00     0.022 A 
BRANCH  80  84
ATOM     84  S   UNL A   1      45.475  25.232  36.914  1.00  0.00     0.124 S 
ATOM     85  O   UNL A   1      46.758  25.343  37.600  1.00  0.00    -0.237 OA
ATOM     86  O   UNL A   1      44.298  25.570  37.708  1.00  0.00    -0.237 OA
ATOM     87  O   UNL A   1      45.328  24.055  36.059  1.00  0.00    -0.744 OA
ENDBRANCH  80  84
ENDBRANCH  54  77
ENDBRANCH  28  29
ENDBRANCH  20  23
ENDBRANCH   1  19
TORSDOF 15
ENDMDL
