MODEL 1
REMARK VINA RESULT:     -11.1      0.000      0.000
REMARK SMILES CC[C@@H](C)C[C@@H](C)NC(=O)NC1(CC(=O)NCCCNC(=O)c2ccc(-c3c4nc(c(-c5cc(S(=O)(=O)[O-])ccc5F)c5ccc([nH]5)c(-c5cc(S(=O)(=O)[O-])ccc5F)c5nc(c(-c6cc(S(=O)(=O)[O-])ccc6F)c6ccc3[nH]6)C=C5)C=C4)cc2)CCC1
REMARK SMILES IDX 14 1 15 2 16 3 13 5 12 6 86 7 88 8 87 9 11 10 8 11 9 12
REMARK SMILES IDX 10 14 6 16 7 17 5 18 3 19 4 20 2 21 1 22 17 23 18 24 19 25
REMARK SMILES IDX 20 26 21 27 22 29 23 30 24 31 85 32 25 33 84 34 26 35 27 36
REMARK SMILES IDX 28 37 78 38 29 39 83 40 77 41 79 42 30 43 82 44 76 45 75 46
REMARK SMILES IDX 31 48 63 49 43 50 62 51 44 52 47 53 61 54 80 55 45 56 46 57
REMARK SMILES IDX 60 59 81 60 48 61 32 62 33 63 41 64 34 65 40 66 42 67 39 68
REMARK SMILES IDX 35 69 36 70 37 71 38 72 64 73 65 74 73 75 66 76 72 77 74 78
REMARK SMILES IDX 71 79 67 80 68 81 69 82 70 83 49 84 50 85 58 86 51 87 57 88
REMARK SMILES IDX 59 89 56 90 52 91 53 92 54 93 55 94
REMARK H PARENT 16 4 8 13 11 15 20 28 79 47 47 58
REMARK Flexibility Score: inf
ROOT
ATOM      1  C   UNL A   1      32.019  23.253  26.691  1.00  0.00     0.222 C 
ATOM      2  O   UNL A   1      30.981  23.624  27.250  1.00  0.00    -0.275 OA
ATOM      3  N   UNL A   1      32.531  22.054  27.117  1.00  0.00    -0.356 N 
ATOM      4  H   UNL A   1      32.113  21.734  27.949  1.00  0.00     0.163 HD
ENDROOT
BRANCH   1   5
ATOM      5  C   UNL A   1      32.621  24.092  25.560  1.00  0.00     0.128 C 
BRANCH   5   6
ATOM      6  C   UNL A   1      31.848  24.188  24.198  1.00  0.00     0.051 C 
ATOM      7  C   UNL A   1      31.876  22.818  23.389  1.00  0.00     0.029 C 
ATOM      8  C   UNL A   1      32.522  24.729  22.871  1.00  0.00     0.029 C 
ATOM      9  C   UNL A   1      33.139  23.350  22.672  1.00  0.00     0.005 C 
BRANCH   6  10
ATOM     10  N   UNL A   1      30.478  24.716  24.343  1.00  0.00    -0.332 N 
ATOM     11  N   UNL A   1      30.940  27.010  24.647  1.00  0.00    -0.336 N 
ATOM     12  C   UNL A   1      30.067  26.011  24.345  1.00  0.00     0.315 C 
ATOM     13  H   UNL A   1      30.914  27.809  24.072  1.00  0.00     0.165 HD
ATOM     14  O   UNL A   1      28.906  26.281  24.047  1.00  0.00    -0.249 OA
ATOM     15  H   UNL A   1      29.768  24.043  24.453  1.00  0.00     0.165 HD
BRANCH  11  16
ATOM     16  C   UNL A   1      31.920  27.018  25.748  1.00  0.00     0.081 C 
ATOM     17  C   UNL A   1      31.043  27.082  27.012  1.00  0.00     0.031 C 
BRANCH  16  18
ATOM     18  C   UNL A   1      32.966  28.179  25.576  1.00  0.00     0.028 C 
BRANCH  18  19
ATOM     19  C   UNL A   1      33.543  29.034  26.789  1.00  0.00    -0.013 C 
ATOM     20  C   UNL A   1      33.038  30.475  26.647  1.00  0.00     0.008 C 
BRANCH  19  21
ATOM     21  C   UNL A   1      35.078  29.027  26.983  1.00  0.00    -0.000 C 
ATOM     22  C   UNL A   1      35.685  30.184  27.777  1.00  0.00     0.004 C 
ENDBRANCH  19  21
ENDBRANCH  18  19
ENDBRANCH  16  18
ENDBRANCH  11  16
ENDBRANCH   6  10
ENDBRANCH   5   6
ENDBRANCH   1   5
BRANCH   3  23
ATOM     23  C   UNL A   1      33.559  21.144  26.611  1.00  0.00     0.117 C 
BRANCH  23  24
ATOM     24  C   UNL A   1      34.976  21.732  26.438  1.00  0.00     0.042 C 
BRANCH  24  25
ATOM     25  C   UNL A   1      35.795  21.654  25.130  1.00  0.00     0.118 C 
BRANCH  25  26
ATOM     26  N   UNL A   1      36.965  20.790  25.246  1.00  0.00    -0.352 N 
ATOM     27  C   UNL A   1      38.285  20.957  25.610  1.00  0.00     0.251 C 
ATOM     28  H   UNL A   1      36.763  19.857  25.003  1.00  0.00     0.163 HD
ATOM     29  O   UNL A   1      39.016  19.989  25.370  1.00  0.00    -0.269 OA
BRANCH  27  30
ATOM     30  C   UNL A   1      38.919  22.157  26.256  1.00  0.00     0.039 A 
ATOM     31  C   UNL A   1      38.428  23.418  25.858  1.00  0.00     0.014 A 
ATOM     32  C   UNL A   1      40.070  22.149  27.048  1.00  0.00     0.014 A 
ATOM     33  C   UNL A   1      39.062  24.623  26.224  1.00  0.00     0.010 A 
ATOM     34  C   UNL A   1      40.690  23.367  27.446  1.00  0.00     0.010 A 
ATOM     35  C   UNL A   1      40.210  24.626  27.028  1.00  0.00    -0.014 A 
BRANCH  35  36
ATOM     36  C   UNL A   1      40.903  25.924  27.372  1.00  0.00     0.031 A 
ATOM     37  C   UNL A   1      42.293  26.237  26.848  1.00  0.00     0.074 A 
ATOM     38  C   UNL A   1      40.293  26.859  28.135  1.00  0.00     0.049 A 
ATOM     39  N   UNL A   1      43.052  27.287  27.065  1.00  0.00    -0.248 NA
ATOM     40  C   UNL A   1      42.908  25.232  25.973  1.00  0.00     0.031 C 
ATOM     41  C   UNL A   1      38.952  26.736  28.706  1.00  0.00     0.029 A 
ATOM     42  N   UNL A   1      40.717  28.101  28.568  1.00  0.00    -0.354 N 
ATOM     43  C   UNL A   1      44.240  27.062  26.371  1.00  0.00     0.074 A 
ATOM     44  C   UNL A   1      44.109  25.755  25.758  1.00  0.00     0.031 C 
ATOM     45  C   UNL A   1      38.659  27.850  29.398  1.00  0.00     0.029 A 
ATOM     46  C   UNL A   1      39.804  28.759  29.367  1.00  0.00     0.049 A 
ATOM     47  H   UNL A   1      41.591  28.483  28.327  1.00  0.00     0.167 HD
ATOM     48  C   UNL A   1      45.332  27.864  26.237  1.00  0.00     0.034 A 
ATOM     49  C   UNL A   1      39.874  29.942  30.020  1.00  0.00     0.034 A 
ATOM     50  C   UNL A   1      45.464  29.178  26.828  1.00  0.00     0.049 A 
ATOM     51  C   UNL A   1      41.119  30.792  29.906  1.00  0.00     0.074 A 
ATOM     52  C   UNL A   1      46.515  30.074  26.709  1.00  0.00     0.029 A 
ATOM     53  N   UNL A   1      44.529  29.784  27.657  1.00  0.00    -0.354 N 
ATOM     54  N   UNL A   1      42.216  30.564  29.224  1.00  0.00    -0.248 NA
ATOM     55  C   UNL A   1      41.130  32.065  30.644  1.00  0.00     0.031 C 
ATOM     56  C   UNL A   1      46.252  31.184  27.520  1.00  0.00     0.029 A 
ATOM     57  C   UNL A   1      44.996  31.022  28.080  1.00  0.00     0.049 A 
ATOM     58  H   UNL A   1      43.661  29.394  27.906  1.00  0.00     0.167 HD
ATOM     59  C   UNL A   1      43.029  31.680  29.423  1.00  0.00     0.074 A 
ATOM     60  C   UNL A   1      42.293  32.585  30.277  1.00  0.00     0.031 C 
ATOM     61  C   UNL A   1      44.270  31.931  28.935  1.00  0.00     0.034 A 
BRANCH  48  62
ATOM     62  C   UNL A   1      46.505  27.328  25.443  1.00  0.00     0.023 A 
ATOM     63  C   UNL A   1      46.861  27.862  24.192  1.00  0.00     0.031 A 
ATOM     64  C   UNL A   1      47.284  26.270  25.948  1.00  0.00     0.131 A 
ATOM     65  C   UNL A   1      47.914  27.291  23.459  1.00  0.00     0.055 A 
ATOM     66  C   UNL A   1      48.382  25.760  25.250  1.00  0.00     0.041 A 
ATOM     67  F   UNL A   1      46.990  25.710  27.132  1.00  0.00    -0.206 F 
ATOM     68  C   UNL A   1      48.693  26.261  23.990  1.00  0.00     0.022 A 
BRANCH  65  69
ATOM     69  S   UNL A   1      48.157  27.820  21.741  1.00  0.00     0.124 S 
ATOM     70  O   UNL A   1      49.295  28.725  21.869  1.00  0.00    -0.237 OA
ATOM     71  O   UNL A   1      48.412  26.561  21.055  1.00  0.00    -0.237 OA
ATOM     72  O   UNL A   1      46.890  28.470  21.400  1.00  0.00    -0.744 OA
ENDBRANCH  65  69
ENDBRANCH  48  62
BRANCH  49  73
ATOM     73  C   UNL A   1      38.743  30.398  30.889  1.00  0.00     0.023 A 
ATOM     74  C   UNL A   1      37.824  31.366  30.448  1.00  0.00     0.031 A 
ATOM     75  C   UNL A   1      38.611  29.922  32.207  1.00  0.00     0.131 A 
ATOM     76  C   UNL A   1      36.848  31.861  31.330  1.00  0.00     0.055 A 
ATOM     77  C   UNL A   1      37.601  30.373  33.060  1.00  0.00     0.041 A 
ATOM     78  F   UNL A   1      39.465  29.003  32.686  1.00  0.00    -0.206 F 
ATOM     79  C   UNL A   1      36.721  31.359  32.627  1.00  0.00     0.022 A 
BRANCH  76  80
ATOM     80  S   UNL A   1      35.805  33.245  30.792  1.00  0.00     0.124 S 
ATOM     81  O   UNL A   1      36.102  34.252  31.804  1.00  0.00    -0.237 OA
ATOM     82  O   UNL A   1      36.319  33.509  29.452  1.00  0.00    -0.237 OA
ATOM     83  O   UNL A   1      34.453  32.691  30.840  1.00  0.00    -0.744 OA
ENDBRANCH  76  80
ENDBRANCH  49  73
BRANCH  61  84
ATOM     84  C   UNL A   1      44.895  33.269  29.264  1.00  0.00     0.023 A 
ATOM     85  C   UNL A   1      44.539  34.448  28.585  1.00  0.00     0.031 A 
ATOM     86  C   UNL A   1      45.866  33.363  30.279  1.00  0.00     0.131 A 
ATOM     87  C   UNL A   1      45.182  35.659  28.896  1.00  0.00     0.055 A 
ATOM     88  C   UNL A   1      46.460  34.579  30.623  1.00  0.00     0.041 A 
ATOM     89  F   UNL A   1      46.251  32.271  30.959  1.00  0.00    -0.206 F 
ATOM     90  C   UNL A   1      46.126  35.734  29.922  1.00  0.00     0.022 A 
BRANCH  87  91
ATOM     91  S   UNL A   1      44.827  37.124  27.886  1.00  0.00     0.124 S 
ATOM     92  O   UNL A   1      43.863  36.602  26.922  1.00  0.00    -0.237 OA
ATOM     93  O   UNL A   1      44.299  38.063  28.870  1.00  0.00    -0.237 OA
ATOM     94  O   UNL A   1      46.130  37.481  27.327  1.00  0.00    -0.744 OA
ENDBRANCH  87  91
ENDBRANCH  61  84
ENDBRANCH  35  36
ENDBRANCH  27  30
ENDBRANCH  25  26
ENDBRANCH  24  25
ENDBRANCH  23  24
ENDBRANCH   3  23
TORSDOF 19
ENDMDL
MODEL 2
REMARK VINA RESULT:     -10.1      5.290     10.624
REMARK SMILES CC[C@@H](C)C[C@@H](C)NC(=O)NC1(CC(=O)NCCCNC(=O)c2ccc(-c3c4nc(c(-c5cc(S(=O)(=O)[O-])ccc5F)c5ccc([nH]5)c(-c5cc(S(=O)(=O)[O-])ccc5F)c5nc(c(-c6cc(S(=O)(=O)[O-])ccc6F)c6ccc3[nH]6)C=C5)C=C4)cc2)CCC1
REMARK SMILES IDX 14 1 15 2 16 3 13 5 12 6 86 7 88 8 87 9 11 10 8 11 9 12
REMARK SMILES IDX 10 14 6 16 7 17 5 18 3 19 4 20 2 21 1 22 17 23 18 24 19 25
REMARK SMILES IDX 20 26 21 27 22 29 23 30 24 31 85 32 25 33 84 34 26 35 27 36
REMARK SMILES IDX 28 37 78 38 29 39 83 40 77 41 79 42 30 43 82 44 76 45 75 46
REMARK SMILES IDX 31 48 63 49 43 50 62 51 44 52 47 53 61 54 80 55 45 56 46 57
REMARK SMILES IDX 60 59 81 60 48 61 32 62 33 63 41 64 34 65 40 66 42 67 39 68
REMARK SMILES IDX 35 69 36 70 37 71 38 72 64 73 65 74 73 75 66 76 72 77 74 78
REMARK SMILES IDX 71 79 67 80 68 81 69 82 70 83 49 84 50 85 58 86 51 87 57 88
REMARK SMILES IDX 59 89 56 90 52 91 53 92 54 93 55 94
REMARK H PARENT 16 4 8 13 11 15 20 28 79 47 47 58
REMARK Flexibility Score: inf
ROOT
ATOM      1  C   UNL A   1      33.218  27.649  26.135  1.00  0.00     0.222 C 
ATOM      2  O   UNL A   1      34.293  27.037  26.125  1.00  0.00    -0.275 OA
ATOM      3  N   UNL A   1      33.297  28.990  26.414  1.00  0.00    -0.356 N 
ATOM      4  H   UNL A   1      34.179  29.256  26.762  1.00  0.00     0.163 HD
ENDROOT
BRANCH   1   5
ATOM      5  C   UNL A   1      31.918  26.916  25.792  1.00  0.00     0.128 C 
BRANCH   5   6
ATOM      6  C   UNL A   1      31.508  26.771  24.285  1.00  0.00     0.051 C 
ATOM      7  C   UNL A   1      30.280  27.706  23.899  1.00  0.00     0.029 C 
ATOM      8  C   UNL A   1      30.521  25.642  23.775  1.00  0.00     0.029 C 
ATOM      9  C   UNL A   1      29.357  26.511  24.232  1.00  0.00     0.005 C 
BRANCH   6  10
ATOM     10  N   UNL A   1      32.642  26.936  23.356  1.00  0.00    -0.332 N 
ATOM     11  N   UNL A   1      33.255  24.680  23.034  1.00  0.00    -0.336 N 
ATOM     12  C   UNL A   1      33.295  25.982  22.642  1.00  0.00     0.315 C 
ATOM     13  H   UNL A   1      33.104  24.010  22.328  1.00  0.00     0.165 HD
ATOM     14  O   UNL A   1      33.904  26.297  21.622  1.00  0.00    -0.249 OA
ATOM     15  H   UNL A   1      32.969  27.856  23.238  1.00  0.00     0.165 HD
BRANCH  11  16
ATOM     16  C   UNL A   1      33.415  24.170  24.407  1.00  0.00     0.081 C 
ATOM     17  C   UNL A   1      34.936  24.223  24.637  1.00  0.00     0.031 C 
BRANCH  16  18
ATOM     18  C   UNL A   1      32.743  22.759  24.577  1.00  0.00     0.028 C 
BRANCH  18  19
ATOM     19  C   UNL A   1      33.291  21.431  23.890  1.00  0.00    -0.013 C 
ATOM     20  C   UNL A   1      32.153  20.805  23.075  1.00  0.00     0.008 C 
BRANCH  19  21
ATOM     21  C   UNL A   1      33.922  20.369  24.823  1.00  0.00    -0.000 C 
ATOM     22  C   UNL A   1      35.439  20.414  25.004  1.00  0.00     0.004 C 
ENDBRANCH  19  21
ENDBRANCH  18  19
ENDBRANCH  16  18
ENDBRANCH  11  16
ENDBRANCH   6  10
ENDBRANCH   5   6
ENDBRANCH   1   5
BRANCH   3  23
ATOM     23  C   UNL A   1      32.364  30.111  26.310  1.00  0.00     0.117 C 
BRANCH  23  24
ATOM     24  C   UNL A   1      32.847  31.465  26.875  1.00  0.00     0.042 C 
BRANCH  24  25
ATOM     25  C   UNL A   1      31.915  32.528  27.500  1.00  0.00     0.118 C 
BRANCH  25  26
ATOM     26  N   UNL A   1      32.525  33.852  27.554  1.00  0.00    -0.352 N 
ATOM     27  C   UNL A   1      33.566  34.433  28.248  1.00  0.00     0.251 C 
ATOM     28  H   UNL A   1      32.084  34.489  26.947  1.00  0.00     0.163 HD
ATOM     29  O   UNL A   1      33.629  35.664  28.155  1.00  0.00    -0.269 OA
BRANCH  27  30
ATOM     30  C   UNL A   1      34.613  33.750  29.084  1.00  0.00     0.039 A 
ATOM     31  C   UNL A   1      35.951  34.123  28.844  1.00  0.00     0.014 A 
ATOM     32  C   UNL A   1      34.403  32.651  29.921  1.00  0.00     0.014 A 
ATOM     33  C   UNL A   1      37.040  33.423  29.403  1.00  0.00     0.010 A 
ATOM     34  C   UNL A   1      35.502  31.967  30.515  1.00  0.00     0.010 A 
ATOM     35  C   UNL A   1      36.840  32.328  30.254  1.00  0.00    -0.014 A 
BRANCH  35  36
ATOM     36  C   UNL A   1      38.020  31.562  30.807  1.00  0.00     0.031 A 
ATOM     37  C   UNL A   1      38.586  31.873  32.181  1.00  0.00     0.074 A 
ATOM     38  C   UNL A   1      38.590  30.555  30.105  1.00  0.00     0.049 A 
ATOM     39  N   UNL A   1      39.612  31.338  32.804  1.00  0.00    -0.248 NA
ATOM     40  C   UNL A   1      37.913  32.928  32.947  1.00  0.00     0.031 C 
ATOM     41  C   UNL A   1      38.163  30.107  28.780  1.00  0.00     0.029 A 
ATOM     42  N   UNL A   1      39.652  29.724  30.403  1.00  0.00    -0.354 N 
ATOM     43  C   UNL A   1      39.720  32.004  34.024  1.00  0.00     0.074 A 
ATOM     44  C   UNL A   1      38.673  33.007  34.032  1.00  0.00     0.031 C 
ATOM     45  C   UNL A   1      38.940  29.084  28.385  1.00  0.00     0.029 A 
ATOM     46  C   UNL A   1      39.957  28.823  29.402  1.00  0.00     0.049 A 
ATOM     47  H   UNL A   1      40.147  29.770  31.252  1.00  0.00     0.167 HD
ATOM     48  C   UNL A   1      40.589  31.798  35.051  1.00  0.00     0.034 A 
ATOM     49  C   UNL A   1      40.945  27.905  29.294  1.00  0.00     0.034 A 
ATOM     50  C   UNL A   1      41.624  30.786  35.061  1.00  0.00     0.049 A 
ATOM     51  C   UNL A   1      41.937  27.731  30.421  1.00  0.00     0.074 A 
ATOM     52  C   UNL A   1      42.520  30.480  36.075  1.00  0.00     0.029 A 
ATOM     53  N   UNL A   1      41.916  29.924  34.013  1.00  0.00    -0.354 N 
ATOM     54  N   UNL A   1      41.999  28.357  31.573  1.00  0.00    -0.248 NA
ATOM     55  C   UNL A   1      42.988  26.718  30.238  1.00  0.00     0.031 C 
ATOM     56  C   UNL A   1      43.396  29.491  35.615  1.00  0.00     0.029 A 
ATOM     57  C   UNL A   1      42.995  29.115  34.344  1.00  0.00     0.049 A 
ATOM     58  H   UNL A   1      41.427  29.890  33.159  1.00  0.00     0.167 HD
ATOM     59  C   UNL A   1      43.071  27.788  32.260  1.00  0.00     0.074 A 
ATOM     60  C   UNL A   1      43.619  26.762  31.403  1.00  0.00     0.031 C 
ATOM     61  C   UNL A   1      43.551  28.089  33.494  1.00  0.00     0.034 A 
BRANCH  48  62
ATOM     62  C   UNL A   1      40.490  32.714  36.252  1.00  0.00     0.023 A 
ATOM     63  C   UNL A   1      39.823  32.328  37.428  1.00  0.00     0.031 A 
ATOM     64  C   UNL A   1      41.076  33.994  36.224  1.00  0.00     0.131 A 
ATOM     65  C   UNL A   1      39.696  33.235  38.493  1.00  0.00     0.055 A 
ATOM     66  C   UNL A   1      41.017  34.860  37.318  1.00  0.00     0.041 A 
ATOM     67  F   UNL A   1      41.719  34.426  35.127  1.00  0.00    -0.206 F 
ATOM     68  C   UNL A   1      40.309  34.488  38.456  1.00  0.00     0.022 A 
BRANCH  65  69
ATOM     69  S   UNL A   1      38.593  32.804  39.868  1.00  0.00     0.124 S 
ATOM     70  O   UNL A   1      39.510  32.128  40.780  1.00  0.00    -0.237 OA
ATOM     71  O   UNL A   1      38.102  34.105  40.299  1.00  0.00    -0.237 OA
ATOM     72  O   UNL A   1      37.593  31.934  39.245  1.00  0.00    -0.744 OA
ENDBRANCH  65  69
ENDBRANCH  48  62
BRANCH  49  73
ATOM     73  C   UNL A   1      41.089  27.087  28.048  1.00  0.00     0.023 A 
ATOM     74  C   UNL A   1      40.749  25.723  28.023  1.00  0.00     0.031 A 
ATOM     75  C   UNL A   1      41.642  27.646  26.881  1.00  0.00     0.131 A 
ATOM     76  C   UNL A   1      41.010  24.956  26.875  1.00  0.00     0.055 A 
ATOM     77  C   UNL A   1      41.843  26.892  25.722  1.00  0.00     0.041 A 
ATOM     78  F   UNL A   1      41.993  28.941  26.848  1.00  0.00    -0.206 F 
ATOM     79  C   UNL A   1      41.539  25.534  25.720  1.00  0.00     0.022 A 
BRANCH  76  80
ATOM     80  S   UNL A   1      40.739  23.162  26.943  1.00  0.00     0.124 S 
ATOM     81  O   UNL A   1      41.263  22.834  28.265  1.00  0.00    -0.237 OA
ATOM     82  O   UNL A   1      39.293  23.067  26.783  1.00  0.00    -0.237 OA
ATOM     83  O   UNL A   1      41.523  22.656  25.818  1.00  0.00    -0.744 OA
ENDBRANCH  76  80
ENDBRANCH  49  73
BRANCH  61  84
ATOM     84  C   UNL A   1      44.697  27.255  34.022  1.00  0.00     0.023 A 
ATOM     85  C   UNL A   1      44.487  26.043  34.706  1.00  0.00     0.031 A 
ATOM     86  C   UNL A   1      46.025  27.683  33.836  1.00  0.00     0.131 A 
ATOM     87  C   UNL A   1      45.583  25.327  35.218  1.00  0.00     0.055 A 
ATOM     88  C   UNL A   1      47.112  26.938  34.297  1.00  0.00     0.041 A 
ATOM     89  F   UNL A   1      46.288  28.833  33.195  1.00  0.00    -0.206 F 
ATOM     90  C   UNL A   1      46.894  25.758  35.002  1.00  0.00     0.022 A 
BRANCH  87  91
ATOM     91  S   UNL A   1      45.271  23.863  36.243  1.00  0.00     0.124 S 
ATOM     92  O   UNL A   1      44.885  24.460  37.517  1.00  0.00    -0.237 OA
ATOM     93  O   UNL A   1      44.207  23.186  35.507  1.00  0.00    -0.237 OA
ATOM     94  O   UNL A   1      46.557  23.167  36.249  1.00  0.00    -0.744 OA
ENDBRANCH  87  91
ENDBRANCH  61  84
ENDBRANCH  35  36
ENDBRANCH  27  30
ENDBRANCH  25  26
ENDBRANCH  24  25
ENDBRANCH  23  24
ENDBRANCH   3  23
TORSDOF 19
ENDMDL
MODEL 3
REMARK VINA RESULT:     -10.1      1.646      7.806
REMARK SMILES CC[C@@H](C)C[C@@H](C)NC(=O)NC1(CC(=O)NCCCNC(=O)c2ccc(-c3c4nc(c(-c5cc(S(=O)(=O)[O-])ccc5F)c5ccc([nH]5)c(-c5cc(S(=O)(=O)[O-])ccc5F)c5nc(c(-c6cc(S(=O)(=O)[O-])ccc6F)c6ccc3[nH]6)C=C5)C=C4)cc2)CCC1
REMARK SMILES IDX 14 1 15 2 16 3 13 5 12 6 86 7 88 8 87 9 11 10 8 11 9 12
REMARK SMILES IDX 10 14 6 16 7 17 5 18 3 19 4 20 2 21 1 22 17 23 18 24 19 25
REMARK SMILES IDX 20 26 21 27 22 29 23 30 24 31 85 32 25 33 84 34 26 35 27 36
REMARK SMILES IDX 28 37 78 38 29 39 83 40 77 41 79 42 30 43 82 44 76 45 75 46
REMARK SMILES IDX 31 48 63 49 43 50 62 51 44 52 47 53 61 54 80 55 45 56 46 57
REMARK SMILES IDX 60 59 81 60 48 61 32 62 33 63 41 64 34 65 40 66 42 67 39 68
REMARK SMILES IDX 35 69 36 70 37 71 38 72 64 73 65 74 73 75 66 76 72 77 74 78
REMARK SMILES IDX 71 79 67 80 68 81 69 82 70 83 49 84 50 85 58 86 51 87 57 88
REMARK SMILES IDX 59 89 56 90 52 91 53 92 54 93 55 94
REMARK H PARENT 16 4 8 13 11 15 20 28 79 47 47 58
REMARK Flexibility Score: inf
ROOT
ATOM      1  C   UNL A   1      35.077  22.668  26.097  1.00  0.00     0.222 C 
ATOM      2  O   UNL A   1      34.721  22.864  27.265  1.00  0.00    -0.275 OA
ATOM      3  N   UNL A   1      36.270  22.008  25.939  1.00  0.00    -0.356 N 
ATOM      4  H   UNL A   1      36.785  21.946  26.776  1.00  0.00     0.163 HD
ENDROOT
BRANCH   1   5
ATOM      5  C   UNL A   1      34.175  23.104  24.939  1.00  0.00     0.128 C 
BRANCH   5   6
ATOM      6  C   UNL A   1      32.703  22.565  24.883  1.00  0.00     0.051 C 
ATOM      7  C   UNL A   1      32.640  21.010  24.552  1.00  0.00     0.029 C 
ATOM      8  C   UNL A   1      31.811  22.654  23.578  1.00  0.00     0.029 C 
ATOM      9  C   UNL A   1      32.516  21.406  23.062  1.00  0.00     0.005 C 
BRANCH   6  10
ATOM     10  N   UNL A   1      31.914  22.907  26.083  1.00  0.00    -0.332 N 
ATOM     11  N   UNL A   1      31.246  25.103  25.536  1.00  0.00    -0.336 N 
ATOM     12  C   UNL A   1      31.098  23.974  26.281  1.00  0.00     0.315 C 
ATOM     13  H   UNL A   1      30.422  25.515  25.189  1.00  0.00     0.165 HD
ATOM     14  O   UNL A   1      30.203  23.907  27.121  1.00  0.00    -0.249 OA
ATOM     15  H   UNL A   1      31.989  22.280  26.838  1.00  0.00     0.165 HD
BRANCH  11  16
ATOM     16  C   UNL A   1      32.515  25.771  25.197  1.00  0.00     0.081 C 
ATOM     17  C   UNL A   1      32.625  26.891  26.248  1.00  0.00     0.031 C 
BRANCH  16  18
ATOM     18  C   UNL A   1      32.536  26.234  23.695  1.00  0.00     0.028 C 
BRANCH  18  19
ATOM     19  C   UNL A   1      31.863  27.581  23.177  1.00  0.00    -0.013 C 
ATOM     20  C   UNL A   1      32.955  28.651  23.060  1.00  0.00     0.008 C 
BRANCH  19  21
ATOM     21  C   UNL A   1      30.670  28.128  23.996  1.00  0.00    -0.000 C 
ATOM     22  C   UNL A   1      30.100  29.484  23.577  1.00  0.00     0.004 C 
ENDBRANCH  19  21
ENDBRANCH  18  19
ENDBRANCH  16  18
ENDBRANCH  11  16
ENDBRANCH   6  10
ENDBRANCH   5   6
ENDBRANCH   1   5
BRANCH   3  23
ATOM     23  C   UNL A   1      36.946  21.377  24.807  1.00  0.00     0.117 C 
BRANCH  23  24
ATOM     24  C   UNL A   1      38.308  20.710  25.100  1.00  0.00     0.042 C 
BRANCH  24  25
ATOM     25  C   UNL A   1      38.472  19.337  25.789  1.00  0.00     0.118 C 
BRANCH  25  26
ATOM     26  N   UNL A   1      39.866  18.918  25.889  1.00  0.00    -0.352 N 
ATOM     27  C   UNL A   1      41.074  19.547  26.106  1.00  0.00     0.251 C 
ATOM     28  H   UNL A   1      39.971  17.946  25.773  1.00  0.00     0.163 HD
ATOM     29  O   UNL A   1      42.070  18.842  25.908  1.00  0.00    -0.269 OA
BRANCH  27  30
ATOM     30  C   UNL A   1      41.310  20.964  26.550  1.00  0.00     0.039 A 
ATOM     31  C   UNL A   1      41.513  21.917  25.530  1.00  0.00     0.014 A 
ATOM     32  C   UNL A   1      41.545  21.383  27.862  1.00  0.00     0.014 A 
ATOM     33  C   UNL A   1      41.945  23.231  25.802  1.00  0.00     0.010 A 
ATOM     34  C   UNL A   1      41.947  22.721  28.140  1.00  0.00     0.010 A 
ATOM     35  C   UNL A   1      42.171  23.665  27.116  1.00  0.00    -0.014 A 
BRANCH  35  36
ATOM     36  C   UNL A   1      42.678  25.063  27.386  1.00  0.00     0.031 A 
ATOM     37  C   UNL A   1      41.808  26.095  28.080  1.00  0.00     0.074 A 
ATOM     38  C   UNL A   1      43.934  25.428  27.040  1.00  0.00     0.049 A 
ATOM     39  N   UNL A   1      42.067  27.351  28.366  1.00  0.00    -0.248 NA
ATOM     40  C   UNL A   1      40.472  25.656  28.497  1.00  0.00     0.031 C 
ATOM     41  C   UNL A   1      44.912  24.560  26.385  1.00  0.00     0.029 A 
ATOM     42  N   UNL A   1      44.609  26.624  27.189  1.00  0.00    -0.354 N 
ATOM     43  C   UNL A   1      40.922  27.858  28.979  1.00  0.00     0.074 A 
ATOM     44  C   UNL A   1      39.956  26.777  28.986  1.00  0.00     0.031 C 
ATOM     45  C   UNL A   1      46.056  25.241  26.200  1.00  0.00     0.029 A 
ATOM     46  C   UNL A   1      45.890  26.613  26.676  1.00  0.00     0.049 A 
ATOM     47  H   UNL A   1      44.211  27.414  27.621  1.00  0.00     0.167 HD
ATOM     48  C   UNL A   1      40.692  29.093  29.502  1.00  0.00     0.034 A 
ATOM     49  C   UNL A   1      46.825  27.587  26.578  1.00  0.00     0.034 A 
ATOM     50  C   UNL A   1      41.657  30.172  29.518  1.00  0.00     0.049 A 
ATOM     51  C   UNL A   1      46.529  28.970  27.113  1.00  0.00     0.074 A 
ATOM     52  C   UNL A   1      41.523  31.439  30.064  1.00  0.00     0.029 A 
ATOM     53  N   UNL A   1      42.926  30.123  28.956  1.00  0.00    -0.354 N 
ATOM     54  N   UNL A   1      45.446  29.412  27.708  1.00  0.00    -0.248 NA
ATOM     55  C   UNL A   1      47.586  29.984  26.970  1.00  0.00     0.031 C 
ATOM     56  C   UNL A   1      42.675  32.177  29.770  1.00  0.00     0.029 A 
ATOM     57  C   UNL A   1      43.566  31.345  29.114  1.00  0.00     0.049 A 
ATOM     58  H   UNL A   1      43.315  29.335  28.512  1.00  0.00     0.167 HD
ATOM     59  C   UNL A   1      45.709  30.741  28.041  1.00  0.00     0.074 A 
ATOM     60  C   UNL A   1      47.054  31.026  27.592  1.00  0.00     0.031 C 
ATOM     61  C   UNL A   1      44.907  31.640  28.667  1.00  0.00     0.034 A 
BRANCH  48  62
ATOM     62  C   UNL A   1      39.319  29.370  30.077  1.00  0.00     0.023 A 
ATOM     63  C   UNL A   1      38.363  30.133  29.384  1.00  0.00     0.031 A 
ATOM     64  C   UNL A   1      38.956  28.856  31.337  1.00  0.00     0.131 A 
ATOM     65  C   UNL A   1      37.127  30.423  29.983  1.00  0.00     0.055 A 
ATOM     66  C   UNL A   1      37.693  29.079  31.891  1.00  0.00     0.041 A 
ATOM     67  F   UNL A   1      39.827  28.127  32.053  1.00  0.00    -0.206 F 
ATOM     68  C   UNL A   1      36.775  29.880  31.220  1.00  0.00     0.022 A 
BRANCH  65  69
ATOM     69  S   UNL A   1      36.042  31.637  29.184  1.00  0.00     0.124 S 
ATOM     70  O   UNL A   1      34.949  31.736  30.146  1.00  0.00    -0.237 OA
ATOM     71  O   UNL A   1      36.905  32.805  29.070  1.00  0.00    -0.237 OA
ATOM     72  O   UNL A   1      35.688  30.997  27.915  1.00  0.00    -0.744 OA
ENDBRANCH  65  69
ENDBRANCH  48  62
BRANCH  49  73
ATOM     73  C   UNL A   1      48.135  27.318  25.904  1.00  0.00     0.023 A 
ATOM     74  C   UNL A   1      48.312  27.548  24.529  1.00  0.00     0.031 A 
ATOM     75  C   UNL A   1      49.208  26.754  26.618  1.00  0.00     0.131 A 
ATOM     76  C   UNL A   1      49.513  27.171  23.904  1.00  0.00     0.055 A 
ATOM     77  C   UNL A   1      50.421  26.437  26.004  1.00  0.00     0.041 A 
ATOM     78  F   UNL A   1      49.093  26.504  27.932  1.00  0.00    -0.206 F 
ATOM     79  C   UNL A   1      50.574  26.632  24.634  1.00  0.00     0.022 A 
BRANCH  76  80
ATOM     80  S   UNL A   1      49.636  27.302  22.097  1.00  0.00     0.124 S 
ATOM     81  O   UNL A   1      49.049  28.615  21.855  1.00  0.00    -0.237 OA
ATOM     82  O   UNL A   1      51.075  27.192  21.883  1.00  0.00    -0.237 OA
ATOM     83  O   UNL A   1      48.849  26.167  21.619  1.00  0.00    -0.744 OA
ENDBRANCH  76  80
ENDBRANCH  49  73
BRANCH  61  84
ATOM     84  C   UNL A   1      45.484  33.007  28.962  1.00  0.00     0.023 A 
ATOM     85  C   UNL A   1      45.225  34.121  28.142  1.00  0.00     0.031 A 
ATOM     86  C   UNL A   1      46.308  33.197  30.087  1.00  0.00     0.131 A 
ATOM     87  C   UNL A   1      45.821  35.360  28.432  1.00  0.00     0.055 A 
ATOM     88  C   UNL A   1      46.851  34.444  30.402  1.00  0.00     0.041 A 
ATOM     89  F   UNL A   1      46.595  32.171  30.903  1.00  0.00    -0.206 F 
ATOM     90  C   UNL A   1      46.617  35.532  29.567  1.00  0.00     0.022 A 
BRANCH  87  91
ATOM     91  S   UNL A   1      45.608  36.730  27.262  1.00  0.00     0.124 S 
ATOM     92  O   UNL A   1      45.818  37.895  28.116  1.00  0.00    -0.237 OA
ATOM     93  O   UNL A   1      46.651  36.466  26.276  1.00  0.00    -0.237 OA
ATOM     94  O   UNL A   1      44.240  36.558  26.776  1.00  0.00    -0.744 OA
ENDBRANCH  87  91
ENDBRANCH  61  84
ENDBRANCH  35  36
ENDBRANCH  27  30
ENDBRANCH  25  26
ENDBRANCH  24  25
ENDBRANCH  23  24
ENDBRANCH   3  23
TORSDOF 19
ENDMDL
