MODEL 1
REMARK VINA RESULT:     -12.8      0.000      0.000
REMARK SMILES COc1ccc(Br)cc1CNc1ccc(N2CCOCC2)c(C(=O)NCCCNC(=O)c2ccc(-c3c4nc(c(-c5cc(S(=O)(=O)[O-])ccc5F)c5ccc([nH]5)c(-c5cc(S(=O)(=O)[O-])ccc5F)c5nc(c(-c6cc(S(=O)(=O)[O-])ccc6F)c6ccc3[nH]6)C=C5)C=C4)cc2)c1
REMARK SMILES IDX 26 1 25 2 23 3 24 4 22 6 12 7 13 8 95 9 14 10 15 11 11 12
REMARK SMILES IDX 10 14 9 15 3 16 4 17 5 18 8 19 6 20 7 21 2 22 1 23 16 24
REMARK SMILES IDX 17 25 21 26 18 27 20 28 19 29 27 30 28 31 29 32 30 33 31 35
REMARK SMILES IDX 32 36 33 37 94 38 34 39 93 40 35 41 36 42 37 43 87 44 38 45
REMARK SMILES IDX 92 46 86 47 88 48 39 49 91 50 85 51 84 52 40 54 72 55 52 56
REMARK SMILES IDX 71 57 53 58 56 59 70 60 89 61 54 62 55 63 69 65 90 66 57 67
REMARK SMILES IDX 41 68 42 69 50 70 43 71 49 72 51 73 48 74 44 75 45 76 46 77
REMARK SMILES IDX 47 78 73 79 74 80 82 81 75 82 81 83 83 84 80 85 76 86 77 87
REMARK SMILES IDX 78 88 79 89 58 90 59 91 67 92 60 93 66 94 68 95 65 96 61 97
REMARK SMILES IDX 62 98 63 99 64 100
REMARK H PARENT 25 5 11 13 29 34 88 53 56 64
REMARK Flexibility Score: inf
ROOT
ATOM      1  C   UNL A   1      36.985  21.671  25.107  1.00  0.00     0.118 C 
ENDROOT
BRANCH   1   2
ATOM      2  N   UNL A   1      35.926  21.564  26.110  1.00  0.00    -0.352 N 
ATOM      3  C   UNL A   1      34.560  21.361  26.105  1.00  0.00     0.253 C 
ATOM      4  O   UNL A   1      34.050  21.282  27.222  1.00  0.00    -0.269 OA
ATOM      5  H   UNL A   1      36.277  21.660  27.024  1.00  0.00     0.163 HD
BRANCH   3   6
ATOM      6  C   UNL A   1      33.729  21.274  24.859  1.00  0.00     0.065 A 
ATOM      7  C   UNL A   1      32.631  22.571  23.083  1.00  0.00     0.035 A 
ATOM      8  C   UNL A   1      31.982  21.414  22.673  1.00  0.00     0.028 A 
ATOM      9  C   UNL A   1      33.576  22.433  24.093  1.00  0.00     0.041 A 
ATOM     10  C   UNL A   1      32.280  20.185  23.268  1.00  0.00     0.029 A 
ATOM     11  C   UNL A   1      33.164  20.080  24.362  1.00  0.00     0.050 A 
BRANCH   7  12
ATOM     12  N   UNL A   1      32.401  23.762  22.432  1.00  0.00    -0.381 N 
ATOM     13  H   UNL A   1      31.967  23.717  21.550  1.00  0.00     0.160 HD
BRANCH  12  14
ATOM     14  C   UNL A   1      32.747  25.084  22.944  1.00  0.00     0.152 C 
BRANCH  14  15
ATOM     15  C   UNL A   1      31.479  25.878  23.145  1.00  0.00     0.014 A 
ATOM     16  C   UNL A   1      30.423  25.392  23.931  1.00  0.00     0.123 A 
ATOM     17  C   UNL A   1      29.269  26.164  24.088  1.00  0.00     0.048 A 
ATOM     18  C   UNL A   1      29.164  27.417  23.473  1.00  0.00     0.019 A 
ATOM     19  C   UNL A   1      31.380  27.161  22.571  1.00  0.00     0.025 A 
ATOM     20  C   UNL A   1      30.225  27.915  22.726  1.00  0.00     0.018 A 
ATOM     21  Br  UNL A   1      30.110  29.620  21.923  1.00  0.00    -0.051 Br
BRANCH  16  22
ATOM     22  O   UNL A   1      30.637  24.206  24.580  1.00  0.00    -0.496 OA
ATOM     23  C   UNL A   1      30.916  24.297  25.974  1.00  0.00     0.278 C 
ENDBRANCH  16  22
ENDBRANCH  14  15
ENDBRANCH  12  14
ENDBRANCH   7  12
BRANCH  11  24
ATOM     24  N   UNL A   1      33.531  18.813  24.763  1.00  0.00    -0.366 N 
ATOM     25  C   UNL A   1      34.701  18.097  24.256  1.00  0.00     0.145 C 
ATOM     26  C   UNL A   1      32.781  18.161  25.838  1.00  0.00     0.145 C 
ATOM     27  C   UNL A   1      34.381  16.600  24.044  1.00  0.00     0.181 C 
ATOM     28  C   UNL A   1      32.483  16.714  25.430  1.00  0.00     0.181 C 
ATOM     29  O   UNL A   1      33.708  16.005  25.172  1.00  0.00    -0.378 OA
ENDBRANCH  11  24
ENDBRANCH   3   6
ENDBRANCH   1   2
BRANCH   1  30
ATOM     30  C   UNL A   1      37.973  20.517  25.121  1.00  0.00     0.042 C 
BRANCH  30  31
ATOM     31  C   UNL A   1      39.172  20.733  26.027  1.00  0.00     0.118 C 
BRANCH  31  32
ATOM     32  N   UNL A   1      40.080  19.592  26.039  1.00  0.00    -0.352 N 
ATOM     33  C   UNL A   1      41.455  19.542  26.076  1.00  0.00     0.251 C 
ATOM     34  H   UNL A   1      39.637  18.713  26.019  1.00  0.00     0.163 HD
ATOM     35  O   UNL A   1      42.028  18.485  25.838  1.00  0.00    -0.269 OA
BRANCH  33  36
ATOM     36  C   UNL A   1      42.235  20.764  26.368  1.00  0.00     0.039 A 
ATOM     37  C   UNL A   1      42.666  21.573  25.311  1.00  0.00     0.014 A 
ATOM     38  C   UNL A   1      42.534  21.119  27.684  1.00  0.00     0.014 A 
ATOM     39  C   UNL A   1      43.300  22.788  25.585  1.00  0.00     0.010 A 
ATOM     40  C   UNL A   1      43.068  22.372  27.957  1.00  0.00     0.010 A 
ATOM     41  C   UNL A   1      43.448  23.225  26.911  1.00  0.00    -0.014 A 
BRANCH  41  42
ATOM     42  C   UNL A   1      43.976  24.575  27.242  1.00  0.00     0.031 A 
ATOM     43  C   UNL A   1      43.044  25.645  27.737  1.00  0.00     0.074 A 
ATOM     44  C   UNL A   1      45.271  24.860  27.001  1.00  0.00     0.049 A 
ATOM     45  N   UNL A   1      43.276  26.915  27.946  1.00  0.00    -0.248 NA
ATOM     46  C   UNL A   1      41.657  25.235  28.000  1.00  0.00     0.031 C 
ATOM     47  C   UNL A   1      46.266  23.912  26.494  1.00  0.00     0.029 A 
ATOM     48  N   UNL A   1      45.971  26.032  27.136  1.00  0.00    -0.354 N 
ATOM     49  C   UNL A   1      42.063  27.459  28.354  1.00  0.00     0.074 A 
ATOM     50  C   UNL A   1      41.085  26.393  28.290  1.00  0.00     0.031 C 
ATOM     51  C   UNL A   1      47.452  24.531  26.391  1.00  0.00     0.029 A 
ATOM     52  C   UNL A   1      47.291  25.934  26.760  1.00  0.00     0.049 A 
ATOM     53  H   UNL A   1      45.568  26.865  27.471  1.00  0.00     0.167 HD
ATOM     54  C   UNL A   1      41.796  28.722  28.771  1.00  0.00     0.034 A 
ATOM     55  C   UNL A   1      48.259  26.871  26.697  1.00  0.00     0.034 A 
ATOM     56  C   UNL A   1      42.786  29.771  28.822  1.00  0.00     0.049 A 
ATOM     57  C   UNL A   1      47.919  28.289  27.084  1.00  0.00     0.074 A 
ATOM     58  C   UNL A   1      42.639  31.074  29.264  1.00  0.00     0.029 A 
ATOM     59  N   UNL A   1      44.105  29.641  28.402  1.00  0.00    -0.354 N 
ATOM     60  N   UNL A   1      46.778  28.779  27.509  1.00  0.00    -0.248 NA
ATOM     61  C   UNL A   1      48.999  29.279  26.980  1.00  0.00     0.031 C 
ATOM     62  C   UNL A   1      43.842  31.751  29.036  1.00  0.00     0.029 A 
ATOM     63  C   UNL A   1      44.768  30.852  28.534  1.00  0.00     0.049 A 
ATOM     64  H   UNL A   1      44.508  28.811  28.060  1.00  0.00     0.167 HD
ATOM     65  C   UNL A   1      47.012  30.130  27.752  1.00  0.00     0.074 A 
ATOM     66  C   UNL A   1      48.406  30.373  27.437  1.00  0.00     0.031 C 
ATOM     67  C   UNL A   1      46.156  31.083  28.201  1.00  0.00     0.034 A 
BRANCH  54  68
ATOM     68  C   UNL A   1      40.373  29.031  29.172  1.00  0.00     0.023 A 
ATOM     69  C   UNL A   1      39.972  29.026  30.520  1.00  0.00     0.031 A 
ATOM     70  C   UNL A   1      39.391  29.287  28.198  1.00  0.00     0.131 A 
ATOM     71  C   UNL A   1      38.616  29.171  30.850  1.00  0.00     0.055 A 
ATOM     72  C   UNL A   1      38.059  29.528  28.541  1.00  0.00     0.041 A 
ATOM     73  F   UNL A   1      39.705  29.285  26.893  1.00  0.00    -0.206 F 
ATOM     74  C   UNL A   1      37.661  29.450  29.871  1.00  0.00     0.022 A 
BRANCH  71  75
ATOM     75  S   UNL A   1      38.101  28.809  32.551  1.00  0.00     0.124 S 
ATOM     76  O   UNL A   1      38.296  27.362  32.615  1.00  0.00    -0.237 OA
ATOM     77  O   UNL A   1      39.028  29.614  33.339  1.00  0.00    -0.237 OA
ATOM     78  O   UNL A   1      36.707  29.244  32.586  1.00  0.00    -0.744 OA
ENDBRANCH  71  75
ENDBRANCH  54  68
BRANCH  55  79
ATOM     79  C   UNL A   1      49.631  26.512  26.243  1.00  0.00     0.023 A 
ATOM     80  C   UNL A   1      50.147  27.027  25.043  1.00  0.00     0.031 A 
ATOM     81  C   UNL A   1      50.438  25.626  26.980  1.00  0.00     0.131 A 
ATOM     82  C   UNL A   1      51.411  26.620  24.592  1.00  0.00     0.055 A 
ATOM     83  C   UNL A   1      51.719  25.268  26.555  1.00  0.00     0.041 A 
ATOM     84  F   UNL A   1      49.996  25.105  28.136  1.00  0.00    -0.206 F 
ATOM     85  C   UNL A   1      52.209  25.756  25.349  1.00  0.00     0.022 A 
BRANCH  82  86
ATOM     86  S   UNL A   1      51.970  27.175  22.959  1.00  0.00     0.124 S 
ATOM     87  O   UNL A   1      52.457  25.930  22.375  1.00  0.00    -0.237 OA
ATOM     88  O   UNL A   1      50.742  27.717  22.387  1.00  0.00    -0.237 OA
ATOM     89  O   UNL A   1      53.000  28.164  23.271  1.00  0.00    -0.744 OA
ENDBRANCH  82  86
ENDBRANCH  55  79
BRANCH  67  90
ATOM     90  C   UNL A   1      46.715  32.467  28.414  1.00  0.00     0.023 A 
ATOM     91  C   UNL A   1      46.802  33.401  27.366  1.00  0.00     0.031 A 
ATOM     92  C   UNL A   1      47.157  32.863  29.689  1.00  0.00     0.131 A 
ATOM     93  C   UNL A   1      47.359  34.666  27.602  1.00  0.00     0.055 A 
ATOM     94  C   UNL A   1      47.652  34.144  29.933  1.00  0.00     0.041 A 
ATOM     95  F   UNL A   1      47.102  32.010  30.725  1.00  0.00    -0.206 F 
ATOM     96  C   UNL A   1      47.764  35.052  28.883  1.00  0.00     0.022 A 
BRANCH  93  97
ATOM     97  S   UNL A   1      47.619  35.781  26.196  1.00  0.00     0.124 S 
ATOM     98  O   UNL A   1      48.110  34.865  25.171  1.00  0.00    -0.237 OA
ATOM     99  O   UNL A   1      46.283  36.326  25.975  1.00  0.00    -0.237 OA
ATOM    100  O   UNL A   1      48.604  36.738  26.694  1.00  0.00    -0.744 OA
ENDBRANCH  93  97
ENDBRANCH  67  90
ENDBRANCH  41  42
ENDBRANCH  33  36
ENDBRANCH  31  32
ENDBRANCH  30  31
ENDBRANCH   1  30
TORSDOF 18
ENDMDL
MODEL 2
REMARK VINA RESULT:     -12.4      1.905      2.299
REMARK SMILES COc1ccc(Br)cc1CNc1ccc(N2CCOCC2)c(C(=O)NCCCNC(=O)c2ccc(-c3c4nc(c(-c5cc(S(=O)(=O)[O-])ccc5F)c5ccc([nH]5)c(-c5cc(S(=O)(=O)[O-])ccc5F)c5nc(c(-c6cc(S(=O)(=O)[O-])ccc6F)c6ccc3[nH]6)C=C5)C=C4)cc2)c1
REMARK SMILES IDX 26 1 25 2 23 3 24 4 22 6 12 7 13 8 95 9 14 10 15 11 11 12
REMARK SMILES IDX 10 14 9 15 3 16 4 17 5 18 8 19 6 20 7 21 2 22 1 23 16 24
REMARK SMILES IDX 17 25 21 26 18 27 20 28 19 29 27 30 28 31 29 32 30 33 31 35
REMARK SMILES IDX 32 36 33 37 94 38 34 39 93 40 35 41 36 42 37 43 87 44 38 45
REMARK SMILES IDX 92 46 86 47 88 48 39 49 91 50 85 51 84 52 40 54 72 55 52 56
REMARK SMILES IDX 71 57 53 58 56 59 70 60 89 61 54 62 55 63 69 65 90 66 57 67
REMARK SMILES IDX 41 68 42 69 50 70 43 71 49 72 51 73 48 74 44 75 45 76 46 77
REMARK SMILES IDX 47 78 73 79 74 80 82 81 75 82 81 83 83 84 80 85 76 86 77 87
REMARK SMILES IDX 78 88 79 89 58 90 59 91 67 92 60 93 66 94 68 95 65 96 61 97
REMARK SMILES IDX 62 98 63 99 64 100
REMARK H PARENT 25 5 11 13 29 34 88 53 56 64
REMARK Flexibility Score: inf
ROOT
ATOM      1  C   UNL A   1      37.007  21.463  24.981  1.00  0.00     0.118 C 
ENDROOT
BRANCH   1   2
ATOM      2  N   UNL A   1      35.955  21.496  25.997  1.00  0.00    -0.352 N 
ATOM      3  C   UNL A   1      34.581  21.356  26.019  1.00  0.00     0.253 C 
ATOM      4  O   UNL A   1      34.080  21.402  27.142  1.00  0.00    -0.269 OA
ATOM      5  H   UNL A   1      36.320  21.658  26.896  1.00  0.00     0.163 HD
BRANCH   3   6
ATOM      6  C   UNL A   1      33.734  21.195  24.791  1.00  0.00     0.065 A 
ATOM      7  C   UNL A   1      32.593  22.386  22.969  1.00  0.00     0.035 A 
ATOM      8  C   UNL A   1      31.955  21.200  22.627  1.00  0.00     0.028 A 
ATOM      9  C   UNL A   1      33.554  22.312  23.970  1.00  0.00     0.041 A 
ATOM     10  C   UNL A   1      32.279  20.007  23.279  1.00  0.00     0.029 A 
ATOM     11  C   UNL A   1      33.179  19.970  24.364  1.00  0.00     0.050 A 
BRANCH   7  12
ATOM     12  N   UNL A   1      32.337  23.539  22.262  1.00  0.00    -0.381 N 
ATOM     13  H   UNL A   1      31.544  23.544  21.679  1.00  0.00     0.160 HD
BRANCH  12  14
ATOM     14  C   UNL A   1      33.145  24.753  22.306  1.00  0.00     0.152 C 
BRANCH  14  15
ATOM     15  C   UNL A   1      32.255  25.920  22.656  1.00  0.00     0.014 A 
ATOM     16  C   UNL A   1      32.680  27.246  22.489  1.00  0.00     0.123 A 
ATOM     17  C   UNL A   1      31.819  28.294  22.827  1.00  0.00     0.048 A 
ATOM     18  C   UNL A   1      30.537  28.027  23.322  1.00  0.00     0.019 A 
ATOM     19  C   UNL A   1      30.945  25.666  23.110  1.00  0.00     0.025 A 
ATOM     20  C   UNL A   1      30.101  26.714  23.451  1.00  0.00     0.018 A 
ATOM     21  Br  UNL A   1      28.360  26.343  24.082  1.00  0.00    -0.051 Br
BRANCH  16  22
ATOM     22  O   UNL A   1      33.906  27.429  21.909  1.00  0.00    -0.496 OA
ATOM     23  C   UNL A   1      34.662  28.540  22.382  1.00  0.00     0.278 C 
ENDBRANCH  16  22
ENDBRANCH  14  15
ENDBRANCH  12  14
ENDBRANCH   7  12
BRANCH  11  24
ATOM     24  N   UNL A   1      33.570  18.730  24.823  1.00  0.00    -0.366 N 
ATOM     25  C   UNL A   1      34.794  18.047  24.406  1.00  0.00     0.145 C 
ATOM     26  C   UNL A   1      32.783  18.079  25.871  1.00  0.00     0.145 C 
ATOM     27  C   UNL A   1      34.544  16.533  24.220  1.00  0.00     0.181 C 
ATOM     28  C   UNL A   1      32.564  16.611  25.491  1.00  0.00     0.181 C 
ATOM     29  O   UNL A   1      33.828  15.943  25.325  1.00  0.00    -0.378 OA
ENDBRANCH  11  24
ENDBRANCH   3   6
ENDBRANCH   1   2
BRANCH   1  30
ATOM     30  C   UNL A   1      38.017  20.343  25.169  1.00  0.00     0.042 C 
BRANCH  30  31
ATOM     31  C   UNL A   1      39.290  20.763  25.881  1.00  0.00     0.118 C 
BRANCH  31  32
ATOM     32  N   UNL A   1      40.214  19.652  26.083  1.00  0.00    -0.352 N 
ATOM     33  C   UNL A   1      41.582  19.642  26.239  1.00  0.00     0.251 C 
ATOM     34  H   UNL A   1      39.790  18.764  26.114  1.00  0.00     0.163 HD
ATOM     35  O   UNL A   1      42.190  18.581  26.156  1.00  0.00    -0.269 OA
BRANCH  33  36
ATOM     36  C   UNL A   1      42.312  20.907  26.469  1.00  0.00     0.039 A 
ATOM     37  C   UNL A   1      42.522  21.784  25.400  1.00  0.00     0.014 A 
ATOM     38  C   UNL A   1      42.783  21.233  27.741  1.00  0.00     0.014 A 
ATOM     39  C   UNL A   1      43.106  23.032  25.635  1.00  0.00     0.010 A 
ATOM     40  C   UNL A   1      43.267  22.511  27.991  1.00  0.00     0.010 A 
ATOM     41  C   UNL A   1      43.425  23.429  26.943  1.00  0.00    -0.014 A 
BRANCH  41  42
ATOM     42  C   UNL A   1      43.904  24.801  27.257  1.00  0.00     0.031 A 
ATOM     43  C   UNL A   1      42.942  25.833  27.773  1.00  0.00     0.074 A 
ATOM     44  C   UNL A   1      45.180  25.138  26.980  1.00  0.00     0.049 A 
ATOM     45  N   UNL A   1      43.127  27.113  27.972  1.00  0.00    -0.248 NA
ATOM     46  C   UNL A   1      41.581  25.367  28.073  1.00  0.00     0.031 C 
ATOM     47  C   UNL A   1      46.200  24.231  26.450  1.00  0.00     0.029 A 
ATOM     48  N   UNL A   1      45.834  26.339  27.094  1.00  0.00    -0.354 N 
ATOM     49  C   UNL A   1      41.904  27.607  28.411  1.00  0.00     0.074 A 
ATOM     50  C   UNL A   1      40.969  26.501  28.376  1.00  0.00     0.031 C 
ATOM     51  C   UNL A   1      47.356  24.898  26.314  1.00  0.00     0.029 A 
ATOM     52  C   UNL A   1      47.147  26.294  26.683  1.00  0.00     0.049 A 
ATOM     53  H   UNL A   1      45.405  27.155  27.437  1.00  0.00     0.167 HD
ATOM     54  C   UNL A   1      41.596  28.860  28.831  1.00  0.00     0.034 A 
ATOM     55  C   UNL A   1      48.072  27.271  26.592  1.00  0.00     0.034 A 
ATOM     56  C   UNL A   1      42.542  29.949  28.853  1.00  0.00     0.049 A 
ATOM     57  C   UNL A   1      47.685  28.675  26.984  1.00  0.00     0.074 A 
ATOM     58  C   UNL A   1      42.353  31.246  29.296  1.00  0.00     0.029 A 
ATOM     59  N   UNL A   1      43.853  29.872  28.399  1.00  0.00    -0.354 N 
ATOM     60  N   UNL A   1      46.535  29.118  27.437  1.00  0.00    -0.248 NA
ATOM     61  C   UNL A   1      48.719  29.708  26.848  1.00  0.00     0.031 C 
ATOM     62  C   UNL A   1      43.520  31.972  29.034  1.00  0.00     0.029 A 
ATOM     63  C   UNL A   1      44.469  31.110  28.510  1.00  0.00     0.049 A 
ATOM     64  H   UNL A   1      44.282  29.058  28.049  1.00  0.00     0.167 HD
ATOM     65  C   UNL A   1      46.720  30.479  27.671  1.00  0.00     0.074 A 
ATOM     66  C   UNL A   1      48.093  30.778  27.318  1.00  0.00     0.031 C 
ATOM     67  C   UNL A   1      45.836  31.397  28.140  1.00  0.00     0.034 A 
BRANCH  54  68
ATOM     68  C   UNL A   1      40.171  29.110  29.269  1.00  0.00     0.023 A 
ATOM     69  C   UNL A   1      39.803  29.078  30.627  1.00  0.00     0.031 A 
ATOM     70  C   UNL A   1      39.157  29.338  28.322  1.00  0.00     0.131 A 
ATOM     71  C   UNL A   1      38.452  29.169  30.990  1.00  0.00     0.055 A 
ATOM     72  C   UNL A   1      37.826  29.525  28.698  1.00  0.00     0.041 A 
ATOM     73  F   UNL A   1      39.440  29.359  27.009  1.00  0.00    -0.206 F 
ATOM     74  C   UNL A   1      37.463  29.420  30.037  1.00  0.00     0.022 A 
BRANCH  71  75
ATOM     75  S   UNL A   1      37.992  28.772  32.699  1.00  0.00     0.124 S 
ATOM     76  O   UNL A   1      39.046  29.449  33.452  1.00  0.00    -0.237 OA
ATOM     77  O   UNL A   1      36.657  29.349  32.808  1.00  0.00    -0.237 OA
ATOM     78  O   UNL A   1      38.048  27.313  32.739  1.00  0.00    -0.744 OA
ENDBRANCH  71  75
ENDBRANCH  54  68
BRANCH  55  79
ATOM     79  C   UNL A   1      49.446  26.967  26.102  1.00  0.00     0.023 A 
ATOM     80  C   UNL A   1      50.506  26.792  27.005  1.00  0.00     0.031 A 
ATOM     81  C   UNL A   1      49.730  26.877  24.728  1.00  0.00     0.131 A 
ATOM     82  C   UNL A   1      51.807  26.580  26.525  1.00  0.00     0.055 A 
ATOM     83  C   UNL A   1      51.017  26.609  24.256  1.00  0.00     0.041 A 
ATOM     84  F   UNL A   1      48.754  27.033  23.819  1.00  0.00    -0.206 F 
ATOM     85  C   UNL A   1      52.068  26.471  25.157  1.00  0.00     0.022 A 
BRANCH  82  86
ATOM     86  S   UNL A   1      53.173  26.528  27.717  1.00  0.00     0.124 S 
ATOM     87  O   UNL A   1      53.964  25.412  27.211  1.00  0.00    -0.237 OA
ATOM     88  O   UNL A   1      53.760  27.855  27.563  1.00  0.00    -0.237 OA
ATOM     89  O   UNL A   1      52.501  26.290  28.993  1.00  0.00    -0.744 OA
ENDBRANCH  82  86
ENDBRANCH  55  79
BRANCH  67  90
ATOM     90  C   UNL A   1      46.343  32.804  28.334  1.00  0.00     0.023 A 
ATOM     91  C   UNL A   1      46.925  33.222  29.544  1.00  0.00     0.031 A 
ATOM     92  C   UNL A   1      46.252  33.739  27.288  1.00  0.00     0.131 A 
ATOM     93  C   UNL A   1      47.353  34.550  29.692  1.00  0.00     0.055 A 
ATOM     94  C   UNL A   1      46.736  35.041  27.418  1.00  0.00     0.041 A 
ATOM     95  F   UNL A   1      45.699  33.397  26.112  1.00  0.00    -0.206 F 
ATOM     96  C   UNL A   1      47.282  35.455  28.630  1.00  0.00     0.022 A 
BRANCH  93  97
ATOM     97  S   UNL A   1      47.936  35.102  31.317  1.00  0.00     0.124 S 
ATOM     98  O   UNL A   1      48.947  34.097  31.632  1.00  0.00    -0.237 OA
ATOM     99  O   UNL A   1      48.437  36.442  31.034  1.00  0.00    -0.237 OA
ATOM    100  O   UNL A   1      46.734  35.052  32.148  1.00  0.00    -0.744 OA
ENDBRANCH  93  97
ENDBRANCH  67  90
ENDBRANCH  41  42
ENDBRANCH  33  36
ENDBRANCH  31  32
ENDBRANCH  30  31
ENDBRANCH   1  30
TORSDOF 18
ENDMDL
MODEL 3
REMARK VINA RESULT:     -12.3      2.488      3.184
REMARK SMILES COc1ccc(Br)cc1CNc1ccc(N2CCOCC2)c(C(=O)NCCCNC(=O)c2ccc(-c3c4nc(c(-c5cc(S(=O)(=O)[O-])ccc5F)c5ccc([nH]5)c(-c5cc(S(=O)(=O)[O-])ccc5F)c5nc(c(-c6cc(S(=O)(=O)[O-])ccc6F)c6ccc3[nH]6)C=C5)C=C4)cc2)c1
REMARK SMILES IDX 26 1 25 2 23 3 24 4 22 6 12 7 13 8 95 9 14 10 15 11 11 12
REMARK SMILES IDX 10 14 9 15 3 16 4 17 5 18 8 19 6 20 7 21 2 22 1 23 16 24
REMARK SMILES IDX 17 25 21 26 18 27 20 28 19 29 27 30 28 31 29 32 30 33 31 35
REMARK SMILES IDX 32 36 33 37 94 38 34 39 93 40 35 41 36 42 37 43 87 44 38 45
REMARK SMILES IDX 92 46 86 47 88 48 39 49 91 50 85 51 84 52 40 54 72 55 52 56
REMARK SMILES IDX 71 57 53 58 56 59 70 60 89 61 54 62 55 63 69 65 90 66 57 67
REMARK SMILES IDX 41 68 42 69 50 70 43 71 49 72 51 73 48 74 44 75 45 76 46 77
REMARK SMILES IDX 47 78 73 79 74 80 82 81 75 82 81 83 83 84 80 85 76 86 77 87
REMARK SMILES IDX 78 88 79 89 58 90 59 91 67 92 60 93 66 94 68 95 65 96 61 97
REMARK SMILES IDX 62 98 63 99 64 100
REMARK H PARENT 25 5 11 13 29 34 88 53 56 64
REMARK Flexibility Score: inf
ROOT
ATOM      1  C   UNL A   1      36.319  20.011  24.850  1.00  0.00     0.118 C 
ENDROOT
BRANCH   1   2
ATOM      2  N   UNL A   1      35.210  20.342  25.744  1.00  0.00    -0.352 N 
ATOM      3  C   UNL A   1      33.879  20.685  25.605  1.00  0.00     0.253 C 
ATOM      4  O   UNL A   1      33.274  20.831  26.666  1.00  0.00    -0.269 OA
ATOM      5  H   UNL A   1      35.481  20.310  26.689  1.00  0.00     0.163 HD
BRANCH   3   6
ATOM      6  C   UNL A   1      33.205  20.906  24.283  1.00  0.00     0.065 A 
ATOM      7  C   UNL A   1      32.506  22.598  22.642  1.00  0.00     0.035 A 
ATOM      8  C   UNL A   1      31.772  21.620  21.983  1.00  0.00     0.028 A 
ATOM      9  C   UNL A   1      33.294  22.177  23.707  1.00  0.00     0.041 A 
ATOM     10  C   UNL A   1      31.839  20.286  22.395  1.00  0.00     0.029 A 
ATOM     11  C   UNL A   1      32.560  19.894  23.541  1.00  0.00     0.050 A 
BRANCH   7  12
ATOM     12  N   UNL A   1      32.509  23.893  22.177  1.00  0.00    -0.381 N 
ATOM     13  H   UNL A   1      32.300  24.031  21.224  1.00  0.00     0.160 HD
BRANCH  12  14
ATOM     14  C   UNL A   1      32.796  25.078  22.979  1.00  0.00     0.152 C 
BRANCH  14  15
ATOM     15  C   UNL A   1      31.518  25.858  23.173  1.00  0.00     0.014 A 
ATOM     16  C   UNL A   1      30.460  25.357  23.945  1.00  0.00     0.123 A 
ATOM     17  C   UNL A   1      29.296  26.117  24.095  1.00  0.00     0.048 A 
ATOM     18  C   UNL A   1      29.187  27.374  23.488  1.00  0.00     0.019 A 
ATOM     19  C   UNL A   1      31.413  27.145  22.607  1.00  0.00     0.025 A 
ATOM     20  C   UNL A   1      30.250  27.887  22.756  1.00  0.00     0.018 A 
ATOM     21  Br  UNL A   1      30.127  29.597  21.965  1.00  0.00    -0.051 Br
BRANCH  16  22
ATOM     22  O   UNL A   1      30.677  24.168  24.586  1.00  0.00    -0.496 OA
ATOM     23  C   UNL A   1      30.766  24.231  26.007  1.00  0.00     0.278 C 
ENDBRANCH  16  22
ENDBRANCH  14  15
ENDBRANCH  12  14
ENDBRANCH   7  12
BRANCH  11  24
ATOM     24  N   UNL A   1      32.714  18.541  23.763  1.00  0.00    -0.366 N 
ATOM     25  C   UNL A   1      32.323  17.861  24.997  1.00  0.00     0.145 C 
ATOM     26  C   UNL A   1      33.201  17.692  22.675  1.00  0.00     0.145 C 
ATOM     27  C   UNL A   1      33.366  16.792  25.392  1.00  0.00     0.181 C 
ATOM     28  C   UNL A   1      34.279  16.750  23.223  1.00  0.00     0.181 C 
ATOM     29  O   UNL A   1      33.745  15.944  24.288  1.00  0.00    -0.378 OA
ENDBRANCH  11  24
ENDBRANCH   3   6
ENDBRANCH   1   2
BRANCH   1  30
ATOM     30  C   UNL A   1      37.118  21.215  24.380  1.00  0.00     0.042 C 
BRANCH  30  31
ATOM     31  C   UNL A   1      38.033  21.807  25.436  1.00  0.00     0.118 C 
BRANCH  31  32
ATOM     32  N   UNL A   1      38.992  20.839  25.956  1.00  0.00    -0.352 N 
ATOM     33  C   UNL A   1      40.183  21.027  26.621  1.00  0.00     0.251 C 
ATOM     34  H   UNL A   1      38.748  19.897  25.809  1.00  0.00     0.163 HD
ATOM     35  O   UNL A   1      40.952  20.083  26.759  1.00  0.00    -0.269 OA
BRANCH  33  36
ATOM     36  C   UNL A   1      40.544  22.366  27.134  1.00  0.00     0.039 A 
ATOM     37  C   UNL A   1      41.432  22.473  28.209  1.00  0.00     0.014 A 
ATOM     38  C   UNL A   1      40.013  23.516  26.551  1.00  0.00     0.014 A 
ATOM     39  C   UNL A   1      41.868  23.736  28.621  1.00  0.00     0.010 A 
ATOM     40  C   UNL A   1      40.525  24.762  26.891  1.00  0.00     0.010 A 
ATOM     41  C   UNL A   1      41.466  24.885  27.924  1.00  0.00    -0.014 A 
BRANCH  41  42
ATOM     42  C   UNL A   1      42.023  26.229  28.230  1.00  0.00     0.031 A 
ATOM     43  C   UNL A   1      41.171  27.256  28.921  1.00  0.00     0.074 A 
ATOM     44  C   UNL A   1      43.258  26.552  27.794  1.00  0.00     0.049 A 
ATOM     45  N   UNL A   1      41.418  28.520  29.150  1.00  0.00    -0.248 NA
ATOM     46  C   UNL A   1      39.851  26.806  29.386  1.00  0.00     0.031 C 
ATOM     47  C   UNL A   1      44.169  25.649  27.087  1.00  0.00     0.029 A 
ATOM     48  N   UNL A   1      43.955  27.731  27.870  1.00  0.00    -0.354 N 
ATOM     49  C   UNL A   1      40.281  29.019  29.776  1.00  0.00     0.074 A 
ATOM     50  C   UNL A   1      39.319  27.938  29.821  1.00  0.00     0.031 C 
ATOM     51  C   UNL A   1      45.314  26.297  26.822  1.00  0.00     0.029 A 
ATOM     52  C   UNL A   1      45.197  27.677  27.279  1.00  0.00     0.049 A 
ATOM     53  H   UNL A   1      43.601  28.539  28.306  1.00  0.00     0.167 HD
ATOM     54  C   UNL A   1      40.070  30.257  30.291  1.00  0.00     0.034 A 
ATOM     55  C   UNL A   1      46.129  28.637  27.105  1.00  0.00     0.034 A 
ATOM     56  C   UNL A   1      41.040  31.322  30.231  1.00  0.00     0.049 A 
ATOM     57  C   UNL A   1      45.839  30.028  27.610  1.00  0.00     0.074 A 
ATOM     58  C   UNL A   1      40.951  32.600  30.753  1.00  0.00     0.029 A 
ATOM     59  N   UNL A   1      42.274  31.239  29.595  1.00  0.00    -0.354 N 
ATOM     60  N   UNL A   1      44.776  30.474  28.238  1.00  0.00    -0.248 NA
ATOM     61  C   UNL A   1      46.874  31.044  27.379  1.00  0.00     0.031 C 
ATOM     62  C   UNL A   1      42.092  33.312  30.366  1.00  0.00     0.029 A 
ATOM     63  C   UNL A   1      42.934  32.456  29.676  1.00  0.00     0.049 A 
ATOM     64  H   UNL A   1      42.627  30.434  29.153  1.00  0.00     0.167 HD
ATOM     65  C   UNL A   1      45.029  31.817  28.505  1.00  0.00     0.074 A 
ATOM     66  C   UNL A   1      46.349  32.103  27.979  1.00  0.00     0.031 C 
ATOM     67  C   UNL A   1      44.245  32.731  29.133  1.00  0.00     0.034 A 
BRANCH  54  68
ATOM     68  C   UNL A   1      38.727  30.517  30.933  1.00  0.00     0.023 A 
ATOM     69  C   UNL A   1      37.665  31.089  30.210  1.00  0.00     0.031 A 
ATOM     70  C   UNL A   1      38.515  30.236  32.295  1.00  0.00     0.131 A 
ATOM     71  C   UNL A   1      36.482  31.453  30.869  1.00  0.00     0.055 A 
ATOM     72  C   UNL A   1      37.299  30.512  32.923  1.00  0.00     0.041 A 
ATOM     73  F   UNL A   1      39.496  29.710  33.045  1.00  0.00    -0.206 F 
ATOM     74  C   UNL A   1      36.280  31.142  32.216  1.00  0.00     0.022 A 
BRANCH  71  75
ATOM     75  S   UNL A   1      35.290  32.497  29.986  1.00  0.00     0.124 S 
ATOM     76  O   UNL A   1      36.118  33.644  29.621  1.00  0.00    -0.237 OA
ATOM     77  O   UNL A   1      34.871  31.635  28.887  1.00  0.00    -0.237 OA
ATOM     78  O   UNL A   1      34.266  32.772  30.991  1.00  0.00    -0.744 OA
ENDBRANCH  71  75
ENDBRANCH  54  68
BRANCH  55  79
ATOM     79  C   UNL A   1      47.413  28.327  26.416  1.00  0.00     0.023 A 
ATOM     80  C   UNL A   1      47.470  28.231  25.017  1.00  0.00     0.031 A 
ATOM     81  C   UNL A   1      48.594  28.090  27.142  1.00  0.00     0.131 A 
ATOM     82  C   UNL A   1      48.671  27.865  24.389  1.00  0.00     0.055 A 
ATOM     83  C   UNL A   1      49.800  27.783  26.509  1.00  0.00     0.041 A 
ATOM     84  F   UNL A   1      48.598  28.171  28.483  1.00  0.00    -0.206 F 
ATOM     85  C   UNL A   1      49.840  27.656  25.124  1.00  0.00     0.022 A 
BRANCH  82  86
ATOM     86  S   UNL A   1      48.662  27.588  22.597  1.00  0.00     0.124 S 
ATOM     87  O   UNL A   1      49.896  28.251  22.190  1.00  0.00    -0.237 OA
ATOM     88  O   UNL A   1      48.657  26.131  22.516  1.00  0.00    -0.237 OA
ATOM     89  O   UNL A   1      47.429  28.239  22.159  1.00  0.00    -0.744 OA
ENDBRANCH  82  86
ENDBRANCH  55  79
BRANCH  67  90
ATOM     90  C   UNL A   1      44.814  34.116  29.319  1.00  0.00     0.023 A 
ATOM     91  C   UNL A   1      45.574  34.459  30.450  1.00  0.00     0.031 A 
ATOM     92  C   UNL A   1      44.601  35.104  28.342  1.00  0.00     0.131 A 
ATOM     93  C   UNL A   1      46.055  35.768  30.598  1.00  0.00     0.055 A 
ATOM     94  C   UNL A   1      45.135  36.387  28.462  1.00  0.00     0.041 A 
ATOM     95  F   UNL A   1      43.877  34.833  27.243  1.00  0.00    -0.206 F 
ATOM     96  C   UNL A   1      45.860  36.728  29.601  1.00  0.00     0.022 A 
BRANCH  93  97
ATOM     97  S   UNL A   1      46.880  36.225  32.147  1.00  0.00     0.124 S 
ATOM     98  O   UNL A   1      46.167  35.404  33.121  1.00  0.00    -0.237 OA
ATOM     99  O   UNL A   1      48.265  35.849  31.889  1.00  0.00    -0.237 OA
ATOM    100  O   UNL A   1      46.638  37.663  32.253  1.00  0.00    -0.744 OA
ENDBRANCH  93  97
ENDBRANCH  67  90
ENDBRANCH  41  42
ENDBRANCH  33  36
ENDBRANCH  31  32
ENDBRANCH  30  31
ENDBRANCH   1  30
TORSDOF 18
ENDMDL
