MODEL 1
REMARK VINA RESULT:     -11.6      0.000      0.000
REMARK SMILES C[C@@H](C(=O)NCCCNC(=O)c1ccc(-c2c3nc(c(-c4cc(S(=O)(=O)[O-])ccc4F)c4ccc([nH]4)c(-c4cc(S(=O)(=O)[O-])ccc4F)c4nc(c(-c5cc(S(=O)(=O)[O-])ccc5F)c5ccc2[nH]5)C=C4)C=C3)cc1)c1ccc(Cc2ccsc2)cc1F
REMARK SMILES IDX 7 1 6 2 5 3 3 4 4 5 2 7 1 8 75 9 76 10 86 11 77 12 85 13
REMARK SMILES IDX 87 14 78 15 79 16 80 17 81 18 84 19 82 20 83 21 8 22 9 23
REMARK SMILES IDX 10 24 11 26 12 27 13 28 74 29 14 30 73 31 15 32 16 33 17 34
REMARK SMILES IDX 67 35 18 36 72 37 66 38 68 39 19 40 71 41 65 42 64 43 20 45
REMARK SMILES IDX 52 46 32 47 51 48 33 49 36 50 50 51 69 52 34 53 35 54 49 56
REMARK SMILES IDX 70 57 37 58 21 59 22 60 30 61 23 62 29 63 31 64 28 65 24 66
REMARK SMILES IDX 25 67 26 68 27 69 53 70 54 71 62 72 55 73 61 74 63 75 60 76
REMARK SMILES IDX 56 77 57 78 58 79 59 80 38 81 39 82 47 83 40 84 46 85 48 86
REMARK SMILES IDX 45 87 41 88 42 89 43 90 44 91
REMARK H PARENT 5 6 9 25 68 44 36 55
REMARK Flexibility Score: inf
ROOT
ATOM      1  C   UNL A   1      31.854  31.376  26.827  1.00  0.00     0.042 C 
ENDROOT
BRANCH   1   2
ATOM      2  C   UNL A   1      32.171  29.944  26.405  1.00  0.00     0.117 C 
BRANCH   2   3
ATOM      3  N   UNL A   1      31.452  29.574  25.202  1.00  0.00    -0.356 N 
ATOM      4  C   UNL A   1      31.881  28.950  24.068  1.00  0.00     0.227 C 
ATOM      5  O   UNL A   1      31.058  28.850  23.154  1.00  0.00    -0.274 OA
ATOM      6  H   UNL A   1      30.497  29.813  25.204  1.00  0.00     0.163 HD
BRANCH   4   7
ATOM      7  C   UNL A   1      33.308  28.386  23.982  1.00  0.00     0.108 C 
ATOM      8  C   UNL A   1      34.093  28.953  22.793  1.00  0.00     0.023 C 
BRANCH   7   9
ATOM      9  C   UNL A   1      33.305  26.863  23.912  1.00  0.00    -0.000 A 
ATOM     10  C   UNL A   1      33.282  26.195  22.680  1.00  0.00     0.008 A 
ATOM     11  C   UNL A   1      33.318  26.090  25.075  1.00  0.00     0.127 A 
ATOM     12  C   UNL A   1      33.312  24.802  22.620  1.00  0.00     0.004 A 
ATOM     13  C   UNL A   1      33.325  24.693  25.023  1.00  0.00     0.043 A 
ATOM     14  F   UNL A   1      33.353  26.685  26.277  1.00  0.00    -0.207 F 
ATOM     15  C   UNL A   1      33.327  24.027  23.789  1.00  0.00    -0.041 A 
BRANCH  15  16
ATOM     16  C   UNL A   1      33.410  22.523  23.713  1.00  0.00     0.072 C 
BRANCH  16  17
ATOM     17  C   UNL A   1      34.801  22.098  24.097  1.00  0.00    -0.033 A 
ATOM     18  C   UNL A   1      36.024  22.672  23.600  1.00  0.00     0.015 A 
ATOM     19  C   UNL A   1      35.085  21.144  25.059  1.00  0.00     0.068 A 
ATOM     20  C   UNL A   1      37.151  22.123  24.171  1.00  0.00     0.065 A 
ATOM     21  S   UNL A   1      36.761  20.936  25.333  1.00  0.00    -0.152 S 
ENDBRANCH  16  17
ENDBRANCH  15  16
ENDBRANCH   7   9
ENDBRANCH   4   7
ENDBRANCH   2   3
ENDBRANCH   1   2
BRANCH   1  22
ATOM     22  C   UNL A   1      33.060  32.150  27.350  1.00  0.00     0.118 C 
BRANCH  22  23
ATOM     23  N   UNL A   1      32.754  33.548  27.618  1.00  0.00    -0.352 N 
ATOM     24  C   UNL A   1      33.274  34.384  28.577  1.00  0.00     0.251 C 
ATOM     25  H   UNL A   1      32.077  33.952  27.029  1.00  0.00     0.163 HD
ATOM     26  O   UNL A   1      32.747  35.475  28.782  1.00  0.00    -0.269 OA
BRANCH  24  27
ATOM     27  C   UNL A   1      34.445  33.956  29.370  1.00  0.00     0.039 A 
ATOM     28  C   UNL A   1      34.259  33.101  30.459  1.00  0.00     0.014 A 
ATOM     29  C   UNL A   1      35.728  34.396  29.034  1.00  0.00     0.014 A 
ATOM     30  C   UNL A   1      35.368  32.630  31.169  1.00  0.00     0.010 A 
ATOM     31  C   UNL A   1      36.833  33.866  29.690  1.00  0.00     0.010 A 
ATOM     32  C   UNL A   1      36.666  32.980  30.766  1.00  0.00    -0.014 A 
BRANCH  32  33
ATOM     33  C   UNL A   1      37.876  32.468  31.462  1.00  0.00     0.031 A 
ATOM     34  C   UNL A   1      38.664  31.348  30.841  1.00  0.00     0.074 A 
ATOM     35  C   UNL A   1      38.200  32.924  32.688  1.00  0.00     0.049 A 
ATOM     36  N   UNL A   1      39.620  30.618  31.353  1.00  0.00    -0.248 NA
ATOM     37  C   UNL A   1      38.288  30.976  29.469  1.00  0.00     0.031 C 
ATOM     38  C   UNL A   1      37.501  33.992  33.404  1.00  0.00     0.029 A 
ATOM     39  N   UNL A   1      39.182  32.525  33.560  1.00  0.00    -0.354 N 
ATOM     40  C   UNL A   1      39.942  29.680  30.378  1.00  0.00     0.074 A 
ATOM     41  C   UNL A   1      39.031  29.899  29.274  1.00  0.00     0.031 C 
ATOM     42  C   UNL A   1      38.077  34.165  34.605  1.00  0.00     0.029 A 
ATOM     43  C   UNL A   1      39.146  33.183  34.768  1.00  0.00     0.049 A 
ATOM     44  H   UNL A   1      39.849  31.836  33.342  1.00  0.00     0.167 HD
ATOM     45  C   UNL A   1      40.917  28.737  30.395  1.00  0.00     0.034 A 
ATOM     46  C   UNL A   1      39.868  32.996  35.892  1.00  0.00     0.034 A 
ATOM     47  C   UNL A   1      41.817  28.543  31.506  1.00  0.00     0.049 A 
ATOM     48  C   UNL A   1      40.924  31.920  35.912  1.00  0.00     0.074 A 
ATOM     49  C   UNL A   1      42.870  27.653  31.619  1.00  0.00     0.029 A 
ATOM     50  N   UNL A   1      41.762  29.245  32.706  1.00  0.00    -0.354 N 
ATOM     51  N   UNL A   1      41.238  31.054  34.975  1.00  0.00    -0.248 NA
ATOM     52  C   UNL A   1      41.727  31.800  37.135  1.00  0.00     0.031 C 
ATOM     53  C   UNL A   1      43.403  27.764  32.909  1.00  0.00     0.029 A 
ATOM     54  C   UNL A   1      42.743  28.787  33.573  1.00  0.00     0.049 A 
ATOM     55  H   UNL A   1      41.121  29.963  32.910  1.00  0.00     0.167 HD
ATOM     56  C   UNL A   1      42.303  30.314  35.482  1.00  0.00     0.074 A 
ATOM     57  C   UNL A   1      42.573  30.831  36.808  1.00  0.00     0.031 C 
ATOM     58  C   UNL A   1      43.002  29.310  34.895  1.00  0.00     0.034 A 
BRANCH  45  59
ATOM     59  C   UNL A   1      41.022  27.829  29.191  1.00  0.00     0.023 A 
ATOM     60  C   UNL A   1      42.031  27.996  28.226  1.00  0.00     0.031 A 
ATOM     61  C   UNL A   1      40.061  26.828  28.964  1.00  0.00     0.131 A 
ATOM     62  C   UNL A   1      41.992  27.258  27.033  1.00  0.00     0.055 A 
ATOM     63  C   UNL A   1      40.088  26.025  27.821  1.00  0.00     0.041 A 
ATOM     64  F   UNL A   1      39.060  26.629  29.835  1.00  0.00    -0.206 F 
ATOM     65  C   UNL A   1      41.043  26.254  26.835  1.00  0.00     0.022 A 
BRANCH  62  66
ATOM     66  S   UNL A   1      43.070  27.774  25.667  1.00  0.00     0.124 S 
ATOM     67  O   UNL A   1      42.099  28.288  24.704  1.00  0.00    -0.237 OA
ATOM     68  O   UNL A   1      43.929  28.766  26.302  1.00  0.00    -0.237 OA
ATOM     69  O   UNL A   1      43.733  26.535  25.269  1.00  0.00    -0.744 OA
ENDBRANCH  62  66
ENDBRANCH  45  59
BRANCH  46  70
ATOM     70  C   UNL A   1      39.597  33.831  37.097  1.00  0.00     0.023 A 
ATOM     71  C   UNL A   1      38.872  33.323  38.185  1.00  0.00     0.031 A 
ATOM     72  C   UNL A   1      40.063  35.157  37.174  1.00  0.00     0.131 A 
ATOM     73  C   UNL A   1      38.607  34.144  39.293  1.00  0.00     0.055 A 
ATOM     74  C   UNL A   1      39.839  35.953  38.298  1.00  0.00     0.041 A 
ATOM     75  F   UNL A   1      40.769  35.688  36.163  1.00  0.00    -0.206 F 
ATOM     76  C   UNL A   1      39.099  35.450  39.363  1.00  0.00     0.022 A 
BRANCH  73  77
ATOM     77  S   UNL A   1      37.561  33.497  40.625  1.00  0.00     0.124 S 
ATOM     78  O   UNL A   1      38.482  32.603  41.317  1.00  0.00    -0.237 OA
ATOM     79  O   UNL A   1      37.190  34.714  41.338  1.00  0.00    -0.237 OA
ATOM     80  O   UNL A   1      36.469  32.838  39.911  1.00  0.00    -0.744 OA
ENDBRANCH  73  77
ENDBRANCH  46  70
BRANCH  58  81
ATOM     81  C   UNL A   1      44.182  28.747  35.651  1.00  0.00     0.023 A 
ATOM     82  C   UNL A   1      44.048  27.702  36.582  1.00  0.00     0.031 A 
ATOM     83  C   UNL A   1      45.471  29.252  35.404  1.00  0.00     0.131 A 
ATOM     84  C   UNL A   1      45.182  27.219  37.254  1.00  0.00     0.055 A 
ATOM     85  C   UNL A   1      46.601  28.730  36.033  1.00  0.00     0.041 A 
ATOM     86  F   UNL A   1      45.656  30.253  34.527  1.00  0.00    -0.206 F 
ATOM     87  C   UNL A   1      46.459  27.713  36.971  1.00  0.00     0.022 A 
BRANCH  84  88
ATOM     88  S   UNL A   1      44.965  25.974  38.556  1.00  0.00     0.124 S 
ATOM     89  O   UNL A   1      46.345  25.615  38.865  1.00  0.00    -0.237 OA
ATOM     90  O   UNL A   1      44.253  26.720  39.588  1.00  0.00    -0.237 OA
ATOM     91  O   UNL A   1      44.184  24.926  37.901  1.00  0.00    -0.744 OA
ENDBRANCH  84  88
ENDBRANCH  58  81
ENDBRANCH  32  33
ENDBRANCH  24  27
ENDBRANCH  22  23
ENDBRANCH   1  22
TORSDOF 16
ENDMDL
MODEL 2
REMARK VINA RESULT:     -11.6      2.496      3.466
REMARK SMILES C[C@@H](C(=O)NCCCNC(=O)c1ccc(-c2c3nc(c(-c4cc(S(=O)(=O)[O-])ccc4F)c4ccc([nH]4)c(-c4cc(S(=O)(=O)[O-])ccc4F)c4nc(c(-c5cc(S(=O)(=O)[O-])ccc5F)c5ccc2[nH]5)C=C4)C=C3)cc1)c1ccc(Cc2ccsc2)cc1F
REMARK SMILES IDX 7 1 6 2 5 3 3 4 4 5 2 7 1 8 75 9 76 10 86 11 77 12 85 13
REMARK SMILES IDX 87 14 78 15 79 16 80 17 81 18 84 19 82 20 83 21 8 22 9 23
REMARK SMILES IDX 10 24 11 26 12 27 13 28 74 29 14 30 73 31 15 32 16 33 17 34
REMARK SMILES IDX 67 35 18 36 72 37 66 38 68 39 19 40 71 41 65 42 64 43 20 45
REMARK SMILES IDX 52 46 32 47 51 48 33 49 36 50 50 51 69 52 34 53 35 54 49 56
REMARK SMILES IDX 70 57 37 58 21 59 22 60 30 61 23 62 29 63 31 64 28 65 24 66
REMARK SMILES IDX 25 67 26 68 27 69 53 70 54 71 62 72 55 73 61 74 63 75 60 76
REMARK SMILES IDX 56 77 57 78 58 79 59 80 38 81 39 82 47 83 40 84 46 85 48 86
REMARK SMILES IDX 45 87 41 88 42 89 43 90 44 91
REMARK H PARENT 5 6 9 25 68 44 36 55
REMARK Flexibility Score: inf
ROOT
ATOM      1  C   UNL A   1      32.800  27.726  26.127  1.00  0.00     0.042 C 
ENDROOT
BRANCH   1   2
ATOM      2  C   UNL A   1      31.316  27.448  25.904  1.00  0.00     0.117 C 
BRANCH   2   3
ATOM      3  N   UNL A   1      30.916  26.189  26.499  1.00  0.00    -0.356 N 
ATOM      4  C   UNL A   1      30.922  24.924  25.989  1.00  0.00     0.227 C 
ATOM      5  O   UNL A   1      30.427  24.046  26.699  1.00  0.00    -0.274 OA
ATOM      6  H   UNL A   1      30.585  26.258  27.423  1.00  0.00     0.163 HD
BRANCH   4   7
ATOM      7  C   UNL A   1      31.549  24.642  24.614  1.00  0.00     0.108 C 
ATOM      8  C   UNL A   1      30.499  24.518  23.504  1.00  0.00     0.023 C 
BRANCH   7   9
ATOM      9  C   UNL A   1      32.416  23.388  24.641  1.00  0.00    -0.000 A 
ATOM     10  C   UNL A   1      32.090  22.267  23.864  1.00  0.00     0.008 A 
ATOM     11  C   UNL A   1      33.555  23.317  25.444  1.00  0.00     0.127 A 
ATOM     12  C   UNL A   1      32.903  21.134  23.866  1.00  0.00     0.004 A 
ATOM     13  C   UNL A   1      34.362  22.176  25.470  1.00  0.00     0.043 A 
ATOM     14  F   UNL A   1      33.913  24.370  26.195  1.00  0.00    -0.207 F 
ATOM     15  C   UNL A   1      34.047  21.066  24.673  1.00  0.00    -0.041 A 
BRANCH  15  16
ATOM     16  C   UNL A   1      34.947  19.855  24.630  1.00  0.00     0.072 C 
BRANCH  16  17
ATOM     17  C   UNL A   1      34.091  18.619  24.624  1.00  0.00    -0.033 A 
ATOM     18  C   UNL A   1      34.135  17.570  23.639  1.00  0.00     0.015 A 
ATOM     19  C   UNL A   1      33.198  18.285  25.628  1.00  0.00     0.068 A 
ATOM     20  C   UNL A   1      33.276  16.530  23.918  1.00  0.00     0.065 A 
ATOM     21  S   UNL A   1      32.430  16.778  25.378  1.00  0.00    -0.152 S 
ENDBRANCH  16  17
ENDBRANCH  15  16
ENDBRANCH   7   9
ENDBRANCH   4   7
ENDBRANCH   2   3
ENDBRANCH   1   2
BRANCH   1  22
ATOM     22  C   UNL A   1      33.326  28.939  25.366  1.00  0.00     0.118 C 
BRANCH  22  23
ATOM     23  N   UNL A   1      32.740  30.188  25.832  1.00  0.00    -0.352 N 
ATOM     24  C   UNL A   1      33.139  31.003  26.863  1.00  0.00     0.251 C 
ATOM     25  H   UNL A   1      31.944  30.491  25.339  1.00  0.00     0.163 HD
ATOM     26  O   UNL A   1      32.403  31.913  27.239  1.00  0.00    -0.269 OA
BRANCH  24  27
ATOM     27  C   UNL A   1      34.437  30.767  27.530  1.00  0.00     0.039 A 
ATOM     28  C   UNL A   1      35.356  31.814  27.631  1.00  0.00     0.014 A 
ATOM     29  C   UNL A   1      34.744  29.510  28.058  1.00  0.00     0.014 A 
ATOM     30  C   UNL A   1      36.554  31.621  28.325  1.00  0.00     0.010 A 
ATOM     31  C   UNL A   1      35.898  29.343  28.815  1.00  0.00     0.010 A 
ATOM     32  C   UNL A   1      36.818  30.395  28.954  1.00  0.00    -0.014 A 
BRANCH  32  33
ATOM     33  C   UNL A   1      38.057  30.158  29.741  1.00  0.00     0.031 A 
ATOM     34  C   UNL A   1      39.087  29.194  29.220  1.00  0.00     0.074 A 
ATOM     35  C   UNL A   1      38.205  30.715  30.958  1.00  0.00     0.049 A 
ATOM     36  N   UNL A   1      40.133  28.688  29.821  1.00  0.00    -0.248 NA
ATOM     37  C   UNL A   1      38.881  28.704  27.850  1.00  0.00     0.031 C 
ATOM     38  C   UNL A   1      37.267  31.650  31.581  1.00  0.00     0.029 A 
ATOM     39  N   UNL A   1      39.188  30.552  31.903  1.00  0.00    -0.354 N 
ATOM     40  C   UNL A   1      40.693  27.796  28.913  1.00  0.00     0.074 A 
ATOM     41  C   UNL A   1      39.830  27.789  27.750  1.00  0.00     0.031 C 
ATOM     42  C   UNL A   1      37.720  31.978  32.802  1.00  0.00     0.029 A 
ATOM     43  C   UNL A   1      38.947  31.234  33.073  1.00  0.00     0.049 A 
ATOM     44  H   UNL A   1      39.990  30.000  31.757  1.00  0.00     0.167 HD
ATOM     45  C   UNL A   1      41.831  27.067  29.031  1.00  0.00     0.034 A 
ATOM     46  C   UNL A   1      39.617  31.235  34.243  1.00  0.00     0.034 A 
ATOM     47  C   UNL A   1      42.678  27.096  30.199  1.00  0.00     0.049 A 
ATOM     48  C   UNL A   1      40.860  30.392  34.375  1.00  0.00     0.074 A 
ATOM     49  C   UNL A   1      43.875  26.438  30.414  1.00  0.00     0.029 A 
ATOM     50  N   UNL A   1      42.410  27.818  31.357  1.00  0.00    -0.354 N 
ATOM     51  N   UNL A   1      41.396  29.571  33.501  1.00  0.00    -0.248 NA
ATOM     52  C   UNL A   1      41.590  30.479  35.646  1.00  0.00     0.031 C 
ATOM     53  C   UNL A   1      44.291  26.700  31.725  1.00  0.00     0.029 A 
ATOM     54  C   UNL A   1      43.403  27.596  32.299  1.00  0.00     0.049 A 
ATOM     55  H   UNL A   1      41.629  28.402  31.489  1.00  0.00     0.167 HD
ATOM     56  C   UNL A   1      42.551  29.076  34.103  1.00  0.00     0.074 A 
ATOM     57  C   UNL A   1      42.628  29.685  35.415  1.00  0.00     0.031 C 
ATOM     58  C   UNL A   1      43.469  28.210  33.606  1.00  0.00     0.034 A 
BRANCH  45  59
ATOM     59  C   UNL A   1      42.189  26.153  27.880  1.00  0.00     0.023 A 
ATOM     60  C   UNL A   1      41.683  24.844  27.792  1.00  0.00     0.031 A 
ATOM     61  C   UNL A   1      43.102  26.569  26.895  1.00  0.00     0.131 A 
ATOM     62  C   UNL A   1      42.175  23.965  26.815  1.00  0.00     0.055 A 
ATOM     63  C   UNL A   1      43.510  25.720  25.863  1.00  0.00     0.041 A 
ATOM     64  F   UNL A   1      43.638  27.798  26.932  1.00  0.00    -0.206 F 
ATOM     65  C   UNL A   1      43.065  24.402  25.832  1.00  0.00     0.022 A 
BRANCH  62  66
ATOM     66  S   UNL A   1      41.792  22.199  26.977  1.00  0.00     0.124 S 
ATOM     67  O   UNL A   1      42.164  21.695  25.656  1.00  0.00    -0.237 OA
ATOM     68  O   UNL A   1      42.650  21.791  28.082  1.00  0.00    -0.237 OA
ATOM     69  O   UNL A   1      40.359  22.184  27.259  1.00  0.00    -0.744 OA
ENDBRANCH  62  66
ENDBRANCH  45  59
BRANCH  46  70
ATOM     70  C   UNL A   1      39.111  32.045  35.388  1.00  0.00     0.023 A 
ATOM     71  C   UNL A   1      38.461  31.440  36.474  1.00  0.00     0.031 A 
ATOM     72  C   UNL A   1      39.273  33.443  35.410  1.00  0.00     0.131 A 
ATOM     73  C   UNL A   1      37.968  32.233  37.524  1.00  0.00     0.055 A 
ATOM     74  C   UNL A   1      38.825  34.221  36.478  1.00  0.00     0.041 A 
ATOM     75  F   UNL A   1      39.895  34.070  34.399  1.00  0.00    -0.206 F 
ATOM     76  C   UNL A   1      38.160  33.616  37.540  1.00  0.00     0.022 A 
BRANCH  73  77
ATOM     77  S   UNL A   1      37.023  31.433  38.849  1.00  0.00     0.124 S 
ATOM     78  O   UNL A   1      35.808  32.240  38.874  1.00  0.00    -0.237 OA
ATOM     79  O   UNL A   1      36.880  30.073  38.342  1.00  0.00    -0.237 OA
ATOM     80  O   UNL A   1      37.889  31.573  40.017  1.00  0.00    -0.744 OA
ENDBRANCH  73  77
ENDBRANCH  46  70
BRANCH  58  81
ATOM     81  C   UNL A   1      44.685  27.920  34.454  1.00  0.00     0.023 A 
ATOM     82  C   UNL A   1      44.737  26.835  35.346  1.00  0.00     0.031 A 
ATOM     83  C   UNL A   1      45.825  28.735  34.336  1.00  0.00     0.131 A 
ATOM     84  C   UNL A   1      45.896  26.615  36.109  1.00  0.00     0.055 A 
ATOM     85  C   UNL A   1      46.993  28.478  35.053  1.00  0.00     0.041 A 
ATOM     86  F   UNL A   1      45.828  29.788  33.501  1.00  0.00    -0.206 F 
ATOM     87  C   UNL A   1      47.030  27.418  35.953  1.00  0.00     0.022 A 
BRANCH  84  88
ATOM     88  S   UNL A   1      45.886  25.300  37.358  1.00  0.00     0.124 S 
ATOM     89  O   UNL A   1      47.304  25.177  37.679  1.00  0.00    -0.237 OA
ATOM     90  O   UNL A   1      45.042  25.867  38.404  1.00  0.00    -0.237 OA
ATOM     91  O   UNL A   1      45.310  24.158  36.650  1.00  0.00    -0.744 OA
ENDBRANCH  84  88
ENDBRANCH  58  81
ENDBRANCH  32  33
ENDBRANCH  24  27
ENDBRANCH  22  23
ENDBRANCH   1  22
TORSDOF 16
ENDMDL
MODEL 3
REMARK VINA RESULT:     -11.6      1.636      2.082
REMARK SMILES C[C@@H](C(=O)NCCCNC(=O)c1ccc(-c2c3nc(c(-c4cc(S(=O)(=O)[O-])ccc4F)c4ccc([nH]4)c(-c4cc(S(=O)(=O)[O-])ccc4F)c4nc(c(-c5cc(S(=O)(=O)[O-])ccc5F)c5ccc2[nH]5)C=C4)C=C3)cc1)c1ccc(Cc2ccsc2)cc1F
REMARK SMILES IDX 7 1 6 2 5 3 3 4 4 5 2 7 1 8 75 9 76 10 86 11 77 12 85 13
REMARK SMILES IDX 87 14 78 15 79 16 80 17 81 18 84 19 82 20 83 21 8 22 9 23
REMARK SMILES IDX 10 24 11 26 12 27 13 28 74 29 14 30 73 31 15 32 16 33 17 34
REMARK SMILES IDX 67 35 18 36 72 37 66 38 68 39 19 40 71 41 65 42 64 43 20 45
REMARK SMILES IDX 52 46 32 47 51 48 33 49 36 50 50 51 69 52 34 53 35 54 49 56
REMARK SMILES IDX 70 57 37 58 21 59 22 60 30 61 23 62 29 63 31 64 28 65 24 66
REMARK SMILES IDX 25 67 26 68 27 69 53 70 54 71 62 72 55 73 61 74 63 75 60 76
REMARK SMILES IDX 56 77 57 78 58 79 59 80 38 81 39 82 47 83 40 84 46 85 48 86
REMARK SMILES IDX 45 87 41 88 42 89 43 90 44 91
REMARK H PARENT 5 6 9 25 68 44 36 55
REMARK Flexibility Score: inf
ROOT
ATOM      1  C   UNL A   1      31.426  31.986  26.745  1.00  0.00     0.042 C 
ENDROOT
BRANCH   1   2
ATOM      2  C   UNL A   1      31.626  30.806  25.798  1.00  0.00     0.117 C 
BRANCH   2   3
ATOM      3  N   UNL A   1      32.909  30.167  26.010  1.00  0.00    -0.356 N 
ATOM      4  C   UNL A   1      33.242  28.847  26.087  1.00  0.00     0.227 C 
ATOM      5  O   UNL A   1      34.414  28.594  26.375  1.00  0.00    -0.274 OA
ATOM      6  H   UNL A   1      33.665  30.788  26.117  1.00  0.00     0.163 HD
BRANCH   4   7
ATOM      7  C   UNL A   1      32.194  27.761  25.791  1.00  0.00     0.108 C 
ATOM      8  C   UNL A   1      31.458  27.296  27.052  1.00  0.00     0.023 C 
BRANCH   7   9
ATOM      9  C   UNL A   1      32.816  26.560  25.089  1.00  0.00    -0.000 A 
ATOM     10  C   UNL A   1      33.045  25.359  25.776  1.00  0.00     0.008 A 
ATOM     11  C   UNL A   1      33.182  26.622  23.743  1.00  0.00     0.127 A 
ATOM     12  C   UNL A   1      33.584  24.252  25.122  1.00  0.00     0.004 A 
ATOM     13  C   UNL A   1      33.745  25.524  23.087  1.00  0.00     0.043 A 
ATOM     14  F   UNL A   1      32.971  27.746  23.042  1.00  0.00    -0.207 F 
ATOM     15  C   UNL A   1      33.950  24.316  23.770  1.00  0.00    -0.041 A 
BRANCH  15  16
ATOM     16  C   UNL A   1      34.485  23.097  23.059  1.00  0.00     0.072 C 
BRANCH  16  17
ATOM     17  C   UNL A   1      35.494  22.425  23.949  1.00  0.00    -0.033 A 
ATOM     18  C   UNL A   1      35.291  21.198  24.674  1.00  0.00     0.015 A 
ATOM     19  C   UNL A   1      36.797  22.863  24.118  1.00  0.00     0.068 A 
ATOM     20  C   UNL A   1      36.410  20.787  25.365  1.00  0.00     0.065 A 
ATOM     21  S   UNL A   1      37.727  21.845  25.129  1.00  0.00    -0.152 S 
ENDBRANCH  16  17
ENDBRANCH  15  16
ENDBRANCH   7   9
ENDBRANCH   4   7
ENDBRANCH   2   3
ENDBRANCH   1   2
BRANCH   1  22
ATOM     22  C   UNL A   1      32.724  32.552  27.313  1.00  0.00     0.118 C 
BRANCH  22  23
ATOM     23  N   UNL A   1      32.574  33.917  27.798  1.00  0.00    -0.352 N 
ATOM     24  C   UNL A   1      33.272  34.571  28.784  1.00  0.00     0.251 C 
ATOM     25  H   UNL A   1      31.870  34.446  27.357  1.00  0.00     0.163 HD
ATOM     26  O   UNL A   1      32.870  35.657  29.194  1.00  0.00    -0.269 OA
BRANCH  24  27
ATOM     27  C   UNL A   1      34.486  33.954  29.359  1.00  0.00     0.039 A 
ATOM     28  C   UNL A   1      35.743  34.379  28.923  1.00  0.00     0.014 A 
ATOM     29  C   UNL A   1      34.381  32.959  30.335  1.00  0.00     0.014 A 
ATOM     30  C   UNL A   1      36.896  33.856  29.515  1.00  0.00     0.010 A 
ATOM     31  C   UNL A   1      35.525  32.499  30.977  1.00  0.00     0.010 A 
ATOM     32  C   UNL A   1      36.795  32.939  30.573  1.00  0.00    -0.014 A 
BRANCH  32  33
ATOM     33  C   UNL A   1      37.992  32.391  31.263  1.00  0.00     0.031 A 
ATOM     34  C   UNL A   1      38.729  31.232  30.650  1.00  0.00     0.074 A 
ATOM     35  C   UNL A   1      38.347  32.853  32.477  1.00  0.00     0.049 A 
ATOM     36  N   UNL A   1      39.662  30.473  31.164  1.00  0.00    -0.248 NA
ATOM     37  C   UNL A   1      38.323  30.854  29.289  1.00  0.00     0.031 C 
ATOM     38  C   UNL A   1      37.699  33.958  33.185  1.00  0.00     0.029 A 
ATOM     39  N   UNL A   1      39.324  32.430  33.344  1.00  0.00    -0.354 N 
ATOM     40  C   UNL A   1      39.936  29.509  30.200  1.00  0.00     0.074 A 
ATOM     41  C   UNL A   1      39.021  29.746  29.102  1.00  0.00     0.031 C 
ATOM     42  C   UNL A   1      38.296  34.127  34.376  1.00  0.00     0.029 A 
ATOM     43  C   UNL A   1      39.327  33.107  34.542  1.00  0.00     0.049 A 
ATOM     44  H   UNL A   1      39.961  31.712  33.130  1.00  0.00     0.167 HD
ATOM     45  C   UNL A   1      40.875  28.529  30.221  1.00  0.00     0.034 A 
ATOM     46  C   UNL A   1      40.054  32.909  35.661  1.00  0.00     0.034 A 
ATOM     47  C   UNL A   1      41.780  28.318  31.325  1.00  0.00     0.049 A 
ATOM     48  C   UNL A   1      41.069  31.794  35.686  1.00  0.00     0.074 A 
ATOM     49  C   UNL A   1      42.799  27.390  31.440  1.00  0.00     0.029 A 
ATOM     50  N   UNL A   1      41.766  29.040  32.513  1.00  0.00    -0.354 N 
ATOM     51  N   UNL A   1      41.338  30.903  34.759  1.00  0.00    -0.248 NA
ATOM     52  C   UNL A   1      41.881  31.661  36.902  1.00  0.00     0.031 C 
ATOM     53  C   UNL A   1      43.350  27.500  32.722  1.00  0.00     0.029 A 
ATOM     54  C   UNL A   1      42.738  28.557  33.377  1.00  0.00     0.049 A 
ATOM     55  H   UNL A   1      41.155  29.785  32.713  1.00  0.00     0.167 HD
ATOM     56  C   UNL A   1      42.380  30.129  35.266  1.00  0.00     0.074 A 
ATOM     57  C   UNL A   1      42.685  30.656  36.581  1.00  0.00     0.031 C 
ATOM     58  C   UNL A   1      43.033  29.091  34.687  1.00  0.00     0.034 A 
BRANCH  45  59
ATOM     59  C   UNL A   1      40.930  27.600  29.029  1.00  0.00     0.023 A 
ATOM     60  C   UNL A   1      41.909  27.740  28.029  1.00  0.00     0.031 A 
ATOM     61  C   UNL A   1      39.952  26.605  28.852  1.00  0.00     0.131 A 
ATOM     62  C   UNL A   1      41.822  26.982  26.851  1.00  0.00     0.055 A 
ATOM     63  C   UNL A   1      39.933  25.783  27.723  1.00  0.00     0.041 A 
ATOM     64  F   UNL A   1      38.978  26.433  29.759  1.00  0.00    -0.206 F 
ATOM     65  C   UNL A   1      40.857  25.985  26.703  1.00  0.00     0.022 A 
BRANCH  62  66
ATOM     66  S   UNL A   1      42.859  27.462  25.442  1.00  0.00     0.124 S 
ATOM     67  O   UNL A   1      42.940  26.209  24.694  1.00  0.00    -0.237 OA
ATOM     68  O   UNL A   1      42.078  28.526  24.825  1.00  0.00    -0.237 OA
ATOM     69  O   UNL A   1      44.111  27.885  26.067  1.00  0.00    -0.744 OA
ENDBRANCH  62  66
ENDBRANCH  45  59
BRANCH  46  70
ATOM     70  C   UNL A   1      39.830  33.773  36.855  1.00  0.00     0.023 A 
ATOM     71  C   UNL A   1      40.708  34.822  37.167  1.00  0.00     0.031 A 
ATOM     72  C   UNL A   1      38.729  33.557  37.705  1.00  0.00     0.131 A 
ATOM     73  C   UNL A   1      40.487  35.599  38.316  1.00  0.00     0.055 A 
ATOM     74  C   UNL A   1      38.487  34.364  38.817  1.00  0.00     0.041 A 
ATOM     75  F   UNL A   1      37.855  32.572  37.446  1.00  0.00    -0.206 F 
ATOM     76  C   UNL A   1      39.375  35.387  39.134  1.00  0.00     0.022 A 
BRANCH  73  77
ATOM     77  S   UNL A   1      41.709  36.865  38.759  1.00  0.00     0.124 S 
ATOM     78  O   UNL A   1      42.500  36.171  39.768  1.00  0.00    -0.237 OA
ATOM     79  O   UNL A   1      42.369  37.109  37.482  1.00  0.00    -0.237 OA
ATOM     80  O   UNL A   1      40.890  37.968  39.256  1.00  0.00    -0.744 OA
ENDBRANCH  73  77
ENDBRANCH  46  70
BRANCH  58  81
ATOM     81  C   UNL A   1      44.199  28.494  35.439  1.00  0.00     0.023 A 
ATOM     82  C   UNL A   1      44.027  27.539  36.456  1.00  0.00     0.031 A 
ATOM     83  C   UNL A   1      45.511  28.872  35.101  1.00  0.00     0.131 A 
ATOM     84  C   UNL A   1      45.150  27.018  37.120  1.00  0.00     0.055 A 
ATOM     85  C   UNL A   1      46.625  28.310  35.724  1.00  0.00     0.041 A 
ATOM     86  F   UNL A   1      45.732  29.783  34.139  1.00  0.00    -0.206 F 
ATOM     87  C   UNL A   1      46.447  27.384  36.747  1.00  0.00     0.022 A 
BRANCH  84  88
ATOM     88  S   UNL A   1      44.897  25.900  38.526  1.00  0.00     0.124 S 
ATOM     89  O   UNL A   1      44.588  24.640  37.858  1.00  0.00    -0.237 OA
ATOM     90  O   UNL A   1      46.184  25.960  39.211  1.00  0.00    -0.237 OA
ATOM     91  O   UNL A   1      43.782  26.507  39.250  1.00  0.00    -0.744 OA
ENDBRANCH  84  88
ENDBRANCH  58  81
ENDBRANCH  32  33
ENDBRANCH  24  27
ENDBRANCH  22  23
ENDBRANCH   1  22
TORSDOF 16
ENDMDL
