MODEL 1
REMARK VINA RESULT:     -12.7      0.000      0.000
REMARK SMILES O=C(Cn1cccc1C(=O)N1CCC2(CCCC2)CC1)NCCCNC(=O)c1ccc(-c2c3nc(c(-c4cc(S(=O)(=O)[O-])ccc4F)c4ccc([nH]4)c(-c4cc(S(=O)(=O)[O-])ccc4F)c4nc(c(-c5cc(S(=O)(=O)[O-])ccc5F)c5ccc2[nH]5)C=C4)C=C3)cc1
REMARK SMILES IDX 23 1 22 2 21 3 1 4 2 5 3 7 4 8 5 9 8 10 6 11 7 12 9 13 10 14
REMARK SMILES IDX 11 15 12 16 20 17 13 18 19 19 14 20 15 21 18 22 16 23 17 24
REMARK SMILES IDX 24 25 25 26 26 27 27 29 28 30 29 31 90 32 30 33 89 34 31 35
REMARK SMILES IDX 32 36 33 37 83 38 34 39 88 40 82 41 84 42 35 43 87 44 81 45
REMARK SMILES IDX 80 46 36 48 68 49 48 50 67 51 49 52 52 53 66 54 85 55 50 56
REMARK SMILES IDX 51 57 65 59 86 60 53 61 37 62 38 63 46 64 39 65 45 66 47 67
REMARK SMILES IDX 44 68 40 69 41 70 42 71 43 72 69 73 70 74 78 75 71 76 77 77
REMARK SMILES IDX 79 78 76 79 72 80 73 81 74 82 75 83 54 84 55 85 63 86 56 87
REMARK SMILES IDX 62 88 64 89 61 90 57 91 58 92 59 93 60 94
REMARK H PARENT 21 6 25 28 84 47 52 58
REMARK Flexibility Score: inf
ROOT
ATOM      1  C   UNL A   1      36.703  22.918  25.952  1.00  0.00     0.042 C 
ENDROOT
BRANCH   1   2
ATOM      2  C   UNL A   1      36.189  22.908  24.510  1.00  0.00     0.117 C 
BRANCH   2   3
ATOM      3  N   UNL A   1      34.864  23.486  24.405  1.00  0.00    -0.354 N 
ATOM      4  O   UNL A   1      33.910  21.460  24.176  1.00  0.00    -0.273 OA
ATOM      5  C   UNL A   1      33.766  22.681  24.218  1.00  0.00     0.239 C 
ATOM      6  H   UNL A   1      34.749  24.463  24.469  1.00  0.00     0.163 HD
BRANCH   5   7
ATOM      7  C   UNL A   1      32.432  23.387  24.007  1.00  0.00     0.222 C 
BRANCH   7   8
ATOM      8  N   UNL A   1      32.432  24.255  22.842  1.00  0.00    -0.334 N 
ATOM      9  C   UNL A   1      32.972  23.808  21.650  1.00  0.00     0.087 A 
ATOM     10  C   UNL A   1      31.866  25.513  22.664  1.00  0.00     0.107 A 
ATOM     11  C   UNL A   1      32.854  24.801  20.715  1.00  0.00     0.020 A 
ATOM     12  C   UNL A   1      32.186  25.866  21.348  1.00  0.00     0.033 A 
BRANCH  10  13
ATOM     13  C   UNL A   1      31.025  26.366  23.517  1.00  0.00     0.270 C 
ATOM     14  O   UNL A   1      29.812  26.172  23.626  1.00  0.00    -0.267 OA
ATOM     15  N   UNL A   1      31.630  27.323  24.323  1.00  0.00    -0.337 N 
ATOM     16  C   UNL A   1      31.239  27.363  25.722  1.00  0.00     0.120 C 
ATOM     17  C   UNL A   1      31.907  28.644  23.796  1.00  0.00     0.120 C 
ATOM     18  C   UNL A   1      32.420  27.844  26.553  1.00  0.00     0.028 C 
ATOM     19  C   UNL A   1      33.104  29.260  24.526  1.00  0.00     0.028 C 
ATOM     20  C   UNL A   1      33.041  29.180  26.067  1.00  0.00    -0.026 C 
ATOM     21  C   UNL A   1      34.477  29.286  26.661  1.00  0.00     0.007 C 
ATOM     22  C   UNL A   1      32.297  30.418  26.621  1.00  0.00     0.007 C 
ATOM     23  C   UNL A   1      34.602  30.697  27.201  1.00  0.00     0.001 C 
ATOM     24  C   UNL A   1      33.203  30.987  27.708  1.00  0.00     0.001 C 
ENDBRANCH  10  13
ENDBRANCH   7   8
ENDBRANCH   5   7
ENDBRANCH   2   3
ENDBRANCH   1   2
BRANCH   1  25
ATOM     25  C   UNL A   1      37.734  24.018  26.188  1.00  0.00     0.118 C 
BRANCH  25  26
ATOM     26  N   UNL A   1      38.924  23.467  26.816  1.00  0.00    -0.352 N 
ATOM     27  C   UNL A   1      40.008  24.072  27.391  1.00  0.00     0.251 C 
ATOM     28  H   UNL A   1      38.954  22.483  26.831  1.00  0.00     0.163 HD
ATOM     29  O   UNL A   1      41.009  23.395  27.590  1.00  0.00    -0.269 OA
BRANCH  27  30
ATOM     30  C   UNL A   1      40.010  25.505  27.744  1.00  0.00     0.039 A 
ATOM     31  C   UNL A   1      39.586  25.839  29.037  1.00  0.00     0.014 A 
ATOM     32  C   UNL A   1      40.324  26.512  26.824  1.00  0.00     0.014 A 
ATOM     33  C   UNL A   1      39.534  27.171  29.427  1.00  0.00     0.010 A 
ATOM     34  C   UNL A   1      40.292  27.848  27.216  1.00  0.00     0.010 A 
ATOM     35  C   UNL A   1      39.913  28.173  28.525  1.00  0.00    -0.014 A 
BRANCH  35  36
ATOM     36  C   UNL A   1      40.148  29.536  29.060  1.00  0.00     0.031 A 
ATOM     37  C   UNL A   1      38.786  30.240  29.345  1.00  0.00     0.074 A 
ATOM     38  C   UNL A   1      41.454  29.944  29.173  1.00  0.00     0.049 A 
ATOM     39  N   UNL A   1      38.470  31.497  29.350  1.00  0.00    -0.248 NA
ATOM     40  C   UNL A   1      37.564  29.405  29.569  1.00  0.00     0.031 C 
ATOM     41  C   UNL A   1      42.643  29.100  28.886  1.00  0.00     0.029 A 
ATOM     42  N   UNL A   1      42.066  31.125  29.546  1.00  0.00    -0.354 N 
ATOM     43  C   UNL A   1      37.138  31.610  29.835  1.00  0.00     0.074 A 
ATOM     44  C   UNL A   1      36.591  30.292  29.794  1.00  0.00     0.031 C 
ATOM     45  C   UNL A   1      43.795  29.804  29.010  1.00  0.00     0.029 A 
ATOM     46  C   UNL A   1      43.493  31.164  29.413  1.00  0.00     0.049 A 
ATOM     47  H   UNL A   1      41.553  31.895  29.885  1.00  0.00     0.167 HD
ATOM     48  C   UNL A   1      36.641  32.752  30.405  1.00  0.00     0.034 A 
ATOM     49  C   UNL A   1      44.352  32.226  29.589  1.00  0.00     0.034 A 
ATOM     50  C   UNL A   1      37.638  33.765  30.354  1.00  0.00     0.049 A 
ATOM     51  C   UNL A   1      43.496  33.258  30.188  1.00  0.00     0.074 A 
ATOM     52  C   UNL A   1      38.193  34.461  29.314  1.00  0.00     0.029 A 
ATOM     53  N   UNL A   1      38.438  33.894  31.468  1.00  0.00    -0.354 N 
ATOM     54  N   UNL A   1      43.083  33.241  31.417  1.00  0.00    -0.248 NA
ATOM     55  C   UNL A   1      43.018  34.363  29.349  1.00  0.00     0.031 C 
ATOM     56  C   UNL A   1      39.553  34.497  29.674  1.00  0.00     0.029 A 
ATOM     57  C   UNL A   1      39.711  34.097  31.010  1.00  0.00     0.049 A 
ATOM     58  H   UNL A   1      38.151  33.848  32.408  1.00  0.00     0.167 HD
ATOM     59  C   UNL A   1      42.040  34.126  31.385  1.00  0.00     0.074 A 
ATOM     60  C   UNL A   1      42.281  35.002  30.256  1.00  0.00     0.031 C 
ATOM     61  C   UNL A   1      40.828  33.729  31.853  1.00  0.00     0.034 A 
BRANCH  48  62
ATOM     62  C   UNL A   1      35.439  33.063  31.269  1.00  0.00     0.023 A 
ATOM     63  C   UNL A   1      34.637  34.158  30.845  1.00  0.00     0.031 A 
ATOM     64  C   UNL A   1      35.236  32.624  32.582  1.00  0.00     0.131 A 
ATOM     65  C   UNL A   1      33.832  34.874  31.739  1.00  0.00     0.055 A 
ATOM     66  C   UNL A   1      34.363  33.295  33.456  1.00  0.00     0.041 A 
ATOM     67  F   UNL A   1      35.927  31.600  33.097  1.00  0.00    -0.206 F 
ATOM     68  C   UNL A   1      33.693  34.450  33.053  1.00  0.00     0.022 A 
BRANCH  65  69
ATOM     69  S   UNL A   1      33.160  36.474  31.196  1.00  0.00     0.124 S 
ATOM     70  O   UNL A   1      33.963  37.420  31.963  1.00  0.00    -0.237 OA
ATOM     71  O   UNL A   1      33.414  36.438  29.758  1.00  0.00    -0.237 OA
ATOM     72  O   UNL A   1      31.753  36.397  31.580  1.00  0.00    -0.744 OA
ENDBRANCH  65  69
ENDBRANCH  48  62
BRANCH  49  73
ATOM     73  C   UNL A   1      45.803  32.671  29.367  1.00  0.00     0.023 A 
ATOM     74  C   UNL A   1      46.506  32.750  28.153  1.00  0.00     0.031 A 
ATOM     75  C   UNL A   1      46.547  33.152  30.500  1.00  0.00     0.131 A 
ATOM     76  C   UNL A   1      47.804  33.354  28.111  1.00  0.00     0.055 A 
ATOM     77  C   UNL A   1      47.764  33.828  30.438  1.00  0.00     0.041 A 
ATOM     78  F   UNL A   1      46.129  32.990  31.762  1.00  0.00    -0.206 F 
ATOM     79  C   UNL A   1      48.397  33.948  29.230  1.00  0.00     0.022 A 
BRANCH  76  80
ATOM     80  S   UNL A   1      48.801  33.410  26.587  1.00  0.00     0.124 S 
ATOM     81  O   UNL A   1      49.948  34.209  27.005  1.00  0.00    -0.237 OA
ATOM     82  O   UNL A   1      49.063  32.001  26.314  1.00  0.00    -0.237 OA
ATOM     83  O   UNL A   1      47.910  34.065  25.628  1.00  0.00    -0.744 OA
ENDBRANCH  76  80
ENDBRANCH  49  73
BRANCH  61  84
ATOM     84  C   UNL A   1      40.876  32.611  32.903  1.00  0.00     0.023 A 
ATOM     85  C   UNL A   1      40.700  31.264  32.514  1.00  0.00     0.031 A 
ATOM     86  C   UNL A   1      40.966  32.830  34.290  1.00  0.00     0.131 A 
ATOM     87  C   UNL A   1      40.572  30.234  33.469  1.00  0.00     0.055 A 
ATOM     88  C   UNL A   1      40.847  31.807  35.243  1.00  0.00     0.041 A 
ATOM     89  F   UNL A   1      41.166  34.051  34.783  1.00  0.00    -0.206 F 
ATOM     90  C   UNL A   1      40.640  30.499  34.835  1.00  0.00     0.022 A 
BRANCH  87  91
ATOM     91  S   UNL A   1      40.324  28.525  32.908  1.00  0.00     0.124 S 
ATOM     92  O   UNL A   1      38.978  28.562  32.347  1.00  0.00    -0.237 OA
ATOM     93  O   UNL A   1      41.413  28.346  31.954  1.00  0.00    -0.237 OA
ATOM     94  O   UNL A   1      40.457  27.740  34.137  1.00  0.00    -0.744 OA
ENDBRANCH  87  91
ENDBRANCH  61  84
ENDBRANCH  35  36
ENDBRANCH  27  30
ENDBRANCH  25  26
ENDBRANCH   1  25
TORSDOF 15
ENDMDL
MODEL 2
REMARK VINA RESULT:     -12.6      1.368      2.196
REMARK SMILES O=C(Cn1cccc1C(=O)N1CCC2(CCCC2)CC1)NCCCNC(=O)c1ccc(-c2c3nc(c(-c4cc(S(=O)(=O)[O-])ccc4F)c4ccc([nH]4)c(-c4cc(S(=O)(=O)[O-])ccc4F)c4nc(c(-c5cc(S(=O)(=O)[O-])ccc5F)c5ccc2[nH]5)C=C4)C=C3)cc1
REMARK SMILES IDX 23 1 22 2 21 3 1 4 2 5 3 7 4 8 5 9 8 10 6 11 7 12 9 13 10 14
REMARK SMILES IDX 11 15 12 16 20 17 13 18 19 19 14 20 15 21 18 22 16 23 17 24
REMARK SMILES IDX 24 25 25 26 26 27 27 29 28 30 29 31 90 32 30 33 89 34 31 35
REMARK SMILES IDX 32 36 33 37 83 38 34 39 88 40 82 41 84 42 35 43 87 44 81 45
REMARK SMILES IDX 80 46 36 48 68 49 48 50 67 51 49 52 52 53 66 54 85 55 50 56
REMARK SMILES IDX 51 57 65 59 86 60 53 61 37 62 38 63 46 64 39 65 45 66 47 67
REMARK SMILES IDX 44 68 40 69 41 70 42 71 43 72 69 73 70 74 78 75 71 76 77 77
REMARK SMILES IDX 79 78 76 79 72 80 73 81 74 82 75 83 54 84 55 85 63 86 56 87
REMARK SMILES IDX 62 88 64 89 61 90 57 91 58 92 59 93 60 94
REMARK H PARENT 21 6 25 28 84 47 52 58
REMARK Flexibility Score: inf
ROOT
ATOM      1  C   UNL A   1      37.077  22.843  25.442  1.00  0.00     0.042 C 
ENDROOT
BRANCH   1   2
ATOM      2  C   UNL A   1      36.534  23.252  24.072  1.00  0.00     0.117 C 
BRANCH   2   3
ATOM      3  N   UNL A   1      35.251  22.636  23.793  1.00  0.00    -0.354 N 
ATOM      4  O   UNL A   1      34.561  24.420  22.605  1.00  0.00    -0.273 OA
ATOM      5  C   UNL A   1      34.303  23.306  23.057  1.00  0.00     0.239 C 
ATOM      6  H   UNL A   1      35.059  21.731  24.131  1.00  0.00     0.163 HD
BRANCH   5   7
ATOM      7  C   UNL A   1      32.948  22.624  22.912  1.00  0.00     0.222 C 
BRANCH   7   8
ATOM      8  N   UNL A   1      32.751  21.552  23.874  1.00  0.00    -0.334 N 
ATOM      9  C   UNL A   1      32.699  20.240  23.442  1.00  0.00     0.087 A 
ATOM     10  C   UNL A   1      32.691  21.598  25.262  1.00  0.00     0.107 A 
ATOM     11  C   UNL A   1      32.505  19.428  24.527  1.00  0.00     0.020 A 
ATOM     12  C   UNL A   1      32.481  20.271  25.655  1.00  0.00     0.033 A 
BRANCH  10  13
ATOM     13  C   UNL A   1      32.876  22.679  26.242  1.00  0.00     0.270 C 
ATOM     14  O   UNL A   1      33.481  22.494  27.300  1.00  0.00    -0.267 OA
ATOM     15  N   UNL A   1      32.484  23.970  25.906  1.00  0.00    -0.337 N 
ATOM     16  C   UNL A   1      33.440  25.040  26.132  1.00  0.00     0.120 C 
ATOM     17  C   UNL A   1      31.120  24.398  26.146  1.00  0.00     0.120 C 
ATOM     18  C   UNL A   1      33.216  26.132  25.096  1.00  0.00     0.028 C 
ATOM     19  C   UNL A   1      30.731  25.495  25.151  1.00  0.00     0.028 C 
ATOM     20  C   UNL A   1      31.753  26.645  25.015  1.00  0.00    -0.026 C 
ATOM     21  C   UNL A   1      31.570  27.355  23.640  1.00  0.00     0.007 C 
ATOM     22  C   UNL A   1      31.448  27.739  26.065  1.00  0.00     0.007 C 
ATOM     23  C   UNL A   1      30.845  28.653  23.936  1.00  0.00     0.001 C 
ATOM     24  C   UNL A   1      31.406  29.051  25.288  1.00  0.00     0.001 C 
ENDBRANCH  10  13
ENDBRANCH   7   8
ENDBRANCH   5   7
ENDBRANCH   2   3
ENDBRANCH   1   2
BRANCH   1  25
ATOM     25  C   UNL A   1      37.830  23.980  26.127  1.00  0.00     0.118 C 
BRANCH  25  26
ATOM     26  N   UNL A   1      38.936  23.454  26.909  1.00  0.00    -0.352 N 
ATOM     27  C   UNL A   1      39.955  24.080  27.572  1.00  0.00     0.251 C 
ATOM     28  H   UNL A   1      38.954  22.472  26.974  1.00  0.00     0.163 HD
ATOM     29  O   UNL A   1      40.922  23.408  27.914  1.00  0.00    -0.269 OA
BRANCH  27  30
ATOM     30  C   UNL A   1      39.934  25.529  27.855  1.00  0.00     0.039 A 
ATOM     31  C   UNL A   1      39.551  25.915  29.146  1.00  0.00     0.014 A 
ATOM     32  C   UNL A   1      40.187  26.496  26.876  1.00  0.00     0.014 A 
ATOM     33  C   UNL A   1      39.479  27.264  29.473  1.00  0.00     0.010 A 
ATOM     34  C   UNL A   1      40.135  27.849  27.204  1.00  0.00     0.010 A 
ATOM     35  C   UNL A   1      39.798  28.229  28.509  1.00  0.00    -0.014 A 
BRANCH  35  36
ATOM     36  C   UNL A   1      40.017  29.622  28.967  1.00  0.00     0.031 A 
ATOM     37  C   UNL A   1      38.652  30.291  29.315  1.00  0.00     0.074 A 
ATOM     38  C   UNL A   1      41.311  30.079  28.973  1.00  0.00     0.049 A 
ATOM     39  N   UNL A   1      38.290  31.536  29.288  1.00  0.00    -0.248 NA
ATOM     40  C   UNL A   1      37.480  29.426  29.658  1.00  0.00     0.031 C 
ATOM     41  C   UNL A   1      42.509  29.264  28.641  1.00  0.00     0.029 A 
ATOM     42  N   UNL A   1      41.903  31.296  29.252  1.00  0.00    -0.354 N 
ATOM     43  C   UNL A   1      36.991  31.624  29.859  1.00  0.00     0.074 A 
ATOM     44  C   UNL A   1      36.492  30.288  29.912  1.00  0.00     0.031 C 
ATOM     45  C   UNL A   1      43.640  30.012  28.655  1.00  0.00     0.029 A 
ATOM     46  C   UNL A   1      43.315  31.378  29.019  1.00  0.00     0.049 A 
ATOM     47  H   UNL A   1      41.386  32.062  29.593  1.00  0.00     0.167 HD
ATOM     48  C   UNL A   1      36.491  32.774  30.412  1.00  0.00     0.034 A 
ATOM     49  C   UNL A   1      44.144  32.475  29.091  1.00  0.00     0.034 A 
ATOM     50  C   UNL A   1      37.445  33.817  30.249  1.00  0.00     0.049 A 
ATOM     51  C   UNL A   1      43.293  33.503  29.702  1.00  0.00     0.074 A 
ATOM     52  C   UNL A   1      37.902  34.483  29.146  1.00  0.00     0.029 A 
ATOM     53  N   UNL A   1      38.312  34.023  31.300  1.00  0.00    -0.354 N 
ATOM     54  N   UNL A   1      42.964  33.528  30.956  1.00  0.00    -0.248 NA
ATOM     55  C   UNL A   1      42.719  34.553  28.852  1.00  0.00     0.031 C 
ATOM     56  C   UNL A   1      39.281  34.583  29.409  1.00  0.00     0.029 A 
ATOM     57  C   UNL A   1      39.543  34.248  30.747  1.00  0.00     0.049 A 
ATOM     58  H   UNL A   1      38.091  34.010  32.258  1.00  0.00     0.167 HD
ATOM     59  C   UNL A   1      41.889  34.374  30.959  1.00  0.00     0.074 A 
ATOM     60  C   UNL A   1      42.021  35.206  29.779  1.00  0.00     0.031 C 
ATOM     61  C   UNL A   1      40.727  33.957  31.525  1.00  0.00     0.034 A 
BRANCH  48  62
ATOM     62  C   UNL A   1      35.339  33.082  31.343  1.00  0.00     0.023 A 
ATOM     63  C   UNL A   1      34.525  34.188  30.975  1.00  0.00     0.031 A 
ATOM     64  C   UNL A   1      35.203  32.628  32.659  1.00  0.00     0.131 A 
ATOM     65  C   UNL A   1      33.774  34.898  31.920  1.00  0.00     0.055 A 
ATOM     66  C   UNL A   1      34.384  33.294  33.587  1.00  0.00     0.041 A 
ATOM     67  F   UNL A   1      35.913  31.593  33.124  1.00  0.00    -0.206 F 
ATOM     68  C   UNL A   1      33.702  34.459  33.234  1.00  0.00     0.022 A 
BRANCH  65  69
ATOM     69  S   UNL A   1      33.086  36.509  31.433  1.00  0.00     0.124 S 
ATOM     70  O   UNL A   1      34.008  37.442  32.070  1.00  0.00    -0.237 OA
ATOM     71  O   UNL A   1      33.152  36.440  29.976  1.00  0.00    -0.237 OA
ATOM     72  O   UNL A   1      31.737  36.485  31.994  1.00  0.00    -0.744 OA
ENDBRANCH  65  69
ENDBRANCH  48  62
BRANCH  49  73
ATOM     73  C   UNL A   1      45.559  32.959  28.751  1.00  0.00     0.023 A 
ATOM     74  C   UNL A   1      45.982  33.656  27.606  1.00  0.00     0.031 A 
ATOM     75  C   UNL A   1      46.596  32.771  29.731  1.00  0.00     0.131 A 
ATOM     76  C   UNL A   1      47.313  34.182  27.534  1.00  0.00     0.055 A 
ATOM     77  C   UNL A   1      47.854  33.370  29.700  1.00  0.00     0.041 A 
ATOM     78  F   UNL A   1      46.446  31.976  30.798  1.00  0.00    -0.206 F 
ATOM     79  C   UNL A   1      48.216  34.099  28.599  1.00  0.00     0.022 A 
BRANCH  76  80
ATOM     80  S   UNL A   1      47.947  35.018  26.045  1.00  0.00     0.124 S 
ATOM     81  O   UNL A   1      49.318  34.523  25.982  1.00  0.00    -0.237 OA
ATOM     82  O   UNL A   1      47.046  34.553  24.997  1.00  0.00    -0.237 OA
ATOM     83  O   UNL A   1      47.819  36.437  26.378  1.00  0.00    -0.744 OA
ENDBRANCH  76  80
ENDBRANCH  49  73
BRANCH  61  84
ATOM     84  C   UNL A   1      40.887  32.890  32.617  1.00  0.00     0.023 A 
ATOM     85  C   UNL A   1      40.618  31.533  32.327  1.00  0.00     0.031 A 
ATOM     86  C   UNL A   1      41.175  33.172  33.964  1.00  0.00     0.131 A 
ATOM     87  C   UNL A   1      40.593  30.556  33.344  1.00  0.00     0.055 A 
ATOM     88  C   UNL A   1      41.159  32.202  34.978  1.00  0.00     0.041 A 
ATOM     89  F   UNL A   1      41.479  34.408  34.360  1.00  0.00    -0.206 F 
ATOM     90  C   UNL A   1      40.859  30.884  34.671  1.00  0.00     0.022 A 
BRANCH  87  91
ATOM     91  S   UNL A   1      40.219  28.833  32.913  1.00  0.00     0.124 S 
ATOM     92  O   UNL A   1      41.201  28.538  31.876  1.00  0.00    -0.237 OA
ATOM     93  O   UNL A   1      40.402  28.144  34.186  1.00  0.00    -0.237 OA
ATOM     94  O   UNL A   1      38.831  28.892  32.448  1.00  0.00    -0.744 OA
ENDBRANCH  87  91
ENDBRANCH  61  84
ENDBRANCH  35  36
ENDBRANCH  27  30
ENDBRANCH  25  26
ENDBRANCH   1  25
TORSDOF 15
ENDMDL
MODEL 3
REMARK VINA RESULT:     -12.5      1.507      2.406
REMARK SMILES O=C(Cn1cccc1C(=O)N1CCC2(CCCC2)CC1)NCCCNC(=O)c1ccc(-c2c3nc(c(-c4cc(S(=O)(=O)[O-])ccc4F)c4ccc([nH]4)c(-c4cc(S(=O)(=O)[O-])ccc4F)c4nc(c(-c5cc(S(=O)(=O)[O-])ccc5F)c5ccc2[nH]5)C=C4)C=C3)cc1
REMARK SMILES IDX 23 1 22 2 21 3 1 4 2 5 3 7 4 8 5 9 8 10 6 11 7 12 9 13 10 14
REMARK SMILES IDX 11 15 12 16 20 17 13 18 19 19 14 20 15 21 18 22 16 23 17 24
REMARK SMILES IDX 24 25 25 26 26 27 27 29 28 30 29 31 90 32 30 33 89 34 31 35
REMARK SMILES IDX 32 36 33 37 83 38 34 39 88 40 82 41 84 42 35 43 87 44 81 45
REMARK SMILES IDX 80 46 36 48 68 49 48 50 67 51 49 52 52 53 66 54 85 55 50 56
REMARK SMILES IDX 51 57 65 59 86 60 53 61 37 62 38 63 46 64 39 65 45 66 47 67
REMARK SMILES IDX 44 68 40 69 41 70 42 71 43 72 69 73 70 74 78 75 71 76 77 77
REMARK SMILES IDX 79 78 76 79 72 80 73 81 74 82 75 83 54 84 55 85 63 86 56 87
REMARK SMILES IDX 62 88 64 89 61 90 57 91 58 92 59 93 60 94
REMARK H PARENT 21 6 25 28 84 47 52 58
REMARK Flexibility Score: inf
ROOT
ATOM      1  C   UNL A   1      36.807  22.825  25.997  1.00  0.00     0.042 C 
ENDROOT
BRANCH   1   2
ATOM      2  C   UNL A   1      36.174  22.888  24.605  1.00  0.00     0.117 C 
BRANCH   2   3
ATOM      3  N   UNL A   1      35.475  24.139  24.385  1.00  0.00    -0.354 N 
ATOM      4  O   UNL A   1      33.517  23.079  24.049  1.00  0.00    -0.273 OA
ATOM      5  C   UNL A   1      34.133  24.143  24.090  1.00  0.00     0.239 C 
ATOM      6  H   UNL A   1      35.964  24.991  24.447  1.00  0.00     0.163 HD
BRANCH   5   7
ATOM      7  C   UNL A   1      33.511  25.496  23.766  1.00  0.00     0.222 C 
BRANCH   7   8
ATOM      8  N   UNL A   1      32.645  25.987  24.825  1.00  0.00    -0.334 N 
ATOM      9  C   UNL A   1      33.176  26.281  26.067  1.00  0.00     0.087 A 
ATOM     10  C   UNL A   1      31.298  26.328  24.791  1.00  0.00     0.107 A 
ATOM     11  C   UNL A   1      32.167  26.719  26.882  1.00  0.00     0.020 A 
ATOM     12  C   UNL A   1      30.999  26.730  26.098  1.00  0.00     0.033 A 
BRANCH  10  13
ATOM     13  C   UNL A   1      30.305  26.396  23.709  1.00  0.00     0.270 C 
ATOM     14  O   UNL A   1      29.764  25.381  23.265  1.00  0.00    -0.267 OA
ATOM     15  N   UNL A   1      29.864  27.640  23.273  1.00  0.00    -0.337 N 
ATOM     16  C   UNL A   1      28.430  27.842  23.164  1.00  0.00     0.120 C 
ATOM     17  C   UNL A   1      30.594  28.345  22.237  1.00  0.00     0.120 C 
ATOM     18  C   UNL A   1      28.114  29.307  23.431  1.00  0.00     0.028 C 
ATOM     19  C   UNL A   1      30.393  29.855  22.387  1.00  0.00     0.028 C 
ATOM     20  C   UNL A   1      28.925  30.304  22.562  1.00  0.00    -0.026 C 
ATOM     21  C   UNL A   1      28.877  31.697  23.259  1.00  0.00     0.007 C 
ATOM     22  C   UNL A   1      28.285  30.539  21.173  1.00  0.00     0.007 C 
ATOM     23  C   UNL A   1      28.569  32.699  22.165  1.00  0.00     0.001 C 
ATOM     24  C   UNL A   1      27.646  31.922  21.247  1.00  0.00     0.001 C 
ENDBRANCH  10  13
ENDBRANCH   7   8
ENDBRANCH   5   7
ENDBRANCH   2   3
ENDBRANCH   1   2
BRANCH   1  25
ATOM     25  C   UNL A   1      37.830  23.936  26.215  1.00  0.00     0.118 C 
BRANCH  25  26
ATOM     26  N   UNL A   1      39.006  23.412  26.890  1.00  0.00    -0.352 N 
ATOM     27  C   UNL A   1      40.073  24.041  27.470  1.00  0.00     0.251 C 
ATOM     28  H   UNL A   1      39.039  22.429  26.940  1.00  0.00     0.163 HD
ATOM     29  O   UNL A   1      41.072  23.376  27.717  1.00  0.00    -0.269 OA
BRANCH  27  30
ATOM     30  C   UNL A   1      40.062  25.486  27.773  1.00  0.00     0.039 A 
ATOM     31  C   UNL A   1      39.632  25.861  29.052  1.00  0.00     0.014 A 
ATOM     32  C   UNL A   1      40.370  26.462  26.819  1.00  0.00     0.014 A 
ATOM     33  C   UNL A   1      39.567  27.205  29.396  1.00  0.00     0.010 A 
ATOM     34  C   UNL A   1      40.325  27.812  27.165  1.00  0.00     0.010 A 
ATOM     35  C   UNL A   1      39.940  28.179  28.460  1.00  0.00    -0.014 A 
BRANCH  35  36
ATOM     36  C   UNL A   1      40.161  29.561  28.947  1.00  0.00     0.031 A 
ATOM     37  C   UNL A   1      38.796  30.232  29.288  1.00  0.00     0.074 A 
ATOM     38  C   UNL A   1      41.458  30.010  28.979  1.00  0.00     0.049 A 
ATOM     39  N   UNL A   1      38.442  31.480  29.279  1.00  0.00    -0.248 NA
ATOM     40  C   UNL A   1      37.614  29.369  29.599  1.00  0.00     0.031 C 
ATOM     41  C   UNL A   1      42.655  29.193  28.649  1.00  0.00     0.029 A 
ATOM     42  N   UNL A   1      42.053  31.218  29.290  1.00  0.00    -0.354 N 
ATOM     43  C   UNL A   1      37.135  31.566  29.834  1.00  0.00     0.074 A 
ATOM     44  C   UNL A   1      36.627  30.232  29.855  1.00  0.00     0.031 C 
ATOM     45  C   UNL A   1      43.791  29.934  28.693  1.00  0.00     0.029 A 
ATOM     46  C   UNL A   1      43.469  31.295  29.078  1.00  0.00     0.049 A 
ATOM     47  H   UNL A   1      41.536  31.981  29.637  1.00  0.00     0.167 HD
ATOM     48  C   UNL A   1      36.635  32.708  30.401  1.00  0.00     0.034 A 
ATOM     49  C   UNL A   1      44.304  32.385  29.182  1.00  0.00     0.034 A 
ATOM     50  C   UNL A   1      37.597  33.748  30.271  1.00  0.00     0.049 A 
ATOM     51  C   UNL A   1      43.450  33.408  29.800  1.00  0.00     0.074 A 
ATOM     52  C   UNL A   1      38.073  34.432  29.186  1.00  0.00     0.029 A 
ATOM     53  N   UNL A   1      38.450  33.929  31.337  1.00  0.00    -0.354 N 
ATOM     54  N   UNL A   1      43.104  33.411  31.050  1.00  0.00    -0.248 NA
ATOM     55  C   UNL A   1      42.894  34.476  28.962  1.00  0.00     0.031 C 
ATOM     56  C   UNL A   1      39.449  34.518  29.471  1.00  0.00     0.029 A 
ATOM     57  C   UNL A   1      39.690  34.157  30.806  1.00  0.00     0.049 A 
ATOM     58  H   UNL A   1      38.216  33.900  32.292  1.00  0.00     0.167 HD
ATOM     59  C   UNL A   1      42.034  34.264  31.053  1.00  0.00     0.074 A 
ATOM     60  C   UNL A   1      42.188  35.117  29.891  1.00  0.00     0.031 C 
ATOM     61  C   UNL A   1      40.861  33.844  31.595  1.00  0.00     0.034 A 
BRANCH  48  62
ATOM     62  C   UNL A   1      35.471  33.006  31.321  1.00  0.00     0.023 A 
ATOM     63  C   UNL A   1      34.667  34.122  30.961  1.00  0.00     0.031 A 
ATOM     64  C   UNL A   1      35.316  32.532  32.628  1.00  0.00     0.131 A 
ATOM     65  C   UNL A   1      33.906  34.819  31.907  1.00  0.00     0.055 A 
ATOM     66  C   UNL A   1      34.487  33.186  33.556  1.00  0.00     0.041 A 
ATOM     67  F   UNL A   1      36.014  31.485  33.085  1.00  0.00    -0.206 F 
ATOM     68  C   UNL A   1      33.815  34.359  33.213  1.00  0.00     0.022 A 
BRANCH  65  69
ATOM     69  S   UNL A   1      33.232  36.442  31.437  1.00  0.00     0.124 S 
ATOM     70  O   UNL A   1      31.876  36.376  31.969  1.00  0.00    -0.237 OA
ATOM     71  O   UNL A   1      34.142  37.358  32.118  1.00  0.00    -0.237 OA
ATOM     72  O   UNL A   1      33.330  36.439  29.979  1.00  0.00    -0.744 OA
ENDBRANCH  65  69
ENDBRANCH  48  62
BRANCH  49  73
ATOM     73  C   UNL A   1      45.726  32.866  28.870  1.00  0.00     0.023 A 
ATOM     74  C   UNL A   1      46.147  33.692  27.814  1.00  0.00     0.031 A 
ATOM     75  C   UNL A   1      46.777  32.523  29.791  1.00  0.00     0.131 A 
ATOM     76  C   UNL A   1      47.493  34.183  27.776  1.00  0.00     0.055 A 
ATOM     77  C   UNL A   1      48.053  33.083  29.806  1.00  0.00     0.041 A 
ATOM     78  F   UNL A   1      46.623  31.602  30.752  1.00  0.00    -0.206 F 
ATOM     79  C   UNL A   1      48.415  33.937  28.798  1.00  0.00     0.022 A 
BRANCH  76  80
ATOM     80  S   UNL A   1      48.122  35.184  26.391  1.00  0.00     0.124 S 
ATOM     81  O   UNL A   1      47.466  36.466  26.621  1.00  0.00    -0.237 OA
ATOM     82  O   UNL A   1      49.566  35.155  26.593  1.00  0.00    -0.237 OA
ATOM     83  O   UNL A   1      47.654  34.455  25.211  1.00  0.00    -0.744 OA
ENDBRANCH  76  80
ENDBRANCH  49  73
BRANCH  61  84
ATOM     84  C   UNL A   1      40.999  32.756  32.669  1.00  0.00     0.023 A 
ATOM     85  C   UNL A   1      40.707  31.409  32.356  1.00  0.00     0.031 A 
ATOM     86  C   UNL A   1      41.289  33.010  34.021  1.00  0.00     0.131 A 
ATOM     87  C   UNL A   1      40.662  30.415  33.355  1.00  0.00     0.055 A 
ATOM     88  C   UNL A   1      41.254  32.022  35.018  1.00  0.00     0.041 A 
ATOM     89  F   UNL A   1      41.614  34.233  34.439  1.00  0.00    -0.206 F 
ATOM     90  C   UNL A   1      40.930  30.716  34.689  1.00  0.00     0.022 A 
BRANCH  87  91
ATOM     91  S   UNL A   1      40.258  28.706  32.895  1.00  0.00     0.124 S 
ATOM     92  O   UNL A   1      40.402  27.990  34.156  1.00  0.00    -0.237 OA
ATOM     93  O   UNL A   1      38.899  28.834  32.379  1.00  0.00    -0.237 OA
ATOM     94  O   UNL A   1      41.264  28.379  31.882  1.00  0.00    -0.744 OA
ENDBRANCH  87  91
ENDBRANCH  61  84
ENDBRANCH  35  36
ENDBRANCH  27  30
ENDBRANCH  25  26
ENDBRANCH   1  25
TORSDOF 15
ENDMDL
