MODEL 1
REMARK VINA RESULT:     -11.9      0.000      0.000
REMARK SMILES O=C(NCCCNC(=O)[C@H](NC(=O)[C@H]1CC[C@@H](CNC(=O)[C@@H]2Cc3ccccc3C[NH2+]2)CC1)c1ccccc1)c1ccc(-c2c3nc(c(-c4cc(S(=O)(=O)[O-])ccc4F)c4ccc([nH]4)c(-c4cc(S(=O)(=O)[O-])ccc4F)c4nc(c(-c5cc(S(=O)(=O)[O-])ccc5F)c5ccc2[nH]5)C=C4)C=C3)cc1
REMARK SMILES IDX 6 1 5 2 4 3 3 4 1 5 2 6 40 8 41 9 102 10 42 11 101 12 43 13
REMARK SMILES IDX 44 14 45 15 95 16 46 17 100 18 94 19 96 20 47 21 99 22 93 23
REMARK SMILES IDX 92 24 48 26 80 27 60 28 79 29 61 30 64 31 78 32 97 33 62 34
REMARK SMILES IDX 63 35 77 37 98 38 65 39 49 40 50 41 58 42 51 43 57 44 59 45
REMARK SMILES IDX 56 46 52 47 53 48 54 49 55 50 81 51 82 52 90 53 83 54 89 55
REMARK SMILES IDX 91 56 88 57 84 58 85 59 86 60 87 61 66 62 67 63 75 64 68 65
REMARK SMILES IDX 74 66 76 67 73 68 69 69 70 70 71 71 72 72 7 73 8 74 9 76
REMARK SMILES IDX 10 77 34 78 35 79 39 80 36 81 38 82 37 83 11 84 12 85 13 87
REMARK SMILES IDX 14 88 33 89 15 90 32 91 16 92 17 93 18 94 19 95 20 96 21 98
REMARK SMILES IDX 22 99 23 100 31 101 24 102 30 103 25 106 29 107 26 108
REMARK SMILES IDX 28 109 27 110
REMARK H PARENT 3 7 96 25 64 36 7 75 11 86 19 97 31 104 31 105
REMARK Flexibility Score: inf
ROOT
ATOM      1  C   UNL A   1      33.052  29.412  25.088  1.00  0.00     0.117 C 
ENDROOT
BRANCH   1   2
ATOM      2  C   UNL A   1      33.359  28.601  26.336  1.00  0.00     0.042 C 
BRANCH   2   3
ATOM      3  C   UNL A   1      34.287  29.352  27.281  1.00  0.00     0.118 C 
BRANCH   3   4
ATOM      4  N   UNL A   1      33.999  30.785  27.387  1.00  0.00    -0.352 N 
ATOM      5  O   UNL A   1      34.047  32.933  28.018  1.00  0.00    -0.269 OA
ATOM      6  C   UNL A   1      34.602  31.832  28.054  1.00  0.00     0.251 C 
ATOM      7  H   UNL A   1      33.207  31.059  26.872  1.00  0.00     0.163 HD
BRANCH   6   8
ATOM      8  C   UNL A   1      35.858  31.676  28.830  1.00  0.00     0.039 A 
ATOM      9  C   UNL A   1      36.083  30.558  29.616  1.00  0.00     0.014 A 
ATOM     10  C   UNL A   1      36.869  32.646  28.754  1.00  0.00     0.014 A 
ATOM     11  C   UNL A   1      37.134  30.532  30.516  1.00  0.00     0.010 A 
ATOM     12  C   UNL A   1      38.045  32.516  29.517  1.00  0.00     0.010 A 
ATOM     13  C   UNL A   1      38.172  31.472  30.444  1.00  0.00    -0.014 A 
BRANCH  13  14
ATOM     14  C   UNL A   1      39.368  31.232  31.306  1.00  0.00     0.031 A 
ATOM     15  C   UNL A   1      39.448  31.741  32.719  1.00  0.00     0.074 A 
ATOM     16  C   UNL A   1      40.334  30.414  30.827  1.00  0.00     0.049 A 
ATOM     17  N   UNL A   1      40.362  31.496  33.626  1.00  0.00    -0.248 NA
ATOM     18  C   UNL A   1      38.387  32.651  33.173  1.00  0.00     0.031 C 
ATOM     19  C   UNL A   1      40.379  29.884  29.458  1.00  0.00     0.029 A 
ATOM     20  N   UNL A   1      41.409  29.816  31.436  1.00  0.00    -0.354 N 
ATOM     21  C   UNL A   1      40.000  32.234  34.748  1.00  0.00     0.074 A 
ATOM     22  C   UNL A   1      38.798  32.961  34.396  1.00  0.00     0.031 C 
ATOM     23  C   UNL A   1      41.327  28.944  29.375  1.00  0.00     0.029 A 
ATOM     24  C   UNL A   1      42.050  28.892  30.639  1.00  0.00     0.049 A 
ATOM     25  H   UNL A   1      41.693  30.026  32.355  1.00  0.00     0.167 HD
ATOM     26  C   UNL A   1      40.613  32.295  35.957  1.00  0.00     0.034 A 
ATOM     27  C   UNL A   1      43.114  28.101  30.878  1.00  0.00     0.034 A 
ATOM     28  C   UNL A   1      41.808  31.552  36.292  1.00  0.00     0.049 A 
ATOM     29  C   UNL A   1      43.763  28.183  32.231  1.00  0.00     0.074 A 
ATOM     30  C   UNL A   1      42.518  31.550  37.481  1.00  0.00     0.029 A 
ATOM     31  N   UNL A   1      42.468  30.674  35.440  1.00  0.00    -0.354 N 
ATOM     32  N   UNL A   1      43.414  28.909  33.268  1.00  0.00    -0.248 NA
ATOM     33  C   UNL A   1      44.952  27.351  32.443  1.00  0.00     0.031 C 
ATOM     34  C   UNL A   1      43.633  30.718  37.329  1.00  0.00     0.029 A 
ATOM     35  C   UNL A   1      43.583  30.141  36.070  1.00  0.00     0.049 A 
ATOM     36  H   UNL A   1      42.184  30.461  34.521  1.00  0.00     0.167 HD
ATOM     37  C   UNL A   1      44.350  28.627  34.256  1.00  0.00     0.074 A 
ATOM     38  C   UNL A   1      45.240  27.622  33.707  1.00  0.00     0.031 C 
ATOM     39  C   UNL A   1      44.478  29.163  35.496  1.00  0.00     0.034 A 
BRANCH  26  40
ATOM     40  C   UNL A   1      40.030  33.230  36.991  1.00  0.00     0.023 A 
ATOM     41  C   UNL A   1      39.257  32.763  38.068  1.00  0.00     0.031 A 
ATOM     42  C   UNL A   1      40.255  34.617  36.898  1.00  0.00     0.131 A 
ATOM     43  C   UNL A   1      38.694  33.675  38.976  1.00  0.00     0.055 A 
ATOM     44  C   UNL A   1      39.748  35.512  37.842  1.00  0.00     0.041 A 
ATOM     45  F   UNL A   1      40.969  35.126  35.881  1.00  0.00    -0.206 F 
ATOM     46  C   UNL A   1      38.954  35.044  38.884  1.00  0.00     0.022 A 
BRANCH  43  47
ATOM     47  S   UNL A   1      37.525  33.059  40.219  1.00  0.00     0.124 S 
ATOM     48  O   UNL A   1      38.228  31.885  40.728  1.00  0.00    -0.237 OA
ATOM     49  O   UNL A   1      37.417  34.187  41.137  1.00  0.00    -0.237 OA
ATOM     50  O   UNL A   1      36.321  32.769  39.443  1.00  0.00    -0.744 OA
ENDBRANCH  43  47
ENDBRANCH  26  40
BRANCH  27  51
ATOM     51  C   UNL A   1      43.669  27.226  29.802  1.00  0.00     0.023 A 
ATOM     52  C   UNL A   1      43.382  25.853  29.746  1.00  0.00     0.031 A 
ATOM     53  C   UNL A   1      44.535  27.753  28.826  1.00  0.00     0.131 A 
ATOM     54  C   UNL A   1      43.988  25.051  28.765  1.00  0.00     0.055 A 
ATOM     55  C   UNL A   1      45.079  26.966  27.811  1.00  0.00     0.041 A 
ATOM     56  F   UNL A   1      44.852  29.059  28.831  1.00  0.00    -0.206 F 
ATOM     57  C   UNL A   1      44.817  25.602  27.785  1.00  0.00     0.022 A 
BRANCH  54  58
ATOM     58  S   UNL A   1      43.761  23.252  28.844  1.00  0.00     0.124 S 
ATOM     59  O   UNL A   1      42.328  23.143  29.094  1.00  0.00    -0.237 OA
ATOM     60  O   UNL A   1      44.217  22.832  27.524  1.00  0.00    -0.237 OA
ATOM     61  O   UNL A   1      44.620  22.850  29.956  1.00  0.00    -0.744 OA
ENDBRANCH  54  58
ENDBRANCH  27  51
BRANCH  39  62
ATOM     62  C   UNL A   1      45.626  28.649  36.329  1.00  0.00     0.023 A 
ATOM     63  C   UNL A   1      45.463  27.559  37.202  1.00  0.00     0.031 A 
ATOM     64  C   UNL A   1      46.874  29.293  36.298  1.00  0.00     0.131 A 
ATOM     65  C   UNL A   1      46.504  27.196  38.067  1.00  0.00     0.055 A 
ATOM     66  C   UNL A   1      47.930  28.883  37.112  1.00  0.00     0.041 A 
ATOM     67  F   UNL A   1      47.082  30.342  35.485  1.00  0.00    -0.206 F 
ATOM     68  C   UNL A   1      47.742  27.842  38.018  1.00  0.00     0.022 A 
BRANCH  65  69
ATOM     69  S   UNL A   1      46.175  25.954  39.348  1.00  0.00     0.124 S 
ATOM     70  O   UNL A   1      44.995  26.504  40.007  1.00  0.00    -0.237 OA
ATOM     71  O   UNL A   1      45.960  24.744  38.561  1.00  0.00    -0.237 OA
ATOM     72  O   UNL A   1      47.395  25.961  40.153  1.00  0.00    -0.744 OA
ENDBRANCH  65  69
ENDBRANCH  39  62
ENDBRANCH  13  14
ENDBRANCH   6   8
ENDBRANCH   3   4
ENDBRANCH   2   3
ENDBRANCH   1   2
BRANCH   1  73
ATOM     73  N   UNL A   1      33.862  29.077  23.947  1.00  0.00    -0.354 N 
ATOM     74  C   UNL A   1      33.596  28.256  22.892  1.00  0.00     0.247 C 
ATOM     75  H   UNL A   1      34.747  29.508  23.925  1.00  0.00     0.163 HD
ATOM     76  O   UNL A   1      34.336  28.424  21.909  1.00  0.00    -0.272 OA
BRANCH  74  77
ATOM     77  C   UNL A   1      32.407  27.248  22.789  1.00  0.00     0.202 C 
BRANCH  77  78
ATOM     78  C   UNL A   1      30.959  27.727  22.735  1.00  0.00    -0.016 A 
ATOM     79  C   UNL A   1      30.688  29.005  22.192  1.00  0.00     0.006 A 
ATOM     80  C   UNL A   1      29.880  27.002  23.262  1.00  0.00     0.006 A 
ATOM     81  C   UNL A   1      29.429  29.594  22.318  1.00  0.00     0.000 A 
ATOM     82  C   UNL A   1      28.622  27.601  23.400  1.00  0.00     0.000 A 
ATOM     83  C   UNL A   1      28.405  28.905  22.956  1.00  0.00     0.000 A 
ENDBRANCH  77  78
BRANCH  77  84
ATOM     84  N   UNL A   1      32.677  25.974  22.068  1.00  0.00    -0.340 N 
ATOM     85  C   UNL A   1      33.263  24.768  22.284  1.00  0.00     0.224 C 
ATOM     86  H   UNL A   1      32.318  26.019  21.153  1.00  0.00     0.164 HD
ATOM     87  O   UNL A   1      33.381  24.063  21.273  1.00  0.00    -0.275 OA
BRANCH  85  88
ATOM     88  C   UNL A   1      33.639  24.189  23.652  1.00  0.00     0.078 C 
ATOM     89  C   UNL A   1      34.315  22.793  23.566  1.00  0.00     0.014 C 
ATOM     90  C   UNL A   1      34.567  25.018  24.515  1.00  0.00     0.014 C 
ATOM     91  C   UNL A   1      34.729  22.198  24.941  1.00  0.00     0.006 C 
ATOM     92  C   UNL A   1      34.506  24.465  25.930  1.00  0.00     0.006 C 
ATOM     93  C   UNL A   1      35.322  23.192  25.977  1.00  0.00     0.008 C 
BRANCH  93  94
ATOM     94  C   UNL A   1      36.818  23.473  25.745  1.00  0.00     0.119 C 
BRANCH  94  95
ATOM     95  N   UNL A   1      37.687  22.299  25.865  1.00  0.00    -0.351 N 
ATOM     96  C   UNL A   1      38.966  22.280  26.368  1.00  0.00     0.278 C 
ATOM     97  H   UNL A   1      37.319  21.441  25.554  1.00  0.00     0.163 HD
ATOM     98  O   UNL A   1      39.510  21.212  26.626  1.00  0.00    -0.268 OA
BRANCH  96  99
ATOM     99  C   UNL A   1      39.623  23.635  26.538  1.00  0.00     0.277 C 
ATOM    100  C   UNL A   1      41.120  23.686  26.236  1.00  0.00     0.111 C 
ATOM    101  N   UNL A   1      39.403  24.134  27.921  1.00  0.00    -0.332 N 
ATOM    102  C   UNL A   1      41.452  25.164  26.178  1.00  0.00    -0.033 A 
ATOM    103  C   UNL A   1      39.646  25.577  27.943  1.00  0.00     0.298 C 
ATOM    104  H   UNL A   1      40.046  23.668  28.561  1.00  0.00     0.347 HD
ATOM    105  H   UNL A   1      38.446  23.937  28.214  1.00  0.00     0.347 HD
ATOM    106  C   UNL A   1      42.388  25.648  25.262  1.00  0.00     0.004 A 
ATOM    107  C   UNL A   1      40.696  26.065  26.965  1.00  0.00     0.010 A 
ATOM    108  C   UNL A   1      42.515  27.021  25.066  1.00  0.00     0.000 A 
ATOM    109  C   UNL A   1      40.835  27.441  26.754  1.00  0.00     0.010 A 
ATOM    110  C   UNL A   1      41.727  27.914  25.794  1.00  0.00     0.001 A 
ENDBRANCH  96  99
ENDBRANCH  94  95
ENDBRANCH  93  94
ENDBRANCH  85  88
ENDBRANCH  77  84
ENDBRANCH  74  77
ENDBRANCH   1  73
TORSDOF 19
ENDMDL
MODEL 2
REMARK VINA RESULT:     -11.7      5.213      9.647
REMARK SMILES O=C(NCCCNC(=O)[C@H](NC(=O)[C@H]1CC[C@@H](CNC(=O)[C@@H]2Cc3ccccc3C[NH2+]2)CC1)c1ccccc1)c1ccc(-c2c3nc(c(-c4cc(S(=O)(=O)[O-])ccc4F)c4ccc([nH]4)c(-c4cc(S(=O)(=O)[O-])ccc4F)c4nc(c(-c5cc(S(=O)(=O)[O-])ccc5F)c5ccc2[nH]5)C=C4)C=C3)cc1
REMARK SMILES IDX 6 1 5 2 4 3 3 4 1 5 2 6 40 8 41 9 102 10 42 11 101 12 43 13
REMARK SMILES IDX 44 14 45 15 95 16 46 17 100 18 94 19 96 20 47 21 99 22 93 23
REMARK SMILES IDX 92 24 48 26 80 27 60 28 79 29 61 30 64 31 78 32 97 33 62 34
REMARK SMILES IDX 63 35 77 37 98 38 65 39 49 40 50 41 58 42 51 43 57 44 59 45
REMARK SMILES IDX 56 46 52 47 53 48 54 49 55 50 81 51 82 52 90 53 83 54 89 55
REMARK SMILES IDX 91 56 88 57 84 58 85 59 86 60 87 61 66 62 67 63 75 64 68 65
REMARK SMILES IDX 74 66 76 67 73 68 69 69 70 70 71 71 72 72 7 73 8 74 9 76
REMARK SMILES IDX 10 77 34 78 35 79 39 80 36 81 38 82 37 83 11 84 12 85 13 87
REMARK SMILES IDX 14 88 33 89 15 90 32 91 16 92 17 93 18 94 19 95 20 96 21 98
REMARK SMILES IDX 22 99 23 100 31 101 24 102 30 103 25 106 29 107 26 108
REMARK SMILES IDX 28 109 27 110
REMARK H PARENT 3 7 96 25 64 36 7 75 11 86 19 97 31 104 31 105
REMARK Flexibility Score: inf
ROOT
ATOM      1  C   UNL A   1      37.217  20.135  24.794  1.00  0.00     0.117 C 
ENDROOT
BRANCH   1   2
ATOM      2  C   UNL A   1      38.526  19.380  24.952  1.00  0.00     0.042 C 
BRANCH   2   3
ATOM      3  C   UNL A   1      39.378  19.958  26.073  1.00  0.00     0.118 C 
BRANCH   3   4
ATOM      4  N   UNL A   1      40.612  19.212  26.331  1.00  0.00    -0.352 N 
ATOM      5  O   UNL A   1      42.769  18.684  26.622  1.00  0.00    -0.269 OA
ATOM      6  C   UNL A   1      41.929  19.581  26.519  1.00  0.00     0.251 C 
ATOM      7  H   UNL A   1      40.473  18.239  26.382  1.00  0.00     0.163 HD
BRANCH   6   8
ATOM      8  C   UNL A   1      42.368  20.998  26.566  1.00  0.00     0.039 A 
ATOM      9  C   UNL A   1      42.630  21.630  27.771  1.00  0.00     0.014 A 
ATOM     10  C   UNL A   1      42.565  21.725  25.381  1.00  0.00     0.014 A 
ATOM     11  C   UNL A   1      42.800  23.002  27.822  1.00  0.00     0.010 A 
ATOM     12  C   UNL A   1      42.947  23.079  25.427  1.00  0.00     0.010 A 
ATOM     13  C   UNL A   1      43.028  23.747  26.657  1.00  0.00    -0.014 A 
BRANCH  13  14
ATOM     14  C   UNL A   1      43.422  25.178  26.830  1.00  0.00     0.031 A 
ATOM     15  C   UNL A   1      42.522  26.177  27.502  1.00  0.00     0.074 A 
ATOM     16  C   UNL A   1      44.684  25.528  26.489  1.00  0.00     0.049 A 
ATOM     17  N   UNL A   1      42.784  27.416  27.842  1.00  0.00    -0.248 NA
ATOM     18  C   UNL A   1      41.152  25.750  27.821  1.00  0.00     0.031 C 
ATOM     19  C   UNL A   1      45.640  24.650  25.801  1.00  0.00     0.029 A 
ATOM     20  N   UNL A   1      45.415  26.662  26.738  1.00  0.00    -0.354 N 
ATOM     21  C   UNL A   1      41.611  27.921  28.393  1.00  0.00     0.074 A 
ATOM     22  C   UNL A   1      40.625  26.863  28.313  1.00  0.00     0.031 C 
ATOM     23  C   UNL A   1      46.851  25.216  25.811  1.00  0.00     0.029 A 
ATOM     24  C   UNL A   1      46.743  26.551  26.384  1.00  0.00     0.049 A 
ATOM     25  H   UNL A   1      45.029  27.478  27.132  1.00  0.00     0.167 HD
ATOM     26  C   UNL A   1      41.382  29.152  28.918  1.00  0.00     0.034 A 
ATOM     27  C   UNL A   1      47.765  27.424  26.484  1.00  0.00     0.034 A 
ATOM     28  C   UNL A   1      42.384  30.192  28.997  1.00  0.00     0.049 A 
ATOM     29  C   UNL A   1      47.482  28.773  27.081  1.00  0.00     0.074 A 
ATOM     30  C   UNL A   1      42.256  31.478  29.496  1.00  0.00     0.029 A 
ATOM     31  N   UNL A   1      43.702  30.067  28.571  1.00  0.00    -0.354 N 
ATOM     32  N   UNL A   1      46.354  29.235  27.573  1.00  0.00    -0.248 NA
ATOM     33  C   UNL A   1      48.599  29.722  27.126  1.00  0.00     0.031 C 
ATOM     34  C   UNL A   1      43.475  32.144  29.322  1.00  0.00     0.029 A 
ATOM     35  C   UNL A   1      44.389  31.254  28.780  1.00  0.00     0.049 A 
ATOM     36  H   UNL A   1      44.091  29.252  28.178  1.00  0.00     0.167 HD
ATOM     37  C   UNL A   1      46.627  30.537  27.978  1.00  0.00     0.074 A 
ATOM     38  C   UNL A   1      48.038  30.761  27.725  1.00  0.00     0.031 C 
ATOM     39  C   UNL A   1      45.787  31.470  28.492  1.00  0.00     0.034 A 
BRANCH  26  40
ATOM     40  C   UNL A   1      39.984  29.458  29.403  1.00  0.00     0.023 A 
ATOM     41  C   UNL A   1      39.668  29.524  30.770  1.00  0.00     0.031 A 
ATOM     42  C   UNL A   1      38.948  29.688  28.478  1.00  0.00     0.131 A 
ATOM     43  C   UNL A   1      38.343  29.761  31.174  1.00  0.00     0.055 A 
ATOM     44  C   UNL A   1      37.647  29.989  28.885  1.00  0.00     0.041 A 
ATOM     45  F   UNL A   1      39.184  29.619  27.158  1.00  0.00    -0.206 F 
ATOM     46  C   UNL A   1      37.336  30.017  30.241  1.00  0.00     0.022 A 
BRANCH  43  47
ATOM     47  S   UNL A   1      37.930  29.622  32.935  1.00  0.00     0.124 S 
ATOM     48  O   UNL A   1      39.220  29.891  33.562  1.00  0.00    -0.237 OA
ATOM     49  O   UNL A   1      36.910  30.651  33.102  1.00  0.00    -0.237 OA
ATOM     50  O   UNL A   1      37.454  28.246  33.067  1.00  0.00    -0.744 OA
ENDBRANCH  43  47
ENDBRANCH  26  40
BRANCH  27  51
ATOM     51  C   UNL A   1      49.116  27.078  25.950  1.00  0.00     0.023 A 
ATOM     52  C   UNL A   1      49.576  27.582  24.723  1.00  0.00     0.031 A 
ATOM     53  C   UNL A   1      49.960  26.196  26.652  1.00  0.00     0.131 A 
ATOM     54  C   UNL A   1      50.821  27.169  24.220  1.00  0.00     0.055 A 
ATOM     55  C   UNL A   1      51.224  25.844  26.182  1.00  0.00     0.041 A 
ATOM     56  F   UNL A   1      49.572  25.676  27.829  1.00  0.00    -0.206 F 
ATOM     57  C   UNL A   1      51.656  26.320  24.950  1.00  0.00     0.022 A 
BRANCH  54  58
ATOM     58  S   UNL A   1      51.296  27.674  22.543  1.00  0.00     0.124 S 
ATOM     59  O   UNL A   1      52.739  27.465  22.566  1.00  0.00    -0.237 OA
ATOM     60  O   UNL A   1      50.526  26.748  21.720  1.00  0.00    -0.237 OA
ATOM     61  O   UNL A   1      50.869  29.070  22.475  1.00  0.00    -0.744 OA
ENDBRANCH  54  58
ENDBRANCH  27  51
BRANCH  39  62
ATOM     62  C   UNL A   1      46.399  32.810  28.817  1.00  0.00     0.023 A 
ATOM     63  C   UNL A   1      46.412  33.854  27.874  1.00  0.00     0.031 A 
ATOM     64  C   UNL A   1      47.029  33.026  30.053  1.00  0.00     0.131 A 
ATOM     65  C   UNL A   1      47.113  35.035  28.151  1.00  0.00     0.055 A 
ATOM     66  C   UNL A   1      47.667  34.231  30.350  1.00  0.00     0.041 A 
ATOM     67  F   UNL A   1      47.050  32.061  30.988  1.00  0.00    -0.206 F 
ATOM     68  C   UNL A   1      47.728  35.237  29.388  1.00  0.00     0.022 A 
BRANCH  65  69
ATOM     69  S   UNL A   1      47.320  36.253  26.822  1.00  0.00     0.124 S 
ATOM     70  O   UNL A   1      48.773  36.330  26.706  1.00  0.00    -0.237 OA
ATOM     71  O   UNL A   1      46.624  35.619  25.708  1.00  0.00    -0.237 OA
ATOM     72  O   UNL A   1      46.676  37.452  27.353  1.00  0.00    -0.744 OA
ENDBRANCH  65  69
ENDBRANCH  39  62
ENDBRANCH  13  14
ENDBRANCH   6   8
ENDBRANCH   3   4
ENDBRANCH   2   3
ENDBRANCH   1   2
BRANCH   1  73
ATOM     73  N   UNL A   1      36.040  19.336  25.007  1.00  0.00    -0.354 N 
ATOM     74  C   UNL A   1      34.731  19.707  25.090  1.00  0.00     0.247 C 
ATOM     75  H   UNL A   1      36.205  18.371  25.109  1.00  0.00     0.163 HD
ATOM     76  O   UNL A   1      33.921  18.777  24.944  1.00  0.00    -0.272 OA
BRANCH  74  77
ATOM     77  C   UNL A   1      34.196  21.168  25.231  1.00  0.00     0.202 C 
BRANCH  77  78
ATOM     78  C   UNL A   1      33.720  21.963  24.018  1.00  0.00    -0.016 A 
ATOM     79  C   UNL A   1      32.561  21.527  23.335  1.00  0.00     0.006 A 
ATOM     80  C   UNL A   1      34.410  23.065  23.491  1.00  0.00     0.006 A 
ATOM     81  C   UNL A   1      32.203  22.065  22.098  1.00  0.00     0.000 A 
ATOM     82  C   UNL A   1      34.057  23.593  22.243  1.00  0.00     0.000 A 
ATOM     83  C   UNL A   1      32.974  23.074  21.535  1.00  0.00     0.000 A 
ENDBRANCH  77  78
BRANCH  77  84
ATOM     84  N   UNL A   1      33.519  21.508  26.512  1.00  0.00    -0.340 N 
ATOM     85  C   UNL A   1      32.808  22.522  27.068  1.00  0.00     0.224 C 
ATOM     86  H   UNL A   1      33.615  20.768  27.154  1.00  0.00     0.164 HD
ATOM     87  O   UNL A   1      32.585  22.392  28.280  1.00  0.00    -0.275 OA
BRANCH  85  88
ATOM     88  C   UNL A   1      32.170  23.690  26.307  1.00  0.00     0.078 C 
ATOM     89  C   UNL A   1      30.734  24.028  26.791  1.00  0.00     0.014 C 
ATOM     90  C   UNL A   1      32.911  25.009  26.332  1.00  0.00     0.014 C 
ATOM     91  C   UNL A   1      30.077  25.227  26.049  1.00  0.00     0.006 C 
ATOM     92  C   UNL A   1      32.328  25.892  25.239  1.00  0.00     0.006 C 
ATOM     93  C   UNL A   1      31.001  26.432  25.724  1.00  0.00     0.008 C 
BRANCH  93  94
ATOM     94  C   UNL A   1      31.184  27.384  26.921  1.00  0.00     0.119 C 
BRANCH  94  95
ATOM     95  N   UNL A   1      32.424  28.167  26.896  1.00  0.00    -0.351 N 
ATOM     96  C   UNL A   1      32.579  29.430  26.378  1.00  0.00     0.278 C 
ATOM     97  H   UNL A   1      33.222  27.747  27.289  1.00  0.00     0.163 HD
ATOM     98  O   UNL A   1      33.597  30.071  26.612  1.00  0.00    -0.268 OA
BRANCH  96  99
ATOM     99  C   UNL A   1      31.443  29.923  25.503  1.00  0.00     0.277 C 
ATOM    100  C   UNL A   1      31.456  29.425  24.058  1.00  0.00     0.111 C 
ATOM    101  N   UNL A   1      31.425  31.410  25.490  1.00  0.00    -0.332 N 
ATOM    102  C   UNL A   1      30.093  29.796  23.510  1.00  0.00    -0.033 A 
ATOM    103  C   UNL A   1      30.111  31.859  25.025  1.00  0.00     0.298 C 
ATOM    104  H   UNL A   1      32.148  31.757  24.860  1.00  0.00     0.347 HD
ATOM    105  H   UNL A   1      31.603  31.769  26.428  1.00  0.00     0.347 HD
ATOM    106  C   UNL A   1      29.432  28.952  22.616  1.00  0.00     0.004 A 
ATOM    107  C   UNL A   1      29.437  30.940  24.026  1.00  0.00     0.010 A 
ATOM    108  C   UNL A   1      28.096  29.192  22.300  1.00  0.00     0.000 A 
ATOM    109  C   UNL A   1      28.095  31.164  23.699  1.00  0.00     0.010 A 
ATOM    110  C   UNL A   1      27.424  30.282  22.856  1.00  0.00     0.001 A 
ENDBRANCH  96  99
ENDBRANCH  94  95
ENDBRANCH  93  94
ENDBRANCH  85  88
ENDBRANCH  77  84
ENDBRANCH  74  77
ENDBRANCH   1  73
TORSDOF 19
ENDMDL
MODEL 3
REMARK VINA RESULT:     -11.5      5.304     11.246
REMARK SMILES O=C(NCCCNC(=O)[C@H](NC(=O)[C@H]1CC[C@@H](CNC(=O)[C@@H]2Cc3ccccc3C[NH2+]2)CC1)c1ccccc1)c1ccc(-c2c3nc(c(-c4cc(S(=O)(=O)[O-])ccc4F)c4ccc([nH]4)c(-c4cc(S(=O)(=O)[O-])ccc4F)c4nc(c(-c5cc(S(=O)(=O)[O-])ccc5F)c5ccc2[nH]5)C=C4)C=C3)cc1
REMARK SMILES IDX 6 1 5 2 4 3 3 4 1 5 2 6 40 8 41 9 102 10 42 11 101 12 43 13
REMARK SMILES IDX 44 14 45 15 95 16 46 17 100 18 94 19 96 20 47 21 99 22 93 23
REMARK SMILES IDX 92 24 48 26 80 27 60 28 79 29 61 30 64 31 78 32 97 33 62 34
REMARK SMILES IDX 63 35 77 37 98 38 65 39 49 40 50 41 58 42 51 43 57 44 59 45
REMARK SMILES IDX 56 46 52 47 53 48 54 49 55 50 81 51 82 52 90 53 83 54 89 55
REMARK SMILES IDX 91 56 88 57 84 58 85 59 86 60 87 61 66 62 67 63 75 64 68 65
REMARK SMILES IDX 74 66 76 67 73 68 69 69 70 70 71 71 72 72 7 73 8 74 9 76
REMARK SMILES IDX 10 77 34 78 35 79 39 80 36 81 38 82 37 83 11 84 12 85 13 87
REMARK SMILES IDX 14 88 33 89 15 90 32 91 16 92 17 93 18 94 19 95 20 96 21 98
REMARK SMILES IDX 22 99 23 100 31 101 24 102 30 103 25 106 29 107 26 108
REMARK SMILES IDX 28 109 27 110
REMARK H PARENT 3 7 96 25 64 36 7 75 11 86 19 97 31 104 31 105
REMARK Flexibility Score: inf
ROOT
ATOM      1  C   UNL A   1      36.880  20.141  25.112  1.00  0.00     0.117 C 
ENDROOT
BRANCH   1   2
ATOM      2  C   UNL A   1      38.175  19.364  24.946  1.00  0.00     0.042 C 
BRANCH   2   3
ATOM      3  C   UNL A   1      39.316  19.997  25.733  1.00  0.00     0.118 C 
BRANCH   3   4
ATOM      4  N   UNL A   1      40.554  19.215  25.724  1.00  0.00    -0.352 N 
ATOM      5  O   UNL A   1      42.714  18.633  25.812  1.00  0.00    -0.269 OA
ATOM      6  C   UNL A   1      41.870  19.509  26.015  1.00  0.00     0.251 C 
ATOM      7  H   UNL A   1      40.418  18.278  25.451  1.00  0.00     0.163 HD
BRANCH   6   8
ATOM      8  C   UNL A   1      42.305  20.834  26.524  1.00  0.00     0.039 A 
ATOM      9  C   UNL A   1      42.494  21.906  25.669  1.00  0.00     0.014 A 
ATOM     10  C   UNL A   1      42.499  21.041  27.899  1.00  0.00     0.014 A 
ATOM     11  C   UNL A   1      43.127  23.055  26.111  1.00  0.00     0.010 A 
ATOM     12  C   UNL A   1      42.946  22.287  28.379  1.00  0.00     0.010 A 
ATOM     13  C   UNL A   1      43.306  23.300  27.480  1.00  0.00    -0.014 A 
BRANCH  13  14
ATOM     14  C   UNL A   1      43.791  24.658  27.870  1.00  0.00     0.031 A 
ATOM     15  C   UNL A   1      45.223  25.080  27.678  1.00  0.00     0.074 A 
ATOM     16  C   UNL A   1      42.870  25.563  28.275  1.00  0.00     0.049 A 
ATOM     17  N   UNL A   1      45.756  26.266  27.844  1.00  0.00    -0.248 NA
ATOM     18  C   UNL A   1      46.185  24.047  27.267  1.00  0.00     0.031 C 
ATOM     19  C   UNL A   1      41.455  25.260  28.527  1.00  0.00     0.029 A 
ATOM     20  N   UNL A   1      42.945  26.919  28.467  1.00  0.00    -0.354 N 
ATOM     21  C   UNL A   1      47.113  26.119  27.580  1.00  0.00     0.074 A 
ATOM     22  C   UNL A   1      47.327  24.720  27.272  1.00  0.00     0.031 C 
ATOM     23  C   UNL A   1      40.779  26.401  28.697  1.00  0.00     0.029 A 
ATOM     24  C   UNL A   1      41.722  27.512  28.700  1.00  0.00     0.049 A 
ATOM     25  H   UNL A   1      43.792  27.422  28.439  1.00  0.00     0.167 HD
ATOM     26  C   UNL A   1      48.086  27.066  27.591  1.00  0.00     0.034 A 
ATOM     27  C   UNL A   1      41.386  28.798  28.915  1.00  0.00     0.034 A 
ATOM     28  C   UNL A   1      47.849  28.460  27.891  1.00  0.00     0.049 A 
ATOM     29  C   UNL A   1      42.484  29.824  28.908  1.00  0.00     0.074 A 
ATOM     30  C   UNL A   1      48.763  29.500  27.943  1.00  0.00     0.029 A 
ATOM     31  N   UNL A   1      46.608  29.015  28.185  1.00  0.00    -0.354 N 
ATOM     32  N   UNL A   1      43.767  29.654  28.679  1.00  0.00    -0.248 NA
ATOM     33  C   UNL A   1      42.097  31.207  29.200  1.00  0.00     0.031 C 
ATOM     34  C   UNL A   1      48.087  30.666  28.322  1.00  0.00     0.029 A 
ATOM     35  C   UNL A   1      46.737  30.374  28.436  1.00  0.00     0.049 A 
ATOM     36  H   UNL A   1      45.760  28.515  28.211  1.00  0.00     0.167 HD
ATOM     37  C   UNL A   1      44.341  30.913  28.809  1.00  0.00     0.074 A 
ATOM     38  C   UNL A   1      43.255  31.836  29.078  1.00  0.00     0.031 C 
ATOM     39  C   UNL A   1      45.647  31.273  28.734  1.00  0.00     0.034 A 
BRANCH  26  40
ATOM     40  C   UNL A   1      49.503  26.617  27.316  1.00  0.00     0.023 A 
ATOM     41  C   UNL A   1      50.496  26.638  28.309  1.00  0.00     0.031 A 
ATOM     42  C   UNL A   1      49.864  26.158  26.035  1.00  0.00     0.131 A 
ATOM     43  C   UNL A   1      51.812  26.259  27.994  1.00  0.00     0.055 A 
ATOM     44  C   UNL A   1      51.158  25.719  25.746  1.00  0.00     0.041 A 
ATOM     45  F   UNL A   1      48.964  26.133  25.040  1.00  0.00    -0.206 F 
ATOM     46  C   UNL A   1      52.144  25.777  26.725  1.00  0.00     0.022 A 
BRANCH  43  47
ATOM     47  S   UNL A   1      53.112  26.507  29.234  1.00  0.00     0.124 S 
ATOM     48  O   UNL A   1      52.521  25.876  30.410  1.00  0.00    -0.237 OA
ATOM     49  O   UNL A   1      54.250  25.813  28.641  1.00  0.00    -0.237 OA
ATOM     50  O   UNL A   1      53.240  27.961  29.312  1.00  0.00    -0.744 OA
ENDBRANCH  43  47
ENDBRANCH  26  40
BRANCH  27  51
ATOM     51  C   UNL A   1      39.973  29.175  29.221  1.00  0.00     0.023 A 
ATOM     52  C   UNL A   1      39.506  29.281  30.540  1.00  0.00     0.031 A 
ATOM     53  C   UNL A   1      39.051  29.400  28.181  1.00  0.00     0.131 A 
ATOM     54  C   UNL A   1      38.151  29.560  30.782  1.00  0.00     0.055 A 
ATOM     55  C   UNL A   1      37.722  29.745  28.427  1.00  0.00     0.041 A 
ATOM     56  F   UNL A   1      39.437  29.307  26.897  1.00  0.00    -0.206 F 
ATOM     57  C   UNL A   1      37.262  29.812  29.736  1.00  0.00     0.022 A 
BRANCH  54  58
ATOM     58  S   UNL A   1      37.536  29.486  32.488  1.00  0.00     0.124 S 
ATOM     59  O   UNL A   1      36.191  30.033  32.343  1.00  0.00    -0.237 OA
ATOM     60  O   UNL A   1      37.621  28.059  32.778  1.00  0.00    -0.237 OA
ATOM     61  O   UNL A   1      38.476  30.328  33.225  1.00  0.00    -0.744 OA
ENDBRANCH  54  58
ENDBRANCH  27  51
BRANCH  39  62
ATOM     62  C   UNL A   1      45.948  32.737  28.942  1.00  0.00     0.023 A 
ATOM     63  C   UNL A   1      46.118  33.608  27.851  1.00  0.00     0.031 A 
ATOM     64  C   UNL A   1      46.128  33.251  30.236  1.00  0.00     0.131 A 
ATOM     65  C   UNL A   1      46.538  34.927  28.071  1.00  0.00     0.055 A 
ATOM     66  C   UNL A   1      46.479  34.584  30.452  1.00  0.00     0.041 A 
ATOM     67  F   UNL A   1      45.982  32.462  31.313  1.00  0.00    -0.206 F 
ATOM     68  C   UNL A   1      46.706  35.425  29.365  1.00  0.00     0.022 A 
BRANCH  65  69
ATOM     69  S   UNL A   1      46.988  35.945  26.638  1.00  0.00     0.124 S 
ATOM     70  O   UNL A   1      46.832  37.297  27.166  1.00  0.00    -0.237 OA
ATOM     71  O   UNL A   1      48.358  35.518  26.372  1.00  0.00    -0.237 OA
ATOM     72  O   UNL A   1      46.011  35.558  25.623  1.00  0.00    -0.744 OA
ENDBRANCH  65  69
ENDBRANCH  39  62
ENDBRANCH  13  14
ENDBRANCH   6   8
ENDBRANCH   3   4
ENDBRANCH   2   3
ENDBRANCH   1   2
BRANCH   1  73
ATOM     73  N   UNL A   1      35.689  19.339  25.017  1.00  0.00    -0.354 N 
ATOM     74  C   UNL A   1      34.417  19.693  24.677  1.00  0.00     0.247 C 
ATOM     75  H   UNL A   1      35.812  18.386  25.230  1.00  0.00     0.163 HD
ATOM     76  O   UNL A   1      33.685  18.742  24.359  1.00  0.00    -0.272 OA
BRANCH  74  77
ATOM     77  C   UNL A   1      33.872  21.151  24.550  1.00  0.00     0.202 C 
BRANCH  77  78
ATOM     78  C   UNL A   1      32.890  21.726  25.568  1.00  0.00    -0.016 A 
ATOM     79  C   UNL A   1      31.535  21.877  25.191  1.00  0.00     0.006 A 
ATOM     80  C   UNL A   1      33.268  22.184  26.839  1.00  0.00     0.006 A 
ATOM     81  C   UNL A   1      30.639  22.598  25.981  1.00  0.00     0.000 A 
ATOM     82  C   UNL A   1      32.369  22.919  27.623  1.00  0.00     0.000 A 
ATOM     83  C   UNL A   1      31.068  23.150  27.182  1.00  0.00     0.000 A 
ENDBRANCH  77  78
BRANCH  77  84
ATOM     84  N   UNL A   1      34.779  22.148  23.918  1.00  0.00    -0.340 N 
ATOM     85  C   UNL A   1      34.713  23.321  23.239  1.00  0.00     0.224 C 
ATOM     86  H   UNL A   1      35.718  21.870  24.027  1.00  0.00     0.164 HD
ATOM     87  O   UNL A   1      35.789  23.701  22.758  1.00  0.00    -0.275 OA
BRANCH  85  88
ATOM     88  C   UNL A   1      33.486  24.236  23.153  1.00  0.00     0.078 C 
ATOM     89  C   UNL A   1      33.155  24.950  24.492  1.00  0.00     0.014 C 
ATOM     90  C   UNL A   1      33.529  25.343  22.121  1.00  0.00     0.014 C 
ATOM     91  C   UNL A   1      31.929  25.904  24.421  1.00  0.00     0.006 C 
ATOM     92  C   UNL A   1      32.113  25.870  21.944  1.00  0.00     0.006 C 
ATOM     93  C   UNL A   1      31.785  26.753  23.128  1.00  0.00     0.008 C 
BRANCH  93  94
ATOM     94  C   UNL A   1      32.660  28.019  23.146  1.00  0.00     0.119 C 
BRANCH  94  95
ATOM     95  N   UNL A   1      32.665  28.742  24.421  1.00  0.00    -0.351 N 
ATOM     96  C   UNL A   1      31.633  29.486  24.940  1.00  0.00     0.278 C 
ATOM     97  H   UNL A   1      33.488  28.690  24.958  1.00  0.00     0.163 HD
ATOM     98  O   UNL A   1      31.667  29.857  26.108  1.00  0.00    -0.268 OA
BRANCH  96  99
ATOM     99  C   UNL A   1      30.513  29.817  23.973  1.00  0.00     0.277 C 
ATOM    100  C   UNL A   1      29.753  31.111  24.259  1.00  0.00     0.111 C 
ATOM    101  N   UNL A   1      29.537  28.696  23.927  1.00  0.00    -0.332 N 
ATOM    102  C   UNL A   1      28.930  31.359  23.011  1.00  0.00    -0.033 A 
ATOM    103  C   UNL A   1      28.732  28.825  22.712  1.00  0.00     0.298 C 
ATOM    104  H   UNL A   1      28.930  28.735  24.747  1.00  0.00     0.347 HD
ATOM    105  H   UNL A   1      30.031  27.804  23.925  1.00  0.00     0.347 HD
ATOM    106  C   UNL A   1      28.722  32.657  22.541  1.00  0.00     0.004 A 
ATOM    107  C   UNL A   1      28.493  30.248  22.249  1.00  0.00     0.010 A 
ATOM    108  C   UNL A   1      28.162  32.852  21.281  1.00  0.00     0.000 A 
ATOM    109  C   UNL A   1      27.933  30.464  20.986  1.00  0.00     0.010 A 
ATOM    110  C   UNL A   1      27.787  31.760  20.497  1.00  0.00     0.001 A 
ENDBRANCH  96  99
ENDBRANCH  94  95
ENDBRANCH  93  94
ENDBRANCH  85  88
ENDBRANCH  77  84
ENDBRANCH  74  77
ENDBRANCH   1  73
TORSDOF 19
ENDMDL
