MODEL 1
REMARK VINA RESULT:     -13.0      0.000      0.000
REMARK SMILES Cc1cccc(NS(=O)(=O)c2ccc(Br)c(C(=O)NCCCNC(=O)c3ccc(-c4c5nc(c(-c6cc(S(=O)(=O)[O-])ccc6F)c6ccc([nH]6)c(-c6cc(S(=O)(=O)[O-])ccc6F)c6nc(c(-c7cc(S(=O)(=O)[O-])ccc7F)c7ccc4[nH]7)C=C6)C=C5)cc3)c2)c1
REMARK SMILES IDX 21 1 20 2 19 3 17 4 18 5 16 7 11 8 12 9 89 10 13 11 14 12
REMARK SMILES IDX 15 13 8 14 9 15 10 16 7 17 6 19 1 20 2 21 3 22 90 23 4 24
REMARK SMILES IDX 5 25 22 26 23 27 24 28 25 30 26 31 27 32 88 33 28 34 87 35
REMARK SMILES IDX 29 36 30 37 31 38 81 39 32 40 86 41 80 42 82 43 33 44 85 45
REMARK SMILES IDX 79 46 78 47 34 49 66 50 46 51 65 52 47 53 50 54 64 55 83 56
REMARK SMILES IDX 48 57 49 58 63 60 84 61 51 62 35 63 36 64 44 65 37 66 43 67
REMARK SMILES IDX 45 68 42 69 38 70 39 71 40 72 41 73 67 74 68 75 76 76 69 77
REMARK SMILES IDX 75 78 77 79 74 80 70 81 71 82 72 83 73 84 52 85 53 86 61 87
REMARK SMILES IDX 54 88 60 89 62 90 59 91 55 92 56 93 57 94 58 95
REMARK H PARENT 19 6 7 18 23 29 82 48 50 59
REMARK Flexibility Score: inf
ROOT
ATOM      1  C   UNL A   1      32.798  30.987  27.185  1.00  0.00     0.042 C 
ENDROOT
BRANCH   1   2
ATOM      2  C   UNL A   1      32.154  30.286  26.004  1.00  0.00     0.118 C 
BRANCH   2   3
ATOM      3  N   UNL A   1      33.091  29.840  24.982  1.00  0.00    -0.352 N 
ATOM      4  C   UNL A   1      33.146  28.777  24.114  1.00  0.00     0.252 C 
ATOM      5  O   UNL A   1      34.060  28.764  23.287  1.00  0.00    -0.269 OA
ATOM      6  H   UNL A   1      33.865  30.441  24.892  1.00  0.00     0.163 HD
BRANCH   4   7
ATOM      7  C   UNL A   1      32.270  27.573  24.196  1.00  0.00     0.055 A 
ATOM      8  C   UNL A   1      32.136  25.191  24.659  1.00  0.00     0.088 A 
ATOM      9  C   UNL A   1      30.829  25.349  25.112  1.00  0.00     0.023 A 
ATOM     10  C   UNL A   1      32.898  26.320  24.329  1.00  0.00     0.037 A 
ATOM     11  C   UNL A   1      30.174  26.540  24.815  1.00  0.00     0.018 A 
ATOM     12  C   UNL A   1      30.878  27.577  24.194  1.00  0.00     0.030 A 
ATOM     13  Br  UNL A   1      29.935  28.362  22.703  1.00  0.00    -0.050 Br
BRANCH   8  14
ATOM     14  S   UNL A   1      32.785  23.558  24.428  1.00  0.00     0.261 S 
ATOM     15  O   UNL A   1      31.931  22.888  23.468  1.00  0.00    -0.201 OA
ATOM     16  O   UNL A   1      33.020  22.971  25.731  1.00  0.00    -0.201 OA
BRANCH  14  17
ATOM     17  N   UNL A   1      34.336  23.646  23.696  1.00  0.00    -0.280 N 
ATOM     18  H   UNL A   1      34.405  23.995  22.778  1.00  0.00     0.180 HD
BRANCH  17  19
ATOM     19  C   UNL A   1      35.540  23.232  24.366  1.00  0.00     0.049 A 
ATOM     20  C   UNL A   1      37.637  20.071  24.846  1.00  0.00     0.044 C 
ATOM     21  C   UNL A   1      37.159  21.493  24.922  1.00  0.00    -0.049 A 
ATOM     22  C   UNL A   1      37.864  22.411  25.707  1.00  0.00     0.003 A 
ATOM     23  C   UNL A   1      36.017  21.922  24.221  1.00  0.00     0.030 A 
ATOM     24  C   UNL A   1      37.366  23.699  25.890  1.00  0.00     0.002 A 
ATOM     25  C   UNL A   1      36.177  24.085  25.266  1.00  0.00     0.027 A 
ENDBRANCH  17  19
ENDBRANCH  14  17
ENDBRANCH   8  14
ENDBRANCH   4   7
ENDBRANCH   2   3
ENDBRANCH   1   2
BRANCH   1  26
ATOM     26  C   UNL A   1      34.225  30.503  27.405  1.00  0.00     0.118 C 
BRANCH  26  27
ATOM     27  N   UNL A   1      35.119  31.505  28.003  1.00  0.00    -0.352 N 
ATOM     28  C   UNL A   1      36.384  31.329  28.560  1.00  0.00     0.251 C 
ATOM     29  H   UNL A   1      34.777  32.428  28.011  1.00  0.00     0.163 HD
ATOM     30  O   UNL A   1      37.018  32.256  29.021  1.00  0.00    -0.269 OA
BRANCH  28  31
ATOM     31  C   UNL A   1      36.982  29.975  28.488  1.00  0.00     0.039 A 
ATOM     32  C   UNL A   1      37.068  29.233  29.671  1.00  0.00     0.014 A 
ATOM     33  C   UNL A   1      37.756  29.658  27.383  1.00  0.00     0.014 A 
ATOM     34  C   UNL A   1      38.141  28.363  29.837  1.00  0.00     0.010 A 
ATOM     35  C   UNL A   1      38.907  28.939  27.612  1.00  0.00     0.010 A 
ATOM     36  C   UNL A   1      39.129  28.334  28.859  1.00  0.00    -0.014 A 
BRANCH  36  37
ATOM     37  C   UNL A   1      40.477  27.813  29.069  1.00  0.00     0.031 A 
ATOM     38  C   UNL A   1      40.792  26.423  28.676  1.00  0.00     0.074 A 
ATOM     39  C   UNL A   1      41.474  28.640  29.462  1.00  0.00     0.049 A 
ATOM     40  N   UNL A   1      41.877  25.805  28.985  1.00  0.00    -0.248 NA
ATOM     41  C   UNL A   1      39.862  25.589  27.923  1.00  0.00     0.031 C 
ATOM     42  C   UNL A   1      42.914  28.409  29.351  1.00  0.00     0.029 A 
ATOM     43  N   UNL A   1      41.368  29.759  30.288  1.00  0.00    -0.354 N 
ATOM     44  C   UNL A   1      41.932  24.647  28.247  1.00  0.00     0.074 A 
ATOM     45  C   UNL A   1      40.627  24.532  27.648  1.00  0.00     0.031 C 
ATOM     46  C   UNL A   1      43.546  29.156  30.269  1.00  0.00     0.029 A 
ATOM     47  C   UNL A   1      42.527  29.767  31.098  1.00  0.00     0.049 A 
ATOM     48  H   UNL A   1      40.632  30.413  30.305  1.00  0.00     0.167 HD
ATOM     49  C   UNL A   1      43.125  23.995  28.146  1.00  0.00     0.034 A 
ATOM     50  C   UNL A   1      42.434  29.638  32.454  1.00  0.00     0.034 A 
ATOM     51  C   UNL A   1      44.124  24.568  29.056  1.00  0.00     0.049 A 
ATOM     52  C   UNL A   1      43.132  28.412  33.017  1.00  0.00     0.074 A 
ATOM     53  C   UNL A   1      45.244  25.372  28.911  1.00  0.00     0.029 A 
ATOM     54  N   UNL A   1      43.861  24.536  30.416  1.00  0.00    -0.354 N 
ATOM     55  N   UNL A   1      43.697  27.481  32.294  1.00  0.00    -0.248 NA
ATOM     56  C   UNL A   1      43.179  28.099  34.444  1.00  0.00     0.031 C 
ATOM     57  C   UNL A   1      45.647  25.812  30.208  1.00  0.00     0.029 A 
ATOM     58  C   UNL A   1      44.787  25.258  31.139  1.00  0.00     0.049 A 
ATOM     59  H   UNL A   1      43.103  24.053  30.819  1.00  0.00     0.167 HD
ATOM     60  C   UNL A   1      44.110  26.447  33.101  1.00  0.00     0.074 A 
ATOM     61  C   UNL A   1      43.760  26.886  34.441  1.00  0.00     0.031 C 
ATOM     62  C   UNL A   1      44.661  25.300  32.591  1.00  0.00     0.034 A 
BRANCH  49  63
ATOM     63  C   UNL A   1      43.464  22.987  27.066  1.00  0.00     0.023 A 
ATOM     64  C   UNL A   1      42.830  21.726  27.096  1.00  0.00     0.031 A 
ATOM     65  C   UNL A   1      44.412  23.149  26.037  1.00  0.00     0.131 A 
ATOM     66  C   UNL A   1      43.209  20.688  26.224  1.00  0.00     0.055 A 
ATOM     67  C   UNL A   1      44.829  22.102  25.203  1.00  0.00     0.041 A 
ATOM     68  F   UNL A   1      44.943  24.337  25.735  1.00  0.00    -0.206 F 
ATOM     69  C   UNL A   1      44.235  20.857  25.301  1.00  0.00     0.022 A 
BRANCH  66  70
ATOM     70  S   UNL A   1      42.336  19.102  26.311  1.00  0.00     0.124 S 
ATOM     71  O   UNL A   1      41.020  19.447  25.784  1.00  0.00    -0.237 OA
ATOM     72  O   UNL A   1      43.167  18.247  25.471  1.00  0.00    -0.237 OA
ATOM     73  O   UNL A   1      42.365  18.779  27.737  1.00  0.00    -0.744 OA
ENDBRANCH  66  70
ENDBRANCH  49  63
BRANCH  50  74
ATOM     74  C   UNL A   1      41.196  30.279  32.994  1.00  0.00     0.023 A 
ATOM     75  C   UNL A   1      41.181  31.692  33.043  1.00  0.00     0.031 A 
ATOM     76  C   UNL A   1      39.965  29.611  33.021  1.00  0.00     0.131 A 
ATOM     77  C   UNL A   1      39.971  32.388  32.922  1.00  0.00     0.055 A 
ATOM     78  C   UNL A   1      38.754  30.316  32.990  1.00  0.00     0.041 A 
ATOM     79  F   UNL A   1      39.910  28.274  32.933  1.00  0.00    -0.206 F 
ATOM     80  C   UNL A   1      38.754  31.709  32.890  1.00  0.00     0.022 A 
BRANCH  77  81
ATOM     81  S   UNL A   1      40.048  34.159  32.512  1.00  0.00     0.124 S 
ATOM     82  O   UNL A   1      39.179  34.238  31.344  1.00  0.00    -0.237 OA
ATOM     83  O   UNL A   1      39.542  34.781  33.735  1.00  0.00    -0.237 OA
ATOM     84  O   UNL A   1      41.467  34.393  32.257  1.00  0.00    -0.744 OA
ENDBRANCH  77  81
ENDBRANCH  50  74
BRANCH  62  85
ATOM     85  C   UNL A   1      45.091  24.086  33.401  1.00  0.00     0.023 A 
ATOM     86  C   UNL A   1      46.413  23.866  33.815  1.00  0.00     0.031 A 
ATOM     87  C   UNL A   1      44.172  23.057  33.739  1.00  0.00     0.131 A 
ATOM     88  C   UNL A   1      46.754  22.743  34.598  1.00  0.00     0.055 A 
ATOM     89  C   UNL A   1      44.526  21.912  34.457  1.00  0.00     0.041 A 
ATOM     90  F   UNL A   1      42.874  23.122  33.417  1.00  0.00    -0.206 F 
ATOM     91  C   UNL A   1      45.821  21.756  34.909  1.00  0.00     0.022 A 
BRANCH  88  92
ATOM     92  S   UNL A   1      48.439  22.617  35.250  1.00  0.00     0.124 S 
ATOM     93  O   UNL A   1      48.998  21.518  34.472  1.00  0.00    -0.237 OA
ATOM     94  O   UNL A   1      48.974  23.943  34.948  1.00  0.00    -0.237 OA
ATOM     95  O   UNL A   1      48.242  22.338  36.671  1.00  0.00    -0.744 OA
ENDBRANCH  88  92
ENDBRANCH  62  85
ENDBRANCH  36  37
ENDBRANCH  28  31
ENDBRANCH  26  27
ENDBRANCH   1  26
TORSDOF 16
ENDMDL
MODEL 2
REMARK VINA RESULT:     -12.8      4.118     10.574
REMARK SMILES Cc1cccc(NS(=O)(=O)c2ccc(Br)c(C(=O)NCCCNC(=O)c3ccc(-c4c5nc(c(-c6cc(S(=O)(=O)[O-])ccc6F)c6ccc([nH]6)c(-c6cc(S(=O)(=O)[O-])ccc6F)c6nc(c(-c7cc(S(=O)(=O)[O-])ccc7F)c7ccc4[nH]7)C=C6)C=C5)cc3)c2)c1
REMARK SMILES IDX 21 1 20 2 19 3 17 4 18 5 16 7 11 8 12 9 89 10 13 11 14 12
REMARK SMILES IDX 15 13 8 14 9 15 10 16 7 17 6 19 1 20 2 21 3 22 90 23 4 24
REMARK SMILES IDX 5 25 22 26 23 27 24 28 25 30 26 31 27 32 88 33 28 34 87 35
REMARK SMILES IDX 29 36 30 37 31 38 81 39 32 40 86 41 80 42 82 43 33 44 85 45
REMARK SMILES IDX 79 46 78 47 34 49 66 50 46 51 65 52 47 53 50 54 64 55 83 56
REMARK SMILES IDX 48 57 49 58 63 60 84 61 51 62 35 63 36 64 44 65 37 66 43 67
REMARK SMILES IDX 45 68 42 69 38 70 39 71 40 72 41 73 67 74 68 75 76 76 69 77
REMARK SMILES IDX 75 78 77 79 74 80 70 81 71 82 72 83 73 84 52 85 53 86 61 87
REMARK SMILES IDX 54 88 60 89 62 90 59 91 55 92 56 93 57 94 58 95
REMARK H PARENT 19 6 7 18 23 29 82 48 50 59
REMARK Flexibility Score: inf
ROOT
ATOM      1  C   UNL A   1      38.268  21.442  25.376  1.00  0.00     0.042 C 
ENDROOT
BRANCH   1   2
ATOM      2  C   UNL A   1      36.768  21.213  25.367  1.00  0.00     0.118 C 
BRANCH   2   3
ATOM      3  N   UNL A   1      36.024  22.048  26.300  1.00  0.00    -0.352 N 
ATOM      4  C   UNL A   1      34.858  22.771  26.237  1.00  0.00     0.252 C 
ATOM      5  O   UNL A   1      34.454  23.293  27.278  1.00  0.00    -0.269 OA
ATOM      6  H   UNL A   1      36.457  22.108  27.182  1.00  0.00     0.163 HD
BRANCH   4   7
ATOM      7  C   UNL A   1      34.128  23.089  24.975  1.00  0.00     0.055 A 
ATOM      8  C   UNL A   1      33.654  24.756  23.273  1.00  0.00     0.088 A 
ATOM      9  C   UNL A   1      33.492  23.749  22.326  1.00  0.00     0.023 A 
ATOM     10  C   UNL A   1      34.101  24.434  24.561  1.00  0.00     0.037 A 
ATOM     11  C   UNL A   1      33.351  22.442  22.780  1.00  0.00     0.018 A 
ATOM     12  C   UNL A   1      33.501  22.166  24.144  1.00  0.00     0.030 A 
ATOM     13  Br  UNL A   1      32.106  21.040  24.858  1.00  0.00    -0.050 Br
BRANCH   8  14
ATOM     14  S   UNL A   1      33.207  26.421  22.857  1.00  0.00     0.261 S 
ATOM     15  O   UNL A   1      31.771  26.532  23.013  1.00  0.00    -0.201 OA
ATOM     16  O   UNL A   1      33.833  26.760  21.596  1.00  0.00    -0.201 OA
BRANCH  14  17
ATOM     17  N   UNL A   1      33.890  27.509  23.997  1.00  0.00    -0.280 N 
ATOM     18  H   UNL A   1      34.827  27.786  23.882  1.00  0.00     0.180 HD
BRANCH  17  19
ATOM     19  C   UNL A   1      33.149  28.037  25.112  1.00  0.00     0.049 A 
ATOM     20  C   UNL A   1      31.468  31.301  26.178  1.00  0.00     0.044 C 
ATOM     21  C   UNL A   1      31.957  29.881  26.176  1.00  0.00    -0.049 A 
ATOM     22  C   UNL A   1      31.741  29.081  27.302  1.00  0.00     0.003 A 
ATOM     23  C   UNL A   1      32.630  29.338  25.067  1.00  0.00     0.030 A 
ATOM     24  C   UNL A   1      32.295  27.805  27.368  1.00  0.00     0.002 A 
ATOM     25  C   UNL A   1      33.045  27.311  26.298  1.00  0.00     0.027 A 
ENDBRANCH  17  19
ENDBRANCH  14  17
ENDBRANCH   8  14
ENDBRANCH   4   7
ENDBRANCH   2   3
ENDBRANCH   1   2
BRANCH   1  26
ATOM     26  C   UNL A   1      38.626  22.735  26.097  1.00  0.00     0.118 C 
BRANCH  26  27
ATOM     27  N   UNL A   1      39.938  22.715  26.760  1.00  0.00    -0.352 N 
ATOM     28  C   UNL A   1      40.643  23.770  27.336  1.00  0.00     0.251 C 
ATOM     29  H   UNL A   1      40.379  21.836  26.802  1.00  0.00     0.163 HD
ATOM     30  O   UNL A   1      41.728  23.608  27.856  1.00  0.00    -0.269 OA
BRANCH  28  31
ATOM     31  C   UNL A   1      39.981  25.095  27.380  1.00  0.00     0.039 A 
ATOM     32  C   UNL A   1      40.480  26.104  26.549  1.00  0.00     0.014 A 
ATOM     33  C   UNL A   1      39.182  25.393  28.473  1.00  0.00     0.014 A 
ATOM     34  C   UNL A   1      40.417  27.423  26.988  1.00  0.00     0.010 A 
ATOM     35  C   UNL A   1      39.278  26.665  28.988  1.00  0.00     0.010 A 
ATOM     36  C   UNL A   1      39.944  27.672  28.272  1.00  0.00    -0.014 A 
BRANCH  36  37
ATOM     37  C   UNL A   1      40.197  28.903  29.016  1.00  0.00     0.031 A 
ATOM     38  C   UNL A   1      39.174  29.970  29.032  1.00  0.00     0.074 A 
ATOM     39  C   UNL A   1      41.282  29.004  29.819  1.00  0.00     0.049 A 
ATOM     40  N   UNL A   1      39.364  31.157  29.488  1.00  0.00    -0.248 NA
ATOM     41  C   UNL A   1      37.837  29.785  28.480  1.00  0.00     0.031 C 
ATOM     42  C   UNL A   1      41.496  29.959  30.906  1.00  0.00     0.029 A 
ATOM     43  N   UNL A   1      42.531  28.411  29.632  1.00  0.00    -0.354 N 
ATOM     44  C   UNL A   1      38.142  31.781  29.575  1.00  0.00     0.074 A 
ATOM     45  C   UNL A   1      37.234  30.905  28.879  1.00  0.00     0.031 C 
ATOM     46  C   UNL A   1      42.814  30.096  31.111  1.00  0.00     0.029 A 
ATOM     47  C   UNL A   1      43.489  29.358  30.063  1.00  0.00     0.049 A 
ATOM     48  H   UNL A   1      42.710  27.513  29.270  1.00  0.00     0.167 HD
ATOM     49  C   UNL A   1      38.039  32.909  30.333  1.00  0.00     0.034 A 
ATOM     50  C   UNL A   1      44.396  29.883  29.188  1.00  0.00     0.034 A 
ATOM     51  C   UNL A   1      39.359  33.382  30.767  1.00  0.00     0.049 A 
ATOM     52  C   UNL A   1      44.298  31.388  29.012  1.00  0.00     0.074 A 
ATOM     53  C   UNL A   1      40.065  33.378  31.959  1.00  0.00     0.029 A 
ATOM     54  N   UNL A   1      40.276  33.741  29.791  1.00  0.00    -0.354 N 
ATOM     55  N   UNL A   1      43.377  32.141  29.552  1.00  0.00    -0.248 NA
ATOM     56  C   UNL A   1      45.192  32.155  28.146  1.00  0.00     0.031 C 
ATOM     57  C   UNL A   1      41.416  33.746  31.678  1.00  0.00     0.029 A 
ATOM     58  C   UNL A   1      41.523  33.995  30.322  1.00  0.00     0.049 A 
ATOM     59  H   UNL A   1      40.062  33.807  28.832  1.00  0.00     0.167 HD
ATOM     60  C   UNL A   1      43.489  33.429  29.083  1.00  0.00     0.074 A 
ATOM     61  C   UNL A   1      44.644  33.383  28.203  1.00  0.00     0.031 C 
ATOM     62  C   UNL A   1      42.593  34.409  29.423  1.00  0.00     0.034 A 
BRANCH  49  63
ATOM     63  C   UNL A   1      36.737  33.463  30.876  1.00  0.00     0.023 A 
ATOM     64  C   UNL A   1      35.824  34.049  29.974  1.00  0.00     0.031 A 
ATOM     65  C   UNL A   1      36.348  33.512  32.229  1.00  0.00     0.131 A 
ATOM     66  C   UNL A   1      34.671  34.722  30.422  1.00  0.00     0.055 A 
ATOM     67  C   UNL A   1      35.230  34.226  32.683  1.00  0.00     0.041 A 
ATOM     68  F   UNL A   1      36.984  32.824  33.182  1.00  0.00    -0.206 F 
ATOM     69  C   UNL A   1      34.389  34.848  31.778  1.00  0.00     0.022 A 
BRANCH  66  70
ATOM     70  S   UNL A   1      33.536  35.434  29.202  1.00  0.00     0.124 S 
ATOM     71  O   UNL A   1      32.614  34.330  28.959  1.00  0.00    -0.237 OA
ATOM     72  O   UNL A   1      32.996  36.584  29.918  1.00  0.00    -0.237 OA
ATOM     73  O   UNL A   1      34.412  35.764  28.079  1.00  0.00    -0.744 OA
ENDBRANCH  66  70
ENDBRANCH  49  63
BRANCH  50  74
ATOM     74  C   UNL A   1      44.807  28.894  28.146  1.00  0.00     0.023 A 
ATOM     75  C   UNL A   1      45.641  27.834  28.569  1.00  0.00     0.031 A 
ATOM     76  C   UNL A   1      44.084  28.723  26.958  1.00  0.00     0.131 A 
ATOM     77  C   UNL A   1      45.583  26.591  27.923  1.00  0.00     0.055 A 
ATOM     78  C   UNL A   1      44.100  27.504  26.266  1.00  0.00     0.041 A 
ATOM     79  F   UNL A   1      43.242  29.674  26.527  1.00  0.00    -0.206 F 
ATOM     80  C   UNL A   1      44.812  26.416  26.775  1.00  0.00     0.022 A 
BRANCH  77  81
ATOM     81  S   UNL A   1      46.295  25.154  28.782  1.00  0.00     0.124 S 
ATOM     82  O   UNL A   1      47.543  25.698  29.303  1.00  0.00    -0.237 OA
ATOM     83  O   UNL A   1      45.264  24.845  29.772  1.00  0.00    -0.237 OA
ATOM     84  O   UNL A   1      46.437  24.156  27.724  1.00  0.00    -0.744 OA
ENDBRANCH  77  81
ENDBRANCH  50  74
BRANCH  62  85
ATOM     85  C   UNL A   1      42.607  35.841  28.907  1.00  0.00     0.023 A 
ATOM     86  C   UNL A   1      43.177  36.910  29.615  1.00  0.00     0.031 A 
ATOM     87  C   UNL A   1      41.977  36.194  27.684  1.00  0.00     0.131 A 
ATOM     88  C   UNL A   1      43.198  38.213  29.076  1.00  0.00     0.055 A 
ATOM     89  C   UNL A   1      41.939  37.498  27.184  1.00  0.00     0.041 A 
ATOM     90  F   UNL A   1      41.390  35.287  26.893  1.00  0.00    -0.206 F 
ATOM     91  C   UNL A   1      42.568  38.517  27.871  1.00  0.00     0.022 A 
BRANCH  88  92
ATOM     92  S   UNL A   1      44.109  39.504  29.960  1.00  0.00     0.124 S 
ATOM     93  O   UNL A   1      45.046  38.733  30.769  1.00  0.00    -0.237 OA
ATOM     94  O   UNL A   1      44.698  40.261  28.857  1.00  0.00    -0.237 OA
ATOM     95  O   UNL A   1      43.072  40.210  30.710  1.00  0.00    -0.744 OA
ENDBRANCH  88  92
ENDBRANCH  62  85
ENDBRANCH  36  37
ENDBRANCH  28  31
ENDBRANCH  26  27
ENDBRANCH   1  26
TORSDOF 16
ENDMDL
MODEL 3
REMARK VINA RESULT:     -12.3      2.274      2.592
REMARK SMILES Cc1cccc(NS(=O)(=O)c2ccc(Br)c(C(=O)NCCCNC(=O)c3ccc(-c4c5nc(c(-c6cc(S(=O)(=O)[O-])ccc6F)c6ccc([nH]6)c(-c6cc(S(=O)(=O)[O-])ccc6F)c6nc(c(-c7cc(S(=O)(=O)[O-])ccc7F)c7ccc4[nH]7)C=C6)C=C5)cc3)c2)c1
REMARK SMILES IDX 21 1 20 2 19 3 17 4 18 5 16 7 11 8 12 9 89 10 13 11 14 12
REMARK SMILES IDX 15 13 8 14 9 15 10 16 7 17 6 19 1 20 2 21 3 22 90 23 4 24
REMARK SMILES IDX 5 25 22 26 23 27 24 28 25 30 26 31 27 32 88 33 28 34 87 35
REMARK SMILES IDX 29 36 30 37 31 38 81 39 32 40 86 41 80 42 82 43 33 44 85 45
REMARK SMILES IDX 79 46 78 47 34 49 66 50 46 51 65 52 47 53 50 54 64 55 83 56
REMARK SMILES IDX 48 57 49 58 63 60 84 61 51 62 35 63 36 64 44 65 37 66 43 67
REMARK SMILES IDX 45 68 42 69 38 70 39 71 40 72 41 73 67 74 68 75 76 76 69 77
REMARK SMILES IDX 75 78 77 79 74 80 70 81 71 82 72 83 73 84 52 85 53 86 61 87
REMARK SMILES IDX 54 88 60 89 62 90 59 91 55 92 56 93 57 94 58 95
REMARK H PARENT 19 6 7 18 23 29 82 48 50 59
REMARK Flexibility Score: inf
ROOT
ATOM      1  C   UNL A   1      32.121  30.131  26.939  1.00  0.00     0.042 C 
ENDROOT
BRANCH   1   2
ATOM      2  C   UNL A   1      31.806  30.168  25.456  1.00  0.00     0.118 C 
BRANCH   2   3
ATOM      3  N   UNL A   1      32.899  29.737  24.596  1.00  0.00    -0.352 N 
ATOM      4  C   UNL A   1      33.125  28.653  23.784  1.00  0.00     0.252 C 
ATOM      5  O   UNL A   1      34.148  28.658  23.097  1.00  0.00    -0.269 OA
ATOM      6  H   UNL A   1      33.652  30.371  24.596  1.00  0.00     0.163 HD
BRANCH   4   7
ATOM      7  C   UNL A   1      32.298  27.411  23.783  1.00  0.00     0.055 A 
ATOM      8  C   UNL A   1      32.287  24.983  23.887  1.00  0.00     0.088 A 
ATOM      9  C   UNL A   1      31.042  25.012  24.509  1.00  0.00     0.023 A 
ATOM     10  C   UNL A   1      32.971  26.182  23.646  1.00  0.00     0.037 A 
ATOM     11  C   UNL A   1      30.324  26.203  24.479  1.00  0.00     0.018 A 
ATOM     12  C   UNL A   1      30.918  27.352  23.945  1.00  0.00     0.030 A 
ATOM     13  Br  UNL A   1      29.776  28.307  22.716  1.00  0.00    -0.050 Br
BRANCH   8  14
ATOM     14  S   UNL A   1      32.946  23.434  23.332  1.00  0.00     0.261 S 
ATOM     15  O   UNL A   1      34.059  23.731  22.453  1.00  0.00    -0.201 OA
ATOM     16  O   UNL A   1      31.849  22.610  22.869  1.00  0.00    -0.201 OA
BRANCH  14  17
ATOM     17  N   UNL A   1      33.615  22.576  24.661  1.00  0.00    -0.280 N 
ATOM     18  H   UNL A   1      33.003  22.112  25.278  1.00  0.00     0.180 HD
BRANCH  17  19
ATOM     19  C   UNL A   1      35.029  22.504  24.912  1.00  0.00     0.049 A 
ATOM     20  C   UNL A   1      37.842  19.914  24.872  1.00  0.00     0.044 C 
ATOM     21  C   UNL A   1      37.097  21.211  25.007  1.00  0.00    -0.049 A 
ATOM     22  C   UNL A   1      37.781  22.352  25.440  1.00  0.00     0.003 A 
ATOM     23  C   UNL A   1      35.726  21.306  24.706  1.00  0.00     0.030 A 
ATOM     24  C   UNL A   1      37.083  23.531  25.690  1.00  0.00     0.002 A 
ATOM     25  C   UNL A   1      35.703  23.585  25.480  1.00  0.00     0.027 A 
ENDBRANCH  17  19
ENDBRANCH  14  17
ENDBRANCH   8  14
ENDBRANCH   4   7
ENDBRANCH   2   3
ENDBRANCH   1   2
BRANCH   1  26
ATOM     26  C   UNL A   1      33.613  29.957  27.185  1.00  0.00     0.118 C 
BRANCH  26  27
ATOM     27  N   UNL A   1      34.313  31.191  27.570  1.00  0.00    -0.352 N 
ATOM     28  C   UNL A   1      35.608  31.347  28.060  1.00  0.00     0.251 C 
ATOM     29  H   UNL A   1      33.795  32.022  27.466  1.00  0.00     0.163 HD
ATOM     30  O   UNL A   1      36.062  32.439  28.338  1.00  0.00    -0.269 OA
BRANCH  28  31
ATOM     31  C   UNL A   1      36.459  30.138  28.146  1.00  0.00     0.039 A 
ATOM     32  C   UNL A   1      36.467  29.426  29.350  1.00  0.00     0.014 A 
ATOM     33  C   UNL A   1      37.470  29.980  27.211  1.00  0.00     0.014 A 
ATOM     34  C   UNL A   1      37.638  28.784  29.739  1.00  0.00     0.010 A 
ATOM     35  C   UNL A   1      38.676  29.502  27.671  1.00  0.00     0.010 A 
ATOM     36  C   UNL A   1      38.777  28.951  28.958  1.00  0.00    -0.014 A 
BRANCH  36  37
ATOM     37  C   UNL A   1      40.138  28.705  29.427  1.00  0.00     0.031 A 
ATOM     38  C   UNL A   1      40.823  27.449  29.053  1.00  0.00     0.074 A 
ATOM     39  C   UNL A   1      40.829  29.684  30.056  1.00  0.00     0.049 A 
ATOM     40  N   UNL A   1      41.934  27.046  29.560  1.00  0.00    -0.248 NA
ATOM     41  C   UNL A   1      40.268  26.508  28.088  1.00  0.00     0.031 C 
ATOM     42  C   UNL A   1      42.277  29.767  30.243  1.00  0.00     0.029 A 
ATOM     43  N   UNL A   1      40.317  30.682  30.885  1.00  0.00    -0.354 N 
ATOM     44  C   UNL A   1      42.389  25.992  28.804  1.00  0.00     0.074 A 
ATOM     45  C   UNL A   1      41.286  25.660  27.938  1.00  0.00     0.031 C 
ATOM     46  C   UNL A   1      42.534  30.548  31.303  1.00  0.00     0.029 A 
ATOM     47  C   UNL A   1      41.263  30.861  31.922  1.00  0.00     0.049 A 
ATOM     48  H   UNL A   1      39.467  31.165  30.773  1.00  0.00     0.167 HD
ATOM     49  C   UNL A   1      43.692  25.613  28.931  1.00  0.00     0.034 A 
ATOM     50  C   UNL A   1      40.933  30.600  33.221  1.00  0.00     0.034 A 
ATOM     51  C   UNL A   1      44.339  26.301  30.055  1.00  0.00     0.049 A 
ATOM     52  C   UNL A   1      41.759  29.502  33.869  1.00  0.00     0.074 A 
ATOM     53  C   UNL A   1      45.260  27.328  30.183  1.00  0.00     0.029 A 
ATOM     54  N   UNL A   1      43.826  26.098  31.326  1.00  0.00    -0.354 N 
ATOM     55  N   UNL A   1      42.647  28.774  33.245  1.00  0.00    -0.248 NA
ATOM     56  C   UNL A   1      41.592  29.085  35.259  1.00  0.00     0.031 C 
ATOM     57  C   UNL A   1      45.291  27.730  31.552  1.00  0.00     0.029 A 
ATOM     58  C   UNL A   1      44.408  26.932  32.257  1.00  0.00     0.049 A 
ATOM     59  H   UNL A   1      43.129  25.436  31.539  1.00  0.00     0.167 HD
ATOM     60  C   UNL A   1      43.111  27.783  34.078  1.00  0.00     0.074 A 
ATOM     61  C   UNL A   1      42.415  28.023  35.331  1.00  0.00     0.031 C 
ATOM     62  C   UNL A   1      43.991  26.823  33.650  1.00  0.00     0.034 A 
BRANCH  49  63
ATOM     63  C   UNL A   1      44.452  24.793  27.908  1.00  0.00     0.023 A 
ATOM     64  C   UNL A   1      45.355  25.454  27.048  1.00  0.00     0.031 A 
ATOM     65  C   UNL A   1      44.312  23.411  27.672  1.00  0.00     0.131 A 
ATOM     66  C   UNL A   1      45.976  24.788  25.975  1.00  0.00     0.055 A 
ATOM     67  C   UNL A   1      44.887  22.757  26.573  1.00  0.00     0.041 A 
ATOM     68  F   UNL A   1      43.670  22.602  28.519  1.00  0.00    -0.206 F 
ATOM     69  C   UNL A   1      45.715  23.448  25.708  1.00  0.00     0.022 A 
BRANCH  66  70
ATOM     70  S   UNL A   1      47.137  25.700  24.925  1.00  0.00     0.124 S 
ATOM     71  O   UNL A   1      48.197  26.044  25.867  1.00  0.00    -0.237 OA
ATOM     72  O   UNL A   1      47.472  24.713  23.905  1.00  0.00    -0.237 OA
ATOM     73  O   UNL A   1      46.344  26.832  24.449  1.00  0.00    -0.744 OA
ENDBRANCH  66  70
ENDBRANCH  49  63
BRANCH  50  74
ATOM     74  C   UNL A   1      39.504  30.922  33.512  1.00  0.00     0.023 A 
ATOM     75  C   UNL A   1      39.174  32.289  33.647  1.00  0.00     0.031 A 
ATOM     76  C   UNL A   1      38.467  30.025  33.223  1.00  0.00     0.131 A 
ATOM     77  C   UNL A   1      37.893  32.743  33.304  1.00  0.00     0.055 A 
ATOM     78  C   UNL A   1      37.164  30.476  32.968  1.00  0.00     0.041 A 
ATOM     79  F   UNL A   1      38.721  28.720  33.040  1.00  0.00    -0.206 F 
ATOM     80  C   UNL A   1      36.884  31.844  32.959  1.00  0.00     0.022 A 
BRANCH  77  81
ATOM     81  S   UNL A   1      37.667  34.527  33.035  1.00  0.00     0.124 S 
ATOM     82  O   UNL A   1      36.214  34.644  32.973  1.00  0.00    -0.237 OA
ATOM     83  O   UNL A   1      38.308  35.101  34.217  1.00  0.00    -0.237 OA
ATOM     84  O   UNL A   1      38.372  34.779  31.781  1.00  0.00    -0.744 OA
ENDBRANCH  77  81
ENDBRANCH  50  74
BRANCH  62  85
ATOM     85  C   UNL A   1      44.509  25.660  34.483  1.00  0.00     0.023 A 
ATOM     86  C   UNL A   1      45.855  25.518  34.855  1.00  0.00     0.031 A 
ATOM     87  C   UNL A   1      43.655  24.599  34.888  1.00  0.00     0.131 A 
ATOM     88  C   UNL A   1      46.278  24.441  35.661  1.00  0.00     0.055 A 
ATOM     89  C   UNL A   1      44.091  23.498  35.628  1.00  0.00     0.041 A 
ATOM     90  F   UNL A   1      42.345  24.590  34.611  1.00  0.00    -0.206 F 
ATOM     91  C   UNL A   1      45.408  23.421  36.038  1.00  0.00     0.022 A 
BRANCH  88  92
ATOM     92  S   UNL A   1      47.989  24.421  36.254  1.00  0.00     0.124 S 
ATOM     93  O   UNL A   1      48.718  23.900  35.102  1.00  0.00    -0.237 OA
ATOM     94  O   UNL A   1      48.215  25.831  36.562  1.00  0.00    -0.237 OA
ATOM     95  O   UNL A   1      47.944  23.533  37.415  1.00  0.00    -0.744 OA
ENDBRANCH  88  92
ENDBRANCH  62  85
ENDBRANCH  36  37
ENDBRANCH  28  31
ENDBRANCH  26  27
ENDBRANCH   1  26
TORSDOF 16
ENDMDL
