MODEL 1
REMARK VINA RESULT:     -11.3      0.000      0.000
REMARK SMILES CCC[NH+]1CCN(c2ccc(C(=O)NCCCNC(=O)c3ccc(-c4c5nc(c(-c6cc(S(=O)(=O)[O-])ccc6F)c6ccc([nH]6)c(-c6cc(S(=O)(=O)[O-])ccc6F)c6nc(c(-c7cc(S(=O)(=O)[O-])ccc7F)c7ccc4[nH]7)C=C6)C=C5)cc3)cc2NS(=O)(=O)CC)CC1
REMARK SMILES IDX 16 1 15 2 14 3 12 4 13 5 11 7 8 8 9 9 85 10 10 11 84 12 7 13
REMARK SMILES IDX 4 14 5 15 93 16 6 18 92 19 3 20 2 21 1 22 86 23 87 25 88 26
REMARK SMILES IDX 89 27 90 28 91 29 17 30 18 31 19 32 20 34 21 35 22 36 83 37
REMARK SMILES IDX 23 38 82 39 24 40 25 41 26 42 76 43 27 44 81 45 75 46 77 47
REMARK SMILES IDX 28 48 80 49 74 50 73 51 29 53 61 54 41 55 60 56 42 57 45 58
REMARK SMILES IDX 59 59 78 60 43 61 44 62 58 64 79 65 46 66 30 67 31 68 39 69
REMARK SMILES IDX 32 70 38 71 40 72 37 73 33 74 34 75 35 76 36 77 62 78 63 79
REMARK SMILES IDX 71 80 64 81 70 82 72 83 69 84 65 85 66 86 67 87 68 88 47 89
REMARK SMILES IDX 48 90 56 91 49 92 55 93 57 94 54 95 50 96 51 97 52 98 53 99
REMARK H PARENT 14 6 4 17 86 24 18 33 77 52 45 63
REMARK Flexibility Score: inf
ROOT
ATOM      1  C   UNL A   1      35.269  23.186  26.510  1.00  0.00     0.042 C 
ENDROOT
BRANCH   1   2
ATOM      2  C   UNL A   1      34.000  23.171  25.668  1.00  0.00     0.118 C 
BRANCH   2   3
ATOM      3  N   UNL A   1      34.246  23.018  24.248  1.00  0.00    -0.352 N 
ATOM      4  C   UNL A   1      33.980  23.764  23.128  1.00  0.00     0.251 C 
ATOM      5  O   UNL A   1      34.445  23.331  22.068  1.00  0.00    -0.269 OA
ATOM      6  H   UNL A   1      34.713  22.177  24.036  1.00  0.00     0.163 HD
BRANCH   4   7
ATOM      7  C   UNL A   1      33.130  24.993  23.075  1.00  0.00     0.042 A 
ATOM      8  C   UNL A   1      31.255  27.131  23.046  1.00  0.00     0.062 A 
ATOM      9  C   UNL A   1      30.916  25.888  22.520  1.00  0.00     0.029 A 
ATOM     10  C   UNL A   1      32.531  27.261  23.638  1.00  0.00     0.073 A 
ATOM     11  C   UNL A   1      31.826  24.825  22.571  1.00  0.00     0.016 A 
ATOM     12  C   UNL A   1      33.493  26.261  23.520  1.00  0.00     0.042 A 
BRANCH   8  13
ATOM     13  N   UNL A   1      30.377  28.200  23.041  1.00  0.00    -0.359 N 
ATOM     14  N   UNL A   1      28.219  29.992  22.251  1.00  0.00    -0.332 N 
ATOM     15  C   UNL A   1      29.558  30.013  21.619  1.00  0.00     0.283 C 
ATOM     16  C   UNL A   1      27.951  28.662  22.842  1.00  0.00     0.283 C 
ATOM     17  H   UNL A   1      27.532  30.163  21.517  1.00  0.00     0.348 HD
ATOM     18  C   UNL A   1      30.726  29.513  22.509  1.00  0.00     0.178 C 
ATOM     19  C   UNL A   1      29.084  28.111  23.742  1.00  0.00     0.178 C 
BRANCH  14  20
ATOM     20  C   UNL A   1      28.034  31.071  23.225  1.00  0.00     0.262 C 
BRANCH  20  21
ATOM     21  C   UNL A   1      28.070  32.424  22.508  1.00  0.00     0.058 C 
ATOM     22  C   UNL A   1      29.074  33.402  23.104  1.00  0.00     0.010 C 
ENDBRANCH  20  21
ENDBRANCH  14  20
ENDBRANCH   8  13
BRANCH  10  23
ATOM     23  N   UNL A   1      32.655  28.347  24.554  1.00  0.00    -0.281 N 
ATOM     24  H   UNL A   1      32.803  29.225  24.135  1.00  0.00     0.180 HD
BRANCH  23  25
ATOM     25  S   UNL A   1      32.590  28.368  26.191  1.00  0.00     0.232 S 
ATOM     26  O   UNL A   1      31.359  27.727  26.610  1.00  0.00    -0.207 OA
ATOM     27  O   UNL A   1      33.874  27.852  26.613  1.00  0.00    -0.207 OA
BRANCH  25  28
ATOM     28  C   UNL A   1      32.530  30.092  26.676  1.00  0.00     0.156 C 
ATOM     29  C   UNL A   1      31.445  30.926  26.024  1.00  0.00     0.023 C 
ENDBRANCH  25  28
ENDBRANCH  23  25
ENDBRANCH  10  23
ENDBRANCH   4   7
ENDBRANCH   2   3
ENDBRANCH   1   2
BRANCH   1  30
ATOM     30  C   UNL A   1      36.525  23.401  25.679  1.00  0.00     0.118 C 
BRANCH  30  31
ATOM     31  N   UNL A   1      37.574  22.440  26.014  1.00  0.00    -0.352 N 
ATOM     32  C   UNL A   1      38.869  22.608  26.442  1.00  0.00     0.251 C 
ATOM     33  H   UNL A   1      37.303  21.498  25.916  1.00  0.00     0.163 HD
ATOM     34  O   UNL A   1      39.622  21.636  26.426  1.00  0.00    -0.269 OA
BRANCH  32  35
ATOM     35  C   UNL A   1      39.366  23.926  26.896  1.00  0.00     0.039 A 
ATOM     36  C   UNL A   1      39.955  24.788  25.966  1.00  0.00     0.014 A 
ATOM     37  C   UNL A   1      39.300  24.304  28.237  1.00  0.00     0.014 A 
ATOM     38  C   UNL A   1      40.410  26.046  26.373  1.00  0.00     0.010 A 
ATOM     39  C   UNL A   1      39.634  25.599  28.615  1.00  0.00     0.010 A 
ATOM     40  C   UNL A   1      40.215  26.480  27.692  1.00  0.00    -0.014 A 
BRANCH  40  41
ATOM     41  C   UNL A   1      40.646  27.828  28.150  1.00  0.00     0.031 A 
ATOM     42  C   UNL A   1      42.115  28.157  28.227  1.00  0.00     0.074 A 
ATOM     43  C   UNL A   1      39.726  28.727  28.555  1.00  0.00     0.049 A 
ATOM     44  N   UNL A   1      42.702  29.226  28.701  1.00  0.00    -0.248 NA
ATOM     45  C   UNL A   1      43.050  27.128  27.745  1.00  0.00     0.031 C 
ATOM     46  C   UNL A   1      38.278  28.511  28.562  1.00  0.00     0.029 A 
ATOM     47  N   UNL A   1      39.871  29.999  29.045  1.00  0.00    -0.354 N 
ATOM     48  C   UNL A   1      44.069  28.989  28.589  1.00  0.00     0.074 A 
ATOM     49  C   UNL A   1      44.221  27.644  28.082  1.00  0.00     0.031 C 
ATOM     50  C   UNL A   1      37.668  29.624  28.998  1.00  0.00     0.029 A 
ATOM     51  C   UNL A   1      38.678  30.613  29.357  1.00  0.00     0.049 A 
ATOM     52  H   UNL A   1      40.746  30.436  29.161  1.00  0.00     0.167 HD
ATOM     53  C   UNL A   1      45.102  29.829  28.851  1.00  0.00     0.034 A 
ATOM     54  C   UNL A   1      38.430  31.828  29.886  1.00  0.00     0.034 A 
ATOM     55  C   UNL A   1      44.931  31.174  29.338  1.00  0.00     0.049 A 
ATOM     56  C   UNL A   1      39.597  32.731  30.204  1.00  0.00     0.074 A 
ATOM     57  C   UNL A   1      45.899  32.127  29.599  1.00  0.00     0.029 A 
ATOM     58  N   UNL A   1      43.707  31.760  29.642  1.00  0.00    -0.354 N 
ATOM     59  N   UNL A   1      40.883  32.506  30.051  1.00  0.00    -0.248 NA
ATOM     60  C   UNL A   1      39.278  34.054  30.753  1.00  0.00     0.031 C 
ATOM     61  C   UNL A   1      45.269  33.260  30.126  1.00  0.00     0.029 A 
ATOM     62  C   UNL A   1      43.900  33.049  30.113  1.00  0.00     0.049 A 
ATOM     63  H   UNL A   1      42.831  31.323  29.537  1.00  0.00     0.167 HD
ATOM     64  C   UNL A   1      41.521  33.678  30.450  1.00  0.00     0.074 A 
ATOM     65  C   UNL A   1      40.479  34.607  30.832  1.00  0.00     0.031 C 
ATOM     66  C   UNL A   1      42.848  33.963  30.493  1.00  0.00     0.034 A 
BRANCH  53  67
ATOM     67  C   UNL A   1      46.501  29.301  28.627  1.00  0.00     0.023 A 
ATOM     68  C   UNL A   1      47.008  29.080  27.335  1.00  0.00     0.031 A 
ATOM     69  C   UNL A   1      47.331  28.987  29.719  1.00  0.00     0.131 A 
ATOM     70  C   UNL A   1      48.265  28.482  27.166  1.00  0.00     0.055 A 
ATOM     71  C   UNL A   1      48.619  28.478  29.542  1.00  0.00     0.041 A 
ATOM     72  F   UNL A   1      46.898  29.154  30.978  1.00  0.00    -0.206 F 
ATOM     73  C   UNL A   1      49.088  28.206  28.260  1.00  0.00     0.022 A 
BRANCH  70  74
ATOM     74  S   UNL A   1      48.740  27.923  25.507  1.00  0.00     0.124 S 
ATOM     75  O   UNL A   1      48.900  26.486  25.716  1.00  0.00    -0.237 OA
ATOM     76  O   UNL A   1      47.596  28.328  24.698  1.00  0.00    -0.237 OA
ATOM     77  O   UNL A   1      49.981  28.648  25.242  1.00  0.00    -0.744 OA
ENDBRANCH  70  74
ENDBRANCH  53  67
BRANCH  54  78
ATOM     78  C   UNL A   1      37.030  32.268  30.159  1.00  0.00     0.023 A 
ATOM     79  C   UNL A   1      36.271  32.911  29.169  1.00  0.00     0.031 A 
ATOM     80  C   UNL A   1      36.450  32.106  31.430  1.00  0.00     0.131 A 
ATOM     81  C   UNL A   1      35.002  33.424  29.482  1.00  0.00     0.055 A 
ATOM     82  C   UNL A   1      35.161  32.559  31.718  1.00  0.00     0.041 A 
ATOM     83  F   UNL A   1      37.129  31.495  32.415  1.00  0.00    -0.206 F 
ATOM     84  C   UNL A   1      34.435  33.239  30.744  1.00  0.00     0.022 A 
BRANCH  81  85
ATOM     85  S   UNL A   1      34.151  34.442  28.244  1.00  0.00     0.124 S 
ATOM     86  O   UNL A   1      32.972  33.631  27.957  1.00  0.00    -0.237 OA
ATOM     87  O   UNL A   1      33.915  35.679  28.981  1.00  0.00    -0.237 OA
ATOM     88  O   UNL A   1      35.122  34.538  27.158  1.00  0.00    -0.744 OA
ENDBRANCH  81  85
ENDBRANCH  54  78
BRANCH  66  89
ATOM     89  C   UNL A   1      43.238  35.359  30.916  1.00  0.00     0.023 A 
ATOM     90  C   UNL A   1      43.234  35.755  32.264  1.00  0.00     0.031 A 
ATOM     91  C   UNL A   1      43.610  36.310  29.949  1.00  0.00     0.131 A 
ATOM     92  C   UNL A   1      43.535  37.083  32.603  1.00  0.00     0.055 A 
ATOM     93  C   UNL A   1      43.977  37.610  30.298  1.00  0.00     0.041 A 
ATOM     94  F   UNL A   1      43.629  35.988  28.645  1.00  0.00    -0.206 F 
ATOM     95  C   UNL A   1      43.925  38.007  31.630  1.00  0.00     0.022 A 
BRANCH  92  96
ATOM     96  S   UNL A   1      43.308  37.615  34.322  1.00  0.00     0.124 S 
ATOM     97  O   UNL A   1      44.646  37.429  34.875  1.00  0.00    -0.237 OA
ATOM     98  O   UNL A   1      42.871  38.998  34.165  1.00  0.00    -0.237 OA
ATOM     99  O   UNL A   1      42.293  36.696  34.834  1.00  0.00    -0.744 OA
ENDBRANCH  92  96
ENDBRANCH  66  89
ENDBRANCH  40  41
ENDBRANCH  32  35
ENDBRANCH  30  31
ENDBRANCH   1  30
TORSDOF 19
ENDMDL
MODEL 2
REMARK VINA RESULT:     -11.1      4.869      8.529
REMARK SMILES CCC[NH+]1CCN(c2ccc(C(=O)NCCCNC(=O)c3ccc(-c4c5nc(c(-c6cc(S(=O)(=O)[O-])ccc6F)c6ccc([nH]6)c(-c6cc(S(=O)(=O)[O-])ccc6F)c6nc(c(-c7cc(S(=O)(=O)[O-])ccc7F)c7ccc4[nH]7)C=C6)C=C5)cc3)cc2NS(=O)(=O)CC)CC1
REMARK SMILES IDX 16 1 15 2 14 3 12 4 13 5 11 7 8 8 9 9 85 10 10 11 84 12 7 13
REMARK SMILES IDX 4 14 5 15 93 16 6 18 92 19 3 20 2 21 1 22 86 23 87 25 88 26
REMARK SMILES IDX 89 27 90 28 91 29 17 30 18 31 19 32 20 34 21 35 22 36 83 37
REMARK SMILES IDX 23 38 82 39 24 40 25 41 26 42 76 43 27 44 81 45 75 46 77 47
REMARK SMILES IDX 28 48 80 49 74 50 73 51 29 53 61 54 41 55 60 56 42 57 45 58
REMARK SMILES IDX 59 59 78 60 43 61 44 62 58 64 79 65 46 66 30 67 31 68 39 69
REMARK SMILES IDX 32 70 38 71 40 72 37 73 33 74 34 75 35 76 36 77 62 78 63 79
REMARK SMILES IDX 71 80 64 81 70 82 72 83 69 84 65 85 66 86 67 87 68 88 47 89
REMARK SMILES IDX 48 90 56 91 49 92 55 93 57 94 54 95 50 96 51 97 52 98 53 99
REMARK H PARENT 14 6 4 17 86 24 18 33 77 52 45 63
REMARK Flexibility Score: inf
ROOT
ATOM      1  C   UNL A   1      31.350  31.589  26.155  1.00  0.00     0.042 C 
ENDROOT
BRANCH   1   2
ATOM      2  C   UNL A   1      31.504  30.203  25.545  1.00  0.00     0.118 C 
BRANCH   2   3
ATOM      3  N   UNL A   1      31.002  30.104  24.189  1.00  0.00    -0.352 N 
ATOM      4  C   UNL A   1      30.815  29.084  23.292  1.00  0.00     0.251 C 
ATOM      5  O   UNL A   1      30.257  29.391  22.233  1.00  0.00    -0.269 OA
ATOM      6  H   UNL A   1      30.732  30.979  23.824  1.00  0.00     0.163 HD
BRANCH   4   7
ATOM      7  C   UNL A   1      31.287  27.675  23.457  1.00  0.00     0.042 A 
ATOM      8  C   UNL A   1      32.452  25.123  23.925  1.00  0.00     0.062 A 
ATOM      9  C   UNL A   1      33.249  26.209  23.576  1.00  0.00     0.029 A 
ATOM     10  C   UNL A   1      31.069  25.358  24.091  1.00  0.00     0.073 A 
ATOM     11  C   UNL A   1      32.679  27.474  23.384  1.00  0.00     0.016 A 
ATOM     12  C   UNL A   1      30.486  26.567  23.721  1.00  0.00     0.042 A 
BRANCH   8  13
ATOM     13  N   UNL A   1      32.976  23.863  24.150  1.00  0.00    -0.359 N 
ATOM     14  N   UNL A   1      33.215  21.087  25.005  1.00  0.00    -0.332 N 
ATOM     15  C   UNL A   1      33.382  22.234  25.927  1.00  0.00     0.283 C 
ATOM     16  C   UNL A   1      32.380  21.478  23.846  1.00  0.00     0.283 C 
ATOM     17  H   UNL A   1      32.731  20.350  25.517  1.00  0.00     0.348 HD
ATOM     18  C   UNL A   1      33.856  23.556  25.272  1.00  0.00     0.178 C 
ATOM     19  C   UNL A   1      32.808  22.792  23.150  1.00  0.00     0.178 C 
BRANCH  14  20
ATOM     20  C   UNL A   1      34.493  20.505  24.586  1.00  0.00     0.262 C 
BRANCH  20  21
ATOM     21  C   UNL A   1      34.402  18.976  24.633  1.00  0.00     0.058 C 
ATOM     22  C   UNL A   1      33.052  18.462  25.117  1.00  0.00     0.010 C 
ENDBRANCH  20  21
ENDBRANCH  14  20
ENDBRANCH   8  13
BRANCH  10  23
ATOM     23  N   UNL A   1      30.390  24.386  24.884  1.00  0.00    -0.281 N 
ATOM     24  H   UNL A   1      29.979  23.651  24.373  1.00  0.00     0.180 HD
BRANCH  23  25
ATOM     25  S   UNL A   1      30.185  24.294  26.507  1.00  0.00     0.232 S 
ATOM     26  O   UNL A   1      31.415  24.712  27.149  1.00  0.00    -0.207 OA
ATOM     27  O   UNL A   1      28.944  24.994  26.757  1.00  0.00    -0.207 OA
BRANCH  25  28
ATOM     28  C   UNL A   1      29.900  22.566  26.887  1.00  0.00     0.156 C 
ATOM     29  C   UNL A   1      28.614  22.254  27.626  1.00  0.00     0.023 C 
ENDBRANCH  25  28
ENDBRANCH  23  25
ENDBRANCH  10  23
ENDBRANCH   4   7
ENDBRANCH   2   3
ENDBRANCH   1   2
BRANCH   1  30
ATOM     30  C   UNL A   1      32.513  31.968  27.059  1.00  0.00     0.118 C 
BRANCH  30  31
ATOM     31  N   UNL A   1      32.547  33.402  27.335  1.00  0.00    -0.352 N 
ATOM     32  C   UNL A   1      33.288  34.149  28.220  1.00  0.00     0.251 C 
ATOM     33  H   UNL A   1      31.926  33.933  26.785  1.00  0.00     0.163 HD
ATOM     34  O   UNL A   1      32.957  35.315  28.423  1.00  0.00    -0.269 OA
BRANCH  32  35
ATOM     35  C   UNL A   1      34.448  33.571  28.934  1.00  0.00     0.039 A 
ATOM     36  C   UNL A   1      34.236  32.536  29.850  1.00  0.00     0.014 A 
ATOM     37  C   UNL A   1      35.738  34.067  28.745  1.00  0.00     0.014 A 
ATOM     38  C   UNL A   1      35.323  31.962  30.517  1.00  0.00     0.010 A 
ATOM     39  C   UNL A   1      36.827  33.414  29.309  1.00  0.00     0.010 A 
ATOM     40  C   UNL A   1      36.633  32.368  30.221  1.00  0.00    -0.014 A 
BRANCH  40  41
ATOM     41  C   UNL A   1      37.816  31.750  30.878  1.00  0.00     0.031 A 
ATOM     42  C   UNL A   1      38.612  30.698  30.149  1.00  0.00     0.074 A 
ATOM     43  C   UNL A   1      38.131  32.084  32.145  1.00  0.00     0.049 A 
ATOM     44  N   UNL A   1      39.602  29.960  30.580  1.00  0.00    -0.248 NA
ATOM     45  C   UNL A   1      38.214  30.409  28.763  1.00  0.00     0.031 C 
ATOM     46  C   UNL A   1      37.413  33.061  32.967  1.00  0.00     0.029 A 
ATOM     47  N   UNL A   1      39.133  31.637  32.968  1.00  0.00    -0.354 N 
ATOM     48  C   UNL A   1      39.931  29.112  29.526  1.00  0.00     0.074 A 
ATOM     49  C   UNL A   1      38.980  29.371  28.469  1.00  0.00     0.031 C 
ATOM     50  C   UNL A   1      38.019  33.164  34.161  1.00  0.00     0.029 A 
ATOM     51  C   UNL A   1      39.131  32.222  34.215  1.00  0.00     0.049 A 
ATOM     52  H   UNL A   1      39.794  30.960  32.693  1.00  0.00     0.167 HD
ATOM     53  C   UNL A   1      40.953  28.225  29.435  1.00  0.00     0.034 A 
ATOM     54  C   UNL A   1      39.927  32.011  35.283  1.00  0.00     0.034 A 
ATOM     55  C   UNL A   1      41.904  27.994  30.493  1.00  0.00     0.049 A 
ATOM     56  C   UNL A   1      41.035  30.993  35.170  1.00  0.00     0.074 A 
ATOM     57  C   UNL A   1      43.003  27.154  30.497  1.00  0.00     0.029 A 
ATOM     58  N   UNL A   1      41.870  28.607  31.741  1.00  0.00    -0.354 N 
ATOM     59  N   UNL A   1      41.358  30.230  34.150  1.00  0.00    -0.248 NA
ATOM     60  C   UNL A   1      41.893  30.817  36.348  1.00  0.00     0.031 C 
ATOM     61  C   UNL A   1      43.588  27.203  31.767  1.00  0.00     0.029 A 
ATOM     62  C   UNL A   1      42.910  28.141  32.530  1.00  0.00     0.049 A 
ATOM     63  H   UNL A   1      41.204  29.276  32.023  1.00  0.00     0.167 HD
ATOM     64  C   UNL A   1      42.481  29.514  34.554  1.00  0.00     0.074 A 
ATOM     65  C   UNL A   1      42.787  29.948  35.901  1.00  0.00     0.031 C 
ATOM     66  C   UNL A   1      43.198  28.583  33.873  1.00  0.00     0.034 A 
BRANCH  53  67
ATOM     67  C   UNL A   1      41.076  27.435  28.152  1.00  0.00     0.023 A 
ATOM     68  C   UNL A   1      40.692  26.085  28.078  1.00  0.00     0.031 A 
ATOM     69  C   UNL A   1      41.611  28.028  26.994  1.00  0.00     0.131 A 
ATOM     70  C   UNL A   1      40.927  25.350  26.907  1.00  0.00     0.055 A 
ATOM     71  C   UNL A   1      41.756  27.316  25.802  1.00  0.00     0.041 A 
ATOM     72  F   UNL A   1      42.017  29.306  27.006  1.00  0.00    -0.206 F 
ATOM     73  C   UNL A   1      41.429  25.963  25.757  1.00  0.00     0.022 A 
BRANCH  70  74
ATOM     74  S   UNL A   1      40.717  23.549  26.959  1.00  0.00     0.124 S 
ATOM     75  O   UNL A   1      39.318  23.405  26.564  1.00  0.00    -0.237 OA
ATOM     76  O   UNL A   1      41.705  23.087  25.992  1.00  0.00    -0.237 OA
ATOM     77  O   UNL A   1      41.001  23.211  28.353  1.00  0.00    -0.744 OA
ENDBRANCH  70  74
ENDBRANCH  53  67
BRANCH  54  78
ATOM     78  C   UNL A   1      39.711  32.766  36.552  1.00  0.00     0.023 A 
ATOM     79  C   UNL A   1      38.808  32.302  37.522  1.00  0.00     0.031 A 
ATOM     80  C   UNL A   1      40.358  33.992  36.791  1.00  0.00     0.131 A 
ATOM     81  C   UNL A   1      38.530  33.086  38.652  1.00  0.00     0.055 A 
ATOM     82  C   UNL A   1      40.128  34.737  37.949  1.00  0.00     0.041 A 
ATOM     83  F   UNL A   1      41.234  34.483  35.899  1.00  0.00    -0.206 F 
ATOM     84  C   UNL A   1      39.194  34.292  38.881  1.00  0.00     0.022 A 
BRANCH  81  85
ATOM     85  S   UNL A   1      37.197  32.559  39.764  1.00  0.00     0.124 S 
ATOM     86  O   UNL A   1      37.241  33.596  40.790  1.00  0.00    -0.237 OA
ATOM     87  O   UNL A   1      36.037  32.582  38.878  1.00  0.00    -0.237 OA
ATOM     88  O   UNL A   1      37.622  31.231  40.199  1.00  0.00    -0.744 OA
ENDBRANCH  81  85
ENDBRANCH  54  78
BRANCH  66  89
ATOM     89  C   UNL A   1      44.419  28.019  34.560  1.00  0.00     0.023 A 
ATOM     90  C   UNL A   1      44.360  26.850  35.337  1.00  0.00     0.031 A 
ATOM     91  C   UNL A   1      45.659  28.672  34.440  1.00  0.00     0.131 A 
ATOM     92  C   UNL A   1      45.505  26.403  36.014  1.00  0.00     0.055 A 
ATOM     93  C   UNL A   1      46.811  28.183  35.059  1.00  0.00     0.041 A 
ATOM     94  F   UNL A   1      45.774  29.795  33.713  1.00  0.00    -0.206 F 
ATOM     95  C   UNL A   1      46.734  27.051  35.864  1.00  0.00     0.022 A 
BRANCH  92  96
ATOM     96  S   UNL A   1      45.343  25.022  37.178  1.00  0.00     0.124 S 
ATOM     97  O   UNL A   1      44.150  25.397  37.930  1.00  0.00    -0.237 OA
ATOM     98  O   UNL A   1      45.199  23.877  36.286  1.00  0.00    -0.237 OA
ATOM     99  O   UNL A   1      46.593  25.064  37.937  1.00  0.00    -0.744 OA
ENDBRANCH  92  96
ENDBRANCH  66  89
ENDBRANCH  40  41
ENDBRANCH  32  35
ENDBRANCH  30  31
ENDBRANCH   1  30
TORSDOF 19
ENDMDL
MODEL 3
REMARK VINA RESULT:     -11.0      2.537      7.694
REMARK SMILES CCC[NH+]1CCN(c2ccc(C(=O)NCCCNC(=O)c3ccc(-c4c5nc(c(-c6cc(S(=O)(=O)[O-])ccc6F)c6ccc([nH]6)c(-c6cc(S(=O)(=O)[O-])ccc6F)c6nc(c(-c7cc(S(=O)(=O)[O-])ccc7F)c7ccc4[nH]7)C=C6)C=C5)cc3)cc2NS(=O)(=O)CC)CC1
REMARK SMILES IDX 16 1 15 2 14 3 12 4 13 5 11 7 8 8 9 9 85 10 10 11 84 12 7 13
REMARK SMILES IDX 4 14 5 15 93 16 6 18 92 19 3 20 2 21 1 22 86 23 87 25 88 26
REMARK SMILES IDX 89 27 90 28 91 29 17 30 18 31 19 32 20 34 21 35 22 36 83 37
REMARK SMILES IDX 23 38 82 39 24 40 25 41 26 42 76 43 27 44 81 45 75 46 77 47
REMARK SMILES IDX 28 48 80 49 74 50 73 51 29 53 61 54 41 55 60 56 42 57 45 58
REMARK SMILES IDX 59 59 78 60 43 61 44 62 58 64 79 65 46 66 30 67 31 68 39 69
REMARK SMILES IDX 32 70 38 71 40 72 37 73 33 74 34 75 35 76 36 77 62 78 63 79
REMARK SMILES IDX 71 80 64 81 70 82 72 83 69 84 65 85 66 86 67 87 68 88 47 89
REMARK SMILES IDX 48 90 56 91 49 92 55 93 57 94 54 95 50 96 51 97 52 98 53 99
REMARK H PARENT 14 6 4 17 86 24 18 33 77 52 45 63
REMARK Flexibility Score: inf
ROOT
ATOM      1  C   UNL A   1      34.701  22.308  26.454  1.00  0.00     0.042 C 
ENDROOT
BRANCH   1   2
ATOM      2  C   UNL A   1      33.590  22.665  25.477  1.00  0.00     0.118 C 
BRANCH   2   3
ATOM      3  N   UNL A   1      34.021  22.701  24.094  1.00  0.00    -0.352 N 
ATOM      4  C   UNL A   1      33.925  23.605  23.067  1.00  0.00     0.251 C 
ATOM      5  O   UNL A   1      34.518  23.305  22.026  1.00  0.00    -0.269 OA
ATOM      6  H   UNL A   1      34.494  21.879  23.827  1.00  0.00     0.163 HD
BRANCH   4   7
ATOM      7  C   UNL A   1      33.116  24.863  23.080  1.00  0.00     0.042 A 
ATOM      8  C   UNL A   1      31.316  27.065  23.023  1.00  0.00     0.062 A 
ATOM      9  C   UNL A   1      31.213  26.045  22.082  1.00  0.00     0.029 A 
ATOM     10  C   UNL A   1      32.302  26.927  24.026  1.00  0.00     0.073 A 
ATOM     11  C   UNL A   1      32.075  24.942  22.135  1.00  0.00     0.016 A 
ATOM     12  C   UNL A   1      33.269  25.927  23.964  1.00  0.00     0.042 A 
BRANCH   8  13
ATOM     13  N   UNL A   1      30.470  28.158  23.024  1.00  0.00    -0.359 N 
ATOM     14  N   UNL A   1      28.393  30.038  22.219  1.00  0.00    -0.332 N 
ATOM     15  C   UNL A   1      29.756  30.043  21.639  1.00  0.00     0.283 C 
ATOM     16  C   UNL A   1      28.066  28.696  22.752  1.00  0.00     0.283 C 
ATOM     17  H   UNL A   1      27.740  30.254  21.467  1.00  0.00     0.348 HD
ATOM     18  C   UNL A   1      30.874  29.478  22.553  1.00  0.00     0.178 C 
ATOM     19  C   UNL A   1      29.148  28.081  23.673  1.00  0.00     0.178 C 
BRANCH  14  20
ATOM     20  C   UNL A   1      28.201  31.087  23.224  1.00  0.00     0.262 C 
BRANCH  20  21
ATOM     21  C   UNL A   1      28.166  32.457  22.539  1.00  0.00     0.058 C 
ATOM     22  C   UNL A   1      29.151  33.458  23.130  1.00  0.00     0.010 C 
ENDBRANCH  20  21
ENDBRANCH  14  20
ENDBRANCH   8  13
BRANCH  10  23
ATOM     23  N   UNL A   1      32.071  27.705  25.199  1.00  0.00    -0.281 N 
ATOM     24  H   UNL A   1      31.212  27.529  25.648  1.00  0.00     0.180 HD
BRANCH  23  25
ATOM     25  S   UNL A   1      33.004  28.843  25.920  1.00  0.00     0.232 S 
ATOM     26  O   UNL A   1      33.887  28.183  26.861  1.00  0.00    -0.207 OA
ATOM     27  O   UNL A   1      33.538  29.622  24.824  1.00  0.00    -0.207 OA
BRANCH  25  28
ATOM     28  C   UNL A   1      31.891  29.911  26.832  1.00  0.00     0.156 C 
ATOM     29  C   UNL A   1      31.292  31.064  26.051  1.00  0.00     0.023 C 
ENDBRANCH  25  28
ENDBRANCH  23  25
ENDBRANCH  10  23
ENDBRANCH   4   7
ENDBRANCH   2   3
ENDBRANCH   1   2
BRANCH   1  30
ATOM     30  C   UNL A   1      36.076  22.741  25.968  1.00  0.00     0.118 C 
BRANCH  30  31
ATOM     31  N   UNL A   1      37.034  21.637  25.981  1.00  0.00    -0.352 N 
ATOM     32  C   UNL A   1      38.403  21.612  26.097  1.00  0.00     0.251 C 
ATOM     33  H   UNL A   1      36.622  20.747  25.891  1.00  0.00     0.163 HD
ATOM     34  O   UNL A   1      38.993  20.565  25.841  1.00  0.00    -0.269 OA
BRANCH  32  35
ATOM     35  C   UNL A   1      39.164  22.815  26.501  1.00  0.00     0.039 A 
ATOM     36  C   UNL A   1      40.284  22.666  27.326  1.00  0.00     0.014 A 
ATOM     37  C   UNL A   1      38.763  24.093  26.113  1.00  0.00     0.014 A 
ATOM     38  C   UNL A   1      41.029  23.788  27.699  1.00  0.00     0.010 A 
ATOM     39  C   UNL A   1      39.573  25.190  26.378  1.00  0.00     0.010 A 
ATOM     40  C   UNL A   1      40.705  25.057  27.194  1.00  0.00    -0.014 A 
BRANCH  40  41
ATOM     41  C   UNL A   1      41.501  26.266  27.534  1.00  0.00     0.031 A 
ATOM     42  C   UNL A   1      40.889  27.348  28.388  1.00  0.00     0.074 A 
ATOM     43  C   UNL A   1      42.739  26.421  27.026  1.00  0.00     0.049 A 
ATOM     44  N   UNL A   1      41.367  28.524  28.705  1.00  0.00    -0.248 NA
ATOM     45  C   UNL A   1      39.542  27.089  28.920  1.00  0.00     0.031 C 
ATOM     46  C   UNL A   1      43.424  25.461  26.157  1.00  0.00     0.029 A 
ATOM     47  N   UNL A   1      43.643  27.445  27.159  1.00  0.00    -0.354 N 
ATOM     48  C   UNL A   1      40.375  29.146  29.458  1.00  0.00     0.074 A 
ATOM     49  C   UNL A   1      39.239  28.252  29.475  1.00  0.00     0.031 C 
ATOM     50  C   UNL A   1      44.650  25.925  25.866  1.00  0.00     0.029 A 
ATOM     51  C   UNL A   1      44.820  27.239  26.476  1.00  0.00     0.049 A 
ATOM     52  H   UNL A   1      43.466  28.252  27.694  1.00  0.00     0.167 HD
ATOM     53  C   UNL A   1      40.419  30.338  30.104  1.00  0.00     0.034 A 
ATOM     54  C   UNL A   1      45.907  28.026  26.345  1.00  0.00     0.034 A 
ATOM     55  C   UNL A   1      41.568  31.208  30.091  1.00  0.00     0.049 A 
ATOM     56  C   UNL A   1      45.919  29.364  27.044  1.00  0.00     0.074 A 
ATOM     57  C   UNL A   1      41.741  32.416  30.742  1.00  0.00     0.029 A 
ATOM     58  N   UNL A   1      42.742  30.964  29.389  1.00  0.00    -0.354 N 
ATOM     59  N   UNL A   1      44.987  29.918  27.786  1.00  0.00    -0.248 NA
ATOM     60  C   UNL A   1      47.133  30.176  26.896  1.00  0.00     0.031 C 
ATOM     61  C   UNL A   1      42.988  32.936  30.377  1.00  0.00     0.029 A 
ATOM     62  C   UNL A   1      43.631  32.013  29.568  1.00  0.00     0.049 A 
ATOM     63  H   UNL A   1      42.918  30.163  28.844  1.00  0.00     0.167 HD
ATOM     64  C   UNL A   1      45.522  31.127  28.225  1.00  0.00     0.074 A 
ATOM     65  C   UNL A   1      46.860  31.210  27.677  1.00  0.00     0.031 C 
ATOM     66  C   UNL A   1      44.962  32.081  29.012  1.00  0.00     0.034 A 
BRANCH  53  67
ATOM     67  C   UNL A   1      39.182  30.765  30.860  1.00  0.00     0.023 A 
ATOM     68  C   UNL A   1      38.148  31.484  30.236  1.00  0.00     0.031 A 
ATOM     69  C   UNL A   1      39.045  30.478  32.230  1.00  0.00     0.131 A 
ATOM     70  C   UNL A   1      37.070  31.965  30.993  1.00  0.00     0.055 A 
ATOM     71  C   UNL A   1      37.923  30.879  32.958  1.00  0.00     0.041 A 
ATOM     72  F   UNL A   1      40.007  29.814  32.889  1.00  0.00    -0.206 F 
ATOM     73  C   UNL A   1      36.934  31.642  32.344  1.00  0.00     0.022 A 
BRANCH  70  74
ATOM     74  S   UNL A   1      35.933  33.151  30.222  1.00  0.00     0.124 S 
ATOM     75  O   UNL A   1      34.685  32.392  30.205  1.00  0.00    -0.237 OA
ATOM     76  O   UNL A   1      35.983  34.280  31.144  1.00  0.00    -0.237 OA
ATOM     77  O   UNL A   1      36.527  33.390  28.908  1.00  0.00    -0.744 OA
ENDBRANCH  70  74
ENDBRANCH  53  67
BRANCH  54  78
ATOM     78  C   UNL A   1      47.071  27.586  25.521  1.00  0.00     0.023 A 
ATOM     79  C   UNL A   1      47.198  27.986  24.181  1.00  0.00     0.031 A 
ATOM     80  C   UNL A   1      48.042  26.712  26.041  1.00  0.00     0.131 A 
ATOM     81  C   UNL A   1      48.233  27.464  23.390  1.00  0.00     0.055 A 
ATOM     82  C   UNL A   1      49.109  26.248  25.268  1.00  0.00     0.041 A 
ATOM     83  F   UNL A   1      47.973  26.298  27.317  1.00  0.00    -0.206 F 
ATOM     84  C   UNL A   1      49.198  26.611  23.927  1.00  0.00     0.022 A 
BRANCH  81  85
ATOM     85  S   UNL A   1      48.231  27.829  21.613  1.00  0.00     0.124 S 
ATOM     86  O   UNL A   1      49.382  28.718  21.493  1.00  0.00    -0.237 OA
ATOM     87  O   UNL A   1      48.384  26.499  21.031  1.00  0.00    -0.237 OA
ATOM     88  O   UNL A   1      46.930  28.457  21.396  1.00  0.00    -0.744 OA
ENDBRANCH  81  85
ENDBRANCH  54  78
BRANCH  66  89
ATOM     89  C   UNL A   1      45.823  33.268  29.372  1.00  0.00     0.023 A 
ATOM     90  C   UNL A   1      45.847  34.433  28.588  1.00  0.00     0.031 A 
ATOM     91  C   UNL A   1      46.640  33.224  30.516  1.00  0.00     0.131 A 
ATOM     92  C   UNL A   1      46.716  35.483  28.923  1.00  0.00     0.055 A 
ATOM     93  C   UNL A   1      47.450  34.299  30.884  1.00  0.00     0.041 A 
ATOM     94  F   UNL A   1      46.660  32.134  31.302  1.00  0.00    -0.206 F 
ATOM     95  C   UNL A   1      47.503  35.431  30.076  1.00  0.00     0.022 A 
BRANCH  92  96
ATOM     96  S   UNL A   1      46.882  36.875  27.773  1.00  0.00     0.124 S 
ATOM     97  O   UNL A   1      46.773  38.022  28.668  1.00  0.00    -0.237 OA
ATOM     98  O   UNL A   1      48.201  36.644  27.192  1.00  0.00    -0.237 OA
ATOM     99  O   UNL A   1      45.760  36.697  26.853  1.00  0.00    -0.744 OA
ENDBRANCH  92  96
ENDBRANCH  66  89
ENDBRANCH  40  41
ENDBRANCH  32  35
ENDBRANCH  30  31
ENDBRANCH   1  30
TORSDOF 19
ENDMDL
