MODEL 1
REMARK VINA RESULT:     -11.4      0.000      0.000
REMARK SMILES CC(C)(C)OC(=O)CSc1ccnc(C(=O)NCCCNC(=O)c2ccc(-c3c4nc(c(-c5cc(S(=O)(=O)[O-])ccc5F)c5ccc([nH]5)c(-c5cc(S(=O)(=O)[O-])ccc5F)c5nc(c(-c6cc(S(=O)(=O)[O-])ccc6F)c6ccc3[nH]6)C=C5)C=C4)cc2)c1
REMARK SMILES IDX 18 1 17 2 15 3 16 4 14 6 10 7 11 8 87 9 12 10 13 11 9 12
REMARK SMILES IDX 8 13 6 14 7 15 5 16 2 17 1 18 3 19 4 20 19 21 20 22 21 23
REMARK SMILES IDX 22 24 23 26 24 27 25 28 86 29 26 30 85 31 27 32 28 33 29 34
REMARK SMILES IDX 79 35 30 36 84 37 78 38 80 39 31 40 83 41 77 42 76 43 32 45
REMARK SMILES IDX 64 46 44 47 63 48 45 49 48 50 62 51 81 52 46 53 47 54 61 56
REMARK SMILES IDX 82 57 49 58 33 59 34 60 42 61 35 62 41 63 43 64 40 65 36 66
REMARK SMILES IDX 37 67 38 68 39 69 65 70 66 71 74 72 67 73 73 74 75 75 72 76
REMARK SMILES IDX 68 77 69 78 70 79 71 80 50 81 51 82 59 83 52 84 58 85 60 86
REMARK SMILES IDX 57 87 53 88 54 89 55 90 56 91
REMARK H PARENT 17 5 21 25 80 44 48 55
REMARK Flexibility Score: inf
ROOT
ATOM      1  C   UNL A   1      35.336  21.236  25.770  1.00  0.00     0.118 C 
ENDROOT
BRANCH   1   2
ATOM      2  N   UNL A   1      34.173  20.383  25.704  1.00  0.00    -0.351 N 
ATOM      3  C   UNL A   1      32.826  20.620  25.549  1.00  0.00     0.269 C 
ATOM      4  O   UNL A   1      32.135  19.616  25.360  1.00  0.00    -0.268 OA
ATOM      5  H   UNL A   1      34.389  19.426  25.788  1.00  0.00     0.163 HD
BRANCH   3   6
ATOM      6  C   UNL A   1      32.175  21.983  25.577  1.00  0.00     0.129 A 
ATOM      7  C   UNL A   1      31.034  23.872  24.630  1.00  0.00     0.012 A 
ATOM      8  C   UNL A   1      31.011  24.470  25.882  1.00  0.00     0.035 A 
ATOM      9  C   UNL A   1      31.692  22.654  24.467  1.00  0.00     0.049 A 
ATOM     10  C   UNL A   1      31.586  23.779  26.933  1.00  0.00     0.113 A 
ATOM     11  N   UNL A   1      32.127  22.550  26.812  1.00  0.00    -0.251 NA
BRANCH   7  12
ATOM     12  S   UNL A   1      30.362  24.658  23.178  1.00  0.00    -0.114 SA
BRANCH  12  13
ATOM     13  C   UNL A   1      30.048  26.354  23.770  1.00  0.00     0.197 C 
BRANCH  13  14
ATOM     14  C   UNL A   1      30.757  27.460  23.020  1.00  0.00     0.316 C 
ATOM     15  O   UNL A   1      30.289  27.978  22.013  1.00  0.00    -0.251 OA
BRANCH  14  16
ATOM     16  O   UNL A   1      31.896  27.864  23.646  1.00  0.00    -0.459 OA
BRANCH  16  17
ATOM     17  C   UNL A   1      33.208  27.418  23.183  1.00  0.00     0.104 C 
ATOM     18  C   UNL A   1      33.771  26.574  24.338  1.00  0.00     0.056 C 
ATOM     19  C   UNL A   1      34.132  28.621  22.973  1.00  0.00     0.056 C 
ATOM     20  C   UNL A   1      33.146  26.578  21.897  1.00  0.00     0.056 C 
ENDBRANCH  16  17
ENDBRANCH  14  16
ENDBRANCH  13  14
ENDBRANCH  12  13
ENDBRANCH   7  12
ENDBRANCH   3   6
ENDBRANCH   1   2
BRANCH   1  21
ATOM     21  C   UNL A   1      35.760  21.754  24.405  1.00  0.00     0.042 C 
BRANCH  21  22
ATOM     22  C   UNL A   1      37.274  21.801  24.257  1.00  0.00     0.118 C 
BRANCH  22  23
ATOM     23  N   UNL A   1      37.936  20.724  24.991  1.00  0.00    -0.352 N 
ATOM     24  C   UNL A   1      39.062  20.728  25.775  1.00  0.00     0.251 C 
ATOM     25  H   UNL A   1      37.499  19.846  24.908  1.00  0.00     0.163 HD
ATOM     26  O   UNL A   1      39.561  19.656  26.102  1.00  0.00    -0.269 OA
BRANCH  24  27
ATOM     27  C   UNL A   1      39.667  22.005  26.204  1.00  0.00     0.039 A 
ATOM     28  C   UNL A   1      41.018  22.031  26.552  1.00  0.00     0.014 A 
ATOM     29  C   UNL A   1      38.901  23.170  26.279  1.00  0.00     0.014 A 
ATOM     30  C   UNL A   1      41.610  23.241  26.913  1.00  0.00     0.010 A 
ATOM     31  C   UNL A   1      39.519  24.391  26.511  1.00  0.00     0.010 A 
ATOM     32  C   UNL A   1      40.875  24.438  26.854  1.00  0.00    -0.014 A 
BRANCH  32  33
ATOM     33  C   UNL A   1      41.506  25.740  27.176  1.00  0.00     0.031 A 
ATOM     34  C   UNL A   1      40.768  26.746  28.021  1.00  0.00     0.074 A 
ATOM     35  C   UNL A   1      42.722  26.024  26.671  1.00  0.00     0.049 A 
ATOM     36  N   UNL A   1      41.144  27.940  28.401  1.00  0.00    -0.248 NA
ATOM     37  C   UNL A   1      39.414  26.379  28.466  1.00  0.00     0.031 C 
ATOM     38  C   UNL A   1      43.493  25.147  25.785  1.00  0.00     0.029 A 
ATOM     39  N   UNL A   1      43.528  27.120  26.835  1.00  0.00    -0.354 N 
ATOM     40  C   UNL A   1      40.072  28.465  29.116  1.00  0.00     0.074 A 
ATOM     41  C   UNL A   1      39.003  27.496  29.041  1.00  0.00     0.031 C 
ATOM     42  C   UNL A   1      44.683  25.714  25.532  1.00  0.00     0.029 A 
ATOM     43  C   UNL A   1      44.740  27.013  26.191  1.00  0.00     0.049 A 
ATOM     44  H   UNL A   1      43.265  27.908  27.362  1.00  0.00     0.167 HD
ATOM     45  C   UNL A   1      40.002  29.632  29.802  1.00  0.00     0.034 A 
ATOM     46  C   UNL A   1      45.779  27.869  26.145  1.00  0.00     0.034 A 
ATOM     47  C   UNL A   1      41.089  30.576  29.871  1.00  0.00     0.049 A 
ATOM     48  C   UNL A   1      45.676  29.159  26.915  1.00  0.00     0.074 A 
ATOM     49  C   UNL A   1      41.155  31.768  30.569  1.00  0.00     0.029 A 
ATOM     50  N   UNL A   1      42.304  30.438  29.209  1.00  0.00    -0.354 N 
ATOM     51  N   UNL A   1      44.679  29.615  27.640  1.00  0.00    -0.248 NA
ATOM     52  C   UNL A   1      46.847  30.041  26.877  1.00  0.00     0.031 C 
ATOM     53  C   UNL A   1      42.376  32.384  30.271  1.00  0.00     0.029 A 
ATOM     54  C   UNL A   1      43.113  31.535  29.460  1.00  0.00     0.049 A 
ATOM     55  H   UNL A   1      42.554  29.671  28.644  1.00  0.00     0.167 HD
ATOM     56  C   UNL A   1      45.119  30.824  28.171  1.00  0.00     0.074 A 
ATOM     57  C   UNL A   1      46.479  31.005  27.706  1.00  0.00     0.031 C 
ATOM     58  C   UNL A   1      44.462  31.707  28.969  1.00  0.00     0.034 A 
BRANCH  45  59
ATOM     59  C   UNL A   1      38.702  29.946  30.508  1.00  0.00     0.023 A 
ATOM     60  C   UNL A   1      37.679  30.682  29.884  1.00  0.00     0.031 A 
ATOM     61  C   UNL A   1      38.494  29.536  31.837  1.00  0.00     0.131 A 
ATOM     62  C   UNL A   1      36.538  31.057  30.609  1.00  0.00     0.055 A 
ATOM     63  C   UNL A   1      37.316  29.834  32.525  1.00  0.00     0.041 A 
ATOM     64  F   UNL A   1      39.441  28.852  32.499  1.00  0.00    -0.206 F 
ATOM     65  C   UNL A   1      36.335  30.614  31.918  1.00  0.00     0.022 A 
BRANCH  62  66
ATOM     66  S   UNL A   1      35.400  32.264  29.873  1.00  0.00     0.124 S 
ATOM     67  O   UNL A   1      36.301  33.376  29.580  1.00  0.00    -0.237 OA
ATOM     68  O   UNL A   1      34.878  31.542  28.719  1.00  0.00    -0.237 OA
ATOM     69  O   UNL A   1      34.434  32.519  30.940  1.00  0.00    -0.744 OA
ENDBRANCH  62  66
ENDBRANCH  45  59
BRANCH  46  70
ATOM     70  C   UNL A   1      47.003  27.534  25.360  1.00  0.00     0.023 A 
ATOM     71  C   UNL A   1      47.129  27.915  24.014  1.00  0.00     0.031 A 
ATOM     72  C   UNL A   1      48.050  26.789  25.932  1.00  0.00     0.131 A 
ATOM     73  C   UNL A   1      48.247  27.505  23.271  1.00  0.00     0.055 A 
ATOM     74  C   UNL A   1      49.188  26.435  25.206  1.00  0.00     0.041 A 
ATOM     75  F   UNL A   1      47.986  26.403  27.217  1.00  0.00    -0.206 F 
ATOM     76  C   UNL A   1      49.283  26.780  23.862  1.00  0.00     0.022 A 
BRANCH  73  77
ATOM     77  S   UNL A   1      48.278  27.850  21.490  1.00  0.00     0.124 S 
ATOM     78  O   UNL A   1      46.925  28.338  21.258  1.00  0.00    -0.237 OA
ATOM     79  O   UNL A   1      49.344  28.841  21.393  1.00  0.00    -0.237 OA
ATOM     80  O   UNL A   1      48.585  26.549  20.898  1.00  0.00    -0.744 OA
ENDBRANCH  73  77
ENDBRANCH  46  70
BRANCH  58  81
ATOM     81  C   UNL A   1      45.238  32.925  29.413  1.00  0.00     0.023 A 
ATOM     82  C   UNL A   1      45.233  34.116  28.666  1.00  0.00     0.031 A 
ATOM     83  C   UNL A   1      46.035  32.875  30.570  1.00  0.00     0.131 A 
ATOM     84  C   UNL A   1      46.082  35.171  29.029  1.00  0.00     0.055 A 
ATOM     85  C   UNL A   1      46.811  33.961  30.975  1.00  0.00     0.041 A 
ATOM     86  F   UNL A   1      46.081  31.764  31.324  1.00  0.00    -0.206 F 
ATOM     87  C   UNL A   1      46.856  35.110  30.190  1.00  0.00     0.022 A 
BRANCH  84  88
ATOM     88  S   UNL A   1      46.277  36.558  27.877  1.00  0.00     0.124 S 
ATOM     89  O   UNL A   1      45.033  36.497  27.117  1.00  0.00    -0.237 OA
ATOM     90  O   UNL A   1      46.416  37.696  28.781  1.00  0.00    -0.237 OA
ATOM     91  O   UNL A   1      47.481  36.212  27.126  1.00  0.00    -0.744 OA
ENDBRANCH  84  88
ENDBRANCH  58  81
ENDBRANCH  32  33
ENDBRANCH  24  27
ENDBRANCH  22  23
ENDBRANCH  21  22
ENDBRANCH   1  21
TORSDOF 18
ENDMDL
MODEL 2
REMARK VINA RESULT:     -11.2      1.445      7.744
REMARK SMILES CC(C)(C)OC(=O)CSc1ccnc(C(=O)NCCCNC(=O)c2ccc(-c3c4nc(c(-c5cc(S(=O)(=O)[O-])ccc5F)c5ccc([nH]5)c(-c5cc(S(=O)(=O)[O-])ccc5F)c5nc(c(-c6cc(S(=O)(=O)[O-])ccc6F)c6ccc3[nH]6)C=C5)C=C4)cc2)c1
REMARK SMILES IDX 18 1 17 2 15 3 16 4 14 6 10 7 11 8 87 9 12 10 13 11 9 12
REMARK SMILES IDX 8 13 6 14 7 15 5 16 2 17 1 18 3 19 4 20 19 21 20 22 21 23
REMARK SMILES IDX 22 24 23 26 24 27 25 28 86 29 26 30 85 31 27 32 28 33 29 34
REMARK SMILES IDX 79 35 30 36 84 37 78 38 80 39 31 40 83 41 77 42 76 43 32 45
REMARK SMILES IDX 64 46 44 47 63 48 45 49 48 50 62 51 81 52 46 53 47 54 61 56
REMARK SMILES IDX 82 57 49 58 33 59 34 60 42 61 35 62 41 63 43 64 40 65 36 66
REMARK SMILES IDX 37 67 38 68 39 69 65 70 66 71 74 72 67 73 73 74 75 75 72 76
REMARK SMILES IDX 68 77 69 78 70 79 71 80 50 81 51 82 59 83 52 84 58 85 60 86
REMARK SMILES IDX 57 87 53 88 54 89 55 90 56 91
REMARK H PARENT 17 5 21 25 80 44 48 55
REMARK Flexibility Score: inf
ROOT
ATOM      1  C   UNL A   1      35.370  20.745  24.954  1.00  0.00     0.118 C 
ENDROOT
BRANCH   1   2
ATOM      2  N   UNL A   1      34.180  19.962  25.190  1.00  0.00    -0.351 N 
ATOM      3  C   UNL A   1      32.848  20.276  25.332  1.00  0.00     0.269 C 
ATOM      4  O   UNL A   1      32.080  19.309  25.347  1.00  0.00    -0.268 OA
ATOM      5  H   UNL A   1      34.360  18.997  25.264  1.00  0.00     0.163 HD
BRANCH   3   6
ATOM      6  C   UNL A   1      32.292  21.675  25.447  1.00  0.00     0.129 A 
ATOM      7  C   UNL A   1      31.213  23.664  24.641  1.00  0.00     0.012 A 
ATOM      8  C   UNL A   1      31.319  24.220  25.908  1.00  0.00     0.035 A 
ATOM      9  C   UNL A   1      31.776  22.412  24.395  1.00  0.00     0.049 A 
ATOM     10  C   UNL A   1      31.921  23.459  26.894  1.00  0.00     0.113 A 
ATOM     11  N   UNL A   1      32.370  22.203  26.698  1.00  0.00    -0.251 NA
BRANCH   7  12
ATOM     12  S   UNL A   1      30.492  24.539  23.266  1.00  0.00    -0.114 SA
BRANCH  12  13
ATOM     13  C   UNL A   1      31.740  25.825  22.932  1.00  0.00     0.197 C 
BRANCH  13  14
ATOM     14  C   UNL A   1      31.254  27.257  23.006  1.00  0.00     0.316 C 
ATOM     15  O   UNL A   1      30.694  27.811  22.068  1.00  0.00    -0.251 OA
BRANCH  14  16
ATOM     16  O   UNL A   1      31.424  27.799  24.243  1.00  0.00    -0.459 OA
BRANCH  16  17
ATOM     17  C   UNL A   1      32.655  28.503  24.594  1.00  0.00     0.104 C 
ATOM     18  C   UNL A   1      32.191  29.784  25.306  1.00  0.00     0.056 C 
ATOM     19  C   UNL A   1      33.413  28.906  23.326  1.00  0.00     0.056 C 
ATOM     20  C   UNL A   1      33.578  27.692  25.516  1.00  0.00     0.056 C 
ENDBRANCH  16  17
ENDBRANCH  14  16
ENDBRANCH  13  14
ENDBRANCH  12  13
ENDBRANCH   7  12
ENDBRANCH   3   6
ENDBRANCH   1   2
BRANCH   1  21
ATOM     21  C   UNL A   1      35.631  21.761  26.054  1.00  0.00     0.042 C 
BRANCH  21  22
ATOM     22  C   UNL A   1      36.977  22.451  25.889  1.00  0.00     0.118 C 
BRANCH  22  23
ATOM     23  N   UNL A   1      38.098  21.530  26.073  1.00  0.00    -0.352 N 
ATOM     24  C   UNL A   1      39.414  21.763  26.379  1.00  0.00     0.251 C 
ATOM     25  H   UNL A   1      37.867  20.580  25.958  1.00  0.00     0.163 HD
ATOM     26  O   UNL A   1      40.223  20.850  26.254  1.00  0.00    -0.269 OA
BRANCH  24  27
ATOM     27  C   UNL A   1      39.848  23.099  26.836  1.00  0.00     0.039 A 
ATOM     28  C   UNL A   1      40.556  23.208  28.034  1.00  0.00     0.014 A 
ATOM     29  C   UNL A   1      39.543  24.242  26.096  1.00  0.00     0.014 A 
ATOM     30  C   UNL A   1      41.010  24.459  28.451  1.00  0.00     0.010 A 
ATOM     31  C   UNL A   1      40.106  25.462  26.443  1.00  0.00     0.010 A 
ATOM     32  C   UNL A   1      40.824  25.590  27.637  1.00  0.00    -0.014 A 
BRANCH  32  33
ATOM     33  C   UNL A   1      41.354  26.916  28.037  1.00  0.00     0.031 A 
ATOM     34  C   UNL A   1      42.778  27.285  27.718  1.00  0.00     0.074 A 
ATOM     35  C   UNL A   1      40.559  27.761  28.722  1.00  0.00     0.049 A 
ATOM     36  N   UNL A   1      43.428  28.387  27.993  1.00  0.00    -0.248 NA
ATOM     37  C   UNL A   1      43.594  26.269  27.033  1.00  0.00     0.031 C 
ATOM     38  C   UNL A   1      39.185  27.474  29.142  1.00  0.00     0.029 A 
ATOM     39  N   UNL A   1      40.784  29.034  29.177  1.00  0.00    -0.354 N 
ATOM     40  C   UNL A   1      44.724  28.190  27.525  1.00  0.00     0.074 A 
ATOM     41  C   UNL A   1      44.790  26.834  27.031  1.00  0.00     0.031 C 
ATOM     42  C   UNL A   1      38.672  28.560  29.741  1.00  0.00     0.029 A 
ATOM     43  C   UNL A   1      39.692  29.600  29.794  1.00  0.00     0.049 A 
ATOM     44  H   UNL A   1      41.645  29.500  29.072  1.00  0.00     0.167 HD
ATOM     45  C   UNL A   1      45.752  29.072  27.480  1.00  0.00     0.034 A 
ATOM     46  C   UNL A   1      39.536  30.822  30.338  1.00  0.00     0.034 A 
ATOM     47  C   UNL A   1      45.655  30.425  27.970  1.00  0.00     0.049 A 
ATOM     48  C   UNL A   1      40.692  31.784  30.276  1.00  0.00     0.074 A 
ATOM     49  C   UNL A   1      46.609  31.425  27.939  1.00  0.00     0.029 A 
ATOM     50  N   UNL A   1      44.534  30.968  28.589  1.00  0.00    -0.354 N 
ATOM     51  N   UNL A   1      41.894  31.605  29.773  1.00  0.00    -0.248 NA
ATOM     52  C   UNL A   1      40.466  33.120  30.836  1.00  0.00     0.031 C 
ATOM     53  C   UNL A   1      46.094  32.544  28.603  1.00  0.00     0.029 A 
ATOM     54  C   UNL A   1      44.784  32.277  28.968  1.00  0.00     0.049 A 
ATOM     55  H   UNL A   1      43.685  30.490  28.736  1.00  0.00     0.167 HD
ATOM     56  C   UNL A   1      42.555  32.821  29.929  1.00  0.00     0.074 A 
ATOM     57  C   UNL A   1      41.605  33.727  30.543  1.00  0.00     0.031 C 
ATOM     58  C   UNL A   1      43.829  33.160  29.598  1.00  0.00     0.034 A 
BRANCH  45  59
ATOM     59  C   UNL A   1      47.061  28.586  26.900  1.00  0.00     0.023 A 
ATOM     60  C   UNL A   1      47.247  28.439  25.513  1.00  0.00     0.031 A 
ATOM     61  C   UNL A   1      48.127  28.229  27.744  1.00  0.00     0.131 A 
ATOM     62  C   UNL A   1      48.432  27.873  25.019  1.00  0.00     0.055 A 
ATOM     63  C   UNL A   1      49.339  27.752  27.240  1.00  0.00     0.041 A 
ATOM     64  F   UNL A   1      48.005  28.322  29.078  1.00  0.00    -0.206 F 
ATOM     65  C   UNL A   1      49.492  27.554  25.870  1.00  0.00     0.022 A 
BRANCH  62  66
ATOM     66  S   UNL A   1      48.506  27.410  23.265  1.00  0.00     0.124 S 
ATOM     67  O   UNL A   1      47.383  28.167  22.715  1.00  0.00    -0.237 OA
ATOM     68  O   UNL A   1      49.835  27.865  22.875  1.00  0.00    -0.237 OA
ATOM     69  O   UNL A   1      48.321  25.961  23.285  1.00  0.00    -0.744 OA
ENDBRANCH  62  66
ENDBRANCH  45  59
BRANCH  46  70
ATOM     70  C   UNL A   1      38.242  31.211  30.970  1.00  0.00     0.023 A 
ATOM     71  C   UNL A   1      37.215  31.803  30.218  1.00  0.00     0.031 A 
ATOM     72  C   UNL A   1      38.027  31.036  32.350  1.00  0.00     0.131 A 
ATOM     73  C   UNL A   1      36.046  32.248  30.854  1.00  0.00     0.055 A 
ATOM     74  C   UNL A   1      36.838  31.425  32.968  1.00  0.00     0.041 A 
ATOM     75  F   UNL A   1      38.972  30.469  33.118  1.00  0.00    -0.206 F 
ATOM     76  C   UNL A   1      35.845  32.049  32.221  1.00  0.00     0.022 A 
BRANCH  73  77
ATOM     77  S   UNL A   1      34.830  33.181  29.883  1.00  0.00     0.124 S 
ATOM     78  O   UNL A   1      35.678  34.145  29.194  1.00  0.00    -0.237 OA
ATOM     79  O   UNL A   1      34.240  32.136  29.053  1.00  0.00    -0.237 OA
ATOM     80  O   UNL A   1      33.942  33.742  30.899  1.00  0.00    -0.744 OA
ENDBRANCH  73  77
ENDBRANCH  46  70
BRANCH  58  81
ATOM     81  C   UNL A   1      44.238  34.590  29.865  1.00  0.00     0.023 A 
ATOM     82  C   UNL A   1      44.104  35.590  28.887  1.00  0.00     0.031 A 
ATOM     83  C   UNL A   1      44.820  34.943  31.095  1.00  0.00     0.131 A 
ATOM     84  C   UNL A   1      44.632  36.868  29.119  1.00  0.00     0.055 A 
ATOM     85  C   UNL A   1      45.265  36.240  31.351  1.00  0.00     0.041 A 
ATOM     86  F   UNL A   1      44.976  34.030  32.067  1.00  0.00    -0.206 F 
ATOM     87  C   UNL A   1      45.193  37.206  30.352  1.00  0.00     0.022 A 
BRANCH  84  88
ATOM     88  S   UNL A   1      44.716  38.033  27.731  1.00  0.00     0.124 S 
ATOM     89  O   UNL A   1      43.557  37.640  26.936  1.00  0.00    -0.237 OA
ATOM     90  O   UNL A   1      44.619  39.325  28.402  1.00  0.00    -0.237 OA
ATOM     91  O   UNL A   1      46.012  37.746  27.122  1.00  0.00    -0.744 OA
ENDBRANCH  84  88
ENDBRANCH  58  81
ENDBRANCH  32  33
ENDBRANCH  24  27
ENDBRANCH  22  23
ENDBRANCH  21  22
ENDBRANCH   1  21
TORSDOF 18
ENDMDL
MODEL 3
REMARK VINA RESULT:     -11.1      5.252      8.026
REMARK SMILES CC(C)(C)OC(=O)CSc1ccnc(C(=O)NCCCNC(=O)c2ccc(-c3c4nc(c(-c5cc(S(=O)(=O)[O-])ccc5F)c5ccc([nH]5)c(-c5cc(S(=O)(=O)[O-])ccc5F)c5nc(c(-c6cc(S(=O)(=O)[O-])ccc6F)c6ccc3[nH]6)C=C5)C=C4)cc2)c1
REMARK SMILES IDX 18 1 17 2 15 3 16 4 14 6 10 7 11 8 87 9 12 10 13 11 9 12
REMARK SMILES IDX 8 13 6 14 7 15 5 16 2 17 1 18 3 19 4 20 19 21 20 22 21 23
REMARK SMILES IDX 22 24 23 26 24 27 25 28 86 29 26 30 85 31 27 32 28 33 29 34
REMARK SMILES IDX 79 35 30 36 84 37 78 38 80 39 31 40 83 41 77 42 76 43 32 45
REMARK SMILES IDX 64 46 44 47 63 48 45 49 48 50 62 51 81 52 46 53 47 54 61 56
REMARK SMILES IDX 82 57 49 58 33 59 34 60 42 61 35 62 41 63 43 64 40 65 36 66
REMARK SMILES IDX 37 67 38 68 39 69 65 70 66 71 74 72 67 73 73 74 75 75 72 76
REMARK SMILES IDX 68 77 69 78 70 79 71 80 50 81 51 82 59 83 52 84 58 85 60 86
REMARK SMILES IDX 57 87 53 88 54 89 55 90 56 91
REMARK H PARENT 17 5 21 25 80 44 48 55
REMARK Flexibility Score: inf
ROOT
ATOM      1  C   UNL A   1      31.205  30.195  24.954  1.00  0.00     0.118 C 
ENDROOT
BRANCH   1   2
ATOM      2  N   UNL A   1      30.694  29.617  23.733  1.00  0.00    -0.351 N 
ATOM      3  C   UNL A   1      30.485  28.325  23.307  1.00  0.00     0.269 C 
ATOM      4  O   UNL A   1      29.858  28.218  22.249  1.00  0.00    -0.268 OA
ATOM      5  H   UNL A   1      30.441  30.291  23.062  1.00  0.00     0.163 HD
BRANCH   3   6
ATOM      6  C   UNL A   1      30.942  27.085  24.037  1.00  0.00     0.129 A 
ATOM      7  C   UNL A   1      32.560  25.510  24.855  1.00  0.00     0.012 A 
ATOM      8  C   UNL A   1      31.537  24.789  25.453  1.00  0.00     0.035 A 
ATOM      9  C   UNL A   1      32.246  26.623  24.076  1.00  0.00     0.049 A 
ATOM     10  C   UNL A   1      30.246  25.262  25.304  1.00  0.00     0.113 A 
ATOM     11  N   UNL A   1      29.939  26.398  24.648  1.00  0.00    -0.251 NA
BRANCH   7  12
ATOM     12  S   UNL A   1      34.267  25.004  24.934  1.00  0.00    -0.114 SA
BRANCH  12  13
ATOM     13  C   UNL A   1      34.511  24.217  23.307  1.00  0.00     0.197 C 
BRANCH  13  14
ATOM     14  C   UNL A   1      35.434  23.019  23.280  1.00  0.00     0.316 C 
ATOM     15  O   UNL A   1      36.443  22.981  22.586  1.00  0.00    -0.251 OA
BRANCH  14  16
ATOM     16  O   UNL A   1      35.067  22.061  24.173  1.00  0.00    -0.459 OA
BRANCH  16  17
ATOM     17  C   UNL A   1      35.917  21.731  25.315  1.00  0.00     0.104 C 
ATOM     18  C   UNL A   1      36.483  20.336  25.000  1.00  0.00     0.056 C 
ATOM     19  C   UNL A   1      35.075  21.630  26.590  1.00  0.00     0.056 C 
ATOM     20  C   UNL A   1      37.066  22.730  25.527  1.00  0.00     0.056 C 
ENDBRANCH  16  17
ENDBRANCH  14  16
ENDBRANCH  13  14
ENDBRANCH  12  13
ENDBRANCH   7  12
ENDBRANCH   3   6
ENDBRANCH   1   2
BRANCH   1  21
ATOM     21  C   UNL A   1      32.618  29.735  25.275  1.00  0.00     0.042 C 
BRANCH  21  22
ATOM     22  C   UNL A   1      33.000  30.026  26.718  1.00  0.00     0.118 C 
BRANCH  22  23
ATOM     23  N   UNL A   1      33.023  31.459  27.007  1.00  0.00    -0.352 N 
ATOM     24  C   UNL A   1      33.868  32.208  27.786  1.00  0.00     0.251 C 
ATOM     25  H   UNL A   1      32.309  31.975  26.567  1.00  0.00     0.163 HD
ATOM     26  O   UNL A   1      33.554  33.359  28.065  1.00  0.00    -0.269 OA
BRANCH  24  27
ATOM     27  C   UNL A   1      35.128  31.625  28.291  1.00  0.00     0.039 A 
ATOM     28  C   UNL A   1      36.294  32.391  28.248  1.00  0.00     0.014 A 
ATOM     29  C   UNL A   1      35.165  30.322  28.789  1.00  0.00     0.014 A 
ATOM     30  C   UNL A   1      37.479  31.867  28.764  1.00  0.00     0.010 A 
ATOM     31  C   UNL A   1      36.309  29.853  29.419  1.00  0.00     0.010 A 
ATOM     32  C   UNL A   1      37.485  30.610  29.392  1.00  0.00    -0.014 A 
BRANCH  32  33
ATOM     33  C   UNL A   1      38.723  30.065  30.000  1.00  0.00     0.031 A 
ATOM     34  C   UNL A   1      39.151  30.518  31.371  1.00  0.00     0.074 A 
ATOM     35  C   UNL A   1      39.474  29.197  29.295  1.00  0.00     0.049 A 
ATOM     36  N   UNL A   1      40.204  30.169  32.066  1.00  0.00    -0.248 NA
ATOM     37  C   UNL A   1      38.308  31.525  32.035  1.00  0.00     0.031 C 
ATOM     38  C   UNL A   1      39.185  28.746  27.931  1.00  0.00     0.029 A 
ATOM     39  N   UNL A   1      40.626  28.532  29.626  1.00  0.00    -0.354 N 
ATOM     40  C   UNL A   1      40.151  30.919  33.237  1.00  0.00     0.074 A 
ATOM     41  C   UNL A   1      39.014  31.803  33.118  1.00  0.00     0.031 C 
ATOM     42  C   UNL A   1      40.102  27.835  27.566  1.00  0.00     0.029 A 
ATOM     43  C   UNL A   1      41.069  27.676  28.645  1.00  0.00     0.049 A 
ATOM     44  H   UNL A   1      41.091  28.654  30.485  1.00  0.00     0.167 HD
ATOM     45  C   UNL A   1      40.956  30.849  34.325  1.00  0.00     0.034 A 
ATOM     46  C   UNL A   1      42.136  26.854  28.623  1.00  0.00     0.034 A 
ATOM     47  C   UNL A   1      42.077  29.948  34.423  1.00  0.00     0.049 A 
ATOM     48  C   UNL A   1      43.016  26.795  29.844  1.00  0.00     0.074 A 
ATOM     49  C   UNL A   1      42.938  29.752  35.487  1.00  0.00     0.029 A 
ATOM     50  N   UNL A   1      42.500  29.092  33.410  1.00  0.00    -0.354 N 
ATOM     51  N   UNL A   1      42.918  27.465  30.971  1.00  0.00    -0.248 NA
ATOM     52  C   UNL A   1      44.139  25.853  29.798  1.00  0.00     0.031 C 
ATOM     53  C   UNL A   1      43.921  28.837  35.094  1.00  0.00     0.029 A 
ATOM     54  C   UNL A   1      43.623  28.390  33.816  1.00  0.00     0.049 A 
ATOM     55  H   UNL A   1      42.063  29.000  32.533  1.00  0.00     0.167 HD
ATOM     56  C   UNL A   1      43.950  26.999  31.780  1.00  0.00     0.074 A 
ATOM     57  C   UNL A   1      44.633  25.972  31.020  1.00  0.00     0.031 C 
ATOM     58  C   UNL A   1      44.304  27.382  33.035  1.00  0.00     0.034 A 
BRANCH  45  59
ATOM     59  C   UNL A   1      40.655  31.785  35.474  1.00  0.00     0.023 A 
ATOM     60  C   UNL A   1      39.547  31.588  36.319  1.00  0.00     0.031 A 
ATOM     61  C   UNL A   1      41.464  32.910  35.709  1.00  0.00     0.131 A 
ATOM     62  C   UNL A   1      39.232  32.542  37.299  1.00  0.00     0.055 A 
ATOM     63  C   UNL A   1      41.197  33.808  36.745  1.00  0.00     0.041 A 
ATOM     64  F   UNL A   1      42.522  33.169  34.923  1.00  0.00    -0.206 F 
ATOM     65  C   UNL A   1      40.065  33.636  37.537  1.00  0.00     0.022 A 
BRANCH  62  66
ATOM     66  S   UNL A   1      37.632  32.416  38.147  1.00  0.00     0.124 S 
ATOM     67  O   UNL A   1      37.966  32.920  39.478  1.00  0.00    -0.237 OA
ATOM     68  O   UNL A   1      36.777  33.274  37.336  1.00  0.00    -0.237 OA
ATOM     69  O   UNL A   1      37.324  30.989  38.089  1.00  0.00    -0.744 OA
ENDBRANCH  62  66
ENDBRANCH  45  59
BRANCH  46  70
ATOM     70  C   UNL A   1      42.425  26.017  27.422  1.00  0.00     0.023 A 
ATOM     71  C   UNL A   1      42.005  24.679  27.353  1.00  0.00     0.031 A 
ATOM     72  C   UNL A   1      43.164  26.529  26.341  1.00  0.00     0.131 A 
ATOM     73  C   UNL A   1      42.372  23.884  26.256  1.00  0.00     0.055 A 
ATOM     74  C   UNL A   1      43.475  25.753  25.224  1.00  0.00     0.041 A 
ATOM     75  F   UNL A   1      43.586  27.804  26.349  1.00  0.00    -0.206 F 
ATOM     76  C   UNL A   1      43.091  24.417  25.185  1.00  0.00     0.022 A 
BRANCH  73  77
ATOM     77  S   UNL A   1      41.979  22.113  26.296  1.00  0.00     0.124 S 
ATOM     78  O   UNL A   1      42.805  21.601  25.210  1.00  0.00    -0.237 OA
ATOM     79  O   UNL A   1      42.391  21.743  27.646  1.00  0.00    -0.237 OA
ATOM     80  O   UNL A   1      40.538  22.080  26.056  1.00  0.00    -0.744 OA
ENDBRANCH  73  77
ENDBRANCH  46  70
BRANCH  58  81
ATOM     81  C   UNL A   1      45.464  26.646  33.665  1.00  0.00     0.023 A 
ATOM     82  C   UNL A   1      45.278  25.452  34.383  1.00  0.00     0.031 A 
ATOM     83  C   UNL A   1      46.764  27.176  33.591  1.00  0.00     0.131 A 
ATOM     84  C   UNL A   1      46.353  24.881  35.077  1.00  0.00     0.055 A 
ATOM     85  C   UNL A   1      47.847  26.554  34.213  1.00  0.00     0.041 A 
ATOM     86  F   UNL A   1      47.003  28.315  32.920  1.00  0.00    -0.206 F 
ATOM     87  C   UNL A   1      47.641  25.412  34.981  1.00  0.00     0.022 A 
BRANCH  84  88
ATOM     88  S   UNL A   1      46.012  23.526  36.234  1.00  0.00     0.124 S 
ATOM     89  O   UNL A   1      46.100  24.202  37.525  1.00  0.00    -0.237 OA
ATOM     90  O   UNL A   1      44.677  23.100  35.829  1.00  0.00    -0.237 OA
ATOM     91  O   UNL A   1      47.079  22.567  35.962  1.00  0.00    -0.744 OA
ENDBRANCH  84  88
ENDBRANCH  58  81
ENDBRANCH  32  33
ENDBRANCH  24  27
ENDBRANCH  22  23
ENDBRANCH  21  22
ENDBRANCH   1  21
TORSDOF 18
ENDMDL
