MODEL 1
REMARK VINA RESULT:     -11.8      0.000      0.000
REMARK SMILES COCC1CCN(C(=O)NC[C@H]2CC[C@H](C(=O)NCCCNC(=O)c3ccc(-c4c5nc(c(-c6cc(S(=O)(=O)[O-])ccc6F)c6ccc([nH]6)c(-c6cc(S(=O)(=O)[O-])ccc6F)c6nc(c(-c7cc(S(=O)(=O)[O-])ccc7F)c7ccc4[nH]7)C=C6)C=C5)cc3)O2)CC1
REMARK SMILES IDX 19 1 18 2 16 3 17 4 15 6 12 7 13 8 88 9 14 10 11 11 10 12
REMARK SMILES IDX 4 13 5 14 90 15 6 16 89 17 7 18 8 19 9 20 3 22 2 23 1 24
REMARK SMILES IDX 20 25 21 26 22 27 23 28 24 30 25 31 26 32 87 33 27 34 86 35
REMARK SMILES IDX 28 36 29 37 30 38 80 39 31 40 85 41 79 42 81 43 32 44 84 45
REMARK SMILES IDX 78 46 77 47 33 49 65 50 45 51 64 52 46 53 49 54 63 55 82 56
REMARK SMILES IDX 47 57 48 58 62 60 83 61 50 62 34 63 35 64 43 65 36 66 42 67
REMARK SMILES IDX 44 68 41 69 37 70 38 71 39 72 40 73 66 74 67 75 75 76 68 77
REMARK SMILES IDX 74 78 76 79 73 80 69 81 70 82 71 83 72 84 51 85 52 86 60 87
REMARK SMILES IDX 53 88 59 89 61 90 58 91 54 92 55 93 56 94 57 95
REMARK H PARENT 18 5 10 21 22 29 81 48 49 59
REMARK Flexibility Score: inf
ROOT
ATOM      1  C   UNL A   1      31.665  30.810  26.140  1.00  0.00     0.117 C 
ENDROOT
BRANCH   1   2
ATOM      2  N   UNL A   1      32.937  30.248  26.539  1.00  0.00    -0.354 N 
ATOM      3  C   UNL A   1      33.561  29.107  26.131  1.00  0.00     0.249 C 
ATOM      4  O   UNL A   1      34.677  28.872  26.606  1.00  0.00    -0.272 OA
ATOM      5  H   UNL A   1      33.430  30.772  27.211  1.00  0.00     0.163 HD
BRANCH   3   6
ATOM      6  C   UNL A   1      32.889  28.099  25.171  1.00  0.00     0.207 C 
ATOM      7  C   UNL A   1      30.860  28.148  23.981  1.00  0.00     0.138 C 
ATOM      8  C   UNL A   1      30.580  27.495  25.324  1.00  0.00     0.037 C 
ATOM      9  O   UNL A   1      32.211  28.649  24.042  1.00  0.00    -0.363 OA
ATOM     10  C   UNL A   1      31.934  27.171  25.896  1.00  0.00     0.045 C 
BRANCH   7  11
ATOM     11  C   UNL A   1      30.696  27.289  22.718  1.00  0.00     0.149 C 
BRANCH  11  12
ATOM     12  N   UNL A   1      31.944  26.998  22.051  1.00  0.00    -0.335 N 
ATOM     13  C   UNL A   1      31.743  22.162  23.043  1.00  0.00     0.018 C 
ATOM     14  C   UNL A   1      32.878  22.583  22.083  1.00  0.00     0.027 C 
ATOM     15  C   UNL A   1      30.904  23.379  23.467  1.00  0.00     0.027 C 
ATOM     16  C   UNL A   1      33.661  23.792  22.596  1.00  0.00     0.121 C 
ATOM     17  C   UNL A   1      31.772  24.550  23.911  1.00  0.00     0.121 C 
ATOM     18  N   UNL A   1      32.730  24.890  22.859  1.00  0.00    -0.325 N 
ATOM     19  C   UNL A   1      32.829  25.989  22.052  1.00  0.00     0.317 C 
ATOM     20  O   UNL A   1      33.752  26.128  21.243  1.00  0.00    -0.249 OA
ATOM     21  H   UNL A   1      32.213  27.722  21.441  1.00  0.00     0.165 HD
BRANCH  13  22
ATOM     22  C   UNL A   1      32.292  21.403  24.265  1.00  0.00     0.163 C 
BRANCH  22  23
ATOM     23  O   UNL A   1      33.327  20.506  23.862  1.00  0.00    -0.384 OA
ATOM     24  C   UNL A   1      33.829  19.731  24.944  1.00  0.00     0.194 C 
ENDBRANCH  22  23
ENDBRANCH  13  22
ENDBRANCH  11  12
ENDBRANCH   7  11
ENDBRANCH   3   6
ENDBRANCH   1   2
BRANCH   1  25
ATOM     25  C   UNL A   1      31.504  32.256  26.594  1.00  0.00     0.042 C 
BRANCH  25  26
ATOM     26  C   UNL A   1      32.744  32.814  27.275  1.00  0.00     0.118 C 
BRANCH  26  27
ATOM     27  N   UNL A   1      32.548  34.190  27.707  1.00  0.00    -0.352 N 
ATOM     28  C   UNL A   1      33.103  34.880  28.755  1.00  0.00     0.251 C 
ATOM     29  H   UNL A   1      31.915  34.710  27.159  1.00  0.00     0.163 HD
ATOM     30  O   UNL A   1      32.607  35.952  29.088  1.00  0.00    -0.269 OA
BRANCH  28  31
ATOM     31  C   UNL A   1      34.269  34.334  29.483  1.00  0.00     0.039 A 
ATOM     32  C   UNL A   1      34.046  33.592  30.648  1.00  0.00     0.014 A 
ATOM     33  C   UNL A   1      35.575  34.578  29.052  1.00  0.00     0.014 A 
ATOM     34  C   UNL A   1      35.130  33.053  31.344  1.00  0.00     0.010 A 
ATOM     35  C   UNL A   1      36.647  33.966  29.694  1.00  0.00     0.010 A 
ATOM     36  C   UNL A   1      36.437  33.207  30.853  1.00  0.00    -0.014 A 
BRANCH  36  37
ATOM     37  C   UNL A   1      37.595  32.587  31.546  1.00  0.00     0.031 A 
ATOM     38  C   UNL A   1      38.331  31.440  30.907  1.00  0.00     0.074 A 
ATOM     39  C   UNL A   1      37.944  33.024  32.773  1.00  0.00     0.049 A 
ATOM     40  N   UNL A   1      39.320  30.727  31.378  1.00  0.00    -0.248 NA
ATOM     41  C   UNL A   1      37.870  31.020  29.575  1.00  0.00     0.031 C 
ATOM     42  C   UNL A   1      37.274  34.099  33.507  1.00  0.00     0.029 A 
ATOM     43  N   UNL A   1      38.941  32.615  33.621  1.00  0.00    -0.354 N 
ATOM     44  C   UNL A   1      39.593  29.767  30.408  1.00  0.00     0.074 A 
ATOM     45  C   UNL A   1      38.618  29.951  29.354  1.00  0.00     0.031 C 
ATOM     46  C   UNL A   1      37.897  34.284  34.681  1.00  0.00     0.029 A 
ATOM     47  C   UNL A   1      38.977  33.312  34.807  1.00  0.00     0.049 A 
ATOM     48  H   UNL A   1      39.571  31.892  33.402  1.00  0.00     0.167 HD
ATOM     49  C   UNL A   1      40.580  28.837  30.389  1.00  0.00     0.034 A 
ATOM     50  C   UNL A   1      39.782  33.175  35.878  1.00  0.00     0.034 A 
ATOM     51  C   UNL A   1      41.548  28.679  31.447  1.00  0.00     0.049 A 
ATOM     52  C   UNL A   1      40.859  32.120  35.843  1.00  0.00     0.074 A 
ATOM     53  C   UNL A   1      42.622  27.808  31.511  1.00  0.00     0.029 A 
ATOM     54  N   UNL A   1      41.555  29.403  32.635  1.00  0.00    -0.354 N 
ATOM     55  N   UNL A   1      41.137  31.256  34.894  1.00  0.00    -0.248 NA
ATOM     56  C   UNL A   1      41.736  32.032  37.016  1.00  0.00     0.031 C 
ATOM     57  C   UNL A   1      43.233  27.956  32.761  1.00  0.00     0.029 A 
ATOM     58  C   UNL A   1      42.593  28.977  33.447  1.00  0.00     0.049 A 
ATOM     59  H   UNL A   1      40.915  30.115  32.864  1.00  0.00     0.167 HD
ATOM     60  C   UNL A   1      42.244  30.542  35.346  1.00  0.00     0.074 A 
ATOM     61  C   UNL A   1      42.589  31.091  36.641  1.00  0.00     0.031 C 
ATOM     62  C   UNL A   1      42.915  29.526  34.744  1.00  0.00     0.034 A 
BRANCH  49  63
ATOM     63  C   UNL A   1      40.638  27.909  29.198  1.00  0.00     0.023 A 
ATOM     64  C   UNL A   1      41.572  28.092  28.163  1.00  0.00     0.031 A 
ATOM     65  C   UNL A   1      39.733  26.840  29.080  1.00  0.00     0.131 A 
ATOM     66  C   UNL A   1      41.529  27.274  27.023  1.00  0.00     0.055 A 
ATOM     67  C   UNL A   1      39.750  25.975  27.983  1.00  0.00     0.041 A 
ATOM     68  F   UNL A   1      38.802  26.624  30.024  1.00  0.00    -0.206 F 
ATOM     69  C   UNL A   1      40.641  26.200  26.938  1.00  0.00     0.022 A 
BRANCH  66  70
ATOM     70  S   UNL A   1      42.546  27.728  25.592  1.00  0.00     0.124 S 
ATOM     71  O   UNL A   1      43.833  28.014  26.224  1.00  0.00    -0.237 OA
ATOM     72  O   UNL A   1      42.492  26.523  24.772  1.00  0.00    -0.237 OA
ATOM     73  O   UNL A   1      41.860  28.892  25.038  1.00  0.00    -0.744 OA
ENDBRANCH  66  70
ENDBRANCH  49  63
BRANCH  50  74
ATOM     74  C   UNL A   1      39.603  34.046  37.075  1.00  0.00     0.023 A 
ATOM     75  C   UNL A   1      39.008  33.553  38.247  1.00  0.00     0.031 A 
ATOM     76  C   UNL A   1      39.993  35.397  37.054  1.00  0.00     0.131 A 
ATOM     77  C   UNL A   1      38.774  34.414  39.330  1.00  0.00     0.055 A 
ATOM     78  C   UNL A   1      39.809  36.237  38.154  1.00  0.00     0.041 A 
ATOM     79  F   UNL A   1      40.576  35.919  35.962  1.00  0.00    -0.206 F 
ATOM     80  C   UNL A   1      39.183  35.750  39.296  1.00  0.00     0.022 A 
BRANCH  77  81
ATOM     81  S   UNL A   1      37.848  33.784  40.756  1.00  0.00     0.124 S 
ATOM     82  O   UNL A   1      37.468  35.019  41.432  1.00  0.00    -0.237 OA
ATOM     83  O   UNL A   1      36.768  33.045  40.112  1.00  0.00    -0.237 OA
ATOM     84  O   UNL A   1      38.829  32.962  41.461  1.00  0.00    -0.744 OA
ENDBRANCH  77  81
ENDBRANCH  50  74
BRANCH  62  85
ATOM     85  C   UNL A   1      44.119  28.979  35.473  1.00  0.00     0.023 A 
ATOM     86  C   UNL A   1      44.011  27.919  36.389  1.00  0.00     0.031 A 
ATOM     87  C   UNL A   1      45.390  29.540  35.258  1.00  0.00     0.131 A 
ATOM     88  C   UNL A   1      45.141  27.496  37.105  1.00  0.00     0.055 A 
ATOM     89  C   UNL A   1      46.524  29.070  35.924  1.00  0.00     0.041 A 
ATOM     90  F   UNL A   1      45.553  30.557  34.396  1.00  0.00    -0.206 F 
ATOM     91  C   UNL A   1      46.400  28.053  36.864  1.00  0.00     0.022 A 
BRANCH  88  92
ATOM     92  S   UNL A   1      44.924  26.280  38.434  1.00  0.00     0.124 S 
ATOM     93  O   UNL A   1      45.999  26.640  39.353  1.00  0.00    -0.237 OA
ATOM     94  O   UNL A   1      43.569  26.561  38.895  1.00  0.00    -0.237 OA
ATOM     95  O   UNL A   1      45.093  24.996  37.754  1.00  0.00    -0.744 OA
ENDBRANCH  88  92
ENDBRANCH  62  85
ENDBRANCH  36  37
ENDBRANCH  28  31
ENDBRANCH  26  27
ENDBRANCH  25  26
ENDBRANCH   1  25
TORSDOF 17
ENDMDL
MODEL 2
REMARK VINA RESULT:     -11.5      5.678     11.711
REMARK SMILES COCC1CCN(C(=O)NC[C@H]2CC[C@H](C(=O)NCCCNC(=O)c3ccc(-c4c5nc(c(-c6cc(S(=O)(=O)[O-])ccc6F)c6ccc([nH]6)c(-c6cc(S(=O)(=O)[O-])ccc6F)c6nc(c(-c7cc(S(=O)(=O)[O-])ccc7F)c7ccc4[nH]7)C=C6)C=C5)cc3)O2)CC1
REMARK SMILES IDX 19 1 18 2 16 3 17 4 15 6 12 7 13 8 88 9 14 10 11 11 10 12
REMARK SMILES IDX 4 13 5 14 90 15 6 16 89 17 7 18 8 19 9 20 3 22 2 23 1 24
REMARK SMILES IDX 20 25 21 26 22 27 23 28 24 30 25 31 26 32 87 33 27 34 86 35
REMARK SMILES IDX 28 36 29 37 30 38 80 39 31 40 85 41 79 42 81 43 32 44 84 45
REMARK SMILES IDX 78 46 77 47 33 49 65 50 45 51 64 52 46 53 49 54 63 55 82 56
REMARK SMILES IDX 47 57 48 58 62 60 83 61 50 62 34 63 35 64 43 65 36 66 42 67
REMARK SMILES IDX 44 68 41 69 37 70 38 71 39 72 40 73 66 74 67 75 75 76 68 77
REMARK SMILES IDX 74 78 76 79 73 80 69 81 70 82 71 83 72 84 51 85 52 86 60 87
REMARK SMILES IDX 53 88 59 89 61 90 58 91 54 92 55 93 56 94 57 95
REMARK H PARENT 18 5 10 21 22 29 81 48 49 59
REMARK Flexibility Score: inf
ROOT
ATOM      1  C   UNL A   1      36.955  20.741  24.753  1.00  0.00     0.117 C 
ENDROOT
BRANCH   1   2
ATOM      2  N   UNL A   1      36.238  21.065  25.967  1.00  0.00    -0.354 N 
ATOM      3  C   UNL A   1      34.952  21.478  26.145  1.00  0.00     0.249 C 
ATOM      4  O   UNL A   1      34.570  21.653  27.307  1.00  0.00    -0.272 OA
ATOM      5  H   UNL A   1      36.763  20.973  26.796  1.00  0.00     0.163 HD
BRANCH   3   6
ATOM      6  C   UNL A   1      34.016  21.790  24.956  1.00  0.00     0.207 C 
ATOM      7  C   UNL A   1      32.101  23.143  24.752  1.00  0.00     0.138 C 
ATOM      8  C   UNL A   1      31.631  21.748  25.129  1.00  0.00     0.037 C 
ATOM      9  O   UNL A   1      33.540  23.132  24.853  1.00  0.00    -0.363 OA
ATOM     10  C   UNL A   1      32.822  20.856  24.909  1.00  0.00     0.045 C 
BRANCH   7  11
ATOM     11  C   UNL A   1      31.696  23.688  23.374  1.00  0.00     0.149 C 
BRANCH  11  12
ATOM     12  N   UNL A   1      32.739  24.446  22.723  1.00  0.00    -0.335 N 
ATOM     13  C   UNL A   1      30.932  28.815  24.158  1.00  0.00     0.018 C 
ATOM     14  C   UNL A   1      32.318  28.876  23.478  1.00  0.00     0.027 C 
ATOM     15  C   UNL A   1      30.428  27.365  24.249  1.00  0.00     0.027 C 
ATOM     16  C   UNL A   1      32.369  28.065  22.182  1.00  0.00     0.121 C 
ATOM     17  C   UNL A   1      30.570  26.623  22.926  1.00  0.00     0.121 C 
ATOM     18  N   UNL A   1      31.956  26.689  22.460  1.00  0.00    -0.325 N 
ATOM     19  C   UNL A   1      32.912  25.721  22.339  1.00  0.00     0.317 C 
ATOM     20  O   UNL A   1      34.029  25.957  21.868  1.00  0.00    -0.249 OA
ATOM     21  H   UNL A   1      33.520  23.888  22.507  1.00  0.00     0.165 HD
BRANCH  13  22
ATOM     22  C   UNL A   1      29.913  29.722  23.444  1.00  0.00     0.163 C 
BRANCH  22  23
ATOM     23  O   UNL A   1      28.608  29.147  23.516  1.00  0.00    -0.384 OA
ATOM     24  C   UNL A   1      27.656  29.855  22.731  1.00  0.00     0.194 C 
ENDBRANCH  22  23
ENDBRANCH  13  22
ENDBRANCH  11  12
ENDBRANCH   7  11
ENDBRANCH   3   6
ENDBRANCH   1   2
BRANCH   1  25
ATOM     25  C   UNL A   1      38.093  19.756  24.999  1.00  0.00     0.042 C 
BRANCH  25  26
ATOM     26  C   UNL A   1      39.101  20.246  26.027  1.00  0.00     0.118 C 
BRANCH  26  27
ATOM     27  N   UNL A   1      40.275  19.386  26.081  1.00  0.00    -0.352 N 
ATOM     28  C   UNL A   1      41.608  19.706  26.119  1.00  0.00     0.251 C 
ATOM     29  H   UNL A   1      40.081  18.421  26.093  1.00  0.00     0.163 HD
ATOM     30  O   UNL A   1      42.436  18.825  25.906  1.00  0.00    -0.269 OA
BRANCH  28  31
ATOM     31  C   UNL A   1      42.044  21.093  26.393  1.00  0.00     0.039 A 
ATOM     32  C   UNL A   1      42.297  21.468  27.717  1.00  0.00     0.014 A 
ATOM     33  C   UNL A   1      42.167  22.033  25.367  1.00  0.00     0.014 A 
ATOM     34  C   UNL A   1      42.726  22.766  27.999  1.00  0.00     0.010 A 
ATOM     35  C   UNL A   1      42.680  23.298  25.639  1.00  0.00     0.010 A 
ATOM     36  C   UNL A   1      42.954  23.681  26.959  1.00  0.00    -0.014 A 
BRANCH  36  37
ATOM     37  C   UNL A   1      43.469  25.047  27.236  1.00  0.00     0.031 A 
ATOM     38  C   UNL A   1      42.548  26.103  27.786  1.00  0.00     0.074 A 
ATOM     39  C   UNL A   1      44.749  25.345  26.937  1.00  0.00     0.049 A 
ATOM     40  N   UNL A   1      42.790  27.364  28.031  1.00  0.00    -0.248 NA
ATOM     41  C   UNL A   1      41.164  25.692  28.065  1.00  0.00     0.031 C 
ATOM     42  C   UNL A   1      45.719  24.412  26.358  1.00  0.00     0.029 A 
ATOM     43  N   UNL A   1      45.453  26.513  27.071  1.00  0.00    -0.354 N 
ATOM     44  C   UNL A   1      41.588  27.901  28.483  1.00  0.00     0.074 A 
ATOM     45  C   UNL A   1      40.605  26.841  28.410  1.00  0.00     0.031 C 
ATOM     46  C   UNL A   1      46.898  25.037  26.216  1.00  0.00     0.029 A 
ATOM     47  C   UNL A   1      46.759  26.424  26.645  1.00  0.00     0.049 A 
ATOM     48  H   UNL A   1      45.062  27.339  27.438  1.00  0.00     0.167 HD
ATOM     49  C   UNL A   1      41.335  29.153  28.937  1.00  0.00     0.034 A 
ATOM     50  C   UNL A   1      47.728  27.357  26.594  1.00  0.00     0.034 A 
ATOM     51  C   UNL A   1      42.334  30.192  29.009  1.00  0.00     0.049 A 
ATOM     52  C   UNL A   1      47.419  28.749  27.085  1.00  0.00     0.074 A 
ATOM     53  C   UNL A   1      42.207  31.479  29.501  1.00  0.00     0.029 A 
ATOM     54  N   UNL A   1      43.648  30.066  28.569  1.00  0.00    -0.354 N 
ATOM     55  N   UNL A   1      46.291  29.225  27.559  1.00  0.00    -0.248 NA
ATOM     56  C   UNL A   1      48.517  29.722  27.047  1.00  0.00     0.031 C 
ATOM     57  C   UNL A   1      43.417  32.151  29.294  1.00  0.00     0.029 A 
ATOM     58  C   UNL A   1      44.328  31.260  28.749  1.00  0.00     0.049 A 
ATOM     59  H   UNL A   1      44.037  29.247  28.186  1.00  0.00     0.167 HD
ATOM     60  C   UNL A   1      46.554  30.548  27.904  1.00  0.00     0.074 A 
ATOM     61  C   UNL A   1      47.951  30.784  27.600  1.00  0.00     0.031 C 
ATOM     62  C   UNL A   1      45.719  31.482  28.427  1.00  0.00     0.034 A 
BRANCH  49  63
ATOM     63  C   UNL A   1      39.920  29.468  29.363  1.00  0.00     0.023 A 
ATOM     64  C   UNL A   1      39.565  29.585  30.718  1.00  0.00     0.031 A 
ATOM     65  C   UNL A   1      38.904  29.628  28.404  1.00  0.00     0.131 A 
ATOM     66  C   UNL A   1      38.222  29.773  31.080  1.00  0.00     0.055 A 
ATOM     67  C   UNL A   1      37.583  29.901  28.767  1.00  0.00     0.041 A 
ATOM     68  F   UNL A   1      39.175  29.507  27.094  1.00  0.00    -0.206 F 
ATOM     69  C   UNL A   1      37.233  29.958  30.112  1.00  0.00     0.022 A 
BRANCH  66  70
ATOM     70  S   UNL A   1      37.766  29.621  32.829  1.00  0.00     0.124 S 
ATOM     71  O   UNL A   1      37.402  28.207  32.916  1.00  0.00    -0.237 OA
ATOM     72  O   UNL A   1      38.996  30.006  33.511  1.00  0.00    -0.237 OA
ATOM     73  O   UNL A   1      36.652  30.554  32.975  1.00  0.00    -0.744 OA
ENDBRANCH  66  70
ENDBRANCH  49  63
BRANCH  50  74
ATOM     74  C   UNL A   1      49.077  27.018  26.055  1.00  0.00     0.023 A 
ATOM     75  C   UNL A   1      49.471  27.436  24.774  1.00  0.00     0.031 A 
ATOM     76  C   UNL A   1      49.981  26.240  26.800  1.00  0.00     0.131 A 
ATOM     77  C   UNL A   1      50.712  27.033  24.257  1.00  0.00     0.055 A 
ATOM     78  C   UNL A   1      51.237  25.887  26.303  1.00  0.00     0.041 A 
ATOM     79  F   UNL A   1      49.660  25.820  28.035  1.00  0.00    -0.206 F 
ATOM     80  C   UNL A   1      51.603  26.273  25.018  1.00  0.00     0.022 A 
BRANCH  77  81
ATOM     81  S   UNL A   1      51.110  27.447  22.537  1.00  0.00     0.124 S 
ATOM     82  O   UNL A   1      50.016  26.804  21.817  1.00  0.00    -0.237 OA
ATOM     83  O   UNL A   1      51.092  28.905  22.565  1.00  0.00    -0.237 OA
ATOM     84  O   UNL A   1      52.427  26.845  22.339  1.00  0.00    -0.744 OA
ENDBRANCH  77  81
ENDBRANCH  50  74
BRANCH  62  85
ATOM     85  C   UNL A   1      46.318  32.832  28.741  1.00  0.00     0.023 A 
ATOM     86  C   UNL A   1      46.307  33.882  27.806  1.00  0.00     0.031 A 
ATOM     87  C   UNL A   1      46.923  33.064  29.988  1.00  0.00     0.131 A 
ATOM     88  C   UNL A   1      46.946  35.093  28.109  1.00  0.00     0.055 A 
ATOM     89  C   UNL A   1      47.499  34.295  30.309  1.00  0.00     0.041 A 
ATOM     90  F   UNL A   1      46.965  32.097  30.919  1.00  0.00    -0.206 F 
ATOM     91  C   UNL A   1      47.526  35.313  29.361  1.00  0.00     0.022 A 
BRANCH  88  92
ATOM     92  S   UNL A   1      47.104  36.344  26.804  1.00  0.00     0.124 S 
ATOM     93  O   UNL A   1      46.480  35.675  25.667  1.00  0.00    -0.237 OA
ATOM     94  O   UNL A   1      46.367  37.472  27.363  1.00  0.00    -0.237 OA
ATOM     95  O   UNL A   1      48.548  36.542  26.691  1.00  0.00    -0.744 OA
ENDBRANCH  88  92
ENDBRANCH  62  85
ENDBRANCH  36  37
ENDBRANCH  28  31
ENDBRANCH  26  27
ENDBRANCH  25  26
ENDBRANCH   1  25
TORSDOF 17
ENDMDL
MODEL 3
REMARK VINA RESULT:     -11.4      5.963     11.303
REMARK SMILES COCC1CCN(C(=O)NC[C@H]2CC[C@H](C(=O)NCCCNC(=O)c3ccc(-c4c5nc(c(-c6cc(S(=O)(=O)[O-])ccc6F)c6ccc([nH]6)c(-c6cc(S(=O)(=O)[O-])ccc6F)c6nc(c(-c7cc(S(=O)(=O)[O-])ccc7F)c7ccc4[nH]7)C=C6)C=C5)cc3)O2)CC1
REMARK SMILES IDX 19 1 18 2 16 3 17 4 15 6 12 7 13 8 88 9 14 10 11 11 10 12
REMARK SMILES IDX 4 13 5 14 90 15 6 16 89 17 7 18 8 19 9 20 3 22 2 23 1 24
REMARK SMILES IDX 20 25 21 26 22 27 23 28 24 30 25 31 26 32 87 33 27 34 86 35
REMARK SMILES IDX 28 36 29 37 30 38 80 39 31 40 85 41 79 42 81 43 32 44 84 45
REMARK SMILES IDX 78 46 77 47 33 49 65 50 45 51 64 52 46 53 49 54 63 55 82 56
REMARK SMILES IDX 47 57 48 58 62 60 83 61 50 62 34 63 35 64 43 65 36 66 42 67
REMARK SMILES IDX 44 68 41 69 37 70 38 71 39 72 40 73 66 74 67 75 75 76 68 77
REMARK SMILES IDX 74 78 76 79 73 80 69 81 70 82 71 83 72 84 51 85 52 86 60 87
REMARK SMILES IDX 53 88 59 89 61 90 58 91 54 92 55 93 56 94 57 95
REMARK H PARENT 18 5 10 21 22 29 81 48 49 59
REMARK Flexibility Score: inf
ROOT
ATOM      1  C   UNL A   1      36.043  19.825  25.012  1.00  0.00     0.117 C 
ENDROOT
BRANCH   1   2
ATOM      2  N   UNL A   1      35.876  20.958  25.896  1.00  0.00    -0.354 N 
ATOM      3  C   UNL A   1      34.897  21.904  25.938  1.00  0.00     0.249 C 
ATOM      4  O   UNL A   1      34.970  22.755  26.831  1.00  0.00    -0.272 OA
ATOM      5  H   UNL A   1      36.582  21.061  26.576  1.00  0.00     0.163 HD
BRANCH   3   6
ATOM      6  C   UNL A   1      33.773  21.972  24.880  1.00  0.00     0.207 C 
ATOM      7  C   UNL A   1      31.926  23.405  24.612  1.00  0.00     0.138 C 
ATOM      8  C   UNL A   1      31.463  22.223  25.448  1.00  0.00     0.037 C 
ATOM      9  O   UNL A   1      33.356  23.275  24.475  1.00  0.00    -0.363 OA
ATOM     10  C   UNL A   1      32.545  21.187  25.301  1.00  0.00     0.045 C 
BRANCH   7  11
ATOM     11  C   UNL A   1      31.299  23.590  23.222  1.00  0.00     0.149 C 
BRANCH  11  12
ATOM     12  N   UNL A   1      32.147  24.306  22.297  1.00  0.00    -0.335 N 
ATOM     13  C   UNL A   1      32.038  28.498  24.908  1.00  0.00     0.018 C 
ATOM     14  C   UNL A   1      33.029  28.496  23.723  1.00  0.00     0.027 C 
ATOM     15  C   UNL A   1      31.306  27.151  25.015  1.00  0.00     0.027 C 
ATOM     16  C   UNL A   1      32.396  27.973  22.433  1.00  0.00     0.121 C 
ATOM     17  C   UNL A   1      30.758  26.687  23.671  1.00  0.00     0.121 C 
ATOM     18  N   UNL A   1      31.833  26.644  22.679  1.00  0.00    -0.325 N 
ATOM     19  C   UNL A   1      32.430  25.593  22.043  1.00  0.00     0.317 C 
ATOM     20  O   UNL A   1      33.301  25.756  21.182  1.00  0.00    -0.249 OA
ATOM     21  H   UNL A   1      32.640  23.696  21.702  1.00  0.00     0.165 HD
BRANCH  13  22
ATOM     22  C   UNL A   1      31.047  29.672  24.812  1.00  0.00     0.163 C 
BRANCH  22  23
ATOM     23  O   UNL A   1      31.500  30.766  25.611  1.00  0.00    -0.384 OA
ATOM     24  C   UNL A   1      32.090  30.340  26.833  1.00  0.00     0.194 C 
ENDBRANCH  22  23
ENDBRANCH  13  22
ENDBRANCH  11  12
ENDBRANCH   7  11
ENDBRANCH   3   6
ENDBRANCH   1   2
BRANCH   1  25
ATOM     25  C   UNL A   1      37.508  19.554  24.689  1.00  0.00     0.042 C 
BRANCH  25  26
ATOM     26  C   UNL A   1      38.469  20.154  25.704  1.00  0.00     0.118 C 
BRANCH  26  27
ATOM     27  N   UNL A   1      39.606  19.280  25.951  1.00  0.00    -0.352 N 
ATOM     28  C   UNL A   1      40.927  19.581  26.167  1.00  0.00     0.251 C 
ATOM     29  H   UNL A   1      39.394  18.318  25.966  1.00  0.00     0.163 HD
ATOM     30  O   UNL A   1      41.759  18.681  26.101  1.00  0.00    -0.269 OA
BRANCH  28  31
ATOM     31  C   UNL A   1      41.346  20.970  26.456  1.00  0.00     0.039 A 
ATOM     32  C   UNL A   1      41.758  21.290  27.754  1.00  0.00     0.014 A 
ATOM     33  C   UNL A   1      41.302  21.963  25.475  1.00  0.00     0.014 A 
ATOM     34  C   UNL A   1      42.175  22.590  28.048  1.00  0.00     0.010 A 
ATOM     35  C   UNL A   1      41.801  23.233  25.745  1.00  0.00     0.010 A 
ATOM     36  C   UNL A   1      42.232  23.563  27.037  1.00  0.00    -0.014 A 
BRANCH  36  37
ATOM     37  C   UNL A   1      42.732  24.934  27.317  1.00  0.00     0.031 A 
ATOM     38  C   UNL A   1      41.836  25.940  27.990  1.00  0.00     0.074 A 
ATOM     39  C   UNL A   1      43.969  25.283  26.914  1.00  0.00     0.049 A 
ATOM     40  N   UNL A   1      42.063  27.199  28.260  1.00  0.00    -0.248 NA
ATOM     41  C   UNL A   1      40.496  25.475  28.378  1.00  0.00     0.031 C 
ATOM     42  C   UNL A   1      44.908  24.403  26.214  1.00  0.00     0.029 A 
ATOM     43  N   UNL A   1      44.649  26.468  27.028  1.00  0.00    -0.354 N 
ATOM     44  C   UNL A   1      40.893  27.680  28.839  1.00  0.00     0.074 A 
ATOM     45  C   UNL A   1      39.938  26.593  28.817  1.00  0.00     0.031 C 
ATOM     46  C   UNL A   1      46.050  25.070  25.988  1.00  0.00     0.029 A 
ATOM     47  C   UNL A   1      45.911  26.436  26.480  1.00  0.00     0.049 A 
ATOM     48  H   UNL A   1      44.270  27.267  27.460  1.00  0.00     0.167 HD
ATOM     49  C   UNL A   1      40.648  28.907  29.362  1.00  0.00     0.034 A 
ATOM     50  C   UNL A   1      46.845  27.401  26.377  1.00  0.00     0.034 A 
ATOM     51  C   UNL A   1      41.619  29.974  29.383  1.00  0.00     0.049 A 
ATOM     52  C   UNL A   1      46.543  28.763  26.947  1.00  0.00     0.074 A 
ATOM     53  C   UNL A   1      41.501  31.238  29.933  1.00  0.00     0.029 A 
ATOM     54  N   UNL A   1      42.890  29.905  28.820  1.00  0.00    -0.354 N 
ATOM     55  N   UNL A   1      45.450  29.186  27.540  1.00  0.00    -0.248 NA
ATOM     56  C   UNL A   1      47.604  29.772  26.846  1.00  0.00     0.031 C 
ATOM     57  C   UNL A   1      42.667  31.955  29.642  1.00  0.00     0.029 A 
ATOM     58  C   UNL A   1      43.549  31.113  28.982  1.00  0.00     0.049 A 
ATOM     59  H   UNL A   1      43.265  29.114  28.371  1.00  0.00     0.167 HD
ATOM     60  C   UNL A   1      45.706  30.504  27.910  1.00  0.00     0.074 A 
ATOM     61  C   UNL A   1      47.062  30.795  27.489  1.00  0.00     0.031 C 
ATOM     62  C   UNL A   1      44.897  31.392  28.542  1.00  0.00     0.034 A 
BRANCH  49  63
ATOM     63  C   UNL A   1      39.270  29.160  29.928  1.00  0.00     0.023 A 
ATOM     64  C   UNL A   1      38.312  29.919  29.232  1.00  0.00     0.031 A 
ATOM     65  C   UNL A   1      38.914  28.659  31.193  1.00  0.00     0.131 A 
ATOM     66  C   UNL A   1      37.082  30.221  29.834  1.00  0.00     0.055 A 
ATOM     67  C   UNL A   1      37.655  28.891  31.751  1.00  0.00     0.041 A 
ATOM     68  F   UNL A   1      39.792  27.946  31.918  1.00  0.00    -0.206 F 
ATOM     69  C   UNL A   1      36.736  29.690  31.079  1.00  0.00     0.022 A 
BRANCH  66  70
ATOM     70  S   UNL A   1      36.002  31.440  29.035  1.00  0.00     0.124 S 
ATOM     71  O   UNL A   1      35.198  30.590  28.158  1.00  0.00    -0.237 OA
ATOM     72  O   UNL A   1      35.301  32.032  30.168  1.00  0.00    -0.237 OA
ATOM     73  O   UNL A   1      36.936  32.327  28.346  1.00  0.00    -0.744 OA
ENDBRANCH  66  70
ENDBRANCH  49  63
BRANCH  50  74
ATOM     74  C   UNL A   1      48.148  27.124  25.704  1.00  0.00     0.023 A 
ATOM     75  C   UNL A   1      49.257  26.672  26.436  1.00  0.00     0.031 A 
ATOM     76  C   UNL A   1      48.313  27.343  24.325  1.00  0.00     0.131 A 
ATOM     77  C   UNL A   1      50.495  26.500  25.796  1.00  0.00     0.055 A 
ATOM     78  C   UNL A   1      49.532  27.118  23.682  1.00  0.00     0.041 A 
ATOM     79  F   UNL A   1      47.282  27.767  23.576  1.00  0.00    -0.206 F 
ATOM     80  C   UNL A   1      50.635  26.707  24.421  1.00  0.00     0.022 A 
BRANCH  77  81
ATOM     81  S   UNL A   1      51.943  26.083  26.805  1.00  0.00     0.124 S 
ATOM     82  O   UNL A   1      52.331  24.793  26.247  1.00  0.00    -0.237 OA
ATOM     83  O   UNL A   1      52.837  27.201  26.525  1.00  0.00    -0.237 OA
ATOM     84  O   UNL A   1      51.408  26.041  28.164  1.00  0.00    -0.744 OA
ENDBRANCH  77  81
ENDBRANCH  50  74
BRANCH  62  85
ATOM     85  C   UNL A   1      45.483  32.748  28.851  1.00  0.00     0.023 A 
ATOM     86  C   UNL A   1      45.377  33.823  27.952  1.00  0.00     0.031 A 
ATOM     87  C   UNL A   1      46.173  32.962  30.057  1.00  0.00     0.131 A 
ATOM     88  C   UNL A   1      46.006  35.043  28.243  1.00  0.00     0.055 A 
ATOM     89  C   UNL A   1      46.740  34.198  30.372  1.00  0.00     0.041 A 
ATOM     90  F   UNL A   1      46.309  31.971  30.954  1.00  0.00    -0.206 F 
ATOM     91  C   UNL A   1      46.671  35.242  29.455  1.00  0.00     0.022 A 
BRANCH  88  92
ATOM     92  S   UNL A   1      46.035  36.332  26.967  1.00  0.00     0.124 S 
ATOM     93  O   UNL A   1      46.223  35.550  25.750  1.00  0.00    -0.237 OA
ATOM     94  O   UNL A   1      44.728  36.959  27.128  1.00  0.00    -0.237 OA
ATOM     95  O   UNL A   1      47.173  37.167  27.349  1.00  0.00    -0.744 OA
ENDBRANCH  88  92
ENDBRANCH  62  85
ENDBRANCH  36  37
ENDBRANCH  28  31
ENDBRANCH  26  27
ENDBRANCH  25  26
ENDBRANCH   1  25
TORSDOF 17
ENDMDL
