MODEL 1
REMARK VINA RESULT:     -13.1      0.000      0.000
REMARK SMILES O=C(NCCCNC(=O)[C@@H]1[C@@H](C(=O)Nc2cccc([N+](=O)[O-])c2)[C@@H]2C=C[C@H]1O2)c1ccc(-c2c3nc(c(-c4cc(S(=O)(=O)[O-])ccc4F)c4ccc([nH]4)c(-c4cc(S(=O)(=O)[O-])ccc4F)c4nc(c(-c5cc(S(=O)(=O)[O-])ccc5F)c5ccc2[nH]5)C=C4)C=C3)cc1
REMARK SMILES IDX 5 1 4 2 3 3 1 4 2 5 29 7 30 8 91 9 31 10 90 11 32 12 33 13
REMARK SMILES IDX 34 14 84 15 35 16 89 17 83 18 85 19 36 20 88 21 82 22 81 23
REMARK SMILES IDX 37 25 69 26 49 27 68 28 50 29 53 30 67 31 86 32 51 33 52 34
REMARK SMILES IDX 66 36 87 37 54 38 38 39 39 40 47 41 40 42 46 43 48 44 45 45
REMARK SMILES IDX 41 46 42 47 43 48 44 49 70 50 71 51 79 52 72 53 78 54 80 55
REMARK SMILES IDX 77 56 73 57 74 58 75 59 76 60 55 61 56 62 64 63 57 64 63 65
REMARK SMILES IDX 65 66 62 67 58 68 59 69 60 70 61 71 6 72 7 73 8 74 9 76
REMARK SMILES IDX 10 77 11 78 27 79 24 80 26 81 28 82 25 83 12 84 13 85 14 86
REMARK SMILES IDX 15 88 16 89 23 90 17 91 19 92 18 93 20 94 21 95 22 96
REMARK H PARENT 3 6 85 24 53 35 7 75 14 87
REMARK Flexibility Score: inf
ROOT
ATOM      1  C   UNL A   1      38.179  19.855  25.001  1.00  0.00     0.042 C 
ENDROOT
BRANCH   1   2
ATOM      2  C   UNL A   1      39.182  20.108  26.119  1.00  0.00     0.118 C 
BRANCH   2   3
ATOM      3  N   UNL A   1      40.307  19.185  26.079  1.00  0.00    -0.352 N 
ATOM      4  O   UNL A   1      42.444  18.538  25.812  1.00  0.00    -0.269 OA
ATOM      5  C   UNL A   1      41.654  19.449  26.061  1.00  0.00     0.251 C 
ATOM      6  H   UNL A   1      40.066  18.230  26.063  1.00  0.00     0.163 HD
BRANCH   5   7
ATOM      7  C   UNL A   1      42.154  20.814  26.334  1.00  0.00     0.039 A 
ATOM      8  C   UNL A   1      42.355  21.723  25.293  1.00  0.00     0.014 A 
ATOM      9  C   UNL A   1      42.388  21.207  27.655  1.00  0.00     0.014 A 
ATOM     10  C   UNL A   1      42.914  22.968  25.555  1.00  0.00     0.010 A 
ATOM     11  C   UNL A   1      42.860  22.495  27.926  1.00  0.00     0.010 A 
ATOM     12  C   UNL A   1      43.147  23.381  26.876  1.00  0.00    -0.014 A 
BRANCH  12  13
ATOM     13  C   UNL A   1      43.614  24.769  27.132  1.00  0.00     0.031 A 
ATOM     14  C   UNL A   1      42.678  25.822  27.656  1.00  0.00     0.074 A 
ATOM     15  C   UNL A   1      44.908  25.066  26.898  1.00  0.00     0.049 A 
ATOM     16  N   UNL A   1      42.920  27.080  27.925  1.00  0.00    -0.248 NA
ATOM     17  C   UNL A   1      41.287  25.413  27.898  1.00  0.00     0.031 C 
ATOM     18  C   UNL A   1      45.904  24.124  26.380  1.00  0.00     0.029 A 
ATOM     19  N   UNL A   1      45.613  26.229  27.071  1.00  0.00    -0.354 N 
ATOM     20  C   UNL A   1      41.712  27.620  28.355  1.00  0.00     0.074 A 
ATOM     21  C   UNL A   1      40.731  26.557  28.273  1.00  0.00     0.031 C 
ATOM     22  C   UNL A   1      47.096  24.733  26.316  1.00  0.00     0.029 A 
ATOM     23  C   UNL A   1      46.937  26.127  26.711  1.00  0.00     0.049 A 
ATOM     24  H   UNL A   1      45.211  27.058  27.419  1.00  0.00     0.167 HD
ATOM     25  C   UNL A   1      41.454  28.882  28.784  1.00  0.00     0.034 A 
ATOM     26  C   UNL A   1      47.912  27.056  26.671  1.00  0.00     0.034 A 
ATOM     27  C   UNL A   1      42.451  29.926  28.853  1.00  0.00     0.049 A 
ATOM     28  C   UNL A   1      47.587  28.459  27.103  1.00  0.00     0.074 A 
ATOM     29  C   UNL A   1      42.308  31.227  29.306  1.00  0.00     0.029 A 
ATOM     30  N   UNL A   1      43.774  29.798  28.441  1.00  0.00    -0.354 N 
ATOM     31  N   UNL A   1      46.446  28.945  27.535  1.00  0.00    -0.248 NA
ATOM     32  C   UNL A   1      48.679  29.437  27.048  1.00  0.00     0.031 C 
ATOM     33  C   UNL A   1      43.514  31.903  29.095  1.00  0.00     0.029 A 
ATOM     34  C   UNL A   1      44.442  31.004  28.594  1.00  0.00     0.049 A 
ATOM     35  H   UNL A   1      44.177  28.970  28.093  1.00  0.00     0.167 HD
ATOM     36  C   UNL A   1      46.691  30.284  27.822  1.00  0.00     0.074 A 
ATOM     37  C   UNL A   1      48.092  30.519  27.536  1.00  0.00     0.031 C 
ATOM     38  C   UNL A   1      45.836  31.233  28.283  1.00  0.00     0.034 A 
BRANCH  25  39
ATOM     39  C   UNL A   1      40.028  29.213  29.163  1.00  0.00     0.023 A 
ATOM     40  C   UNL A   1      39.614  29.300  30.504  1.00  0.00     0.031 A 
ATOM     41  C   UNL A   1      39.061  29.428  28.165  1.00  0.00     0.131 A 
ATOM     42  C   UNL A   1      38.261  29.519  30.809  1.00  0.00     0.055 A 
ATOM     43  C   UNL A   1      37.732  29.728  28.475  1.00  0.00     0.041 A 
ATOM     44  F   UNL A   1      39.387  29.339  26.865  1.00  0.00    -0.206 F 
ATOM     45  C   UNL A   1      37.322  29.759  29.804  1.00  0.00     0.022 A 
BRANCH  42  46
ATOM     46  S   UNL A   1      37.720  29.336  32.531  1.00  0.00     0.124 S 
ATOM     47  O   UNL A   1      38.732  30.115  33.243  1.00  0.00    -0.237 OA
ATOM     48  O   UNL A   1      36.378  29.906  32.502  1.00  0.00    -0.237 OA
ATOM     49  O   UNL A   1      37.782  27.894  32.758  1.00  0.00    -0.744 OA
ENDBRANCH  42  46
ENDBRANCH  25  39
BRANCH  26  50
ATOM     50  C   UNL A   1      49.266  26.695  26.164  1.00  0.00     0.023 A 
ATOM     51  C   UNL A   1      49.719  27.142  24.913  1.00  0.00     0.031 A 
ATOM     52  C   UNL A   1      50.122  25.874  26.921  1.00  0.00     0.131 A 
ATOM     53  C   UNL A   1      50.976  26.733  24.440  1.00  0.00     0.055 A 
ATOM     54  C   UNL A   1      51.395  25.520  26.472  1.00  0.00     0.041 A 
ATOM     55  F   UNL A   1      49.739  25.421  28.126  1.00  0.00    -0.206 F 
ATOM     56  C   UNL A   1      51.823  25.939  25.218  1.00  0.00     0.022 A 
BRANCH  53  57
ATOM     57  S   UNL A   1      51.456  27.186  22.751  1.00  0.00     0.124 S 
ATOM     58  O   UNL A   1      50.293  26.752  21.985  1.00  0.00    -0.237 OA
ATOM     59  O   UNL A   1      51.646  28.628  22.867  1.00  0.00    -0.237 OA
ATOM     60  O   UNL A   1      52.676  26.415  22.526  1.00  0.00    -0.744 OA
ENDBRANCH  53  57
ENDBRANCH  26  50
BRANCH  38  61
ATOM     61  C   UNL A   1      46.414  32.603  28.542  1.00  0.00     0.023 A 
ATOM     62  C   UNL A   1      46.470  33.585  27.538  1.00  0.00     0.031 A 
ATOM     63  C   UNL A   1      46.939  32.921  29.808  1.00  0.00     0.131 A 
ATOM     64  C   UNL A   1      47.091  34.817  27.797  1.00  0.00     0.055 A 
ATOM     65  C   UNL A   1      47.497  34.171  30.079  1.00  0.00     0.041 A 
ATOM     66  F   UNL A   1      46.919  32.020  30.802  1.00  0.00    -0.206 F 
ATOM     67  C   UNL A   1      47.588  35.122  29.067  1.00  0.00     0.022 A 
BRANCH  64  68
ATOM     68  S   UNL A   1      47.335  35.978  26.425  1.00  0.00     0.124 S 
ATOM     69  O   UNL A   1      47.761  35.089  25.349  1.00  0.00    -0.237 OA
ATOM     70  O   UNL A   1      46.009  36.568  26.277  1.00  0.00    -0.237 OA
ATOM     71  O   UNL A   1      48.365  36.887  26.923  1.00  0.00    -0.744 OA
ENDBRANCH  64  68
ENDBRANCH  38  61
ENDBRANCH  12  13
ENDBRANCH   5   7
ENDBRANCH   2   3
ENDBRANCH   1   2
BRANCH   1  72
ATOM     72  C   UNL A   1      36.984  20.803  25.013  1.00  0.00     0.117 C 
BRANCH  72  73
ATOM     73  N   UNL A   1      37.352  22.163  25.352  1.00  0.00    -0.356 N 
ATOM     74  C   UNL A   1      36.616  23.225  25.763  1.00  0.00     0.227 C 
ATOM     75  H   UNL A   1      38.316  22.351  25.268  1.00  0.00     0.163 HD
ATOM     76  O   UNL A   1      37.255  24.215  26.132  1.00  0.00    -0.275 OA
BRANCH  74  77
ATOM     77  C   UNL A   1      35.102  23.163  25.898  1.00  0.00     0.127 C 
ATOM     78  C   UNL A   1      34.341  21.955  25.271  1.00  0.00     0.127 C 
ATOM     79  C   UNL A   1      34.466  24.334  25.110  1.00  0.00     0.155 C 
ATOM     80  C   UNL A   1      33.371  22.639  24.307  1.00  0.00     0.155 C 
ATOM     81  C   UNL A   1      34.802  24.271  23.645  1.00  0.00     0.004 C 
ATOM     82  O   UNL A   1      33.091  23.868  25.028  1.00  0.00    -0.365 OA
ATOM     83  C   UNL A   1      34.140  23.216  23.154  1.00  0.00     0.004 C 
BRANCH  78  84
ATOM     84  C   UNL A   1      33.720  21.045  26.337  1.00  0.00     0.231 C 
ATOM     85  O   UNL A   1      33.771  21.382  27.525  1.00  0.00    -0.274 OA
ATOM     86  N   UNL A   1      32.872  20.024  26.012  1.00  0.00    -0.325 N 
ATOM     87  H   UNL A   1      31.993  20.059  26.453  1.00  0.00     0.169 HD
BRANCH  86  88
ATOM     88  C   UNL A   1      33.063  18.938  25.150  1.00  0.00     0.048 A 
ATOM     89  C   UNL A   1      32.625  19.065  23.827  1.00  0.00     0.026 A 
ATOM     90  C   UNL A   1      33.533  17.708  25.606  1.00  0.00     0.111 A 
ATOM     91  C   UNL A   1      32.739  17.995  22.936  1.00  0.00     0.009 A 
ATOM     92  C   UNL A   1      33.644  16.636  24.711  1.00  0.00     0.271 A 
ATOM     93  C   UNL A   1      33.258  16.777  23.373  1.00  0.00     0.086 A 
BRANCH  92  94
ATOM     94  N   UNL A   1      34.144  15.343  25.190  1.00  0.00     0.062 N 
ATOM     95  O   UNL A   1      35.365  15.232  25.377  1.00  0.00    -0.258 OA
ATOM     96  O   UNL A   1      33.320  14.436  25.375  1.00  0.00    -0.258 OA
ENDBRANCH  92  94
ENDBRANCH  86  88
ENDBRANCH  78  84
ENDBRANCH  74  77
ENDBRANCH  72  73
ENDBRANCH   1  72
TORSDOF 16
ENDMDL
MODEL 2
REMARK VINA RESULT:     -13.0      6.837     12.378
REMARK SMILES O=C(NCCCNC(=O)[C@@H]1[C@@H](C(=O)Nc2cccc([N+](=O)[O-])c2)[C@@H]2C=C[C@H]1O2)c1ccc(-c2c3nc(c(-c4cc(S(=O)(=O)[O-])ccc4F)c4ccc([nH]4)c(-c4cc(S(=O)(=O)[O-])ccc4F)c4nc(c(-c5cc(S(=O)(=O)[O-])ccc5F)c5ccc2[nH]5)C=C4)C=C3)cc1
REMARK SMILES IDX 5 1 4 2 3 3 1 4 2 5 29 7 30 8 91 9 31 10 90 11 32 12 33 13
REMARK SMILES IDX 34 14 84 15 35 16 89 17 83 18 85 19 36 20 88 21 82 22 81 23
REMARK SMILES IDX 37 25 69 26 49 27 68 28 50 29 53 30 67 31 86 32 51 33 52 34
REMARK SMILES IDX 66 36 87 37 54 38 38 39 39 40 47 41 40 42 46 43 48 44 45 45
REMARK SMILES IDX 41 46 42 47 43 48 44 49 70 50 71 51 79 52 72 53 78 54 80 55
REMARK SMILES IDX 77 56 73 57 74 58 75 59 76 60 55 61 56 62 64 63 57 64 63 65
REMARK SMILES IDX 65 66 62 67 58 68 59 69 60 70 61 71 6 72 7 73 8 74 9 76
REMARK SMILES IDX 10 77 11 78 27 79 24 80 26 81 28 82 25 83 12 84 13 85 14 86
REMARK SMILES IDX 15 88 16 89 23 90 17 91 19 92 18 93 20 94 21 95 22 96
REMARK H PARENT 3 6 85 24 53 35 7 75 14 87
REMARK Flexibility Score: inf
ROOT
ATOM      1  C   UNL A   1      31.597  31.941  26.828  1.00  0.00     0.042 C 
ENDROOT
BRANCH   1   2
ATOM      2  C   UNL A   1      32.904  32.684  27.074  1.00  0.00     0.118 C 
BRANCH   2   3
ATOM      3  N   UNL A   1      32.697  33.999  27.662  1.00  0.00    -0.352 N 
ATOM      4  O   UNL A   1      32.789  35.597  29.241  1.00  0.00    -0.269 OA
ATOM      5  C   UNL A   1      33.252  34.549  28.791  1.00  0.00     0.251 C 
ATOM      6  H   UNL A   1      32.065  34.580  27.179  1.00  0.00     0.163 HD
BRANCH   5   7
ATOM      7  C   UNL A   1      34.393  33.890  29.462  1.00  0.00     0.039 A 
ATOM      8  C   UNL A   1      35.706  34.278  29.187  1.00  0.00     0.014 A 
ATOM      9  C   UNL A   1      34.146  32.895  30.414  1.00  0.00     0.014 A 
ATOM     10  C   UNL A   1      36.769  33.585  29.754  1.00  0.00     0.010 A 
ATOM     11  C   UNL A   1      35.216  32.264  31.056  1.00  0.00     0.010 A 
ATOM     12  C   UNL A   1      36.538  32.589  30.717  1.00  0.00    -0.014 A 
BRANCH  12  13
ATOM     13  C   UNL A   1      37.697  31.965  31.408  1.00  0.00     0.031 A 
ATOM     14  C   UNL A   1      38.528  30.908  30.736  1.00  0.00     0.074 A 
ATOM     15  C   UNL A   1      38.003  32.379  32.654  1.00  0.00     0.049 A 
ATOM     16  N   UNL A   1      39.565  30.256  31.199  1.00  0.00    -0.248 NA
ATOM     17  C   UNL A   1      38.137  30.523  29.373  1.00  0.00     0.031 C 
ATOM     18  C   UNL A   1      37.259  33.393  33.406  1.00  0.00     0.029 A 
ATOM     19  N   UNL A   1      39.015  32.015  33.504  1.00  0.00    -0.354 N 
ATOM     20  C   UNL A   1      39.945  29.374  30.193  1.00  0.00     0.074 A 
ATOM     21  C   UNL A   1      39.000  29.550  29.110  1.00  0.00     0.031 C 
ATOM     22  C   UNL A   1      37.862  33.599  34.585  1.00  0.00     0.029 A 
ATOM     23  C   UNL A   1      38.985  32.678  34.708  1.00  0.00     0.049 A 
ATOM     24  H   UNL A   1      39.697  31.343  33.275  1.00  0.00     0.167 HD
ATOM     25  C   UNL A   1      40.989  28.506  30.178  1.00  0.00     0.034 A 
ATOM     26  C   UNL A   1      39.755  32.543  35.806  1.00  0.00     0.034 A 
ATOM     27  C   UNL A   1      41.916  28.346  31.275  1.00  0.00     0.049 A 
ATOM     28  C   UNL A   1      40.874  31.538  35.782  1.00  0.00     0.074 A 
ATOM     29  C   UNL A   1      43.029  27.526  31.351  1.00  0.00     0.029 A 
ATOM     30  N   UNL A   1      41.831  29.006  32.497  1.00  0.00    -0.354 N 
ATOM     31  N   UNL A   1      41.237  30.733  34.811  1.00  0.00    -0.248 NA
ATOM     32  C   UNL A   1      41.688  31.428  36.997  1.00  0.00     0.031 C 
ATOM     33  C   UNL A   1      43.566  27.629  32.639  1.00  0.00     0.029 A 
ATOM     34  C   UNL A   1      42.846  28.581  33.342  1.00  0.00     0.049 A 
ATOM     35  H   UNL A   1      41.150  29.679  32.727  1.00  0.00     0.167 HD
ATOM     36  C   UNL A   1      42.338  30.032  35.293  1.00  0.00     0.074 A 
ATOM     37  C   UNL A   1      42.590  30.529  36.631  1.00  0.00     0.031 C 
ATOM     38  C   UNL A   1      43.075  29.068  34.684  1.00  0.00     0.034 A 
BRANCH  25  39
ATOM     39  C   UNL A   1      41.151  27.629  28.957  1.00  0.00     0.023 A 
ATOM     40  C   UNL A   1      42.163  27.854  28.007  1.00  0.00     0.031 A 
ATOM     41  C   UNL A   1      40.266  26.561  28.728  1.00  0.00     0.131 A 
ATOM     42  C   UNL A   1      42.220  27.072  26.842  1.00  0.00     0.055 A 
ATOM     43  C   UNL A   1      40.378  25.735  27.608  1.00  0.00     0.041 A 
ATOM     44  F   UNL A   1      39.264  26.306  29.586  1.00  0.00    -0.206 F 
ATOM     45  C   UNL A   1      41.350  25.998  26.647  1.00  0.00     0.022 A 
BRANCH  42  46
ATOM     46  S   UNL A   1      43.350  27.576  25.515  1.00  0.00     0.124 S 
ATOM     47  O   UNL A   1      42.414  27.995  24.472  1.00  0.00    -0.237 OA
ATOM     48  O   UNL A   1      44.123  28.640  26.145  1.00  0.00    -0.237 OA
ATOM     49  O   UNL A   1      44.095  26.354  25.217  1.00  0.00    -0.744 OA
ENDBRANCH  42  46
ENDBRANCH  25  39
BRANCH  26  50
ATOM     50  C   UNL A   1      39.461  33.347  37.028  1.00  0.00     0.023 A 
ATOM     51  C   UNL A   1      40.104  34.571  37.267  1.00  0.00     0.031 A 
ATOM     52  C   UNL A   1      38.544  32.884  37.989  1.00  0.00     0.131 A 
ATOM     53  C   UNL A   1      39.849  35.271  38.456  1.00  0.00     0.055 A 
ATOM     54  C   UNL A   1      38.249  33.613  39.141  1.00  0.00     0.041 A 
ATOM     55  F   UNL A   1      37.900  31.719  37.808  1.00  0.00    -0.206 F 
ATOM     56  C   UNL A   1      38.914  34.809  39.386  1.00  0.00     0.022 A 
BRANCH  53  57
ATOM     57  S   UNL A   1      40.822  36.759  38.812  1.00  0.00     0.124 S 
ATOM     58  O   UNL A   1      41.619  36.890  37.597  1.00  0.00    -0.237 OA
ATOM     59  O   UNL A   1      39.781  37.762  39.006  1.00  0.00    -0.237 OA
ATOM     60  O   UNL A   1      41.569  36.397  40.014  1.00  0.00    -0.744 OA
ENDBRANCH  53  57
ENDBRANCH  26  50
BRANCH  38  61
ATOM     61  C   UNL A   1      44.250  28.520  35.457  1.00  0.00     0.023 A 
ATOM     62  C   UNL A   1      44.109  27.458  36.366  1.00  0.00     0.031 A 
ATOM     63  C   UNL A   1      45.527  29.089  35.298  1.00  0.00     0.131 A 
ATOM     64  C   UNL A   1      45.211  27.034  37.124  1.00  0.00     0.055 A 
ATOM     65  C   UNL A   1      46.634  28.620  36.007  1.00  0.00     0.041 A 
ATOM     66  F   UNL A   1      45.720  30.110  34.449  1.00  0.00    -0.206 F 
ATOM     67  C   UNL A   1      46.476  27.597  36.937  1.00  0.00     0.022 A 
BRANCH  64  68
ATOM     68  S   UNL A   1      44.949  25.808  38.436  1.00  0.00     0.124 S 
ATOM     69  O   UNL A   1      46.301  25.626  38.954  1.00  0.00    -0.237 OA
ATOM     70  O   UNL A   1      44.014  26.494  39.321  1.00  0.00    -0.237 OA
ATOM     71  O   UNL A   1      44.397  24.657  37.724  1.00  0.00    -0.744 OA
ENDBRANCH  64  68
ENDBRANCH  38  61
ENDBRANCH  12  13
ENDBRANCH   5   7
ENDBRANCH   2   3
ENDBRANCH   1   2
BRANCH   1  72
ATOM     72  C   UNL A   1      31.776  30.464  26.492  1.00  0.00     0.117 C 
BRANCH  72  73
ATOM     73  N   UNL A   1      33.031  29.928  26.980  1.00  0.00    -0.356 N 
ATOM     74  C   UNL A   1      33.835  28.941  26.514  1.00  0.00     0.227 C 
ATOM     75  H   UNL A   1      33.359  30.360  27.802  1.00  0.00     0.163 HD
ATOM     76  O   UNL A   1      34.932  28.830  27.071  1.00  0.00    -0.275 OA
BRANCH  74  77
ATOM     77  C   UNL A   1      33.479  28.108  25.292  1.00  0.00     0.127 C 
ATOM     78  C   UNL A   1      32.103  28.344  24.597  1.00  0.00     0.127 C 
ATOM     79  C   UNL A   1      33.332  26.623  25.705  1.00  0.00     0.155 C 
ATOM     80  C   UNL A   1      31.455  26.962  24.668  1.00  0.00     0.155 C 
ATOM     81  C   UNL A   1      32.246  26.432  26.728  1.00  0.00     0.004 C 
ATOM     82  O   UNL A   1      32.622  26.106  24.547  1.00  0.00    -0.365 OA
ATOM     83  C   UNL A   1      31.090  26.657  26.092  1.00  0.00     0.004 C 
BRANCH  78  84
ATOM     84  C   UNL A   1      32.258  28.958  23.201  1.00  0.00     0.231 C 
ATOM     85  O   UNL A   1      33.391  29.151  22.746  1.00  0.00    -0.274 OA
ATOM     86  N   UNL A   1      31.211  29.041  22.327  1.00  0.00    -0.325 N 
ATOM     87  H   UNL A   1      31.366  28.616  21.453  1.00  0.00     0.169 HD
BRANCH  86  88
ATOM     88  C   UNL A   1      29.954  29.636  22.485  1.00  0.00     0.048 A 
ATOM     89  C   UNL A   1      28.867  28.806  22.778  1.00  0.00     0.026 A 
ATOM     90  C   UNL A   1      29.739  30.987  22.218  1.00  0.00     0.111 A 
ATOM     91  C   UNL A   1      27.579  29.337  22.893  1.00  0.00     0.009 A 
ATOM     92  C   UNL A   1      28.446  31.516  22.331  1.00  0.00     0.271 A 
ATOM     93  C   UNL A   1      27.365  30.698  22.678  1.00  0.00     0.086 A 
BRANCH  92  94
ATOM     94  N   UNL A   1      28.221  32.939  22.054  1.00  0.00     0.062 N 
ATOM     95  O   UNL A   1      27.629  33.234  21.005  1.00  0.00    -0.258 OA
ATOM     96  O   UNL A   1      28.640  33.763  22.879  1.00  0.00    -0.258 OA
ENDBRANCH  92  94
ENDBRANCH  86  88
ENDBRANCH  78  84
ENDBRANCH  74  77
ENDBRANCH  72  73
ENDBRANCH   1  72
TORSDOF 16
ENDMDL
MODEL 3
REMARK VINA RESULT:     -12.8      0.461      7.691
REMARK SMILES O=C(NCCCNC(=O)[C@@H]1[C@@H](C(=O)Nc2cccc([N+](=O)[O-])c2)[C@@H]2C=C[C@H]1O2)c1ccc(-c2c3nc(c(-c4cc(S(=O)(=O)[O-])ccc4F)c4ccc([nH]4)c(-c4cc(S(=O)(=O)[O-])ccc4F)c4nc(c(-c5cc(S(=O)(=O)[O-])ccc5F)c5ccc2[nH]5)C=C4)C=C3)cc1
REMARK SMILES IDX 5 1 4 2 3 3 1 4 2 5 29 7 30 8 91 9 31 10 90 11 32 12 33 13
REMARK SMILES IDX 34 14 84 15 35 16 89 17 83 18 85 19 36 20 88 21 82 22 81 23
REMARK SMILES IDX 37 25 69 26 49 27 68 28 50 29 53 30 67 31 86 32 51 33 52 34
REMARK SMILES IDX 66 36 87 37 54 38 38 39 39 40 47 41 40 42 46 43 48 44 45 45
REMARK SMILES IDX 41 46 42 47 43 48 44 49 70 50 71 51 79 52 72 53 78 54 80 55
REMARK SMILES IDX 77 56 73 57 74 58 75 59 76 60 55 61 56 62 64 63 57 64 63 65
REMARK SMILES IDX 65 66 62 67 58 68 59 69 60 70 61 71 6 72 7 73 8 74 9 76
REMARK SMILES IDX 10 77 11 78 27 79 24 80 26 81 28 82 25 83 12 84 13 85 14 86
REMARK SMILES IDX 15 88 16 89 23 90 17 91 19 92 18 93 20 94 21 95 22 96
REMARK H PARENT 3 6 85 24 53 35 7 75 14 87
REMARK Flexibility Score: inf
ROOT
ATOM      1  C   UNL A   1      38.275  19.910  24.965  1.00  0.00     0.042 C 
ENDROOT
BRANCH   1   2
ATOM      2  C   UNL A   1      39.301  20.215  26.048  1.00  0.00     0.118 C 
BRANCH   2   3
ATOM      3  N   UNL A   1      40.435  19.303  26.016  1.00  0.00    -0.352 N 
ATOM      4  O   UNL A   1      42.582  18.680  25.778  1.00  0.00    -0.269 OA
ATOM      5  C   UNL A   1      41.780  19.581  26.024  1.00  0.00     0.251 C 
ATOM      6  H   UNL A   1      40.204  18.347  25.984  1.00  0.00     0.163 HD
BRANCH   5   7
ATOM      7  C   UNL A   1      42.262  20.947  26.321  1.00  0.00     0.039 A 
ATOM      8  C   UNL A   1      42.380  21.899  25.307  1.00  0.00     0.014 A 
ATOM      9  C   UNL A   1      42.562  21.296  27.642  1.00  0.00     0.014 A 
ATOM     10  C   UNL A   1      42.923  23.148  25.585  1.00  0.00     0.010 A 
ATOM     11  C   UNL A   1      43.018  22.585  27.935  1.00  0.00     0.010 A 
ATOM     12  C   UNL A   1      43.223  23.517  26.906  1.00  0.00    -0.014 A 
BRANCH  12  13
ATOM     13  C   UNL A   1      43.670  24.906  27.189  1.00  0.00     0.031 A 
ATOM     14  C   UNL A   1      45.088  25.335  26.935  1.00  0.00     0.074 A 
ATOM     15  C   UNL A   1      42.769  25.787  27.667  1.00  0.00     0.049 A 
ATOM     16  N   UNL A   1      45.643  26.504  27.134  1.00  0.00    -0.248 NA
ATOM     17  C   UNL A   1      46.004  24.318  26.400  1.00  0.00     0.031 C 
ATOM     18  C   UNL A   1      41.367  25.477  27.960  1.00  0.00     0.029 A 
ATOM     19  N   UNL A   1      42.884  27.117  27.982  1.00  0.00    -0.354 N 
ATOM     20  C   UNL A   1      46.977  26.363  26.763  1.00  0.00     0.074 A 
ATOM     21  C   UNL A   1      47.151  24.982  26.363  1.00  0.00     0.031 C 
ATOM     22  C   UNL A   1      40.745  26.591  28.370  1.00  0.00     0.029 A 
ATOM     23  C   UNL A   1      41.716  27.674  28.447  1.00  0.00     0.049 A 
ATOM     24  H   UNL A   1      43.723  27.624  27.883  1.00  0.00     0.167 HD
ATOM     25  C   UNL A   1      47.956  27.304  26.752  1.00  0.00     0.034 A 
ATOM     26  C   UNL A   1      41.458  28.911  28.916  1.00  0.00     0.034 A 
ATOM     27  C   UNL A   1      47.757  28.675  27.161  1.00  0.00     0.049 A 
ATOM     28  C   UNL A   1      42.573  29.919  28.941  1.00  0.00     0.074 A 
ATOM     29  C   UNL A   1      48.668  29.718  27.154  1.00  0.00     0.029 A 
ATOM     30  N   UNL A   1      46.569  29.195  27.666  1.00  0.00    -0.354 N 
ATOM     31  N   UNL A   1      43.821  29.777  28.559  1.00  0.00    -0.248 NA
ATOM     32  C   UNL A   1      42.245  31.253  29.455  1.00  0.00     0.031 C 
ATOM     33  C   UNL A   1      48.059  30.840  27.727  1.00  0.00     0.029 A 
ATOM     34  C   UNL A   1      46.738  30.529  28.010  1.00  0.00     0.049 A 
ATOM     35  H   UNL A   1      45.730  28.689  27.765  1.00  0.00     0.167 HD
ATOM     36  C   UNL A   1      44.423  31.013  28.768  1.00  0.00     0.074 A 
ATOM     37  C   UNL A   1      43.393  31.892  29.288  1.00  0.00     0.031 C 
ATOM     38  C   UNL A   1      45.709  31.390  28.549  1.00  0.00     0.034 A 
BRANCH  25  39
ATOM     39  C   UNL A   1      49.341  26.864  26.333  1.00  0.00     0.023 A 
ATOM     40  C   UNL A   1      49.927  27.297  25.129  1.00  0.00     0.031 A 
ATOM     41  C   UNL A   1      50.082  25.984  27.141  1.00  0.00     0.131 A 
ATOM     42  C   UNL A   1      51.177  26.792  24.736  1.00  0.00     0.055 A 
ATOM     43  C   UNL A   1      51.360  25.549  26.783  1.00  0.00     0.041 A 
ATOM     44  F   UNL A   1      49.571  25.518  28.292  1.00  0.00    -0.206 F 
ATOM     45  C   UNL A   1      51.908  25.941  25.566  1.00  0.00     0.022 A 
BRANCH  42  46
ATOM     46  S   UNL A   1      51.763  27.145  23.055  1.00  0.00     0.124 S 
ATOM     47  O   UNL A   1      52.895  26.227  22.938  1.00  0.00    -0.237 OA
ATOM     48  O   UNL A   1      50.597  26.827  22.241  1.00  0.00    -0.237 OA
ATOM     49  O   UNL A   1      52.123  28.560  23.108  1.00  0.00    -0.744 OA
ENDBRANCH  42  46
ENDBRANCH  25  39
BRANCH  26  50
ATOM     50  C   UNL A   1      40.101  29.243  29.438  1.00  0.00     0.023 A 
ATOM     51  C   UNL A   1      39.838  29.280  30.815  1.00  0.00     0.031 A 
ATOM     52  C   UNL A   1      39.037  29.507  28.556  1.00  0.00     0.131 A 
ATOM     53  C   UNL A   1      38.535  29.536  31.270  1.00  0.00     0.055 A 
ATOM     54  C   UNL A   1      37.757  29.820  29.014  1.00  0.00     0.041 A 
ATOM     55  F   UNL A   1      39.234  29.486  27.227  1.00  0.00    -0.206 F 
ATOM     56  C   UNL A   1      37.497  29.822  30.379  1.00  0.00     0.022 A 
BRANCH  53  57
ATOM     57  S   UNL A   1      38.196  29.407  33.046  1.00  0.00     0.124 S 
ATOM     58  O   UNL A   1      39.541  29.290  33.598  1.00  0.00    -0.237 OA
ATOM     59  O   UNL A   1      37.499  30.661  33.313  1.00  0.00    -0.237 OA
ATOM     60  O   UNL A   1      37.372  28.204  33.148  1.00  0.00    -0.744 OA
ENDBRANCH  53  57
ENDBRANCH  26  50
BRANCH  38  61
ATOM     61  C   UNL A   1      46.056  32.830  28.837  1.00  0.00     0.023 A 
ATOM     62  C   UNL A   1      45.899  33.838  27.869  1.00  0.00     0.031 A 
ATOM     63  C   UNL A   1      46.573  33.195  30.094  1.00  0.00     0.131 A 
ATOM     64  C   UNL A   1      46.311  35.149  28.152  1.00  0.00     0.055 A 
ATOM     65  C   UNL A   1      46.919  34.514  30.391  1.00  0.00     0.041 A 
ATOM     66  F   UNL A   1      46.750  32.274  31.054  1.00  0.00    -0.206 F 
ATOM     67  C   UNL A   1      46.803  35.497  29.413  1.00  0.00     0.022 A 
BRANCH  64  68
ATOM     68  S   UNL A   1      46.293  36.376  26.816  1.00  0.00     0.124 S 
ATOM     69  O   UNL A   1      47.394  37.255  27.197  1.00  0.00    -0.237 OA
ATOM     70  O   UNL A   1      46.516  35.552  25.633  1.00  0.00    -0.237 OA
ATOM     71  O   UNL A   1      44.962  36.971  26.913  1.00  0.00    -0.744 OA
ENDBRANCH  64  68
ENDBRANCH  38  61
ENDBRANCH  12  13
ENDBRANCH   5   7
ENDBRANCH   2   3
ENDBRANCH   1   2
BRANCH   1  72
ATOM     72  C   UNL A   1      37.086  20.866  24.947  1.00  0.00     0.117 C 
BRANCH  72  73
ATOM     73  N   UNL A   1      37.443  22.209  25.360  1.00  0.00    -0.356 N 
ATOM     74  C   UNL A   1      36.695  23.246  25.810  1.00  0.00     0.227 C 
ATOM     75  H   UNL A   1      38.407  22.404  25.302  1.00  0.00     0.163 HD
ATOM     76  O   UNL A   1      37.322  24.219  26.239  1.00  0.00    -0.275 OA
BRANCH  74  77
ATOM     77  C   UNL A   1      35.179  23.172  25.915  1.00  0.00     0.127 C 
ATOM     78  C   UNL A   1      34.441  21.949  25.289  1.00  0.00     0.127 C 
ATOM     79  C   UNL A   1      34.548  24.326  25.098  1.00  0.00     0.155 C 
ATOM     80  C   UNL A   1      33.486  22.611  24.297  1.00  0.00     0.155 C 
ATOM     81  C   UNL A   1      34.915  24.246  23.641  1.00  0.00     0.004 C 
ATOM     82  O   UNL A   1      33.180  23.847  24.995  1.00  0.00    -0.365 OA
ATOM     83  C   UNL A   1      34.273  23.179  23.152  1.00  0.00     0.004 C 
BRANCH  78  84
ATOM     84  C   UNL A   1      33.807  21.048  26.355  1.00  0.00     0.231 C 
ATOM     85  O   UNL A   1      33.867  21.382  27.544  1.00  0.00    -0.274 OA
ATOM     86  N   UNL A   1      32.940  20.043  26.031  1.00  0.00    -0.325 N 
ATOM     87  H   UNL A   1      32.063  20.093  26.474  1.00  0.00     0.169 HD
BRANCH  86  88
ATOM     88  C   UNL A   1      33.109  18.956  25.166  1.00  0.00     0.048 A 
ATOM     89  C   UNL A   1      32.599  19.065  23.867  1.00  0.00     0.026 A 
ATOM     90  C   UNL A   1      33.629  17.739  25.603  1.00  0.00     0.111 A 
ATOM     91  C   UNL A   1      32.690  17.992  22.977  1.00  0.00     0.009 A 
ATOM     92  C   UNL A   1      33.716  16.664  24.709  1.00  0.00     0.271 A 
ATOM     93  C   UNL A   1      33.257  16.787  23.393  1.00  0.00     0.086 A 
BRANCH  92  94
ATOM     94  N   UNL A   1      34.268  15.385  25.169  1.00  0.00     0.062 N 
ATOM     95  O   UNL A   1      33.471  14.465  25.403  1.00  0.00    -0.258 OA
ATOM     96  O   UNL A   1      35.497  15.299  25.302  1.00  0.00    -0.258 OA
ENDBRANCH  92  94
ENDBRANCH  86  88
ENDBRANCH  78  84
ENDBRANCH  74  77
ENDBRANCH  72  73
ENDBRANCH   1  72
TORSDOF 16
ENDMDL
