MODEL 1
REMARK VINA RESULT:     -13.2      0.000      0.000
REMARK SMILES CC1(C)[C@H](C(=O)NCCCNC(=O)c2ccc(-c3c4nc(c(-c5cc(S(=O)(=O)[O-])ccc5F)c5ccc([nH]5)c(-c5cc(S(=O)(=O)[O-])ccc5F)c5nc(c(-c6cc(S(=O)(=O)[O-])ccc6F)c6ccc3[nH]6)C=C5)C=C4)cc2)[C@@H]1C(=O)Nc1ccc(NC(=O)C2CCC2)cc1
REMARK SMILES IDX 8 1 7 2 5 3 6 4 4 6 1 7 2 8 3 9 77 10 78 11 79 12 80 13
REMARK SMILES IDX 81 15 82 16 93 17 83 18 92 19 84 20 85 21 86 22 87 24 88 25
REMARK SMILES IDX 89 26 91 27 90 28 9 29 10 30 11 31 12 32 13 34 14 35 15 36
REMARK SMILES IDX 76 37 16 38 75 39 17 40 18 41 19 42 69 43 20 44 74 45 68 46
REMARK SMILES IDX 70 47 21 48 73 49 67 50 66 51 22 53 54 54 34 55 53 56 35 57
REMARK SMILES IDX 38 58 52 59 71 60 36 61 37 62 51 64 72 65 39 66 23 67 24 68
REMARK SMILES IDX 32 69 25 70 31 71 33 72 30 73 26 74 27 75 28 76 29 77 55 78
REMARK SMILES IDX 56 79 64 80 57 81 63 82 65 83 62 84 58 85 59 86 60 87 61 88
REMARK SMILES IDX 40 89 41 90 49 91 42 92 48 93 50 94 47 95 43 96 44 97 45 98
REMARK SMILES IDX 46 99
REMARK H PARENT 7 5 80 14 85 23 11 33 70 52 38 63
REMARK Flexibility Score: inf
ROOT
ATOM      1  C   UNL A   1      32.392  30.003  26.420  1.00  0.00     0.117 C 
ENDROOT
BRANCH   1   2
ATOM      2  N   UNL A   1      32.902  29.917  25.066  1.00  0.00    -0.356 N 
ATOM      3  C   UNL A   1      33.455  28.944  24.291  1.00  0.00     0.224 C 
ATOM      4  O   UNL A   1      33.748  29.295  23.144  1.00  0.00    -0.275 OA
ATOM      5  H   UNL A   1      32.830  30.774  24.588  1.00  0.00     0.163 HD
BRANCH   3   6
ATOM      6  C   UNL A   1      33.744  27.533  24.640  1.00  0.00     0.098 C 
ATOM      7  C   UNL A   1      32.993  25.747  26.314  1.00  0.00     0.013 C 
ATOM      8  C   UNL A   1      32.724  26.473  25.014  1.00  0.00    -0.011 C 
ATOM      9  C   UNL A   1      31.249  26.724  24.807  1.00  0.00     0.013 C 
ATOM     10  C   UNL A   1      33.728  26.259  23.858  1.00  0.00     0.098 C 
BRANCH  10  11
ATOM     11  C   UNL A   1      33.370  26.074  22.438  1.00  0.00     0.228 C 
ATOM     12  O   UNL A   1      33.642  26.949  21.619  1.00  0.00    -0.274 OA
ATOM     13  N   UNL A   1      32.688  24.951  22.023  1.00  0.00    -0.326 N 
ATOM     14  H   UNL A   1      32.316  24.974  21.112  1.00  0.00     0.169 HD
BRANCH  13  15
ATOM     15  C   UNL A   1      32.469  23.781  22.757  1.00  0.00     0.041 A 
ATOM     16  C   UNL A   1      33.561  22.939  22.881  1.00  0.00     0.028 A 
ATOM     17  C   UNL A   1      31.298  23.492  23.452  1.00  0.00     0.028 A 
ATOM     18  C   UNL A   1      33.562  21.972  23.874  1.00  0.00     0.028 A 
ATOM     19  C   UNL A   1      31.250  22.360  24.282  1.00  0.00     0.028 A 
ATOM     20  C   UNL A   1      32.399  21.587  24.501  1.00  0.00     0.041 A 
BRANCH  20  21
ATOM     21  N   UNL A   1      32.323  20.469  25.337  1.00  0.00    -0.326 N 
ATOM     22  C   UNL A   1      32.752  19.159  25.232  1.00  0.00     0.227 C 
ATOM     23  H   UNL A   1      31.860  20.655  26.185  1.00  0.00     0.169 HD
ATOM     24  O   UNL A   1      32.472  18.459  26.227  1.00  0.00    -0.274 OA
BRANCH  22  25
ATOM     25  C   UNL A   1      33.516  18.530  24.035  1.00  0.00     0.079 C 
ATOM     26  C   UNL A   1      34.385  17.282  24.440  1.00  0.00     0.013 C 
ATOM     27  C   UNL A   1      32.925  17.566  22.954  1.00  0.00     0.013 C 
ATOM     28  C   UNL A   1      34.238  16.779  23.002  1.00  0.00     0.002 C 
ENDBRANCH  22  25
ENDBRANCH  20  21
ENDBRANCH  13  15
ENDBRANCH  10  11
ENDBRANCH   3   6
ENDBRANCH   1   2
BRANCH   1  29
ATOM     29  C   UNL A   1      31.974  31.418  26.775  1.00  0.00     0.042 C 
BRANCH  29  30
ATOM     30  C   UNL A   1      33.098  32.215  27.428  1.00  0.00     0.118 C 
BRANCH  30  31
ATOM     31  N   UNL A   1      32.756  33.621  27.624  1.00  0.00    -0.352 N 
ATOM     32  C   UNL A   1      33.220  34.504  28.572  1.00  0.00     0.251 C 
ATOM     33  H   UNL A   1      32.100  33.990  26.988  1.00  0.00     0.163 HD
ATOM     34  O   UNL A   1      32.677  35.595  28.710  1.00  0.00    -0.269 OA
BRANCH  32  35
ATOM     35  C   UNL A   1      34.353  34.105  29.432  1.00  0.00     0.039 A 
ATOM     36  C   UNL A   1      34.118  33.331  30.569  1.00  0.00     0.014 A 
ATOM     37  C   UNL A   1      35.656  34.458  29.074  1.00  0.00     0.014 A 
ATOM     38  C   UNL A   1      35.202  32.835  31.298  1.00  0.00     0.010 A 
ATOM     39  C   UNL A   1      36.730  33.879  29.738  1.00  0.00     0.010 A 
ATOM     40  C   UNL A   1      36.517  33.065  30.860  1.00  0.00    -0.014 A 
BRANCH  40  41
ATOM     41  C   UNL A   1      37.695  32.495  31.567  1.00  0.00     0.031 A 
ATOM     42  C   UNL A   1      38.441  31.344  30.947  1.00  0.00     0.074 A 
ATOM     43  C   UNL A   1      38.038  32.951  32.789  1.00  0.00     0.049 A 
ATOM     44  N   UNL A   1      39.393  30.604  31.453  1.00  0.00    -0.248 NA
ATOM     45  C   UNL A   1      38.030  30.949  29.590  1.00  0.00     0.031 C 
ATOM     46  C   UNL A   1      37.369  34.038  33.510  1.00  0.00     0.029 A 
ATOM     47  N   UNL A   1      39.029  32.549  33.650  1.00  0.00    -0.354 N 
ATOM     48  C   UNL A   1      39.680  29.646  30.486  1.00  0.00     0.074 A 
ATOM     49  C   UNL A   1      38.749  29.855  29.398  1.00  0.00     0.031 C 
ATOM     50  C   UNL A   1      37.986  34.232  34.687  1.00  0.00     0.029 A 
ATOM     51  C   UNL A   1      39.058  33.253  34.832  1.00  0.00     0.049 A 
ATOM     52  H   UNL A   1      39.662  31.824  33.440  1.00  0.00     0.167 HD
ATOM     53  C   UNL A   1      40.649  28.699  30.489  1.00  0.00     0.034 A 
ATOM     54  C   UNL A   1      39.849  33.114  35.916  1.00  0.00     0.034 A 
ATOM     55  C   UNL A   1      41.586  28.521  31.570  1.00  0.00     0.049 A 
ATOM     56  C   UNL A   1      40.908  32.036  35.905  1.00  0.00     0.074 A 
ATOM     57  C   UNL A   1      42.631  27.619  31.667  1.00  0.00     0.029 A 
ATOM     58  N   UNL A   1      41.596  29.267  32.742  1.00  0.00    -0.354 N 
ATOM     59  N   UNL A   1      41.183  31.156  34.970  1.00  0.00    -0.248 NA
ATOM     60  C   UNL A   1      41.768  31.938  37.092  1.00  0.00     0.031 C 
ATOM     61  C   UNL A   1      43.237  27.782  32.916  1.00  0.00     0.029 A 
ATOM     62  C   UNL A   1      42.618  28.834  33.571  1.00  0.00     0.049 A 
ATOM     63  H   UNL A   1      40.969  29.996  32.951  1.00  0.00     0.167 HD
ATOM     64  C   UNL A   1      42.275  30.432  35.440  1.00  0.00     0.074 A 
ATOM     65  C   UNL A   1      42.613  30.983  36.735  1.00  0.00     0.031 C 
ATOM     66  C   UNL A   1      42.944  29.406  34.854  1.00  0.00     0.034 A 
BRANCH  53  67
ATOM     67  C   UNL A   1      40.731  27.783  29.292  1.00  0.00     0.023 A 
ATOM     68  C   UNL A   1      41.695  27.975  28.287  1.00  0.00     0.031 A 
ATOM     69  C   UNL A   1      39.822  26.722  29.139  1.00  0.00     0.131 A 
ATOM     70  C   UNL A   1      41.682  27.169  27.140  1.00  0.00     0.055 A 
ATOM     71  C   UNL A   1      39.868  25.868  28.034  1.00  0.00     0.041 A 
ATOM     72  F   UNL A   1      38.866  26.502  30.055  1.00  0.00    -0.206 F 
ATOM     73  C   UNL A   1      40.792  26.098  27.019  1.00  0.00     0.022 A 
BRANCH  70  74
ATOM     74  S   UNL A   1      42.753  27.625  25.750  1.00  0.00     0.124 S 
ATOM     75  O   UNL A   1      44.076  27.305  26.283  1.00  0.00    -0.237 OA
ATOM     76  O   UNL A   1      42.269  26.760  24.680  1.00  0.00    -0.237 OA
ATOM     77  O   UNL A   1      42.490  29.051  25.568  1.00  0.00    -0.744 OA
ENDBRANCH  70  74
ENDBRANCH  53  67
BRANCH  54  78
ATOM     78  C   UNL A   1      39.686  33.999  37.106  1.00  0.00     0.023 A 
ATOM     79  C   UNL A   1      39.121  33.510  38.294  1.00  0.00     0.031 A 
ATOM     80  C   UNL A   1      40.025  35.364  37.053  1.00  0.00     0.131 A 
ATOM     81  C   UNL A   1      38.851  34.387  39.357  1.00  0.00     0.055 A 
ATOM     82  C   UNL A   1      39.811  36.219  38.135  1.00  0.00     0.041 A 
ATOM     83  F   UNL A   1      40.572  35.885  35.944  1.00  0.00    -0.206 F 
ATOM     84  C   UNL A   1      39.203  35.736  39.290  1.00  0.00     0.022 A 
BRANCH  81  85
ATOM     85  S   UNL A   1      37.923  33.758  40.783  1.00  0.00     0.124 S 
ATOM     86  O   UNL A   1      37.213  34.953  41.226  1.00  0.00    -0.237 OA
ATOM     87  O   UNL A   1      37.104  32.715  40.174  1.00  0.00    -0.237 OA
ATOM     88  O   UNL A   1      38.969  33.282  41.685  1.00  0.00    -0.744 OA
ENDBRANCH  81  85
ENDBRANCH  54  78
BRANCH  66  89
ATOM     89  C   UNL A   1      44.150  28.867  35.582  1.00  0.00     0.023 A 
ATOM     90  C   UNL A   1      44.049  27.817  36.509  1.00  0.00     0.031 A 
ATOM     91  C   UNL A   1      45.420  29.417  35.338  1.00  0.00     0.131 A 
ATOM     92  C   UNL A   1      45.192  27.382  37.197  1.00  0.00     0.055 A 
ATOM     93  C   UNL A   1      46.562  28.942  35.981  1.00  0.00     0.041 A 
ATOM     94  F   UNL A   1      45.572  30.424  34.461  1.00  0.00    -0.206 F 
ATOM     95  C   UNL A   1      46.451  27.926  36.926  1.00  0.00     0.022 A 
BRANCH  92  96
ATOM     96  S   UNL A   1      45.001  26.146  38.510  1.00  0.00     0.124 S 
ATOM     97  O   UNL A   1      46.284  26.235  39.200  1.00  0.00    -0.237 OA
ATOM     98  O   UNL A   1      43.846  26.648  39.247  1.00  0.00    -0.237 OA
ATOM     99  O   UNL A   1      44.775  24.900  37.779  1.00  0.00    -0.744 OA
ENDBRANCH  92  96
ENDBRANCH  66  89
ENDBRANCH  40  41
ENDBRANCH  32  35
ENDBRANCH  30  31
ENDBRANCH  29  30
ENDBRANCH   1  29
TORSDOF 17
ENDMDL
MODEL 2
REMARK VINA RESULT:     -13.0      2.017      7.707
REMARK SMILES CC1(C)[C@H](C(=O)NCCCNC(=O)c2ccc(-c3c4nc(c(-c5cc(S(=O)(=O)[O-])ccc5F)c5ccc([nH]5)c(-c5cc(S(=O)(=O)[O-])ccc5F)c5nc(c(-c6cc(S(=O)(=O)[O-])ccc6F)c6ccc3[nH]6)C=C5)C=C4)cc2)[C@@H]1C(=O)Nc1ccc(NC(=O)C2CCC2)cc1
REMARK SMILES IDX 8 1 7 2 5 3 6 4 4 6 1 7 2 8 3 9 77 10 78 11 79 12 80 13
REMARK SMILES IDX 81 15 82 16 93 17 83 18 92 19 84 20 85 21 86 22 87 24 88 25
REMARK SMILES IDX 89 26 91 27 90 28 9 29 10 30 11 31 12 32 13 34 14 35 15 36
REMARK SMILES IDX 76 37 16 38 75 39 17 40 18 41 19 42 69 43 20 44 74 45 68 46
REMARK SMILES IDX 70 47 21 48 73 49 67 50 66 51 22 53 54 54 34 55 53 56 35 57
REMARK SMILES IDX 38 58 52 59 71 60 36 61 37 62 51 64 72 65 39 66 23 67 24 68
REMARK SMILES IDX 32 69 25 70 31 71 33 72 30 73 26 74 27 75 28 76 29 77 55 78
REMARK SMILES IDX 56 79 64 80 57 81 63 82 65 83 62 84 58 85 59 86 60 87 61 88
REMARK SMILES IDX 40 89 41 90 49 91 42 92 48 93 50 94 47 95 43 96 44 97 45 98
REMARK SMILES IDX 46 99
REMARK H PARENT 7 5 80 14 85 23 11 33 70 52 38 63
REMARK Flexibility Score: inf
ROOT
ATOM      1  C   UNL A   1      31.844  29.991  26.171  1.00  0.00     0.117 C 
ENDROOT
BRANCH   1   2
ATOM      2  N   UNL A   1      32.532  29.911  24.898  1.00  0.00    -0.356 N 
ATOM      3  C   UNL A   1      33.224  28.954  24.221  1.00  0.00     0.224 C 
ATOM      4  O   UNL A   1      33.651  29.303  23.117  1.00  0.00    -0.275 OA
ATOM      5  H   UNL A   1      32.487  30.758  24.399  1.00  0.00     0.163 HD
BRANCH   3   6
ATOM      6  C   UNL A   1      33.524  27.562  24.631  1.00  0.00     0.098 C 
ATOM      7  C   UNL A   1      32.683  25.791  26.278  1.00  0.00     0.013 C 
ATOM      8  C   UNL A   1      32.508  26.477  24.941  1.00  0.00    -0.011 C 
ATOM      9  C   UNL A   1      31.051  26.675  24.598  1.00  0.00     0.013 C 
ATOM     10  C   UNL A   1      33.617  26.270  23.884  1.00  0.00     0.098 C 
BRANCH  10  11
ATOM     11  C   UNL A   1      33.393  26.041  22.443  1.00  0.00     0.228 C 
ATOM     12  O   UNL A   1      33.683  26.916  21.631  1.00  0.00    -0.274 OA
ATOM     13  N   UNL A   1      32.816  24.872  21.997  1.00  0.00    -0.326 N 
ATOM     14  H   UNL A   1      32.522  24.858  21.058  1.00  0.00     0.169 HD
BRANCH  13  15
ATOM     15  C   UNL A   1      32.602  23.704  22.736  1.00  0.00     0.041 A 
ATOM     16  C   UNL A   1      33.730  22.941  22.988  1.00  0.00     0.028 A 
ATOM     17  C   UNL A   1      31.389  23.348  23.318  1.00  0.00     0.028 A 
ATOM     18  C   UNL A   1      33.696  21.995  24.000  1.00  0.00     0.028 A 
ATOM     19  C   UNL A   1      31.334  22.231  24.169  1.00  0.00     0.028 A 
ATOM     20  C   UNL A   1      32.504  21.543  24.519  1.00  0.00     0.041 A 
BRANCH  20  21
ATOM     21  N   UNL A   1      32.419  20.438  25.371  1.00  0.00    -0.326 N 
ATOM     22  C   UNL A   1      32.837  19.123  25.286  1.00  0.00     0.227 C 
ATOM     23  H   UNL A   1      31.960  20.640  26.218  1.00  0.00     0.169 HD
ATOM     24  O   UNL A   1      32.552  18.441  26.292  1.00  0.00    -0.274 OA
BRANCH  22  25
ATOM     25  C   UNL A   1      33.593  18.469  24.097  1.00  0.00     0.079 C 
ATOM     26  C   UNL A   1      34.276  17.102  24.473  1.00  0.00     0.013 C 
ATOM     27  C   UNL A   1      32.960  17.648  22.927  1.00  0.00     0.013 C 
ATOM     28  C   UNL A   1      34.161  16.701  23.000  1.00  0.00     0.002 C 
ENDBRANCH  22  25
ENDBRANCH  20  21
ENDBRANCH  13  15
ENDBRANCH  10  11
ENDBRANCH   3   6
ENDBRANCH   1   2
BRANCH   1  29
ATOM     29  C   UNL A   1      31.611  31.430  26.595  1.00  0.00     0.042 C 
BRANCH  29  30
ATOM     30  C   UNL A   1      32.896  32.128  27.026  1.00  0.00     0.118 C 
BRANCH  30  31
ATOM     31  N   UNL A   1      32.681  33.520  27.414  1.00  0.00    -0.352 N 
ATOM     32  C   UNL A   1      33.266  34.238  28.431  1.00  0.00     0.251 C 
ATOM     33  H   UNL A   1      32.025  34.015  26.871  1.00  0.00     0.163 HD
ATOM     34  O   UNL A   1      32.822  35.341  28.736  1.00  0.00    -0.269 OA
BRANCH  32  35
ATOM     35  C   UNL A   1      34.407  33.650  29.162  1.00  0.00     0.039 A 
ATOM     36  C   UNL A   1      34.170  32.786  30.232  1.00  0.00     0.014 A 
ATOM     37  C   UNL A   1      35.713  33.918  28.746  1.00  0.00     0.014 A 
ATOM     38  C   UNL A   1      35.245  32.120  30.828  1.00  0.00     0.010 A 
ATOM     39  C   UNL A   1      36.765  33.178  29.269  1.00  0.00     0.010 A 
ATOM     40  C   UNL A   1      36.545  32.274  30.319  1.00  0.00    -0.014 A 
BRANCH  40  41
ATOM     41  C   UNL A   1      37.704  31.528  30.879  1.00  0.00     0.031 A 
ATOM     42  C   UNL A   1      38.194  31.860  32.263  1.00  0.00     0.074 A 
ATOM     43  C   UNL A   1      38.359  30.626  30.122  1.00  0.00     0.049 A 
ATOM     44  N   UNL A   1      39.268  31.446  32.885  1.00  0.00    -0.248 NA
ATOM     45  C   UNL A   1      37.386  32.818  33.035  1.00  0.00     0.031 C 
ATOM     46  C   UNL A   1      38.002  30.245  28.752  1.00  0.00     0.029 A 
ATOM     47  N   UNL A   1      39.474  29.870  30.391  1.00  0.00    -0.354 N 
ATOM     48  C   UNL A   1      39.274  32.107  34.108  1.00  0.00     0.074 A 
ATOM     49  C   UNL A   1      38.138  33.004  34.108  1.00  0.00     0.031 C 
ATOM     50  C   UNL A   1      38.862  29.310  28.315  1.00  0.00     0.029 A 
ATOM     51  C   UNL A   1      39.864  29.062  29.347  1.00  0.00     0.049 A 
ATOM     52  H   UNL A   1      39.950  29.903  31.252  1.00  0.00     0.167 HD
ATOM     53  C   UNL A   1      40.128  31.959  35.150  1.00  0.00     0.034 A 
ATOM     54  C   UNL A   1      40.918  28.229  29.231  1.00  0.00     0.034 A 
ATOM     55  C   UNL A   1      41.240  31.042  35.145  1.00  0.00     0.049 A 
ATOM     56  C   UNL A   1      41.869  28.098  30.397  1.00  0.00     0.074 A 
ATOM     57  C   UNL A   1      42.149  30.783  36.155  1.00  0.00     0.029 A 
ATOM     58  N   UNL A   1      41.590  30.227  34.076  1.00  0.00    -0.354 N 
ATOM     59  N   UNL A   1      41.844  28.711  31.558  1.00  0.00    -0.248 NA
ATOM     60  C   UNL A   1      42.986  27.156  30.240  1.00  0.00     0.031 C 
ATOM     61  C   UNL A   1      43.079  29.853  35.680  1.00  0.00     0.029 A 
ATOM     62  C   UNL A   1      42.709  29.477  34.399  1.00  0.00     0.049 A 
ATOM     63  H   UNL A   1      41.112  30.187  33.217  1.00  0.00     0.167 HD
ATOM     64  C   UNL A   1      42.915  28.195  32.282  1.00  0.00     0.074 A 
ATOM     65  C   UNL A   1      43.558  27.216  31.433  1.00  0.00     0.031 C 
ATOM     66  C   UNL A   1      43.328  28.497  33.540  1.00  0.00     0.034 A 
BRANCH  53  67
ATOM     67  C   UNL A   1      39.893  32.817  36.369  1.00  0.00     0.023 A 
ATOM     68  C   UNL A   1      39.067  32.386  37.421  1.00  0.00     0.031 A 
ATOM     69  C   UNL A   1      40.480  34.090  36.473  1.00  0.00     0.131 A 
ATOM     70  C   UNL A   1      38.789  33.245  38.494  1.00  0.00     0.055 A 
ATOM     71  C   UNL A   1      40.268  34.909  37.585  1.00  0.00     0.041 A 
ATOM     72  F   UNL A   1      41.262  34.565  35.491  1.00  0.00    -0.206 F 
ATOM     73  C   UNL A   1      39.407  34.494  38.597  1.00  0.00     0.022 A 
BRANCH  70  74
ATOM     74  S   UNL A   1      37.506  32.762  39.680  1.00  0.00     0.124 S 
ATOM     75  O   UNL A   1      38.015  31.479  40.156  1.00  0.00    -0.237 OA
ATOM     76  O   UNL A   1      37.535  33.858  40.642  1.00  0.00    -0.237 OA
ATOM     77  O   UNL A   1      36.297  32.682  38.862  1.00  0.00    -0.744 OA
ENDBRANCH  70  74
ENDBRANCH  53  67
BRANCH  54  78
ATOM     78  C   UNL A   1      41.148  27.451  27.978  1.00  0.00     0.023 A 
ATOM     79  C   UNL A   1      40.868  26.077  27.922  1.00  0.00     0.031 A 
ATOM     80  C   UNL A   1      41.715  28.052  26.839  1.00  0.00     0.131 A 
ATOM     81  C   UNL A   1      41.216  25.335  26.782  1.00  0.00     0.055 A 
ATOM     82  C   UNL A   1      42.002  27.322  25.684  1.00  0.00     0.041 A 
ATOM     83  F   UNL A   1      42.000  29.364  26.834  1.00  0.00    -0.206 F 
ATOM     84  C   UNL A   1      41.769  25.950  25.658  1.00  0.00     0.022 A 
BRANCH  81  85
ATOM     85  S   UNL A   1      41.041  23.530  26.838  1.00  0.00     0.124 S 
ATOM     86  O   UNL A   1      41.950  23.111  25.777  1.00  0.00    -0.237 OA
ATOM     87  O   UNL A   1      41.463  23.228  28.202  1.00  0.00    -0.237 OA
ATOM     88  O   UNL A   1      39.621  23.319  26.564  1.00  0.00    -0.744 OA
ENDBRANCH  81  85
ENDBRANCH  54  78
BRANCH  66  89
ATOM     89  C   UNL A   1      44.489  27.707  34.091  1.00  0.00     0.023 A 
ATOM     90  C   UNL A   1      45.815  28.157  33.975  1.00  0.00     0.031 A 
ATOM     91  C   UNL A   1      44.257  26.483  34.743  1.00  0.00     0.131 A 
ATOM     92  C   UNL A   1      46.865  27.363  34.461  1.00  0.00     0.055 A 
ATOM     93  C   UNL A   1      45.300  25.726  35.275  1.00  0.00     0.041 A 
ATOM     94  F   UNL A   1      43.008  26.007  34.879  1.00  0.00    -0.206 F 
ATOM     95  C   UNL A   1      46.614  26.159  35.125  1.00  0.00     0.022 A 
BRANCH  92  96
ATOM     96  S   UNL A   1      48.571  27.887  34.144  1.00  0.00     0.124 S 
ATOM     97  O   UNL A   1      49.327  27.020  35.043  1.00  0.00    -0.237 OA
ATOM     98  O   UNL A   1      48.723  27.613  32.719  1.00  0.00    -0.237 OA
ATOM     99  O   UNL A   1      48.569  29.304  34.505  1.00  0.00    -0.744 OA
ENDBRANCH  92  96
ENDBRANCH  66  89
ENDBRANCH  40  41
ENDBRANCH  32  35
ENDBRANCH  30  31
ENDBRANCH  29  30
ENDBRANCH   1  29
TORSDOF 17
ENDMDL
MODEL 3
REMARK VINA RESULT:     -13.0      1.948      7.441
REMARK SMILES CC1(C)[C@H](C(=O)NCCCNC(=O)c2ccc(-c3c4nc(c(-c5cc(S(=O)(=O)[O-])ccc5F)c5ccc([nH]5)c(-c5cc(S(=O)(=O)[O-])ccc5F)c5nc(c(-c6cc(S(=O)(=O)[O-])ccc6F)c6ccc3[nH]6)C=C5)C=C4)cc2)[C@@H]1C(=O)Nc1ccc(NC(=O)C2CCC2)cc1
REMARK SMILES IDX 8 1 7 2 5 3 6 4 4 6 1 7 2 8 3 9 77 10 78 11 79 12 80 13
REMARK SMILES IDX 81 15 82 16 93 17 83 18 92 19 84 20 85 21 86 22 87 24 88 25
REMARK SMILES IDX 89 26 91 27 90 28 9 29 10 30 11 31 12 32 13 34 14 35 15 36
REMARK SMILES IDX 76 37 16 38 75 39 17 40 18 41 19 42 69 43 20 44 74 45 68 46
REMARK SMILES IDX 70 47 21 48 73 49 67 50 66 51 22 53 54 54 34 55 53 56 35 57
REMARK SMILES IDX 38 58 52 59 71 60 36 61 37 62 51 64 72 65 39 66 23 67 24 68
REMARK SMILES IDX 32 69 25 70 31 71 33 72 30 73 26 74 27 75 28 76 29 77 55 78
REMARK SMILES IDX 56 79 64 80 57 81 63 82 65 83 62 84 58 85 59 86 60 87 61 88
REMARK SMILES IDX 40 89 41 90 49 91 42 92 48 93 50 94 47 95 43 96 44 97 45 98
REMARK SMILES IDX 46 99
REMARK H PARENT 7 5 80 14 85 23 11 33 70 52 38 63
REMARK Flexibility Score: inf
ROOT
ATOM      1  C   UNL A   1      31.665  30.000  26.013  1.00  0.00     0.117 C 
ENDROOT
BRANCH   1   2
ATOM      2  N   UNL A   1      32.442  29.922  24.792  1.00  0.00    -0.356 N 
ATOM      3  C   UNL A   1      33.191  28.969  24.171  1.00  0.00     0.224 C 
ATOM      4  O   UNL A   1      33.692  29.318  23.098  1.00  0.00    -0.275 OA
ATOM      5  H   UNL A   1      32.425  30.766  24.287  1.00  0.00     0.163 HD
BRANCH   3   6
ATOM      6  C   UNL A   1      33.476  27.583  24.609  1.00  0.00     0.098 C 
ATOM      7  C   UNL A   1      32.557  25.823  26.226  1.00  0.00     0.013 C 
ATOM      8  C   UNL A   1      32.450  26.496  24.875  1.00  0.00    -0.011 C 
ATOM      9  C   UNL A   1      31.012  26.683  24.455  1.00  0.00     0.013 C 
ATOM     10  C   UNL A   1      33.614  26.285  23.880  1.00  0.00     0.098 C 
BRANCH  10  11
ATOM     11  C   UNL A   1      33.467  26.041  22.431  1.00  0.00     0.228 C 
ATOM     12  O   UNL A   1      33.779  26.917  21.628  1.00  0.00    -0.274 OA
ATOM     13  N   UNL A   1      32.936  24.858  21.966  1.00  0.00    -0.326 N 
ATOM     14  H   UNL A   1      32.690  24.832  21.013  1.00  0.00     0.169 HD
BRANCH  13  15
ATOM     15  C   UNL A   1      32.710  23.691  22.702  1.00  0.00     0.041 A 
ATOM     16  C   UNL A   1      33.844  22.986  23.069  1.00  0.00     0.028 A 
ATOM     17  C   UNL A   1      31.466  23.285  23.177  1.00  0.00     0.028 A 
ATOM     18  C   UNL A   1      33.760  22.052  24.090  1.00  0.00     0.028 A 
ATOM     19  C   UNL A   1      31.385  22.177  24.038  1.00  0.00     0.028 A 
ATOM     20  C   UNL A   1      32.548  21.550  24.506  1.00  0.00     0.041 A 
BRANCH  20  21
ATOM     21  N   UNL A   1      32.436  20.453  25.365  1.00  0.00    -0.326 N 
ATOM     22  C   UNL A   1      32.830  19.131  25.293  1.00  0.00     0.227 C 
ATOM     23  H   UNL A   1      31.974  20.671  26.206  1.00  0.00     0.169 HD
ATOM     24  O   UNL A   1      32.525  18.461  26.301  1.00  0.00    -0.274 OA
BRANCH  22  25
ATOM     25  C   UNL A   1      33.584  18.454  24.114  1.00  0.00     0.079 C 
ATOM     26  C   UNL A   1      34.192  17.052  24.491  1.00  0.00     0.013 C 
ATOM     27  C   UNL A   1      32.942  17.677  22.920  1.00  0.00     0.013 C 
ATOM     28  C   UNL A   1      34.095  16.673  23.011  1.00  0.00     0.002 C 
ENDBRANCH  22  25
ENDBRANCH  20  21
ENDBRANCH  13  15
ENDBRANCH  10  11
ENDBRANCH   3   6
ENDBRANCH   1   2
BRANCH   1  29
ATOM     29  C   UNL A   1      31.451  31.438  26.452  1.00  0.00     0.042 C 
BRANCH  29  30
ATOM     30  C   UNL A   1      32.705  32.056  27.063  1.00  0.00     0.118 C 
BRANCH  30  31
ATOM     31  N   UNL A   1      32.551  33.479  27.352  1.00  0.00    -0.352 N 
ATOM     32  C   UNL A   1      33.186  34.246  28.302  1.00  0.00     0.251 C 
ATOM     33  H   UNL A   1      31.900  33.958  26.789  1.00  0.00     0.163 HD
ATOM     34  O   UNL A   1      32.791  35.384  28.534  1.00  0.00    -0.269 OA
BRANCH  32  35
ATOM     35  C   UNL A   1      34.322  33.669  29.049  1.00  0.00     0.039 A 
ATOM     36  C   UNL A   1      34.078  32.865  30.163  1.00  0.00     0.014 A 
ATOM     37  C   UNL A   1      35.629  33.886  28.606  1.00  0.00     0.014 A 
ATOM     38  C   UNL A   1      35.145  32.204  30.780  1.00  0.00     0.010 A 
ATOM     39  C   UNL A   1      36.670  33.149  29.155  1.00  0.00     0.010 A 
ATOM     40  C   UNL A   1      36.442  32.303  30.251  1.00  0.00    -0.014 A 
BRANCH  40  41
ATOM     41  C   UNL A   1      37.590  31.560  30.835  1.00  0.00     0.031 A 
ATOM     42  C   UNL A   1      38.059  31.902  32.224  1.00  0.00     0.074 A 
ATOM     43  C   UNL A   1      38.256  30.650  30.096  1.00  0.00     0.049 A 
ATOM     44  N   UNL A   1      39.121  31.491  32.866  1.00  0.00    -0.248 NA
ATOM     45  C   UNL A   1      37.240  32.867  32.975  1.00  0.00     0.031 C 
ATOM     46  C   UNL A   1      37.920  30.259  28.724  1.00  0.00     0.029 A 
ATOM     47  N   UNL A   1      39.365  29.895  30.389  1.00  0.00    -0.354 N 
ATOM     48  C   UNL A   1      39.109  32.162  34.085  1.00  0.00     0.074 A 
ATOM     49  C   UNL A   1      37.975  33.060  34.059  1.00  0.00     0.031 C 
ATOM     50  C   UNL A   1      38.785  29.320  28.308  1.00  0.00     0.029 A 
ATOM     51  C   UNL A   1      39.769  29.078  29.357  1.00  0.00     0.049 A 
ATOM     52  H   UNL A   1      39.827  29.934  31.257  1.00  0.00     0.167 HD
ATOM     53  C   UNL A   1      39.947  32.021  35.140  1.00  0.00     0.034 A 
ATOM     54  C   UNL A   1      40.823  28.241  29.265  1.00  0.00     0.034 A 
ATOM     55  C   UNL A   1      41.056  31.102  35.161  1.00  0.00     0.049 A 
ATOM     56  C   UNL A   1      41.756  28.118  30.447  1.00  0.00     0.074 A 
ATOM     57  C   UNL A   1      41.949  30.848  36.187  1.00  0.00     0.029 A 
ATOM     58  N   UNL A   1      41.422  30.277  34.105  1.00  0.00    -0.354 N 
ATOM     59  N   UNL A   1      41.713  28.740  31.602  1.00  0.00    -0.248 NA
ATOM     60  C   UNL A   1      42.873  27.173  30.316  1.00  0.00     0.031 C 
ATOM     61  C   UNL A   1      42.885  29.913  35.735  1.00  0.00     0.029 A 
ATOM     62  C   UNL A   1      42.535  29.527  34.451  1.00  0.00     0.049 A 
ATOM     63  H   UNL A   1      40.958  30.231  33.238  1.00  0.00     0.167 HD
ATOM     64  C   UNL A   1      42.771  28.228  32.348  1.00  0.00     0.074 A 
ATOM     65  C   UNL A   1      43.426  27.241  31.517  1.00  0.00     0.031 C 
ATOM     66  C   UNL A   1      43.165  28.539  33.610  1.00  0.00     0.034 A 
BRANCH  53  67
ATOM     67  C   UNL A   1      39.694  32.889  36.349  1.00  0.00     0.023 A 
ATOM     68  C   UNL A   1      40.384  34.099  36.540  1.00  0.00     0.031 A 
ATOM     69  C   UNL A   1      38.772  32.495  37.334  1.00  0.00     0.131 A 
ATOM     70  C   UNL A   1      40.200  34.833  37.721  1.00  0.00     0.055 A 
ATOM     71  C   UNL A   1      38.530  33.274  38.468  1.00  0.00     0.041 A 
ATOM     72  F   UNL A   1      38.099  31.339  37.217  1.00  0.00    -0.206 F 
ATOM     73  C   UNL A   1      39.256  34.443  38.674  1.00  0.00     0.022 A 
BRANCH  70  74
ATOM     74  S   UNL A   1      41.308  36.229  38.053  1.00  0.00     0.124 S 
ATOM     75  O   UNL A   1      42.290  35.618  38.946  1.00  0.00    -0.237 OA
ATOM     76  O   UNL A   1      41.787  36.577  36.720  1.00  0.00    -0.237 OA
ATOM     77  O   UNL A   1      40.434  37.218  38.681  1.00  0.00    -0.744 OA
ENDBRANCH  70  74
ENDBRANCH  53  67
BRANCH  54  78
ATOM     78  C   UNL A   1      41.072  27.453  28.022  1.00  0.00     0.023 A 
ATOM     79  C   UNL A   1      40.803  26.076  27.977  1.00  0.00     0.031 A 
ATOM     80  C   UNL A   1      41.647  28.047  26.884  1.00  0.00     0.131 A 
ATOM     81  C   UNL A   1      41.168  25.326  26.848  1.00  0.00     0.055 A 
ATOM     82  C   UNL A   1      41.950  27.308  25.739  1.00  0.00     0.041 A 
ATOM     83  F   UNL A   1      41.921  29.361  26.868  1.00  0.00    -0.206 F 
ATOM     84  C   UNL A   1      41.728  25.934  25.724  1.00  0.00     0.022 A 
BRANCH  81  85
ATOM     85  S   UNL A   1      41.005  23.520  26.920  1.00  0.00     0.124 S 
ATOM     86  O   UNL A   1      41.424  23.238  28.288  1.00  0.00    -0.237 OA
ATOM     87  O   UNL A   1      39.587  23.334  26.631  1.00  0.00    -0.237 OA
ATOM     88  O   UNL A   1      41.919  23.057  25.878  1.00  0.00    -0.744 OA
ENDBRANCH  81  85
ENDBRANCH  54  78
BRANCH  66  89
ATOM     89  C   UNL A   1      44.315  27.752  34.185  1.00  0.00     0.023 A 
ATOM     90  C   UNL A   1      44.114  26.566  34.912  1.00  0.00     0.031 A 
ATOM     91  C   UNL A   1      45.634  28.201  34.000  1.00  0.00     0.131 A 
ATOM     92  C   UNL A   1      45.212  25.895  35.469  1.00  0.00     0.055 A 
ATOM     93  C   UNL A   1      46.727  27.499  34.507  1.00  0.00     0.041 A 
ATOM     94  F   UNL A   1      45.882  29.329  33.315  1.00  0.00    -0.206 F 
ATOM     95  C   UNL A   1      46.519  26.345  35.257  1.00  0.00     0.022 A 
BRANCH  92  96
ATOM     96  S   UNL A   1      44.907  24.467  36.544  1.00  0.00     0.124 S 
ATOM     97  O   UNL A   1      46.263  24.025  36.854  1.00  0.00    -0.237 OA
ATOM     98  O   UNL A   1      44.163  25.061  37.649  1.00  0.00    -0.237 OA
ATOM     99  O   UNL A   1      44.137  23.557  35.696  1.00  0.00    -0.744 OA
ENDBRANCH  92  96
ENDBRANCH  66  89
ENDBRANCH  40  41
ENDBRANCH  32  35
ENDBRANCH  30  31
ENDBRANCH  29  30
ENDBRANCH   1  29
TORSDOF 17
ENDMDL
