MODEL 1
REMARK VINA RESULT:     -11.5      0.000      0.000
REMARK SMILES COc1cc(C[N@@H+]2CCO[C@@H](CC(=O)NCCCNC(=O)c3ccc(-c4c5nc(c(-c6cc(S(=O)(=O)[O-])ccc6F)c6ccc([nH]6)c(-c6cc(S(=O)(=O)[O-])ccc6F)c6nc(c(-c7cc(S(=O)(=O)[O-])ccc7F)c7ccc4[nH]7)C=C6)C=C5)cc3)C2)ccc1O
REMARK SMILES IDX 16 1 15 2 13 3 14 4 12 6 11 7 7 8 8 9 85 10 9 12 10 13 6 14
REMARK SMILES IDX 5 15 3 16 4 17 88 18 87 19 86 20 2 21 1 22 89 23 17 25 18 26
REMARK SMILES IDX 19 27 20 28 21 30 22 31 23 32 84 33 24 34 83 35 25 36 26 37
REMARK SMILES IDX 27 38 77 39 28 40 82 41 76 42 78 43 29 44 81 45 75 46 74 47
REMARK SMILES IDX 30 49 62 50 42 51 61 52 43 53 46 54 60 55 79 56 44 57 45 58
REMARK SMILES IDX 59 60 80 61 47 62 31 63 32 64 40 65 33 66 39 67 41 68 38 69
REMARK SMILES IDX 34 70 35 71 36 72 37 73 63 74 64 75 72 76 65 77 71 78 73 79
REMARK SMILES IDX 70 80 66 81 67 82 68 83 69 84 48 85 49 86 57 87 50 88 56 89
REMARK SMILES IDX 58 90 55 91 51 92 52 93 53 94 54 95
REMARK H PARENT 15 5 7 11 89 24 19 29 78 48 46 59
REMARK Flexibility Score: inf
ROOT
ATOM      1  C   UNL A   1      31.404  29.587  24.992  1.00  0.00     0.117 C 
ENDROOT
BRANCH   1   2
ATOM      2  N   UNL A   1      30.847  29.831  23.665  1.00  0.00    -0.356 N 
ATOM      3  C   UNL A   1      30.320  28.962  22.752  1.00  0.00     0.222 C 
ATOM      4  O   UNL A   1      29.926  29.409  21.673  1.00  0.00    -0.275 OA
ATOM      5  H   UNL A   1      30.853  30.775  23.382  1.00  0.00     0.163 HD
BRANCH   3   6
ATOM      6  C   UNL A   1      30.262  27.480  23.048  1.00  0.00     0.138 C 
BRANCH   6   7
ATOM      7  C   UNL A   1      31.532  26.747  22.609  1.00  0.00     0.182 C 
ATOM      8  N   UNL A   1      32.954  24.674  23.088  1.00  0.00    -0.327 N 
ATOM      9  C   UNL A   1      32.925  24.439  21.642  1.00  0.00     0.291 C 
ATOM     10  C   UNL A   1      31.842  25.529  23.502  1.00  0.00     0.295 C 
ATOM     11  H   UNL A   1      32.801  23.756  23.504  1.00  0.00     0.348 HD
ATOM     12  C   UNL A   1      32.514  25.642  20.770  1.00  0.00     0.222 C 
ATOM     13  O   UNL A   1      31.333  26.301  21.252  1.00  0.00    -0.366 OA
BRANCH   8  14
ATOM     14  C   UNL A   1      34.253  24.975  23.703  1.00  0.00     0.299 C 
BRANCH  14  15
ATOM     15  C   UNL A   1      34.983  23.784  24.272  1.00  0.00     0.010 A 
ATOM     16  C   UNL A   1      34.868  21.738  25.581  1.00  0.00     0.160 A 
ATOM     17  C   UNL A   1      34.368  22.999  25.255  1.00  0.00     0.060 A 
ATOM     18  C   UNL A   1      36.046  21.302  24.972  1.00  0.00     0.157 A 
ATOM     19  C   UNL A   1      36.743  22.129  24.089  1.00  0.00     0.051 A 
ATOM     20  C   UNL A   1      36.213  23.371  23.741  1.00  0.00     0.013 A 
BRANCH  16  21
ATOM     21  O   UNL A   1      34.085  21.044  26.463  1.00  0.00    -0.493 OA
ATOM     22  C   UNL A   1      33.709  21.747  27.640  1.00  0.00     0.278 C 
ENDBRANCH  16  21
BRANCH  18  23
ATOM     23  O   UNL A   1      36.538  20.046  25.185  1.00  0.00    -0.504 OA
ATOM     24  H   UNL A   1      37.411  19.833  24.919  1.00  0.00     0.293 HD
ENDBRANCH  18  23
ENDBRANCH  14  15
ENDBRANCH   8  14
ENDBRANCH   6   7
ENDBRANCH   3   6
ENDBRANCH   1   2
BRANCH   1  25
ATOM     25  C   UNL A   1      32.910  29.323  24.965  1.00  0.00     0.042 C 
BRANCH  25  26
ATOM     26  C   UNL A   1      33.585  29.410  26.324  1.00  0.00     0.118 C 
BRANCH  26  27
ATOM     27  N   UNL A   1      33.607  30.776  26.814  1.00  0.00    -0.352 N 
ATOM     28  C   UNL A   1      34.404  31.349  27.774  1.00  0.00     0.251 C 
ATOM     29  H   UNL A   1      32.953  31.381  26.395  1.00  0.00     0.163 HD
ATOM     30  O   UNL A   1      34.045  32.421  28.266  1.00  0.00    -0.269 OA
BRANCH  28  31
ATOM     31  C   UNL A   1      35.664  30.709  28.231  1.00  0.00     0.039 A 
ATOM     32  C   UNL A   1      35.620  29.852  29.337  1.00  0.00     0.014 A 
ATOM     33  C   UNL A   1      36.899  31.005  27.646  1.00  0.00     0.014 A 
ATOM     34  C   UNL A   1      36.796  29.277  29.831  1.00  0.00     0.010 A 
ATOM     35  C   UNL A   1      38.058  30.365  28.084  1.00  0.00     0.010 A 
ATOM     36  C   UNL A   1      38.028  29.514  29.198  1.00  0.00    -0.014 A 
BRANCH  36  37
ATOM     37  C   UNL A   1      39.292  28.930  29.724  1.00  0.00     0.031 A 
ATOM     38  C   UNL A   1      39.988  29.569  30.900  1.00  0.00     0.074 A 
ATOM     39  C   UNL A   1      39.847  27.861  29.118  1.00  0.00     0.049 A 
ATOM     40  N   UNL A   1      41.130  29.260  31.460  1.00  0.00    -0.248 NA
ATOM     41  C   UNL A   1      39.322  30.733  31.503  1.00  0.00     0.031 C 
ATOM     42  C   UNL A   1      39.299  27.179  27.945  1.00  0.00     0.029 A 
ATOM     43  N   UNL A   1      41.000  27.170  29.397  1.00  0.00    -0.354 N 
ATOM     44  C   UNL A   1      41.331  30.202  32.465  1.00  0.00     0.074 A 
ATOM     45  C   UNL A   1      40.221  31.130  32.390  1.00  0.00     0.031 C 
ATOM     46  C   UNL A   1      40.110  26.162  27.611  1.00  0.00     0.029 A 
ATOM     47  C   UNL A   1      41.252  26.141  28.520  1.00  0.00     0.049 A 
ATOM     48  H   UNL A   1      41.590  27.390  30.153  1.00  0.00     0.167 HD
ATOM     49  C   UNL A   1      42.330  30.274  33.381  1.00  0.00     0.034 A 
ATOM     50  C   UNL A   1      42.292  25.286  28.444  1.00  0.00     0.034 A 
ATOM     51  C   UNL A   1      43.420  29.331  33.455  1.00  0.00     0.049 A 
ATOM     52  C   UNL A   1      43.393  25.380  29.469  1.00  0.00     0.074 A 
ATOM     53  C   UNL A   1      44.447  29.268  34.381  1.00  0.00     0.029 A 
ATOM     54  N   UNL A   1      43.629  28.288  32.561  1.00  0.00    -0.354 N 
ATOM     55  N   UNL A   1      43.535  26.240  30.450  1.00  0.00    -0.248 NA
ATOM     56  C   UNL A   1      44.463  24.379  29.385  1.00  0.00     0.031 C 
ATOM     57  C   UNL A   1      45.310  28.230  34.011  1.00  0.00     0.029 A 
ATOM     58  C   UNL A   1      44.785  27.596  32.896  1.00  0.00     0.049 A 
ATOM     59  H   UNL A   1      43.043  28.070  31.800  1.00  0.00     0.167 HD
ATOM     60  C   UNL A   1      44.702  25.868  31.114  1.00  0.00     0.074 A 
ATOM     61  C   UNL A   1      45.212  24.698  30.431  1.00  0.00     0.031 C 
ATOM     62  C   UNL A   1      45.295  26.441  32.193  1.00  0.00     0.034 A 
BRANCH  49  63
ATOM     63  C   UNL A   1      42.294  31.433  34.354  1.00  0.00     0.023 A 
ATOM     64  C   UNL A   1      41.441  31.435  35.472  1.00  0.00     0.031 A 
ATOM     65  C   UNL A   1      43.089  32.572  34.136  1.00  0.00     0.131 A 
ATOM     66  C   UNL A   1      41.328  32.584  36.269  1.00  0.00     0.055 A 
ATOM     67  C   UNL A   1      43.040  33.679  34.988  1.00  0.00     0.041 A 
ATOM     68  F   UNL A   1      43.913  32.640  33.079  1.00  0.00    -0.206 F 
ATOM     69  C   UNL A   1      42.140  33.698  36.050  1.00  0.00     0.022 A 
BRANCH  66  70
ATOM     70  S   UNL A   1      39.984  32.667  37.484  1.00  0.00     0.124 S 
ATOM     71  O   UNL A   1      39.085  31.620  37.001  1.00  0.00    -0.237 OA
ATOM     72  O   UNL A   1      40.677  32.383  38.738  1.00  0.00    -0.237 OA
ATOM     73  O   UNL A   1      39.476  34.026  37.344  1.00  0.00    -0.744 OA
ENDBRANCH  66  70
ENDBRANCH  49  63
BRANCH  50  74
ATOM     74  C   UNL A   1      42.353  24.279  27.347  1.00  0.00     0.023 A 
ATOM     75  C   UNL A   1      41.588  23.103  27.394  1.00  0.00     0.031 A 
ATOM     76  C   UNL A   1      43.196  24.475  26.239  1.00  0.00     0.131 A 
ATOM     77  C   UNL A   1      41.708  22.151  26.371  1.00  0.00     0.055 A 
ATOM     78  C   UNL A   1      43.277  23.547  25.200  1.00  0.00     0.041 A 
ATOM     79  F   UNL A   1      43.942  25.588  26.142  1.00  0.00    -0.206 F 
ATOM     80  C   UNL A   1      42.537  22.370  25.268  1.00  0.00     0.022 A 
BRANCH  77  81
ATOM     81  S   UNL A   1      40.806  20.585  26.528  1.00  0.00     0.124 S 
ATOM     82  O   UNL A   1      40.874  20.346  27.966  1.00  0.00    -0.237 OA
ATOM     83  O   UNL A   1      39.493  20.937  25.998  1.00  0.00    -0.237 OA
ATOM     84  O   UNL A   1      41.581  19.661  25.703  1.00  0.00    -0.744 OA
ENDBRANCH  77  81
ENDBRANCH  50  74
BRANCH  62  85
ATOM     85  C   UNL A   1      46.546  25.779  32.718  1.00  0.00     0.023 A 
ATOM     86  C   UNL A   1      47.810  26.042  32.162  1.00  0.00     0.031 A 
ATOM     87  C   UNL A   1      46.468  24.862  33.781  1.00  0.00     0.131 A 
ATOM     88  C   UNL A   1      48.939  25.355  32.636  1.00  0.00     0.055 A 
ATOM     89  C   UNL A   1      47.601  24.224  34.286  1.00  0.00     0.041 A 
ATOM     90  F   UNL A   1      45.286  24.572  34.347  1.00  0.00    -0.206 F 
ATOM     91  C   UNL A   1      48.844  24.460  33.705  1.00  0.00     0.022 A 
BRANCH  88  92
ATOM     92  S   UNL A   1      50.521  25.580  31.779  1.00  0.00     0.124 S 
ATOM     93  O   UNL A   1      50.234  26.714  30.905  1.00  0.00    -0.237 OA
ATOM     94  O   UNL A   1      51.440  25.841  32.882  1.00  0.00    -0.237 OA
ATOM     95  O   UNL A   1      50.724  24.305  31.093  1.00  0.00    -0.744 OA
ENDBRANCH  88  92
ENDBRANCH  62  85
ENDBRANCH  36  37
ENDBRANCH  28  31
ENDBRANCH  26  27
ENDBRANCH  25  26
ENDBRANCH   1  25
TORSDOF 18
ENDMDL
MODEL 2
REMARK VINA RESULT:     -11.0      5.030      8.666
REMARK SMILES COc1cc(C[N@@H+]2CCO[C@@H](CC(=O)NCCCNC(=O)c3ccc(-c4c5nc(c(-c6cc(S(=O)(=O)[O-])ccc6F)c6ccc([nH]6)c(-c6cc(S(=O)(=O)[O-])ccc6F)c6nc(c(-c7cc(S(=O)(=O)[O-])ccc7F)c7ccc4[nH]7)C=C6)C=C5)cc3)C2)ccc1O
REMARK SMILES IDX 16 1 15 2 13 3 14 4 12 6 11 7 7 8 8 9 85 10 9 12 10 13 6 14
REMARK SMILES IDX 5 15 3 16 4 17 88 18 87 19 86 20 2 21 1 22 89 23 17 25 18 26
REMARK SMILES IDX 19 27 20 28 21 30 22 31 23 32 84 33 24 34 83 35 25 36 26 37
REMARK SMILES IDX 27 38 77 39 28 40 82 41 76 42 78 43 29 44 81 45 75 46 74 47
REMARK SMILES IDX 30 49 62 50 42 51 61 52 43 53 46 54 60 55 79 56 44 57 45 58
REMARK SMILES IDX 59 60 80 61 47 62 31 63 32 64 40 65 33 66 39 67 41 68 38 69
REMARK SMILES IDX 34 70 35 71 36 72 37 73 63 74 64 75 72 76 65 77 71 78 73 79
REMARK SMILES IDX 70 80 66 81 67 82 68 83 69 84 48 85 49 86 57 87 50 88 56 89
REMARK SMILES IDX 58 90 55 91 51 92 52 93 53 94 54 95
REMARK H PARENT 15 5 7 11 89 24 19 29 78 48 46 59
REMARK Flexibility Score: inf
ROOT
ATOM      1  C   UNL A   1      36.563  20.480  25.063  1.00  0.00     0.117 C 
ENDROOT
BRANCH   1   2
ATOM      2  N   UNL A   1      35.436  19.561  24.931  1.00  0.00    -0.356 N 
ATOM      3  C   UNL A   1      34.116  19.731  25.235  1.00  0.00     0.222 C 
ATOM      4  O   UNL A   1      33.343  18.787  25.053  1.00  0.00    -0.275 OA
ATOM      5  H   UNL A   1      35.666  18.677  24.564  1.00  0.00     0.163 HD
BRANCH   3   6
ATOM      6  C   UNL A   1      33.624  21.036  25.822  1.00  0.00     0.138 C 
BRANCH   6   7
ATOM      7  C   UNL A   1      32.813  21.858  24.817  1.00  0.00     0.182 C 
ATOM      8  N   UNL A   1      32.314  24.258  24.083  1.00  0.00    -0.327 N 
ATOM      9  C   UNL A   1      32.584  23.796  22.720  1.00  0.00     0.291 C 
ATOM     10  C   UNL A   1      32.935  23.374  25.069  1.00  0.00     0.295 C 
ATOM     11  H   UNL A   1      32.783  25.162  24.150  1.00  0.00     0.348 HD
ATOM     12  C   UNL A   1      32.558  22.269  22.507  1.00  0.00     0.222 C 
ATOM     13  O   UNL A   1      33.313  21.556  23.498  1.00  0.00    -0.366 OA
BRANCH   8  14
ATOM     14  C   UNL A   1      30.949  24.702  24.394  1.00  0.00     0.299 C 
BRANCH  14  15
ATOM     15  C   UNL A   1      30.704  26.181  24.228  1.00  0.00     0.010 A 
ATOM     16  C   UNL A   1      31.654  28.408  23.995  1.00  0.00     0.160 A 
ATOM     17  C   UNL A   1      31.755  27.085  24.428  1.00  0.00     0.060 A 
ATOM     18  C   UNL A   1      30.452  28.843  23.433  1.00  0.00     0.157 A 
ATOM     19  C   UNL A   1      29.351  27.988  23.350  1.00  0.00     0.051 A 
ATOM     20  C   UNL A   1      29.475  26.659  23.749  1.00  0.00     0.013 A 
BRANCH  16  21
ATOM     21  O   UNL A   1      32.807  29.127  24.146  1.00  0.00    -0.493 OA
ATOM     22  C   UNL A   1      33.742  29.026  23.081  1.00  0.00     0.278 C 
ENDBRANCH  16  21
BRANCH  18  23
ATOM     23  O   UNL A   1      30.320  30.099  22.914  1.00  0.00    -0.504 OA
ATOM     24  H   UNL A   1      31.064  30.667  22.868  1.00  0.00     0.293 HD
ENDBRANCH  18  23
ENDBRANCH  14  15
ENDBRANCH   8  14
ENDBRANCH   6   7
ENDBRANCH   3   6
ENDBRANCH   1   2
BRANCH   1  25
ATOM     25  C   UNL A   1      37.916  19.790  24.880  1.00  0.00     0.042 C 
BRANCH  25  26
ATOM     26  C   UNL A   1      39.042  20.391  25.705  1.00  0.00     0.118 C 
BRANCH  26  27
ATOM     27  N   UNL A   1      40.087  19.417  25.957  1.00  0.00    -0.352 N 
ATOM     28  C   UNL A   1      41.443  19.599  26.081  1.00  0.00     0.251 C 
ATOM     29  H   UNL A   1      39.778  18.487  26.054  1.00  0.00     0.163 HD
ATOM     30  O   UNL A   1      42.177  18.615  25.967  1.00  0.00    -0.269 OA
BRANCH  28  31
ATOM     31  C   UNL A   1      42.033  20.937  26.335  1.00  0.00     0.039 A 
ATOM     32  C   UNL A   1      42.348  21.294  27.652  1.00  0.00     0.014 A 
ATOM     33  C   UNL A   1      42.201  21.879  25.315  1.00  0.00     0.014 A 
ATOM     34  C   UNL A   1      42.852  22.569  27.936  1.00  0.00     0.010 A 
ATOM     35  C   UNL A   1      42.783  23.117  25.586  1.00  0.00     0.010 A 
ATOM     36  C   UNL A   1      43.092  23.489  26.903  1.00  0.00    -0.014 A 
BRANCH  36  37
ATOM     37  C   UNL A   1      43.604  24.857  27.189  1.00  0.00     0.031 A 
ATOM     38  C   UNL A   1      42.677  25.913  27.737  1.00  0.00     0.074 A 
ATOM     39  C   UNL A   1      44.885  25.171  26.910  1.00  0.00     0.049 A 
ATOM     40  N   UNL A   1      42.908  27.178  27.983  1.00  0.00    -0.248 NA
ATOM     41  C   UNL A   1      41.294  25.493  28.011  1.00  0.00     0.031 C 
ATOM     42  C   UNL A   1      45.872  24.256  26.334  1.00  0.00     0.029 A 
ATOM     43  N   UNL A   1      45.573  26.351  27.059  1.00  0.00    -0.354 N 
ATOM     44  C   UNL A   1      41.697  27.709  28.420  1.00  0.00     0.074 A 
ATOM     45  C   UNL A   1      40.723  26.640  28.340  1.00  0.00     0.031 C 
ATOM     46  C   UNL A   1      47.039  24.904  26.190  1.00  0.00     0.029 A 
ATOM     47  C   UNL A   1      46.876  26.288  26.624  1.00  0.00     0.049 A 
ATOM     48  H   UNL A   1      45.171  27.163  27.442  1.00  0.00     0.167 HD
ATOM     49  C   UNL A   1      41.427  28.961  28.870  1.00  0.00     0.034 A 
ATOM     50  C   UNL A   1      47.830  27.239  26.568  1.00  0.00     0.034 A 
ATOM     51  C   UNL A   1      42.414  30.010  28.962  1.00  0.00     0.049 A 
ATOM     52  C   UNL A   1      47.513  28.624  27.071  1.00  0.00     0.074 A 
ATOM     53  C   UNL A   1      42.268  31.292  29.464  1.00  0.00     0.029 A 
ATOM     54  N   UNL A   1      43.731  29.902  28.531  1.00  0.00    -0.354 N 
ATOM     55  N   UNL A   1      46.380  29.093  27.538  1.00  0.00    -0.248 NA
ATOM     56  C   UNL A   1      48.609  29.601  27.055  1.00  0.00     0.031 C 
ATOM     57  C   UNL A   1      43.475  31.977  29.280  1.00  0.00     0.029 A 
ATOM     58  C   UNL A   1      44.399  31.103  28.729  1.00  0.00     0.049 A 
ATOM     59  H   UNL A   1      44.133  29.092  28.143  1.00  0.00     0.167 HD
ATOM     60  C   UNL A   1      46.634  30.416  27.891  1.00  0.00     0.074 A 
ATOM     61  C   UNL A   1      48.031  30.662  27.599  1.00  0.00     0.031 C 
ATOM     62  C   UNL A   1      45.788  31.342  28.414  1.00  0.00     0.034 A 
BRANCH  49  63
ATOM     63  C   UNL A   1      39.998  29.260  29.269  1.00  0.00     0.023 A 
ATOM     64  C   UNL A   1      39.610  29.350  30.617  1.00  0.00     0.031 A 
ATOM     65  C   UNL A   1      39.001  29.409  28.289  1.00  0.00     0.131 A 
ATOM     66  C   UNL A   1      38.254  29.483  30.951  1.00  0.00     0.055 A 
ATOM     67  C   UNL A   1      37.664  29.633  28.627  1.00  0.00     0.041 A 
ATOM     68  F   UNL A   1      39.303  29.317  26.985  1.00  0.00    -0.206 F 
ATOM     69  C   UNL A   1      37.280  29.651  29.965  1.00  0.00     0.022 A 
BRANCH  66  70
ATOM     70  S   UNL A   1      37.762  29.259  32.682  1.00  0.00     0.124 S 
ATOM     71  O   UNL A   1      36.474  29.952  32.715  1.00  0.00    -0.237 OA
ATOM     72  O   UNL A   1      37.706  27.805  32.807  1.00  0.00    -0.237 OA
ATOM     73  O   UNL A   1      38.829  29.911  33.432  1.00  0.00    -0.744 OA
ENDBRANCH  66  70
ENDBRANCH  49  63
BRANCH  50  74
ATOM     74  C   UNL A   1      49.168  26.922  25.995  1.00  0.00     0.023 A 
ATOM     75  C   UNL A   1      49.515  27.310  24.691  1.00  0.00     0.031 A 
ATOM     76  C   UNL A   1      50.118  26.206  26.745  1.00  0.00     0.131 A 
ATOM     77  C   UNL A   1      50.764  26.949  24.164  1.00  0.00     0.055 A 
ATOM     78  C   UNL A   1      51.377  25.890  26.233  1.00  0.00     0.041 A 
ATOM     79  F   UNL A   1      49.840  25.819  28.001  1.00  0.00    -0.206 F 
ATOM     80  C   UNL A   1      51.702  26.253  24.929  1.00  0.00     0.022 A 
BRANCH  77  81
ATOM     81  S   UNL A   1      51.127  27.352  22.433  1.00  0.00     0.124 S 
ATOM     82  O   UNL A   1      52.437  26.737  22.252  1.00  0.00    -0.237 OA
ATOM     83  O   UNL A   1      50.016  26.713  21.734  1.00  0.00    -0.237 OA
ATOM     84  O   UNL A   1      51.114  28.814  22.413  1.00  0.00    -0.744 OA
ENDBRANCH  77  81
ENDBRANCH  50  74
BRANCH  62  85
ATOM     85  C   UNL A   1      46.372  32.697  28.734  1.00  0.00     0.023 A 
ATOM     86  C   UNL A   1      46.343  33.752  27.806  1.00  0.00     0.031 A 
ATOM     87  C   UNL A   1      46.977  32.929  29.982  1.00  0.00     0.131 A 
ATOM     88  C   UNL A   1      46.956  34.976  28.120  1.00  0.00     0.055 A 
ATOM     89  C   UNL A   1      47.534  34.165  30.310  1.00  0.00     0.041 A 
ATOM     90  F   UNL A   1      47.034  31.956  30.905  1.00  0.00    -0.206 F 
ATOM     91  C   UNL A   1      47.537  35.194  29.372  1.00  0.00     0.022 A 
BRANCH  88  92
ATOM     92  S   UNL A   1      47.062  36.252  26.836  1.00  0.00     0.124 S 
ATOM     93  O   UNL A   1      48.325  36.907  27.162  1.00  0.00    -0.237 OA
ATOM     94  O   UNL A   1      47.051  35.463  25.609  1.00  0.00    -0.237 OA
ATOM     95  O   UNL A   1      45.866  37.064  27.059  1.00  0.00    -0.744 OA
ENDBRANCH  88  92
ENDBRANCH  62  85
ENDBRANCH  36  37
ENDBRANCH  28  31
ENDBRANCH  26  27
ENDBRANCH  25  26
ENDBRANCH   1  25
TORSDOF 18
ENDMDL
MODEL 3
REMARK VINA RESULT:     -11.0      3.972      9.725
REMARK SMILES COc1cc(C[N@@H+]2CCO[C@@H](CC(=O)NCCCNC(=O)c3ccc(-c4c5nc(c(-c6cc(S(=O)(=O)[O-])ccc6F)c6ccc([nH]6)c(-c6cc(S(=O)(=O)[O-])ccc6F)c6nc(c(-c7cc(S(=O)(=O)[O-])ccc7F)c7ccc4[nH]7)C=C6)C=C5)cc3)C2)ccc1O
REMARK SMILES IDX 16 1 15 2 13 3 14 4 12 6 11 7 7 8 8 9 85 10 9 12 10 13 6 14
REMARK SMILES IDX 5 15 3 16 4 17 88 18 87 19 86 20 2 21 1 22 89 23 17 25 18 26
REMARK SMILES IDX 19 27 20 28 21 30 22 31 23 32 84 33 24 34 83 35 25 36 26 37
REMARK SMILES IDX 27 38 77 39 28 40 82 41 76 42 78 43 29 44 81 45 75 46 74 47
REMARK SMILES IDX 30 49 62 50 42 51 61 52 43 53 46 54 60 55 79 56 44 57 45 58
REMARK SMILES IDX 59 60 80 61 47 62 31 63 32 64 40 65 33 66 39 67 41 68 38 69
REMARK SMILES IDX 34 70 35 71 36 72 37 73 63 74 64 75 72 76 65 77 71 78 73 79
REMARK SMILES IDX 70 80 66 81 67 82 68 83 69 84 48 85 49 86 57 87 50 88 56 89
REMARK SMILES IDX 58 90 55 91 51 92 52 93 53 94 54 95
REMARK H PARENT 15 5 7 11 89 24 19 29 78 48 46 59
REMARK Flexibility Score: inf
ROOT
ATOM      1  C   UNL A   1      35.804  20.733  25.536  1.00  0.00     0.117 C 
ENDROOT
BRANCH   1   2
ATOM      2  N   UNL A   1      35.046  19.783  24.728  1.00  0.00    -0.356 N 
ATOM      3  C   UNL A   1      33.699  19.582  24.628  1.00  0.00     0.222 C 
ATOM      4  O   UNL A   1      33.291  18.690  23.881  1.00  0.00    -0.275 OA
ATOM      5  H   UNL A   1      35.596  19.190  24.165  1.00  0.00     0.163 HD
BRANCH   3   6
ATOM      6  C   UNL A   1      32.736  20.412  25.448  1.00  0.00     0.138 C 
BRANCH   6   7
ATOM      7  C   UNL A   1      32.341  21.712  24.745  1.00  0.00     0.182 C 
ATOM      8  N   UNL A   1      32.356  24.257  25.014  1.00  0.00    -0.327 N 
ATOM      9  C   UNL A   1      32.938  24.300  23.671  1.00  0.00     0.291 C 
ATOM     10  C   UNL A   1      32.567  22.950  25.636  1.00  0.00     0.295 C 
ATOM     11  H   UNL A   1      32.892  24.938  25.552  1.00  0.00     0.348 HD
ATOM     12  C   UNL A   1      32.790  23.016  22.830  1.00  0.00     0.222 C 
ATOM     13  O   UNL A   1      33.149  21.831  23.556  1.00  0.00    -0.366 OA
BRANCH   8  14
ATOM     14  C   UNL A   1      31.021  24.842  25.197  1.00  0.00     0.299 C 
BRANCH  14  15
ATOM     15  C   UNL A   1      30.988  26.348  25.274  1.00  0.00     0.010 A 
ATOM     16  C   UNL A   1      31.847  28.372  26.315  1.00  0.00     0.160 A 
ATOM     17  C   UNL A   1      31.590  27.001  26.357  1.00  0.00     0.060 A 
ATOM     18  C   UNL A   1      31.415  29.104  25.207  1.00  0.00     0.157 A 
ATOM     19  C   UNL A   1      30.695  28.490  24.180  1.00  0.00     0.051 A 
ATOM     20  C   UNL A   1      30.479  27.113  24.215  1.00  0.00     0.013 A 
BRANCH  16  21
ATOM     21  O   UNL A   1      32.553  28.835  27.390  1.00  0.00    -0.493 OA
ATOM     22  C   UNL A   1      33.968  28.811  27.256  1.00  0.00     0.278 C 
ENDBRANCH  16  21
BRANCH  18  23
ATOM     23  O   UNL A   1      31.711  30.430  25.068  1.00  0.00    -0.504 OA
ATOM     24  H   UNL A   1      31.526  31.027  25.766  1.00  0.00     0.293 HD
ENDBRANCH  18  23
ENDBRANCH  14  15
ENDBRANCH   8  14
ENDBRANCH   6   7
ENDBRANCH   3   6
ENDBRANCH   1   2
BRANCH   1  25
ATOM     25  C   UNL A   1      36.341  21.911  24.721  1.00  0.00     0.042 C 
BRANCH  25  26
ATOM     26  C   UNL A   1      37.429  22.711  25.418  1.00  0.00     0.118 C 
BRANCH  26  27
ATOM     27  N   UNL A   1      38.482  21.844  25.914  1.00  0.00    -0.352 N 
ATOM     28  C   UNL A   1      39.714  22.169  26.427  1.00  0.00     0.251 C 
ATOM     29  H   UNL A   1      38.284  20.881  25.876  1.00  0.00     0.163 HD
ATOM     30  O   UNL A   1      40.574  21.287  26.484  1.00  0.00    -0.269 OA
BRANCH  28  31
ATOM     31  C   UNL A   1      40.029  23.541  26.900  1.00  0.00     0.039 A 
ATOM     32  C   UNL A   1      39.969  24.598  25.984  1.00  0.00     0.014 A 
ATOM     33  C   UNL A   1      40.465  23.793  28.204  1.00  0.00     0.014 A 
ATOM     34  C   UNL A   1      40.315  25.895  26.379  1.00  0.00     0.010 A 
ATOM     35  C   UNL A   1      40.727  25.099  28.621  1.00  0.00     0.010 A 
ATOM     36  C   UNL A   1      40.682  26.163  27.708  1.00  0.00    -0.014 A 
BRANCH  36  37
ATOM     37  C   UNL A   1      41.076  27.532  28.141  1.00  0.00     0.031 A 
ATOM     38  C   UNL A   1      42.532  27.923  28.180  1.00  0.00     0.074 A 
ATOM     39  C   UNL A   1      40.137  28.409  28.549  1.00  0.00     0.049 A 
ATOM     40  N   UNL A   1      43.085  29.034  28.594  1.00  0.00    -0.248 NA
ATOM     41  C   UNL A   1      43.495  26.909  27.722  1.00  0.00     0.031 C 
ATOM     42  C   UNL A   1      38.699  28.139  28.604  1.00  0.00     0.029 A 
ATOM     43  N   UNL A   1      40.252  29.698  29.009  1.00  0.00    -0.354 N 
ATOM     44  C   UNL A   1      44.459  28.848  28.468  1.00  0.00     0.074 A 
ATOM     45  C   UNL A   1      44.651  27.490  28.000  1.00  0.00     0.031 C 
ATOM     46  C   UNL A   1      38.066  29.233  29.060  1.00  0.00     0.029 A 
ATOM     47  C   UNL A   1      39.051  30.265  29.366  1.00  0.00     0.049 A 
ATOM     48  H   UNL A   1      41.112  30.171  29.076  1.00  0.00     0.167 HD
ATOM     49  C   UNL A   1      45.465  29.730  28.695  1.00  0.00     0.034 A 
ATOM     50  C   UNL A   1      38.774  31.474  29.894  1.00  0.00     0.034 A 
ATOM     51  C   UNL A   1      45.257  31.086  29.143  1.00  0.00     0.049 A 
ATOM     52  C   UNL A   1      39.902  32.442  30.140  1.00  0.00     0.074 A 
ATOM     53  C   UNL A   1      46.194  32.086  29.339  1.00  0.00     0.029 A 
ATOM     54  N   UNL A   1      44.022  31.633  29.473  1.00  0.00    -0.354 N 
ATOM     55  N   UNL A   1      41.191  32.271  29.957  1.00  0.00    -0.248 NA
ATOM     56  C   UNL A   1      39.537  33.771  30.647  1.00  0.00     0.031 C 
ATOM     57  C   UNL A   1      45.537  33.212  29.849  1.00  0.00     0.029 A 
ATOM     58  C   UNL A   1      44.178  32.944  29.902  1.00  0.00     0.049 A 
ATOM     59  H   UNL A   1      43.161  31.159  29.413  1.00  0.00     0.167 HD
ATOM     60  C   UNL A   1      41.788  33.479  30.308  1.00  0.00     0.074 A 
ATOM     61  C   UNL A   1      40.716  34.374  30.694  1.00  0.00     0.031 C 
ATOM     62  C   UNL A   1      43.103  33.819  30.305  1.00  0.00     0.034 A 
BRANCH  49  63
ATOM     63  C   UNL A   1      46.880  29.236  28.485  1.00  0.00     0.023 A 
ATOM     64  C   UNL A   1      47.404  29.016  27.198  1.00  0.00     0.031 A 
ATOM     65  C   UNL A   1      47.701  28.935  29.586  1.00  0.00     0.131 A 
ATOM     66  C   UNL A   1      48.665  28.421  27.045  1.00  0.00     0.055 A 
ATOM     67  C   UNL A   1      48.993  28.428  29.425  1.00  0.00     0.041 A 
ATOM     68  F   UNL A   1      47.255  29.107  30.840  1.00  0.00    -0.206 F 
ATOM     69  C   UNL A   1      49.474  28.148  28.149  1.00  0.00     0.022 A 
BRANCH  66  70
ATOM     70  S   UNL A   1      49.158  27.849  25.396  1.00  0.00     0.124 S 
ATOM     71  O   UNL A   1      47.981  28.193  24.600  1.00  0.00    -0.237 OA
ATOM     72  O   UNL A   1      50.358  28.640  25.135  1.00  0.00    -0.237 OA
ATOM     73  O   UNL A   1      49.379  26.419  25.578  1.00  0.00    -0.744 OA
ENDBRANCH  66  70
ENDBRANCH  49  63
BRANCH  50  74
ATOM     74  C   UNL A   1      37.370  31.832  30.245  1.00  0.00     0.023 A 
ATOM     75  C   UNL A   1      36.477  32.315  29.277  1.00  0.00     0.031 A 
ATOM     76  C   UNL A   1      36.908  31.709  31.568  1.00  0.00     0.131 A 
ATOM     77  C   UNL A   1      35.178  32.692  29.651  1.00  0.00     0.055 A 
ATOM     78  C   UNL A   1      35.601  32.041  31.926  1.00  0.00     0.041 A 
ATOM     79  F   UNL A   1      37.720  31.243  32.531  1.00  0.00    -0.206 F 
ATOM     80  C   UNL A   1      34.730  32.546  30.966  1.00  0.00     0.022 A 
BRANCH  77  81
ATOM     81  S   UNL A   1      34.093  33.435  28.401  1.00  0.00     0.124 S 
ATOM     82  O   UNL A   1      33.212  34.257  29.223  1.00  0.00    -0.237 OA
ATOM     83  O   UNL A   1      35.046  34.155  27.563  1.00  0.00    -0.237 OA
ATOM     84  O   UNL A   1      33.460  32.279  27.769  1.00  0.00    -0.744 OA
ENDBRANCH  77  81
ENDBRANCH  50  74
BRANCH  62  85
ATOM     85  C   UNL A   1      43.443  35.235  30.703  1.00  0.00     0.023 A 
ATOM     86  C   UNL A   1      43.511  35.629  32.050  1.00  0.00     0.031 A 
ATOM     87  C   UNL A   1      43.690  36.206  29.716  1.00  0.00     0.131 A 
ATOM     88  C   UNL A   1      43.767  36.970  32.375  1.00  0.00     0.055 A 
ATOM     89  C   UNL A   1      43.999  37.526  30.045  1.00  0.00     0.041 A 
ATOM     90  F   UNL A   1      43.636  35.886  28.413  1.00  0.00    -0.206 F 
ATOM     91  C   UNL A   1      44.026  37.918  31.381  1.00  0.00     0.022 A 
BRANCH  88  92
ATOM     92  S   UNL A   1      43.667  37.482  34.112  1.00  0.00     0.124 S 
ATOM     93  O   UNL A   1      42.805  38.657  34.034  1.00  0.00    -0.237 OA
ATOM     94  O   UNL A   1      43.087  36.306  34.751  1.00  0.00    -0.237 OA
ATOM     95  O   UNL A   1      45.058  37.756  34.469  1.00  0.00    -0.744 OA
ENDBRANCH  88  92
ENDBRANCH  62  85
ENDBRANCH  36  37
ENDBRANCH  28  31
ENDBRANCH  26  27
ENDBRANCH  25  26
ENDBRANCH   1  25
TORSDOF 18
ENDMDL
