MODEL 1
REMARK VINA RESULT:     -13.1      0.000      0.000
REMARK SMILES C[C@@H](C(=O)NCCCNC(=O)c1ccc(-c2c3nc(c(-c4cc(S(=O)(=O)[O-])ccc4F)c4ccc([nH]4)c(-c4cc(S(=O)(=O)[O-])ccc4F)c4nc(c(-c5cc(S(=O)(=O)[O-])ccc5F)c5ccc2[nH]5)C=C4)C=C3)cc1)c1ccc2c3cc(Cl)ccc3n(C(=O)c3ccc(Cl)cc3)c2c1
REMARK SMILES IDX 7 1 6 2 5 3 3 4 4 5 2 7 1 8 75 9 76 10 97 11 77 12 96 13
REMARK SMILES IDX 78 14 86 15 79 16 85 17 80 18 84 19 81 20 83 21 82 22 87 23
REMARK SMILES IDX 88 24 89 25 90 26 95 27 91 28 94 29 92 30 93 31 8 32 9 33
REMARK SMILES IDX 10 34 11 36 12 37 13 38 74 39 14 40 73 41 15 42 16 43 17 44
REMARK SMILES IDX 67 45 18 46 72 47 66 48 68 49 19 50 71 51 65 52 64 53 20 55
REMARK SMILES IDX 52 56 32 57 51 58 33 59 36 60 50 61 69 62 34 63 35 64 49 66
REMARK SMILES IDX 70 67 37 68 21 69 22 70 30 71 23 72 29 73 31 74 28 75 24 76
REMARK SMILES IDX 25 77 26 78 27 79 53 80 54 81 62 82 55 83 61 84 63 85 60 86
REMARK SMILES IDX 56 87 57 88 58 89 59 90 38 91 39 92 47 93 40 94 46 95 48 96
REMARK SMILES IDX 45 97 41 98 42 99 43 100 44 101
REMARK H PARENT 5 6 9 35 68 54 36 65
REMARK Flexibility Score: inf
ROOT
ATOM      1  C   UNL A   1      36.597  22.288  24.054  1.00  0.00     0.042 C 
ENDROOT
BRANCH   1   2
ATOM      2  C   UNL A   1      35.418  23.210  23.743  1.00  0.00     0.117 C 
BRANCH   2   3
ATOM      3  N   UNL A   1      34.309  22.463  23.184  1.00  0.00    -0.356 N 
ATOM      4  C   UNL A   1      33.050  22.270  23.670  1.00  0.00     0.227 C 
ATOM      5  O   UNL A   1      32.369  21.413  23.102  1.00  0.00    -0.274 OA
ATOM      6  H   UNL A   1      34.493  22.029  22.320  1.00  0.00     0.163 HD
BRANCH   4   7
ATOM      7  C   UNL A   1      32.529  23.139  24.832  1.00  0.00     0.105 C 
ATOM      8  C   UNL A   1      31.515  22.344  25.668  1.00  0.00     0.023 C 
BRANCH   7   9
ATOM      9  C   UNL A   1      31.983  24.485  24.340  1.00  0.00    -0.034 A 
ATOM     10  C   UNL A   1      31.637  24.663  22.995  1.00  0.00     0.005 A 
ATOM     11  C   UNL A   1      31.836  25.573  25.211  1.00  0.00     0.032 A 
ATOM     12  C   UNL A   1      31.035  25.847  22.547  1.00  0.00     0.011 A 
ATOM     13  C   UNL A   1      31.332  26.795  24.735  1.00  0.00     0.057 A 
ATOM     14  C   UNL A   1      30.855  26.920  23.443  1.00  0.00     0.008 A 
ATOM     15  N   UNL A   1      31.203  28.024  25.393  1.00  0.00    -0.276 N 
ATOM     16  C   UNL A   1      30.260  28.206  23.347  1.00  0.00     0.009 A 
ATOM     17  C   UNL A   1      30.559  28.913  24.525  1.00  0.00     0.057 A 
ATOM     18  C   UNL A   1      29.540  28.837  22.311  1.00  0.00     0.031 A 
ATOM     19  C   UNL A   1      30.286  30.291  24.610  1.00  0.00     0.029 A 
ATOM     20  C   UNL A   1      29.203  30.180  22.438  1.00  0.00     0.041 A 
ATOM     21  C   UNL A   1      29.599  30.906  23.553  1.00  0.00     0.023 A 
ATOM     22  Cl  UNL A   1      28.325  30.953  21.173  1.00  0.00    -0.084 Cl
BRANCH  15  23
ATOM     23  C   UNL A   1      31.782  28.251  26.668  1.00  0.00     0.262 C 
ATOM     24  O   UNL A   1      31.168  27.750  27.614  1.00  0.00    -0.268 OA
BRANCH  23  25
ATOM     25  C   UNL A   1      32.986  29.050  27.041  1.00  0.00     0.040 A 
ATOM     26  C   UNL A   1      32.769  30.420  27.312  1.00  0.00     0.015 A 
ATOM     27  C   UNL A   1      34.300  28.578  27.028  1.00  0.00     0.015 A 
ATOM     28  C   UNL A   1      33.825  31.287  27.596  1.00  0.00     0.021 A 
ATOM     29  C   UNL A   1      35.360  29.445  27.345  1.00  0.00     0.021 A 
ATOM     30  C   UNL A   1      35.119  30.792  27.626  1.00  0.00     0.041 A 
ATOM     31  Cl  UNL A   1      36.427  31.846  27.993  1.00  0.00    -0.084 Cl
ENDBRANCH  23  25
ENDBRANCH  15  23
ENDBRANCH   7   9
ENDBRANCH   4   7
ENDBRANCH   2   3
ENDBRANCH   1   2
BRANCH   1  32
ATOM     32  C   UNL A   1      36.744  21.954  25.536  1.00  0.00     0.118 C 
BRANCH  32  33
ATOM     33  N   UNL A   1      37.773  20.956  25.773  1.00  0.00    -0.352 N 
ATOM     34  C   UNL A   1      39.092  21.118  26.123  1.00  0.00     0.251 C 
ATOM     35  H   UNL A   1      37.481  20.021  25.668  1.00  0.00     0.163 HD
ATOM     36  O   UNL A   1      39.856  20.163  26.034  1.00  0.00    -0.269 OA
BRANCH  34  37
ATOM     37  C   UNL A   1      39.588  22.437  26.575  1.00  0.00     0.039 A 
ATOM     38  C   UNL A   1      40.662  22.478  27.466  1.00  0.00     0.014 A 
ATOM     39  C   UNL A   1      38.998  23.624  26.133  1.00  0.00     0.014 A 
ATOM     40  C   UNL A   1      41.197  23.711  27.848  1.00  0.00     0.010 A 
ATOM     41  C   UNL A   1      39.577  24.849  26.455  1.00  0.00     0.010 A 
ATOM     42  C   UNL A   1      40.693  24.905  27.304  1.00  0.00    -0.014 A 
BRANCH  42  43
ATOM     43  C   UNL A   1      41.362  26.207  27.565  1.00  0.00     0.031 A 
ATOM     44  C   UNL A   1      42.723  26.498  26.995  1.00  0.00     0.074 A 
ATOM     45  C   UNL A   1      40.759  27.100  28.378  1.00  0.00     0.049 A 
ATOM     46  N   UNL A   1      43.485  27.545  27.179  1.00  0.00    -0.248 NA
ATOM     47  C   UNL A   1      43.314  25.471  26.122  1.00  0.00     0.031 C 
ATOM     48  C   UNL A   1      39.453  26.912  29.016  1.00  0.00     0.029 A 
ATOM     49  N   UNL A   1      41.163  28.336  28.819  1.00  0.00    -0.354 N 
ATOM     50  C   UNL A   1      44.648  27.303  26.454  1.00  0.00     0.074 A 
ATOM     51  C   UNL A   1      44.506  25.991  25.860  1.00  0.00     0.031 C 
ATOM     52  C   UNL A   1      39.157  27.998  29.747  1.00  0.00     0.029 A 
ATOM     53  C   UNL A   1      40.273  28.934  29.684  1.00  0.00     0.049 A 
ATOM     54  H   UNL A   1      42.010  28.756  28.544  1.00  0.00     0.167 HD
ATOM     55  C   UNL A   1      45.725  28.109  26.294  1.00  0.00     0.034 A 
ATOM     56  C   UNL A   1      40.357  30.090  30.372  1.00  0.00     0.034 A 
ATOM     57  C   UNL A   1      45.844  29.421  26.885  1.00  0.00     0.049 A 
ATOM     58  C   UNL A   1      41.594  30.941  30.208  1.00  0.00     0.074 A 
ATOM     59  C   UNL A   1      46.859  30.348  26.717  1.00  0.00     0.029 A 
ATOM     60  N   UNL A   1      44.935  29.985  27.768  1.00  0.00    -0.354 N 
ATOM     61  N   UNL A   1      42.648  30.730  29.454  1.00  0.00    -0.248 NA
ATOM     62  C   UNL A   1      41.652  32.186  30.985  1.00  0.00     0.031 C 
ATOM     63  C   UNL A   1      46.608  31.431  27.565  1.00  0.00     0.029 A 
ATOM     64  C   UNL A   1      45.392  31.222  28.195  1.00  0.00     0.049 A 
ATOM     65  H   UNL A   1      44.088  29.568  28.051  1.00  0.00     0.167 HD
ATOM     66  C   UNL A   1      43.478  31.831  29.648  1.00  0.00     0.074 A 
ATOM     67  C   UNL A   1      42.790  32.715  30.564  1.00  0.00     0.031 C 
ATOM     68  C   UNL A   1      44.702  32.087  29.121  1.00  0.00     0.034 A 
BRANCH  55  69
ATOM     69  C   UNL A   1      46.884  27.596  25.474  1.00  0.00     0.023 A 
ATOM     70  C   UNL A   1      47.075  27.977  24.136  1.00  0.00     0.031 A 
ATOM     71  C   UNL A   1      47.838  26.745  26.060  1.00  0.00     0.131 A 
ATOM     72  C   UNL A   1      48.174  27.482  23.417  1.00  0.00     0.055 A 
ATOM     73  C   UNL A   1      48.965  26.310  25.363  1.00  0.00     0.041 A 
ATOM     74  F   UNL A   1      47.695  26.330  27.329  1.00  0.00    -0.206 F 
ATOM     75  C   UNL A   1      49.135  26.673  24.030  1.00  0.00     0.022 A 
BRANCH  72  76
ATOM     76  S   UNL A   1      48.284  27.834  21.642  1.00  0.00     0.124 S 
ATOM     77  O   UNL A   1      46.944  28.342  21.358  1.00  0.00    -0.237 OA
ATOM     78  O   UNL A   1      49.365  28.812  21.581  1.00  0.00    -0.237 OA
ATOM     79  O   UNL A   1      48.587  26.532  21.052  1.00  0.00    -0.744 OA
ENDBRANCH  72  76
ENDBRANCH  55  69
BRANCH  56  80
ATOM     80  C   UNL A   1      39.275  30.504  31.315  1.00  0.00     0.023 A 
ATOM     81  C   UNL A   1      38.323  31.467  30.945  1.00  0.00     0.031 A 
ATOM     82  C   UNL A   1      39.231  30.012  32.633  1.00  0.00     0.131 A 
ATOM     83  C   UNL A   1      37.418  31.961  31.898  1.00  0.00     0.055 A 
ATOM     84  C   UNL A   1      38.282  30.453  33.556  1.00  0.00     0.041 A 
ATOM     85  F   UNL A   1      40.119  29.092  33.045  1.00  0.00    -0.206 F 
ATOM     86  C   UNL A   1      37.382  31.450  33.197  1.00  0.00     0.022 A 
BRANCH  83  87
ATOM     87  S   UNL A   1      36.389  33.388  31.455  1.00  0.00     0.124 S 
ATOM     88  O   UNL A   1      35.178  32.738  30.966  1.00  0.00    -0.237 OA
ATOM     89  O   UNL A   1      36.274  34.084  32.731  1.00  0.00    -0.237 OA
ATOM     90  O   UNL A   1      37.182  34.075  30.439  1.00  0.00    -0.744 OA
ENDBRANCH  83  87
ENDBRANCH  56  80
BRANCH  68  91
ATOM     91  C   UNL A   1      45.355  33.392  29.508  1.00  0.00     0.023 A 
ATOM     92  C   UNL A   1      45.128  34.573  28.780  1.00  0.00     0.031 A 
ATOM     93  C   UNL A   1      46.222  33.455  30.613  1.00  0.00     0.131 A 
ATOM     94  C   UNL A   1      45.806  35.751  29.127  1.00  0.00     0.055 A 
ATOM     95  C   UNL A   1      46.841  34.645  30.996  1.00  0.00     0.041 A 
ATOM     96  F   UNL A   1      46.480  32.358  31.343  1.00  0.00    -0.206 F 
ATOM     97  C   UNL A   1      46.645  35.799  30.242  1.00  0.00     0.022 A 
BRANCH  94  98
ATOM     98  S   UNL A   1      45.649  37.196  28.043  1.00  0.00     0.124 S 
ATOM     99  O   UNL A   1      44.984  36.627  26.875  1.00  0.00    -0.237 OA
ATOM    100  O   UNL A   1      44.847  38.109  28.851  1.00  0.00    -0.237 OA
ATOM    101  O   UNL A   1      47.033  37.614  27.826  1.00  0.00    -0.744 OA
ENDBRANCH  94  98
ENDBRANCH  68  91
ENDBRANCH  42  43
ENDBRANCH  34  37
ENDBRANCH  32  33
ENDBRANCH   1  32
TORSDOF 16
ENDMDL
MODEL 2
REMARK VINA RESULT:     -13.0      1.508      7.415
REMARK SMILES C[C@@H](C(=O)NCCCNC(=O)c1ccc(-c2c3nc(c(-c4cc(S(=O)(=O)[O-])ccc4F)c4ccc([nH]4)c(-c4cc(S(=O)(=O)[O-])ccc4F)c4nc(c(-c5cc(S(=O)(=O)[O-])ccc5F)c5ccc2[nH]5)C=C4)C=C3)cc1)c1ccc2c3cc(Cl)ccc3n(C(=O)c3ccc(Cl)cc3)c2c1
REMARK SMILES IDX 7 1 6 2 5 3 3 4 4 5 2 7 1 8 75 9 76 10 97 11 77 12 96 13
REMARK SMILES IDX 78 14 86 15 79 16 85 17 80 18 84 19 81 20 83 21 82 22 87 23
REMARK SMILES IDX 88 24 89 25 90 26 95 27 91 28 94 29 92 30 93 31 8 32 9 33
REMARK SMILES IDX 10 34 11 36 12 37 13 38 74 39 14 40 73 41 15 42 16 43 17 44
REMARK SMILES IDX 67 45 18 46 72 47 66 48 68 49 19 50 71 51 65 52 64 53 20 55
REMARK SMILES IDX 52 56 32 57 51 58 33 59 36 60 50 61 69 62 34 63 35 64 49 66
REMARK SMILES IDX 70 67 37 68 21 69 22 70 30 71 23 72 29 73 31 74 28 75 24 76
REMARK SMILES IDX 25 77 26 78 27 79 53 80 54 81 62 82 55 83 61 84 63 85 60 86
REMARK SMILES IDX 56 87 57 88 58 89 59 90 38 91 39 92 47 93 40 94 46 95 48 96
REMARK SMILES IDX 45 97 41 98 42 99 43 100 44 101
REMARK H PARENT 5 6 9 35 68 54 36 65
REMARK Flexibility Score: inf
ROOT
ATOM      1  C   UNL A   1      36.616  22.546  23.832  1.00  0.00     0.042 C 
ENDROOT
BRANCH   1   2
ATOM      2  C   UNL A   1      35.133  22.869  23.647  1.00  0.00     0.117 C 
BRANCH   2   3
ATOM      3  N   UNL A   1      34.300  21.804  24.165  1.00  0.00    -0.356 N 
ATOM      4  C   UNL A   1      33.644  21.705  25.357  1.00  0.00     0.227 C 
ATOM      5  O   UNL A   1      33.182  20.596  25.637  1.00  0.00    -0.274 OA
ATOM      6  H   UNL A   1      34.190  21.031  23.565  1.00  0.00     0.163 HD
BRANCH   4   7
ATOM      7  C   UNL A   1      33.466  22.951  26.245  1.00  0.00     0.105 C 
ATOM      8  C   UNL A   1      33.000  22.534  27.648  1.00  0.00     0.023 C 
BRANCH   7   9
ATOM      9  C   UNL A   1      32.553  23.995  25.591  1.00  0.00    -0.034 A 
ATOM     10  C   UNL A   1      31.396  23.599  24.908  1.00  0.00     0.005 A 
ATOM     11  C   UNL A   1      32.859  25.362  25.637  1.00  0.00     0.032 A 
ATOM     12  C   UNL A   1      30.491  24.542  24.398  1.00  0.00     0.011 A 
ATOM     13  C   UNL A   1      32.005  26.298  25.031  1.00  0.00     0.057 A 
ATOM     14  C   UNL A   1      30.791  25.916  24.488  1.00  0.00     0.008 A 
ATOM     15  N   UNL A   1      32.166  27.679  24.866  1.00  0.00    -0.276 N 
ATOM     16  C   UNL A   1      30.107  27.108  24.131  1.00  0.00     0.009 A 
ATOM     17  C   UNL A   1      30.998  28.184  24.285  1.00  0.00     0.057 A 
ATOM     18  C   UNL A   1      28.808  27.335  23.629  1.00  0.00     0.031 A 
ATOM     19  C   UNL A   1      30.660  29.457  23.789  1.00  0.00     0.029 A 
ATOM     20  C   UNL A   1      28.454  28.615  23.216  1.00  0.00     0.041 A 
ATOM     21  C   UNL A   1      29.375  29.653  23.262  1.00  0.00     0.023 A 
ATOM     22  Cl  UNL A   1      26.870  28.895  22.600  1.00  0.00    -0.084 Cl
BRANCH  15  23
ATOM     23  C   UNL A   1      33.396  28.325  25.154  1.00  0.00     0.262 C 
ATOM     24  O   UNL A   1      34.338  27.996  24.427  1.00  0.00    -0.268 OA
BRANCH  23  25
ATOM     25  C   UNL A   1      33.734  29.297  26.234  1.00  0.00     0.040 A 
ATOM     26  C   UNL A   1      32.809  30.345  26.445  1.00  0.00     0.015 A 
ATOM     27  C   UNL A   1      34.928  29.313  26.956  1.00  0.00     0.015 A 
ATOM     28  C   UNL A   1      33.050  31.359  27.372  1.00  0.00     0.021 A 
ATOM     29  C   UNL A   1      35.156  30.317  27.914  1.00  0.00     0.021 A 
ATOM     30  C   UNL A   1      34.220  31.334  28.116  1.00  0.00     0.041 A 
ATOM     31  Cl  UNL A   1      34.520  32.567  29.275  1.00  0.00    -0.084 Cl
ENDBRANCH  23  25
ENDBRANCH  15  23
ENDBRANCH   7   9
ENDBRANCH   4   7
ENDBRANCH   2   3
ENDBRANCH   1   2
BRANCH   1  32
ATOM     32  C   UNL A   1      37.097  22.665  25.275  1.00  0.00     0.118 C 
BRANCH  32  33
ATOM     33  N   UNL A   1      37.949  21.553  25.661  1.00  0.00    -0.352 N 
ATOM     34  C   UNL A   1      39.222  21.559  26.180  1.00  0.00     0.251 C 
ATOM     35  H   UNL A   1      37.555  20.660  25.532  1.00  0.00     0.163 HD
ATOM     36  O   UNL A   1      39.862  20.513  26.208  1.00  0.00    -0.269 OA
BRANCH  34  37
ATOM     37  C   UNL A   1      39.821  22.818  26.675  1.00  0.00     0.039 A 
ATOM     38  C   UNL A   1      40.841  22.747  27.625  1.00  0.00     0.014 A 
ATOM     39  C   UNL A   1      39.378  24.062  26.214  1.00  0.00     0.014 A 
ATOM     40  C   UNL A   1      41.474  23.918  28.050  1.00  0.00     0.010 A 
ATOM     41  C   UNL A   1      40.057  25.221  26.583  1.00  0.00     0.010 A 
ATOM     42  C   UNL A   1      41.124  25.159  27.492  1.00  0.00    -0.014 A 
BRANCH  42  43
ATOM     43  C   UNL A   1      41.904  26.386  27.805  1.00  0.00     0.031 A 
ATOM     44  C   UNL A   1      41.296  27.496  28.617  1.00  0.00     0.074 A 
ATOM     45  C   UNL A   1      43.145  26.519  27.291  1.00  0.00     0.049 A 
ATOM     46  N   UNL A   1      41.800  28.663  28.923  1.00  0.00    -0.248 NA
ATOM     47  C   UNL A   1      39.937  27.274  29.137  1.00  0.00     0.031 C 
ATOM     48  C   UNL A   1      43.825  25.521  26.460  1.00  0.00     0.029 A 
ATOM     49  N   UNL A   1      44.053  27.545  27.378  1.00  0.00    -0.354 N 
ATOM     50  C   UNL A   1      40.822  29.320  29.661  1.00  0.00     0.074 A 
ATOM     51  C   UNL A   1      39.679  28.435  29.724  1.00  0.00     0.031 C 
ATOM     52  C   UNL A   1      45.045  25.976  26.132  1.00  0.00     0.029 A 
ATOM     53  C   UNL A   1      45.214  27.319  26.673  1.00  0.00     0.049 A 
ATOM     54  H   UNL A   1      43.889  28.366  27.895  1.00  0.00     0.167 HD
ATOM     55  C   UNL A   1      40.882  30.544  30.241  1.00  0.00     0.034 A 
ATOM     56  C   UNL A   1      46.283  28.113  26.461  1.00  0.00     0.034 A 
ATOM     57  C   UNL A   1      42.037  31.408  30.178  1.00  0.00     0.049 A 
ATOM     58  C   UNL A   1      46.296  29.490  27.081  1.00  0.00     0.074 A 
ATOM     59  C   UNL A   1      42.227  32.631  30.799  1.00  0.00     0.029 A 
ATOM     60  N   UNL A   1      43.185  31.156  29.441  1.00  0.00    -0.354 N 
ATOM     61  N   UNL A   1      45.393  30.061  27.844  1.00  0.00    -0.248 NA
ATOM     62  C   UNL A   1      47.473  30.328  26.814  1.00  0.00     0.031 C 
ATOM     63  C   UNL A   1      43.448  33.157  30.369  1.00  0.00     0.029 A 
ATOM     64  C   UNL A   1      44.063  32.224  29.549  1.00  0.00     0.049 A 
ATOM     65  H   UNL A   1      43.353  30.339  28.918  1.00  0.00     0.167 HD
ATOM     66  C   UNL A   1      45.909  31.313  28.168  1.00  0.00     0.074 A 
ATOM     67  C   UNL A   1      47.211  31.401  27.544  1.00  0.00     0.031 C 
ATOM     68  C   UNL A   1      45.354  32.305  28.909  1.00  0.00     0.034 A 
BRANCH  55  69
ATOM     69  C   UNL A   1      39.661  31.048  30.970  1.00  0.00     0.023 A 
ATOM     70  C   UNL A   1      39.599  31.095  32.373  1.00  0.00     0.031 A 
ATOM     71  C   UNL A   1      38.558  31.532  30.245  1.00  0.00     0.131 A 
ATOM     72  C   UNL A   1      38.445  31.582  33.006  1.00  0.00     0.055 A 
ATOM     73  C   UNL A   1      37.441  32.078  30.877  1.00  0.00     0.041 A 
ATOM     74  F   UNL A   1      38.553  31.490  28.902  1.00  0.00    -0.206 F 
ATOM     75  C   UNL A   1      37.377  32.100  32.267  1.00  0.00     0.022 A 
BRANCH  72  76
ATOM     76  S   UNL A   1      38.319  31.448  34.810  1.00  0.00     0.124 S 
ATOM     77  O   UNL A   1      38.275  29.999  34.996  1.00  0.00    -0.237 OA
ATOM     78  O   UNL A   1      39.534  32.115  35.262  1.00  0.00    -0.237 OA
ATOM     79  O   UNL A   1      37.072  32.146  35.119  1.00  0.00    -0.744 OA
ENDBRANCH  72  76
ENDBRANCH  55  69
BRANCH  56  80
ATOM     80  C   UNL A   1      47.413  27.665  25.592  1.00  0.00     0.023 A 
ATOM     81  C   UNL A   1      47.471  28.031  24.237  1.00  0.00     0.031 A 
ATOM     82  C   UNL A   1      48.403  26.791  26.077  1.00  0.00     0.131 A 
ATOM     83  C   UNL A   1      48.447  27.468  23.400  1.00  0.00     0.055 A 
ATOM     84  C   UNL A   1      49.416  26.291  25.257  1.00  0.00     0.041 A 
ATOM     85  F   UNL A   1      48.397  26.404  27.363  1.00  0.00    -0.206 F 
ATOM     86  C   UNL A   1      49.429  26.612  23.904  1.00  0.00     0.022 A 
BRANCH  83  87
ATOM     87  S   UNL A   1      48.323  27.754  21.613  1.00  0.00     0.124 S 
ATOM     88  O   UNL A   1      49.400  28.714  21.393  1.00  0.00    -0.237 OA
ATOM     89  O   UNL A   1      48.538  26.415  21.078  1.00  0.00    -0.237 OA
ATOM     90  O   UNL A   1      46.972  28.283  21.447  1.00  0.00    -0.744 OA
ENDBRANCH  83  87
ENDBRANCH  56  80
BRANCH  68  91
ATOM     91  C   UNL A   1      46.175  33.556  29.104  1.00  0.00     0.023 A 
ATOM     92  C   UNL A   1      46.063  34.653  28.234  1.00  0.00     0.031 A 
ATOM     93  C   UNL A   1      47.089  33.648  30.170  1.00  0.00     0.131 A 
ATOM     94  C   UNL A   1      46.893  35.771  28.406  1.00  0.00     0.055 A 
ATOM     95  C   UNL A   1      47.863  34.790  30.377  1.00  0.00     0.041 A 
ATOM     96  F   UNL A   1      47.242  32.629  31.030  1.00  0.00    -0.206 F 
ATOM     97  C   UNL A   1      47.777  35.855  29.484  1.00  0.00     0.022 A 
BRANCH  94  98
ATOM     98  S   UNL A   1      46.868  37.076  27.146  1.00  0.00     0.124 S 
ATOM     99  O   UNL A   1      45.452  37.425  27.101  1.00  0.00    -0.237 OA
ATOM    100  O   UNL A   1      47.755  38.083  27.720  1.00  0.00    -0.237 OA
ATOM    101  O   UNL A   1      47.380  36.407  25.951  1.00  0.00    -0.744 OA
ENDBRANCH  94  98
ENDBRANCH  68  91
ENDBRANCH  42  43
ENDBRANCH  34  37
ENDBRANCH  32  33
ENDBRANCH   1  32
TORSDOF 16
ENDMDL
MODEL 3
REMARK VINA RESULT:     -12.9      1.761      3.304
REMARK SMILES C[C@@H](C(=O)NCCCNC(=O)c1ccc(-c2c3nc(c(-c4cc(S(=O)(=O)[O-])ccc4F)c4ccc([nH]4)c(-c4cc(S(=O)(=O)[O-])ccc4F)c4nc(c(-c5cc(S(=O)(=O)[O-])ccc5F)c5ccc2[nH]5)C=C4)C=C3)cc1)c1ccc2c3cc(Cl)ccc3n(C(=O)c3ccc(Cl)cc3)c2c1
REMARK SMILES IDX 7 1 6 2 5 3 3 4 4 5 2 7 1 8 75 9 76 10 97 11 77 12 96 13
REMARK SMILES IDX 78 14 86 15 79 16 85 17 80 18 84 19 81 20 83 21 82 22 87 23
REMARK SMILES IDX 88 24 89 25 90 26 95 27 91 28 94 29 92 30 93 31 8 32 9 33
REMARK SMILES IDX 10 34 11 36 12 37 13 38 74 39 14 40 73 41 15 42 16 43 17 44
REMARK SMILES IDX 67 45 18 46 72 47 66 48 68 49 19 50 71 51 65 52 64 53 20 55
REMARK SMILES IDX 52 56 32 57 51 58 33 59 36 60 50 61 69 62 34 63 35 64 49 66
REMARK SMILES IDX 70 67 37 68 21 69 22 70 30 71 23 72 29 73 31 74 28 75 24 76
REMARK SMILES IDX 25 77 26 78 27 79 53 80 54 81 62 82 55 83 61 84 63 85 60 86
REMARK SMILES IDX 56 87 57 88 58 89 59 90 38 91 39 92 47 93 40 94 46 95 48 96
REMARK SMILES IDX 45 97 41 98 42 99 43 100 44 101
REMARK H PARENT 5 6 9 35 68 54 36 65
REMARK Flexibility Score: inf
ROOT
ATOM      1  C   UNL A   1      35.844  21.249  25.504  1.00  0.00     0.042 C 
ENDROOT
BRANCH   1   2
ATOM      2  C   UNL A   1      34.810  21.067  24.393  1.00  0.00     0.117 C 
BRANCH   2   3
ATOM      3  N   UNL A   1      33.528  20.669  24.937  1.00  0.00    -0.356 N 
ATOM      4  C   UNL A   1      32.315  21.287  24.866  1.00  0.00     0.227 C 
ATOM      5  O   UNL A   1      31.429  20.844  25.601  1.00  0.00    -0.274 OA
ATOM      6  H   UNL A   1      33.533  19.820  25.436  1.00  0.00     0.163 HD
BRANCH   4   7
ATOM      7  C   UNL A   1      32.094  22.437  23.863  1.00  0.00     0.105 C 
ATOM      8  C   UNL A   1      32.912  22.186  22.588  1.00  0.00     0.023 C 
BRANCH   7   9
ATOM      9  C   UNL A   1      32.366  23.808  24.495  1.00  0.00    -0.034 A 
ATOM     10  C   UNL A   1      33.395  23.968  25.431  1.00  0.00     0.005 A 
ATOM     11  C   UNL A   1      31.584  24.926  24.174  1.00  0.00     0.032 A 
ATOM     12  C   UNL A   1      33.730  25.231  25.938  1.00  0.00     0.011 A 
ATOM     13  C   UNL A   1      31.855  26.171  24.766  1.00  0.00     0.057 A 
ATOM     14  C   UNL A   1      32.962  26.355  25.575  1.00  0.00     0.008 A 
ATOM     15  N   UNL A   1      31.149  27.376  24.674  1.00  0.00    -0.276 N 
ATOM     16  C   UNL A   1      33.040  27.745  25.853  1.00  0.00     0.009 A 
ATOM     17  C   UNL A   1      31.870  28.353  25.368  1.00  0.00     0.057 A 
ATOM     18  C   UNL A   1      34.002  28.516  26.539  1.00  0.00     0.031 A 
ATOM     19  C   UNL A   1      31.576  29.688  25.705  1.00  0.00     0.029 A 
ATOM     20  C   UNL A   1      33.740  29.857  26.798  1.00  0.00     0.041 A 
ATOM     21  C   UNL A   1      32.531  30.427  26.418  1.00  0.00     0.023 A 
ATOM     22  Cl  UNL A   1      34.911  30.801  27.637  1.00  0.00    -0.084 Cl
BRANCH  15  23
ATOM     23  C   UNL A   1      29.868  27.445  24.067  1.00  0.00     0.262 C 
ATOM     24  O   UNL A   1      29.134  26.477  24.290  1.00  0.00    -0.268 OA
BRANCH  23  25
ATOM     25  C   UNL A   1      29.297  28.481  23.157  1.00  0.00     0.040 A 
ATOM     26  C   UNL A   1      30.222  29.191  22.359  1.00  0.00     0.015 A 
ATOM     27  C   UNL A   1      27.958  28.872  23.125  1.00  0.00     0.015 A 
ATOM     28  C   UNL A   1      29.820  30.236  21.526  1.00  0.00     0.021 A 
ATOM     29  C   UNL A   1      27.548  29.903  22.262  1.00  0.00     0.021 A 
ATOM     30  C   UNL A   1      28.478  30.580  21.469  1.00  0.00     0.041 A 
ATOM     31  Cl  UNL A   1      27.967  31.853  20.434  1.00  0.00    -0.084 Cl
ENDBRANCH  23  25
ENDBRANCH  15  23
ENDBRANCH   7   9
ENDBRANCH   4   7
ENDBRANCH   2   3
ENDBRANCH   1   2
BRANCH   1  32
ATOM     32  C   UNL A   1      37.263  21.478  24.993  1.00  0.00     0.118 C 
BRANCH  32  33
ATOM     33  N   UNL A   1      38.197  20.492  25.510  1.00  0.00    -0.352 N 
ATOM     34  C   UNL A   1      39.415  20.670  26.122  1.00  0.00     0.251 C 
ATOM     35  H   UNL A   1      37.914  19.555  25.408  1.00  0.00     0.163 HD
ATOM     36  O   UNL A   1      40.160  19.707  26.262  1.00  0.00    -0.269 OA
BRANCH  34  37
ATOM     37  C   UNL A   1      39.832  22.014  26.580  1.00  0.00     0.039 A 
ATOM     38  C   UNL A   1      40.893  22.115  27.482  1.00  0.00     0.014 A 
ATOM     39  C   UNL A   1      39.180  23.167  26.134  1.00  0.00     0.014 A 
ATOM     40  C   UNL A   1      41.353  23.376  27.870  1.00  0.00     0.010 A 
ATOM     41  C   UNL A   1      39.686  24.422  26.463  1.00  0.00     0.010 A 
ATOM     42  C   UNL A   1      40.789  24.540  27.322  1.00  0.00    -0.014 A 
BRANCH  42  43
ATOM     43  C   UNL A   1      41.381  25.877  27.591  1.00  0.00     0.031 A 
ATOM     44  C   UNL A   1      42.786  26.194  27.161  1.00  0.00     0.074 A 
ATOM     45  C   UNL A   1      40.661  26.782  28.288  1.00  0.00     0.049 A 
ATOM     46  N   UNL A   1      43.488  27.277  27.376  1.00  0.00    -0.248 NA
ATOM     47  C   UNL A   1      43.505  25.152  26.410  1.00  0.00     0.031 C 
ATOM     48  C   UNL A   1      39.298  26.572  28.786  1.00  0.00     0.029 A 
ATOM     49  N   UNL A   1      40.971  28.051  28.710  1.00  0.00    -0.354 N 
ATOM     50  C   UNL A   1      44.731  27.047  26.796  1.00  0.00     0.074 A 
ATOM     51  C   UNL A   1      44.700  25.705  26.256  1.00  0.00     0.031 C 
ATOM     52  C   UNL A   1      38.886  27.678  29.426  1.00  0.00     0.029 A 
ATOM     53  C   UNL A   1      39.971  28.653  29.441  1.00  0.00     0.049 A 
ATOM     54  H   UNL A   1      41.829  28.490  28.509  1.00  0.00     0.167 HD
ATOM     55  C   UNL A   1      45.793  27.886  26.717  1.00  0.00     0.034 A 
ATOM     56  C   UNL A   1      39.939  29.842  30.075  1.00  0.00     0.034 A 
ATOM     57  C   UNL A   1      45.801  29.227  27.251  1.00  0.00     0.049 A 
ATOM     58  C   UNL A   1      41.157  30.731  30.007  1.00  0.00     0.074 A 
ATOM     59  C   UNL A   1      46.796  30.184  27.151  1.00  0.00     0.029 A 
ATOM     60  N   UNL A   1      44.780  29.795  28.001  1.00  0.00    -0.354 N 
ATOM     61  N   UNL A   1      42.295  30.527  29.385  1.00  0.00    -0.248 NA
ATOM     62  C   UNL A   1      41.086  32.012  30.724  1.00  0.00     0.031 C 
ATOM     63  C   UNL A   1      46.417  31.294  27.911  1.00  0.00     0.029 A 
ATOM     64  C   UNL A   1      45.146  31.067  28.414  1.00  0.00     0.049 A 
ATOM     65  H   UNL A   1      43.922  29.359  28.209  1.00  0.00     0.167 HD
ATOM     66  C   UNL A   1      43.062  31.667  29.615  1.00  0.00     0.074 A 
ATOM     67  C   UNL A   1      42.246  32.564  30.405  1.00  0.00     0.031 C 
ATOM     68  C   UNL A   1      44.328  31.946  29.215  1.00  0.00     0.034 A 
BRANCH  55  69
ATOM     69  C   UNL A   1      47.052  27.381  26.056  1.00  0.00     0.023 A 
ATOM     70  C   UNL A   1      48.051  26.705  26.776  1.00  0.00     0.031 A 
ATOM     71  C   UNL A   1      47.231  27.541  24.670  1.00  0.00     0.131 A 
ATOM     72  C   UNL A   1      49.200  26.245  26.114  1.00  0.00     0.055 A 
ATOM     73  C   UNL A   1      48.343  27.022  24.005  1.00  0.00     0.041 A 
ATOM     74  F   UNL A   1      46.320  28.199  23.935  1.00  0.00    -0.206 F 
ATOM     75  C   UNL A   1      49.339  26.374  24.729  1.00  0.00     0.022 A 
BRANCH  72  76
ATOM     76  S   UNL A   1      50.555  25.553  27.100  1.00  0.00     0.124 S 
ATOM     77  O   UNL A   1      50.775  26.612  28.083  1.00  0.00    -0.237 OA
ATOM     78  O   UNL A   1      49.974  24.316  27.611  1.00  0.00    -0.237 OA
ATOM     79  O   UNL A   1      51.633  25.381  26.129  1.00  0.00    -0.744 OA
ENDBRANCH  72  76
ENDBRANCH  55  69
BRANCH  56  80
ATOM     80  C   UNL A   1      38.745  30.256  30.872  1.00  0.00     0.023 A 
ATOM     81  C   UNL A   1      37.834  31.199  30.372  1.00  0.00     0.031 A 
ATOM     82  C   UNL A   1      38.546  29.785  32.183  1.00  0.00     0.131 A 
ATOM     83  C   UNL A   1      36.814  31.696  31.198  1.00  0.00     0.055 A 
ATOM     84  C   UNL A   1      37.486  30.227  32.976  1.00  0.00     0.041 A 
ATOM     85  F   UNL A   1      39.387  28.884  32.717  1.00  0.00    -0.206 F 
ATOM     86  C   UNL A   1      36.625  31.206  32.492  1.00  0.00     0.022 A 
BRANCH  83  87
ATOM     87  S   UNL A   1      35.830  33.101  30.607  1.00  0.00     0.124 S 
ATOM     88  O   UNL A   1      36.373  33.300  29.268  1.00  0.00    -0.237 OA
ATOM     89  O   UNL A   1      34.474  32.570  30.678  1.00  0.00    -0.237 OA
ATOM     90  O   UNL A   1      36.136  34.157  31.569  1.00  0.00    -0.744 OA
ENDBRANCH  83  87
ENDBRANCH  56  80
BRANCH  68  91
ATOM     91  C   UNL A   1      44.889  33.291  29.606  1.00  0.00     0.023 A 
ATOM     92  C   UNL A   1      44.721  34.424  28.791  1.00  0.00     0.031 A 
ATOM     93  C   UNL A   1      45.610  33.441  30.805  1.00  0.00     0.131 A 
ATOM     94  C   UNL A   1      45.317  35.642  29.154  1.00  0.00     0.055 A 
ATOM     95  C   UNL A   1      46.142  34.670  31.194  1.00  0.00     0.041 A 
ATOM     96  F   UNL A   1      45.806  32.392  31.620  1.00  0.00    -0.206 F 
ATOM     97  C   UNL A   1      46.008  35.777  30.360  1.00  0.00     0.022 A 
BRANCH  94  98
ATOM     98  S   UNL A   1      45.255  37.023  27.980  1.00  0.00     0.124 S 
ATOM     99  O   UNL A   1      46.064  36.519  26.877  1.00  0.00    -0.237 OA
ATOM    100  O   UNL A   1      43.824  37.147  27.717  1.00  0.00    -0.237 OA
ATOM    101  O   UNL A   1      45.845  38.133  28.727  1.00  0.00    -0.744 OA
ENDBRANCH  94  98
ENDBRANCH  68  91
ENDBRANCH  42  43
ENDBRANCH  34  37
ENDBRANCH  32  33
ENDBRANCH   1  32
TORSDOF 16
ENDMDL
