MODEL 1
REMARK VINA RESULT:     -12.2      0.000      0.000
REMARK SMILES C[C@@H]1C(=O)NC(=O)CN1C(=O)NC1(CC(=O)NCCCNC(=O)c2ccc(-c3c4nc(c(-c5cc(S(=O)(=O)[O-])ccc5F)c5ccc([nH]5)c(-c5cc(S(=O)(=O)[O-])ccc5F)c5nc(c(-c6cc(S(=O)(=O)[O-])ccc6F)c6ccc3[nH]6)C=C5)C=C4)cc2)CCC1
REMARK SMILES IDX 19 1 18 2 17 3 15 4 16 5 14 7 13 8 87 9 89 10 88 11 12 12
REMARK SMILES IDX 10 13 11 14 9 16 1 17 2 18 3 19 4 20 5 21 8 22 6 23 7 25
REMARK SMILES IDX 20 26 21 27 22 28 23 30 24 31 25 32 86 33 26 34 85 35 27 36
REMARK SMILES IDX 28 37 29 38 79 39 30 40 84 41 78 42 80 43 31 44 83 45 77 46
REMARK SMILES IDX 76 47 32 49 64 50 44 51 63 52 45 53 48 54 62 55 81 56 46 57
REMARK SMILES IDX 47 58 61 60 82 61 49 62 33 63 34 64 42 65 35 66 41 67 43 68
REMARK SMILES IDX 40 69 36 70 37 71 38 72 39 73 65 74 66 75 74 76 67 77 73 78
REMARK SMILES IDX 75 79 72 80 68 81 69 82 70 83 71 84 50 85 51 86 59 87 52 88
REMARK SMILES IDX 58 89 60 90 57 91 53 92 54 93 55 94 56 95
REMARK H PARENT 17 6 12 15 5 24 21 29 80 48 48 59
REMARK Flexibility Score: inf
ROOT
ATOM      1  C   UNL A   1      31.393  32.428  26.483  1.00  0.00     0.042 C 
ENDROOT
BRANCH   1   2
ATOM      2  C   UNL A   1      31.313  30.940  26.151  1.00  0.00     0.117 C 
BRANCH   2   3
ATOM      3  N   UNL A   1      32.552  30.254  26.464  1.00  0.00    -0.356 N 
ATOM      4  C   UNL A   1      33.244  29.329  25.748  1.00  0.00     0.222 C 
ATOM      5  O   UNL A   1      34.231  28.809  26.275  1.00  0.00    -0.275 OA
ATOM      6  H   UNL A   1      32.954  30.496  27.329  1.00  0.00     0.163 HD
BRANCH   4   7
ATOM      7  C   UNL A   1      32.841  28.926  24.339  1.00  0.00     0.128 C 
BRANCH   7   8
ATOM      8  C   UNL A   1      32.192  27.523  24.165  1.00  0.00     0.051 C 
ATOM      9  C   UNL A   1      32.102  27.081  22.676  1.00  0.00     0.029 C 
ATOM     10  C   UNL A   1      30.656  27.665  24.177  1.00  0.00     0.029 C 
ATOM     11  C   UNL A   1      30.594  27.333  22.681  1.00  0.00     0.005 C 
BRANCH   8  12
ATOM     12  N   UNL A   1      32.960  26.542  24.970  1.00  0.00    -0.332 N 
ATOM     13  C   UNL A   1      33.022  25.294  25.457  1.00  0.00     0.318 C 
ATOM     14  O   UNL A   1      34.082  25.085  26.063  1.00  0.00    -0.249 OA
ATOM     15  H   UNL A   1      33.771  27.006  25.280  1.00  0.00     0.165 HD
BRANCH  13  16
ATOM     16  N   UNL A   1      32.092  24.315  25.357  1.00  0.00    -0.304 N 
ATOM     17  C   UNL A   1      31.239  23.335  23.266  1.00  0.00     0.042 C 
ATOM     18  C   UNL A   1      32.100  23.128  24.512  1.00  0.00     0.174 C 
ATOM     19  C   UNL A   1      31.607  21.872  25.236  1.00  0.00     0.249 C 
ATOM     20  O   UNL A   1      31.856  20.741  24.817  1.00  0.00    -0.272 OA
ATOM     21  N   UNL A   1      30.745  22.055  26.283  1.00  0.00    -0.293 N 
ATOM     22  C   UNL A   1      30.840  24.514  26.108  1.00  0.00     0.222 C 
ATOM     23  C   UNL A   1      30.312  23.255  26.784  1.00  0.00     0.246 C 
ATOM     24  H   UNL A   1      30.401  21.243  26.720  1.00  0.00     0.173 HD
ATOM     25  O   UNL A   1      29.451  23.284  27.660  1.00  0.00    -0.273 OA
ENDBRANCH  13  16
ENDBRANCH   8  12
ENDBRANCH   7   8
ENDBRANCH   4   7
ENDBRANCH   2   3
ENDBRANCH   1   2
BRANCH   1  26
ATOM     26  C   UNL A   1      32.658  32.853  27.220  1.00  0.00     0.118 C 
BRANCH  26  27
ATOM     27  N   UNL A   1      32.556  34.214  27.719  1.00  0.00    -0.352 N 
ATOM     28  C   UNL A   1      33.155  34.829  28.793  1.00  0.00     0.251 C 
ATOM     29  H   UNL A   1      31.957  34.796  27.198  1.00  0.00     0.163 HD
ATOM     30  O   UNL A   1      32.718  35.925  29.143  1.00  0.00    -0.269 OA
BRANCH  28  31
ATOM     31  C   UNL A   1      34.283  34.212  29.540  1.00  0.00     0.039 A 
ATOM     32  C   UNL A   1      35.586  34.446  29.078  1.00  0.00     0.014 A 
ATOM     33  C   UNL A   1      34.092  33.346  30.619  1.00  0.00     0.014 A 
ATOM     34  C   UNL A   1      36.681  33.849  29.714  1.00  0.00     0.010 A 
ATOM     35  C   UNL A   1      35.191  32.808  31.297  1.00  0.00     0.010 A 
ATOM     36  C   UNL A   1      36.498  33.042  30.845  1.00  0.00    -0.014 A 
BRANCH  36  37
ATOM     37  C   UNL A   1      37.659  32.422  31.546  1.00  0.00     0.031 A 
ATOM     38  C   UNL A   1      38.402  31.271  30.919  1.00  0.00     0.074 A 
ATOM     39  C   UNL A   1      38.022  32.867  32.766  1.00  0.00     0.049 A 
ATOM     40  N   UNL A   1      39.387  30.556  31.402  1.00  0.00    -0.248 NA
ATOM     41  C   UNL A   1      37.962  30.856  29.579  1.00  0.00     0.031 C 
ATOM     42  C   UNL A   1      37.372  33.958  33.493  1.00  0.00     0.029 A 
ATOM     43  N   UNL A   1      39.019  32.452  33.615  1.00  0.00    -0.354 N 
ATOM     44  C   UNL A   1      39.678  29.601  30.433  1.00  0.00     0.074 A 
ATOM     45  C   UNL A   1      38.722  29.794  29.362  1.00  0.00     0.031 C 
ATOM     46  C   UNL A   1      37.993  34.134  34.671  1.00  0.00     0.029 A 
ATOM     47  C   UNL A   1      39.055  33.142  34.805  1.00  0.00     0.049 A 
ATOM     48  H   UNL A   1      39.649  31.728  33.393  1.00  0.00     0.167 HD
ATOM     49  C   UNL A   1      40.664  28.668  30.423  1.00  0.00     0.034 A 
ATOM     50  C   UNL A   1      39.840  32.984  35.890  1.00  0.00     0.034 A 
ATOM     51  C   UNL A   1      41.614  28.488  31.496  1.00  0.00     0.049 A 
ATOM     52  C   UNL A   1      40.906  31.916  35.875  1.00  0.00     0.074 A 
ATOM     53  C   UNL A   1      42.673  27.599  31.573  1.00  0.00     0.029 A 
ATOM     54  N   UNL A   1      41.616  29.204  32.687  1.00  0.00    -0.354 N 
ATOM     55  N   UNL A   1      41.191  31.048  34.934  1.00  0.00    -0.248 NA
ATOM     56  C   UNL A   1      41.762  31.819  37.064  1.00  0.00     0.031 C 
ATOM     57  C   UNL A   1      43.270  27.730  32.831  1.00  0.00     0.029 A 
ATOM     58  C   UNL A   1      42.637  28.757  33.514  1.00  0.00     0.049 A 
ATOM     59  H   UNL A   1      40.984  29.925  32.912  1.00  0.00     0.167 HD
ATOM     60  C   UNL A   1      42.278  30.318  35.408  1.00  0.00     0.074 A 
ATOM     61  C   UNL A   1      42.606  30.861  36.710  1.00  0.00     0.031 C 
ATOM     62  C   UNL A   1      42.948  29.294  34.818  1.00  0.00     0.034 A 
BRANCH  49  63
ATOM     63  C   UNL A   1      40.743  27.755  29.220  1.00  0.00     0.023 A 
ATOM     64  C   UNL A   1      41.685  27.961  28.197  1.00  0.00     0.031 A 
ATOM     65  C   UNL A   1      39.843  26.682  29.075  1.00  0.00     0.131 A 
ATOM     66  C   UNL A   1      41.653  27.167  27.040  1.00  0.00     0.055 A 
ATOM     67  C   UNL A   1      39.873  25.840  27.961  1.00  0.00     0.041 A 
ATOM     68  F   UNL A   1      38.909  26.444  30.007  1.00  0.00    -0.206 F 
ATOM     69  C   UNL A   1      40.770  26.091  26.926  1.00  0.00     0.022 A 
BRANCH  66  70
ATOM     70  S   UNL A   1      42.671  27.662  25.623  1.00  0.00     0.124 S 
ATOM     71  O   UNL A   1      43.955  27.937  26.265  1.00  0.00    -0.237 OA
ATOM     72  O   UNL A   1      42.622  26.480  24.772  1.00  0.00    -0.237 OA
ATOM     73  O   UNL A   1      41.981  28.839  25.100  1.00  0.00    -0.744 OA
ENDBRANCH  66  70
ENDBRANCH  49  63
BRANCH  50  74
ATOM     74  C   UNL A   1      39.638  33.842  37.093  1.00  0.00     0.023 A 
ATOM     75  C   UNL A   1      38.973  33.356  38.230  1.00  0.00     0.031 A 
ATOM     76  C   UNL A   1      40.084  35.176  37.110  1.00  0.00     0.131 A 
ATOM     77  C   UNL A   1      38.734  34.210  39.318  1.00  0.00     0.055 A 
ATOM     78  C   UNL A   1      39.888  36.006  38.215  1.00  0.00     0.041 A 
ATOM     79  F   UNL A   1      40.734  35.688  36.052  1.00  0.00    -0.206 F 
ATOM     80  C   UNL A   1      39.198  35.527  39.323  1.00  0.00     0.022 A 
BRANCH  77  81
ATOM     81  S   UNL A   1      37.738  33.594  40.703  1.00  0.00     0.124 S 
ATOM     82  O   UNL A   1      36.622  32.961  40.008  1.00  0.00    -0.237 OA
ATOM     83  O   UNL A   1      38.672  32.695  41.372  1.00  0.00    -0.237 OA
ATOM     84  O   UNL A   1      37.403  34.806  41.447  1.00  0.00    -0.744 OA
ENDBRANCH  77  81
ENDBRANCH  50  74
BRANCH  62  85
ATOM     85  C   UNL A   1      44.132  28.728  35.564  1.00  0.00     0.023 A 
ATOM     86  C   UNL A   1      43.995  27.675  36.486  1.00  0.00     0.031 A 
ATOM     87  C   UNL A   1      45.418  29.260  35.357  1.00  0.00     0.131 A 
ATOM     88  C   UNL A   1      45.113  27.226  37.207  1.00  0.00     0.055 A 
ATOM     89  C   UNL A   1      46.536  28.769  36.033  1.00  0.00     0.041 A 
ATOM     90  F   UNL A   1      45.608  30.269  34.491  1.00  0.00    -0.206 F 
ATOM     91  C   UNL A   1      46.385  27.755  36.973  1.00  0.00     0.022 A 
BRANCH  88  92
ATOM     92  S   UNL A   1      44.868  26.002  38.524  1.00  0.00     0.124 S 
ATOM     93  O   UNL A   1      43.765  26.588  39.280  1.00  0.00    -0.237 OA
ATOM     94  O   UNL A   1      44.554  24.792  37.772  1.00  0.00    -0.237 OA
ATOM     95  O   UNL A   1      46.154  25.983  39.218  1.00  0.00    -0.744 OA
ENDBRANCH  88  92
ENDBRANCH  62  85
ENDBRANCH  36  37
ENDBRANCH  28  31
ENDBRANCH  26  27
ENDBRANCH   1  26
TORSDOF 16
ENDMDL
MODEL 2
REMARK VINA RESULT:     -12.1      5.715     10.900
REMARK SMILES C[C@@H]1C(=O)NC(=O)CN1C(=O)NC1(CC(=O)NCCCNC(=O)c2ccc(-c3c4nc(c(-c5cc(S(=O)(=O)[O-])ccc5F)c5ccc([nH]5)c(-c5cc(S(=O)(=O)[O-])ccc5F)c5nc(c(-c6cc(S(=O)(=O)[O-])ccc6F)c6ccc3[nH]6)C=C5)C=C4)cc2)CCC1
REMARK SMILES IDX 19 1 18 2 17 3 15 4 16 5 14 7 13 8 87 9 89 10 88 11 12 12
REMARK SMILES IDX 10 13 11 14 9 16 1 17 2 18 3 19 4 20 5 21 8 22 6 23 7 25
REMARK SMILES IDX 20 26 21 27 22 28 23 30 24 31 25 32 86 33 26 34 85 35 27 36
REMARK SMILES IDX 28 37 29 38 79 39 30 40 84 41 78 42 80 43 31 44 83 45 77 46
REMARK SMILES IDX 76 47 32 49 64 50 44 51 63 52 45 53 48 54 62 55 81 56 46 57
REMARK SMILES IDX 47 58 61 60 82 61 49 62 33 63 34 64 42 65 35 66 41 67 43 68
REMARK SMILES IDX 40 69 36 70 37 71 38 72 39 73 65 74 66 75 74 76 67 77 73 78
REMARK SMILES IDX 75 79 72 80 68 81 69 82 70 83 71 84 50 85 51 86 59 87 52 88
REMARK SMILES IDX 58 89 60 90 57 91 53 92 54 93 55 94 56 95
REMARK H PARENT 17 6 12 15 5 24 21 29 80 48 48 59
REMARK Flexibility Score: inf
ROOT
ATOM      1  C   UNL A   1      34.828  22.280  26.935  1.00  0.00     0.042 C 
ENDROOT
BRANCH   1   2
ATOM      2  C   UNL A   1      33.563  21.426  26.916  1.00  0.00     0.117 C 
BRANCH   2   3
ATOM      3  N   UNL A   1      32.400  22.180  27.343  1.00  0.00    -0.356 N 
ATOM      4  C   UNL A   1      31.595  23.019  26.639  1.00  0.00     0.222 C 
ATOM      5  O   UNL A   1      30.717  23.631  27.254  1.00  0.00    -0.275 OA
ATOM      6  H   UNL A   1      32.157  22.067  28.290  1.00  0.00     0.163 HD
BRANCH   4   7
ATOM      7  C   UNL A   1      31.745  23.218  25.140  1.00  0.00     0.128 C 
BRANCH   7   8
ATOM      8  C   UNL A   1      31.953  24.677  24.640  1.00  0.00     0.051 C 
ATOM      9  C   UNL A   1      32.750  24.748  23.305  1.00  0.00     0.029 C 
ATOM     10  C   UNL A   1      33.171  25.294  25.357  1.00  0.00     0.029 C 
ATOM     11  C   UNL A   1      33.981  25.257  24.055  1.00  0.00     0.005 C 
BRANCH   8  12
ATOM     12  N   UNL A   1      30.627  25.327  24.507  1.00  0.00    -0.332 N 
ATOM     13  C   UNL A   1      29.949  26.438  24.183  1.00  0.00     0.318 C 
ATOM     14  O   UNL A   1      28.724  26.266  24.235  1.00  0.00    -0.249 OA
ATOM     15  H   UNL A   1      29.956  24.655  24.769  1.00  0.00     0.165 HD
BRANCH  13  16
ATOM     16  N   UNL A   1      30.452  27.647  23.835  1.00  0.00    -0.304 N 
ATOM     17  C   UNL A   1      31.754  29.146  25.290  1.00  0.00     0.042 C 
ATOM     18  C   UNL A   1      31.777  28.195  24.093  1.00  0.00     0.174 C 
ATOM     19  C   UNL A   1      32.360  28.945  22.892  1.00  0.00     0.249 C 
ATOM     20  O   UNL A   1      33.566  29.174  22.793  1.00  0.00    -0.272 OA
ATOM     21  N   UNL A   1      31.471  29.488  22.005  1.00  0.00    -0.293 N 
ATOM     22  C   UNL A   1      29.513  28.599  23.215  1.00  0.00     0.222 C 
ATOM     23  C   UNL A   1      30.105  29.390  22.055  1.00  0.00     0.246 C 
ATOM     24  H   UNL A   1      31.851  30.002  21.256  1.00  0.00     0.173 HD
ATOM     25  O   UNL A   1      29.411  30.016  21.257  1.00  0.00    -0.273 OA
ENDBRANCH  13  16
ENDBRANCH   8  12
ENDBRANCH   7   8
ENDBRANCH   4   7
ENDBRANCH   2   3
ENDBRANCH   1   2
BRANCH   1  26
ATOM     26  C   UNL A   1      35.642  22.248  25.645  1.00  0.00     0.118 C 
BRANCH  26  27
ATOM     27  N   UNL A   1      36.619  21.173  25.654  1.00  0.00    -0.352 N 
ATOM     28  C   UNL A   1      37.991  21.201  25.725  1.00  0.00     0.251 C 
ATOM     29  H   UNL A   1      36.231  20.270  25.602  1.00  0.00     0.163 HD
ATOM     30  O   UNL A   1      38.599  20.161  25.475  1.00  0.00    -0.269 OA
BRANCH  28  31
ATOM     31  C   UNL A   1      38.748  22.432  26.073  1.00  0.00     0.039 A 
ATOM     32  C   UNL A   1      39.920  22.295  26.830  1.00  0.00     0.014 A 
ATOM     33  C   UNL A   1      38.294  23.715  25.754  1.00  0.00     0.014 A 
ATOM     34  C   UNL A   1      40.644  23.425  27.228  1.00  0.00     0.010 A 
ATOM     35  C   UNL A   1      39.056  24.839  26.090  1.00  0.00     0.010 A 
ATOM     36  C   UNL A   1      40.233  24.709  26.842  1.00  0.00    -0.014 A 
BRANCH  36  37
ATOM     37  C   UNL A   1      41.010  25.918  27.238  1.00  0.00     0.031 A 
ATOM     38  C   UNL A   1      40.368  27.001  28.066  1.00  0.00     0.074 A 
ATOM     39  C   UNL A   1      42.284  26.064  26.819  1.00  0.00     0.049 A 
ATOM     40  N   UNL A   1      40.855  28.154  28.448  1.00  0.00    -0.248 NA
ATOM     41  C   UNL A   1      38.985  26.760  28.503  1.00  0.00     0.031 C 
ATOM     42  C   UNL A   1      43.015  25.102  25.994  1.00  0.00     0.029 A 
ATOM     43  N   UNL A   1      43.186  27.080  27.020  1.00  0.00    -0.354 N 
ATOM     44  C   UNL A   1      39.838  28.783  29.160  1.00  0.00     0.074 A 
ATOM     45  C   UNL A   1      38.688  27.904  29.101  1.00  0.00     0.031 C 
ATOM     46  C   UNL A   1      44.255  25.566  25.770  1.00  0.00     0.029 A 
ATOM     47  C   UNL A   1      44.395  26.878  26.395  1.00  0.00     0.049 A 
ATOM     48  H   UNL A   1      42.986  27.878  27.561  1.00  0.00     0.167 HD
ATOM     49  C   UNL A   1      39.865  29.968  29.821  1.00  0.00     0.034 A 
ATOM     50  C   UNL A   1      45.487  27.665  26.316  1.00  0.00     0.034 A 
ATOM     51  C   UNL A   1      41.020  30.835  29.875  1.00  0.00     0.049 A 
ATOM     52  C   UNL A   1      45.485  28.996  27.026  1.00  0.00     0.074 A 
ATOM     53  C   UNL A   1      41.167  32.037  30.545  1.00  0.00     0.029 A 
ATOM     54  N   UNL A   1      42.226  30.596  29.225  1.00  0.00    -0.354 N 
ATOM     55  N   UNL A   1      44.527  29.556  27.726  1.00  0.00    -0.248 NA
ATOM     56  C   UNL A   1      46.716  29.792  26.945  1.00  0.00     0.031 C 
ATOM     57  C   UNL A   1      42.431  32.558  30.247  1.00  0.00     0.029 A 
ATOM     58  C   UNL A   1      43.108  31.643  29.456  1.00  0.00     0.049 A 
ATOM     59  H   UNL A   1      42.425  29.801  28.681  1.00  0.00     0.167 HD
ATOM     60  C   UNL A   1      45.051  30.760  28.191  1.00  0.00     0.074 A 
ATOM     61  C   UNL A   1      46.414  30.833  27.706  1.00  0.00     0.031 C 
ATOM     62  C   UNL A   1      44.461  31.715  28.955  1.00  0.00     0.034 A 
BRANCH  49  63
ATOM     63  C   UNL A   1      38.595  30.403  30.517  1.00  0.00     0.023 A 
ATOM     64  C   UNL A   1      37.670  31.262  29.896  1.00  0.00     0.031 A 
ATOM     65  C   UNL A   1      38.318  29.982  31.831  1.00  0.00     0.131 A 
ATOM     66  C   UNL A   1      36.562  31.738  30.614  1.00  0.00     0.055 A 
ATOM     67  C   UNL A   1      37.167  30.391  32.509  1.00  0.00     0.041 A 
ATOM     68  F   UNL A   1      39.170  29.177  32.484  1.00  0.00    -0.206 F 
ATOM     69  C   UNL A   1      36.290  31.288  31.907  1.00  0.00     0.022 A 
BRANCH  66  70
ATOM     70  S   UNL A   1      35.574  33.075  29.889  1.00  0.00     0.124 S 
ATOM     71  O   UNL A   1      35.436  33.987  31.021  1.00  0.00    -0.237 OA
ATOM     72  O   UNL A   1      36.421  33.537  28.796  1.00  0.00    -0.237 OA
ATOM     73  O   UNL A   1      34.339  32.407  29.483  1.00  0.00    -0.744 OA
ENDBRANCH  66  70
ENDBRANCH  49  63
BRANCH  50  74
ATOM     74  C   UNL A   1      46.669  27.230  25.517  1.00  0.00     0.023 A 
ATOM     75  C   UNL A   1      46.907  27.742  24.232  1.00  0.00     0.031 A 
ATOM     76  C   UNL A   1      47.564  26.269  26.020  1.00  0.00     0.131 A 
ATOM     77  C   UNL A   1      47.987  27.259  23.476  1.00  0.00     0.055 A 
ATOM     78  C   UNL A   1      48.666  25.829  25.285  1.00  0.00     0.041 A 
ATOM     79  F   UNL A   1      47.389  25.754  27.248  1.00  0.00    -0.206 F 
ATOM     80  C   UNL A   1      48.875  26.316  23.999  1.00  0.00     0.022 A 
BRANCH  77  81
ATOM     81  S   UNL A   1      48.173  27.828  21.764  1.00  0.00     0.124 S 
ATOM     82  O   UNL A   1      48.284  26.564  21.042  1.00  0.00    -0.237 OA
ATOM     83  O   UNL A   1      46.940  28.579  21.558  1.00  0.00    -0.237 OA
ATOM     84  O   UNL A   1      49.392  28.633  21.804  1.00  0.00    -0.744 OA
ENDBRANCH  77  81
ENDBRANCH  50  74
BRANCH  62  85
ATOM     85  C   UNL A   1      45.308  32.902  29.347  1.00  0.00     0.023 A 
ATOM     86  C   UNL A   1      45.330  34.084  28.585  1.00  0.00     0.031 A 
ATOM     87  C   UNL A   1      46.117  32.843  30.497  1.00  0.00     0.131 A 
ATOM     88  C   UNL A   1      46.185  35.136  28.949  1.00  0.00     0.055 A 
ATOM     89  C   UNL A   1      46.920  33.916  30.888  1.00  0.00     0.041 A 
ATOM     90  F   UNL A   1      46.139  31.739  31.261  1.00  0.00    -0.206 F 
ATOM     91  C   UNL A   1      46.966  35.065  30.106  1.00  0.00     0.022 A 
BRANCH  88  92
ATOM     92  S   UNL A   1      46.333  36.565  27.841  1.00  0.00     0.124 S 
ATOM     93  O   UNL A   1      45.285  36.297  26.861  1.00  0.00    -0.237 OA
ATOM     94  O   UNL A   1      46.091  37.686  28.743  1.00  0.00    -0.237 OA
ATOM     95  O   UNL A   1      47.699  36.464  27.332  1.00  0.00    -0.744 OA
ENDBRANCH  88  92
ENDBRANCH  62  85
ENDBRANCH  36  37
ENDBRANCH  28  31
ENDBRANCH  26  27
ENDBRANCH   1  26
TORSDOF 16
ENDMDL
MODEL 3
REMARK VINA RESULT:     -11.9      3.372      8.757
REMARK SMILES C[C@@H]1C(=O)NC(=O)CN1C(=O)NC1(CC(=O)NCCCNC(=O)c2ccc(-c3c4nc(c(-c5cc(S(=O)(=O)[O-])ccc5F)c5ccc([nH]5)c(-c5cc(S(=O)(=O)[O-])ccc5F)c5nc(c(-c6cc(S(=O)(=O)[O-])ccc6F)c6ccc3[nH]6)C=C5)C=C4)cc2)CCC1
REMARK SMILES IDX 19 1 18 2 17 3 15 4 16 5 14 7 13 8 87 9 89 10 88 11 12 12
REMARK SMILES IDX 10 13 11 14 9 16 1 17 2 18 3 19 4 20 5 21 8 22 6 23 7 25
REMARK SMILES IDX 20 26 21 27 22 28 23 30 24 31 25 32 86 33 26 34 85 35 27 36
REMARK SMILES IDX 28 37 29 38 79 39 30 40 84 41 78 42 80 43 31 44 83 45 77 46
REMARK SMILES IDX 76 47 32 49 64 50 44 51 63 52 45 53 48 54 62 55 81 56 46 57
REMARK SMILES IDX 47 58 61 60 82 61 49 62 33 63 34 64 42 65 35 66 41 67 43 68
REMARK SMILES IDX 40 69 36 70 37 71 38 72 39 73 65 74 66 75 74 76 67 77 73 78
REMARK SMILES IDX 75 79 72 80 68 81 69 82 70 83 71 84 50 85 51 86 59 87 52 88
REMARK SMILES IDX 58 89 60 90 57 91 53 92 54 93 55 94 56 95
REMARK H PARENT 17 6 12 15 5 24 21 29 80 48 48 59
REMARK Flexibility Score: inf
ROOT
ATOM      1  C   UNL A   1      33.138  28.773  24.540  1.00  0.00     0.042 C 
ENDROOT
BRANCH   1   2
ATOM      2  C   UNL A   1      34.234  28.357  23.563  1.00  0.00     0.117 C 
BRANCH   2   3
ATOM      3  N   UNL A   1      33.687  27.702  22.390  1.00  0.00    -0.356 N 
ATOM      4  C   UNL A   1      33.527  26.379  22.123  1.00  0.00     0.222 C 
ATOM      5  O   UNL A   1      33.126  26.060  21.000  1.00  0.00    -0.275 OA
ATOM      6  H   UNL A   1      33.385  28.310  21.678  1.00  0.00     0.163 HD
BRANCH   4   7
ATOM      7  C   UNL A   1      33.822  25.302  23.152  1.00  0.00     0.128 C 
BRANCH   7   8
ATOM      8  C   UNL A   1      32.599  24.593  23.802  1.00  0.00     0.051 C 
ATOM      9  C   UNL A   1      31.308  25.463  23.764  1.00  0.00     0.029 C 
ATOM     10  C   UNL A   1      32.644  24.793  25.330  1.00  0.00     0.029 C 
ATOM     11  C   UNL A   1      31.436  25.736  25.263  1.00  0.00     0.005 C 
BRANCH   8  12
ATOM     12  N   UNL A   1      32.387  23.292  23.122  1.00  0.00    -0.332 N 
ATOM     13  C   UNL A   1      32.535  21.960  23.177  1.00  0.00     0.318 C 
ATOM     14  O   UNL A   1      32.028  21.396  22.198  1.00  0.00    -0.249 OA
ATOM     15  H   UNL A   1      31.954  23.492  22.261  1.00  0.00     0.165 HD
BRANCH  13  16
ATOM     16  N   UNL A   1      33.151  21.231  24.138  1.00  0.00    -0.304 N 
ATOM     17  C   UNL A   1      35.543  21.320  24.713  1.00  0.00     0.042 C 
ATOM     18  C   UNL A   1      34.115  21.665  25.140  1.00  0.00     0.174 C 
ATOM     19  C   UNL A   1      33.863  21.055  26.521  1.00  0.00     0.249 C 
ATOM     20  O   UNL A   1      34.339  21.547  27.545  1.00  0.00    -0.272 OA
ATOM     21  N   UNL A   1      33.215  19.850  26.560  1.00  0.00    -0.293 N 
ATOM     22  C   UNL A   1      32.919  19.775  24.112  1.00  0.00     0.222 C 
ATOM     23  C   UNL A   1      32.724  19.151  25.488  1.00  0.00     0.246 C 
ATOM     24  H   UNL A   1      33.090  19.444  27.448  1.00  0.00     0.173 HD
ATOM     25  O   UNL A   1      32.258  18.025  25.646  1.00  0.00    -0.273 OA
ENDBRANCH  13  16
ENDBRANCH   8  12
ENDBRANCH   7   8
ENDBRANCH   4   7
ENDBRANCH   2   3
ENDBRANCH   1   2
BRANCH   1  26
ATOM     26  C   UNL A   1      33.579  28.863  25.997  1.00  0.00     0.118 C 
BRANCH  26  27
ATOM     27  N   UNL A   1      33.520  30.227  26.492  1.00  0.00    -0.352 N 
ATOM     28  C   UNL A   1      34.296  30.887  27.415  1.00  0.00     0.251 C 
ATOM     29  H   UNL A   1      32.803  30.773  26.098  1.00  0.00     0.163 HD
ATOM     30  O   UNL A   1      33.892  31.970  27.835  1.00  0.00    -0.269 OA
BRANCH  28  31
ATOM     31  C   UNL A   1      35.579  30.332  27.923  1.00  0.00     0.039 A 
ATOM     32  C   UNL A   1      35.588  29.749  29.198  1.00  0.00     0.014 A 
ATOM     33  C   UNL A   1      36.783  30.447  27.222  1.00  0.00     0.014 A 
ATOM     34  C   UNL A   1      36.778  29.256  29.744  1.00  0.00     0.010 A 
ATOM     35  C   UNL A   1      37.958  29.890  27.739  1.00  0.00     0.010 A 
ATOM     36  C   UNL A   1      37.973  29.299  29.011  1.00  0.00    -0.014 A 
BRANCH  36  37
ATOM     37  C   UNL A   1      39.242  28.754  29.572  1.00  0.00     0.031 A 
ATOM     38  C   UNL A   1      39.900  29.417  30.754  1.00  0.00     0.074 A 
ATOM     39  C   UNL A   1      39.827  27.685  28.993  1.00  0.00     0.049 A 
ATOM     40  N   UNL A   1      41.038  29.135  31.337  1.00  0.00    -0.248 NA
ATOM     41  C   UNL A   1      39.193  30.563  31.343  1.00  0.00     0.031 C 
ATOM     42  C   UNL A   1      39.305  26.966  27.831  1.00  0.00     0.029 A 
ATOM     43  N   UNL A   1      40.991  27.023  29.298  1.00  0.00    -0.354 N 
ATOM     44  C   UNL A   1      41.190  30.073  32.354  1.00  0.00     0.074 A 
ATOM     45  C   UNL A   1      40.054  30.968  32.264  1.00  0.00     0.031 C 
ATOM     46  C   UNL A   1      40.138  25.956  27.528  1.00  0.00     0.029 A 
ATOM     47  C   UNL A   1      41.275  25.982  28.443  1.00  0.00     0.049 A 
ATOM     48  H   UNL A   1      41.568  27.269  30.056  1.00  0.00     0.167 HD
ATOM     49  C   UNL A   1      42.169  30.167  33.290  1.00  0.00     0.034 A 
ATOM     50  C   UNL A   1      42.337  25.154  28.388  1.00  0.00     0.034 A 
ATOM     51  C   UNL A   1      43.295  29.267  33.371  1.00  0.00     0.049 A 
ATOM     52  C   UNL A   1      43.433  25.298  29.413  1.00  0.00     0.074 A 
ATOM     53  C   UNL A   1      44.323  29.250  34.299  1.00  0.00     0.029 A 
ATOM     54  N   UNL A   1      43.549  28.227  32.484  1.00  0.00    -0.354 N 
ATOM     55  N   UNL A   1      43.541  26.167  30.391  1.00  0.00    -0.248 NA
ATOM     56  C   UNL A   1      44.544  24.340  29.335  1.00  0.00     0.031 C 
ATOM     57  C   UNL A   1      45.230  28.248  33.936  1.00  0.00     0.029 A 
ATOM     58  C   UNL A   1      44.730  27.584  32.827  1.00  0.00     0.049 A 
ATOM     59  H   UNL A   1      42.975  27.982  31.723  1.00  0.00     0.167 HD
ATOM     60  C   UNL A   1      44.718  25.843  31.060  1.00  0.00     0.074 A 
ATOM     61  C   UNL A   1      45.274  24.688  30.384  1.00  0.00     0.031 C 
ATOM     62  C   UNL A   1      45.286  26.442  32.138  1.00  0.00     0.034 A 
BRANCH  49  63
ATOM     63  C   UNL A   1      42.071  31.303  34.283  1.00  0.00     0.023 A 
ATOM     64  C   UNL A   1      41.115  31.301  35.315  1.00  0.00     0.031 A 
ATOM     65  C   UNL A   1      42.923  32.419  34.182  1.00  0.00     0.131 A 
ATOM     66  C   UNL A   1      40.974  32.424  36.145  1.00  0.00     0.055 A 
ATOM     67  C   UNL A   1      42.836  33.496  35.068  1.00  0.00     0.041 A 
ATOM     68  F   UNL A   1      43.844  32.489  33.209  1.00  0.00    -0.206 F 
ATOM     69  C   UNL A   1      41.846  33.510  36.046  1.00  0.00     0.022 A 
BRANCH  66  70
ATOM     70  S   UNL A   1      39.537  32.508  37.248  1.00  0.00     0.124 S 
ATOM     71  O   UNL A   1      40.175  32.585  38.560  1.00  0.00    -0.237 OA
ATOM     72  O   UNL A   1      38.862  33.718  36.794  1.00  0.00    -0.237 OA
ATOM     73  O   UNL A   1      38.827  31.259  36.982  1.00  0.00    -0.744 OA
ENDBRANCH  66  70
ENDBRANCH  49  63
BRANCH  50  74
ATOM     74  C   UNL A   1      42.431  24.125  27.311  1.00  0.00     0.023 A 
ATOM     75  C   UNL A   1      41.631  22.973  27.333  1.00  0.00     0.031 A 
ATOM     76  C   UNL A   1      43.351  24.269  26.257  1.00  0.00     0.131 A 
ATOM     77  C   UNL A   1      41.795  21.989  26.345  1.00  0.00     0.055 A 
ATOM     78  C   UNL A   1      43.476  23.312  25.249  1.00  0.00     0.041 A 
ATOM     79  F   UNL A   1      44.135  25.358  26.183  1.00  0.00    -0.206 F 
ATOM     80  C   UNL A   1      42.703  22.157  25.297  1.00  0.00     0.022 A 
BRANCH  77  81
ATOM     81  S   UNL A   1      40.855  20.445  26.492  1.00  0.00     0.124 S 
ATOM     82  O   UNL A   1      40.936  20.183  27.925  1.00  0.00    -0.237 OA
ATOM     83  O   UNL A   1      39.544  20.839  25.985  1.00  0.00    -0.237 OA
ATOM     84  O   UNL A   1      41.594  19.514  25.643  1.00  0.00    -0.744 OA
ENDBRANCH  77  81
ENDBRANCH  50  74
BRANCH  62  85
ATOM     85  C   UNL A   1      46.554  25.825  32.678  1.00  0.00     0.023 A 
ATOM     86  C   UNL A   1      46.532  24.825  33.667  1.00  0.00     0.031 A 
ATOM     87  C   UNL A   1      47.807  26.256  32.204  1.00  0.00     0.131 A 
ATOM     88  C   UNL A   1      47.737  24.330  34.189  1.00  0.00     0.055 A 
ATOM     89  C   UNL A   1      49.001  25.717  32.683  1.00  0.00     0.041 A 
ATOM     90  F   UNL A   1      47.889  27.211  31.263  1.00  0.00    -0.206 F 
ATOM     91  C   UNL A   1      48.971  24.758  33.690  1.00  0.00     0.022 A 
BRANCH  88  92
ATOM     92  S   UNL A   1      47.675  23.185  35.594  1.00  0.00     0.124 S 
ATOM     93  O   UNL A   1      46.697  22.201  35.140  1.00  0.00    -0.237 OA
ATOM     94  O   UNL A   1      49.056  22.719  35.679  1.00  0.00    -0.237 OA
ATOM     95  O   UNL A   1      47.237  24.028  36.705  1.00  0.00    -0.744 OA
ENDBRANCH  88  92
ENDBRANCH  62  85
ENDBRANCH  36  37
ENDBRANCH  28  31
ENDBRANCH  26  27
ENDBRANCH   1  26
TORSDOF 16
ENDMDL
