MODEL 1
REMARK VINA RESULT:     -13.3      0.000      0.000
REMARK SMILES Cc1nn(C(C)C)c(C)c1S(=O)(=O)Nc1cccc(C(=O)NCCCNC(=O)c2ccc(-c3c4nc(c(-c5cc(S(=O)(=O)[O-])ccc5F)c5ccc([nH]5)c(-c5cc(S(=O)(=O)[O-])ccc5F)c5nc(c(-c6cc(S(=O)(=O)[O-])ccc6F)c6ccc3[nH]6)C=C5)C=C4)cc2)c1C
REMARK SMILES IDX 23 1 22 2 20 3 21 4 19 6 15 7 16 8 92 9 17 10 93 11 18 12
REMARK SMILES IDX 14 13 11 15 12 16 13 17 10 18 1 19 2 20 3 21 4 22 8 23 9 24
REMARK SMILES IDX 5 25 6 26 7 27 24 28 25 29 26 30 27 31 28 33 29 34 30 35
REMARK SMILES IDX 91 36 31 37 90 38 32 39 33 40 34 41 84 42 35 43 89 44 83 45
REMARK SMILES IDX 85 46 36 47 88 48 82 49 81 50 37 52 69 53 49 54 68 55 50 56
REMARK SMILES IDX 53 57 67 58 86 59 51 60 52 61 66 63 87 64 54 65 38 66 39 67
REMARK SMILES IDX 47 68 40 69 46 70 48 71 45 72 41 73 42 74 43 75 44 76 70 77
REMARK SMILES IDX 71 78 79 79 72 80 78 81 80 82 77 83 73 84 74 85 75 86 76 87
REMARK SMILES IDX 55 88 56 89 64 90 57 91 63 92 65 93 62 94 58 95 59 96 60 97
REMARK SMILES IDX 61 98
REMARK H PARENT 22 5 14 14 26 32 85 51 53 62
REMARK Flexibility Score: inf
ROOT
ATOM      1  C   UNL A   1      31.885  30.214  26.406  1.00  0.00     0.118 C 
ENDROOT
BRANCH   1   2
ATOM      2  N   UNL A   1      31.382  30.010  25.052  1.00  0.00    -0.352 N 
ATOM      3  C   UNL A   1      31.258  28.877  24.283  1.00  0.00     0.251 C 
ATOM      4  O   UNL A   1      30.827  28.959  23.136  1.00  0.00    -0.269 OA
ATOM      5  H   UNL A   1      31.077  30.834  24.607  1.00  0.00     0.163 HD
BRANCH   3   6
ATOM      6  C   UNL A   1      31.631  27.537  24.811  1.00  0.00     0.044 A 
ATOM      7  C   UNL A   1      33.166  25.667  25.060  1.00  0.00     0.053 A 
ATOM      8  C   UNL A   1      32.230  25.000  25.852  1.00  0.00     0.027 A 
ATOM      9  C   UNL A   1      32.919  26.990  24.616  1.00  0.00    -0.014 A 
ATOM     10  C   UNL A   1      30.995  25.585  26.111  1.00  0.00     0.003 A 
ATOM     11  C   UNL A   1      34.032  27.745  23.925  1.00  0.00     0.047 C 
ATOM     12  C   UNL A   1      30.695  26.838  25.583  1.00  0.00     0.014 A 
BRANCH   7  13
ATOM     13  N   UNL A   1      34.403  25.073  24.673  1.00  0.00    -0.279 N 
ATOM     14  H   UNL A   1      35.219  25.424  25.096  1.00  0.00     0.180 HD
BRANCH  13  15
ATOM     15  S   UNL A   1      34.593  23.842  23.569  1.00  0.00     0.265 S 
ATOM     16  O   UNL A   1      35.972  23.800  23.125  1.00  0.00    -0.201 OA
ATOM     17  O   UNL A   1      33.536  24.058  22.598  1.00  0.00    -0.201 OA
BRANCH  15  18
ATOM     18  C   UNL A   1      34.297  22.236  24.133  1.00  0.00     0.131 A 
ATOM     19  C   UNL A   1      36.479  21.469  25.445  1.00  0.00     0.070 C 
ATOM     20  C   UNL A   1      35.131  21.340  24.850  1.00  0.00     0.080 A 
ATOM     21  N   UNL A   1      34.545  20.143  24.985  1.00  0.00    -0.176 NA
ATOM     22  N   UNL A   1      33.337  20.277  24.428  1.00  0.00    -0.266 N 
ATOM     23  C   UNL A   1      33.119  21.526  23.907  1.00  0.00     0.056 A 
ATOM     24  C   UNL A   1      31.841  21.920  23.259  1.00  0.00     0.068 C 
BRANCH  22  25
ATOM     25  C   UNL A   1      32.449  19.116  24.410  1.00  0.00     0.101 C 
ATOM     26  C   UNL A   1      32.544  18.383  23.071  1.00  0.00     0.033 C 
ATOM     27  C   UNL A   1      32.734  18.172  25.579  1.00  0.00     0.033 C 
ENDBRANCH  22  25
ENDBRANCH  15  18
ENDBRANCH  13  15
ENDBRANCH   7  13
ENDBRANCH   3   6
ENDBRANCH   1   2
BRANCH   1  28
ATOM     28  C   UNL A   1      33.378  30.548  26.425  1.00  0.00     0.042 C 
BRANCH  28  29
ATOM     29  C   UNL A   1      34.112  30.034  27.664  1.00  0.00     0.118 C 
BRANCH  29  30
ATOM     30  N   UNL A   1      34.822  31.102  28.375  1.00  0.00    -0.352 N 
ATOM     31  C   UNL A   1      36.096  31.097  28.916  1.00  0.00     0.251 C 
ATOM     32  H   UNL A   1      34.320  31.943  28.483  1.00  0.00     0.163 HD
ATOM     33  O   UNL A   1      36.575  32.088  29.442  1.00  0.00    -0.269 OA
BRANCH  31  34
ATOM     34  C   UNL A   1      36.909  29.875  28.759  1.00  0.00     0.039 A 
ATOM     35  C   UNL A   1      37.061  29.045  29.874  1.00  0.00     0.014 A 
ATOM     36  C   UNL A   1      37.693  29.707  27.621  1.00  0.00     0.014 A 
ATOM     37  C   UNL A   1      38.162  28.196  29.937  1.00  0.00     0.010 A 
ATOM     38  C   UNL A   1      38.834  28.938  27.723  1.00  0.00     0.010 A 
ATOM     39  C   UNL A   1      39.101  28.238  28.907  1.00  0.00    -0.014 A 
BRANCH  39  40
ATOM     40  C   UNL A   1      40.450  27.700  29.040  1.00  0.00     0.031 A 
ATOM     41  C   UNL A   1      40.731  26.293  28.692  1.00  0.00     0.074 A 
ATOM     42  C   UNL A   1      41.461  28.514  29.419  1.00  0.00     0.049 A 
ATOM     43  N   UNL A   1      41.802  25.665  29.039  1.00  0.00    -0.248 NA
ATOM     44  C   UNL A   1      39.771  25.437  27.998  1.00  0.00     0.031 C 
ATOM     45  C   UNL A   1      42.895  28.262  29.311  1.00  0.00     0.029 A 
ATOM     46  N   UNL A   1      41.366  29.633  30.248  1.00  0.00    -0.354 N 
ATOM     47  C   UNL A   1      41.825  24.474  28.359  1.00  0.00     0.074 A 
ATOM     48  C   UNL A   1      40.484  24.314  27.860  1.00  0.00     0.031 C 
ATOM     49  C   UNL A   1      43.536  29.003  30.226  1.00  0.00     0.029 A 
ATOM     50  C   UNL A   1      42.525  29.640  31.047  1.00  0.00     0.049 A 
ATOM     51  H   UNL A   1      40.632  30.290  30.268  1.00  0.00     0.167 HD
ATOM     52  C   UNL A   1      43.022  23.853  28.174  1.00  0.00     0.034 A 
ATOM     53  C   UNL A   1      42.450  29.551  32.406  1.00  0.00     0.034 A 
ATOM     54  C   UNL A   1      44.036  24.385  29.092  1.00  0.00     0.049 A 
ATOM     55  C   UNL A   1      43.178  28.356  32.978  1.00  0.00     0.074 A 
ATOM     56  C   UNL A   1      45.168  25.164  28.930  1.00  0.00     0.029 A 
ATOM     57  N   UNL A   1      43.801  24.322  30.466  1.00  0.00    -0.354 N 
ATOM     58  N   UNL A   1      43.559  27.322  32.278  1.00  0.00    -0.248 NA
ATOM     59  C   UNL A   1      43.531  28.231  34.387  1.00  0.00     0.031 C 
ATOM     60  C   UNL A   1      45.557  25.641  30.215  1.00  0.00     0.029 A 
ATOM     61  C   UNL A   1      44.695  25.110  31.161  1.00  0.00     0.049 A 
ATOM     62  H   UNL A   1      43.090  23.784  30.884  1.00  0.00     0.167 HD
ATOM     63  C   UNL A   1      44.171  26.404  33.097  1.00  0.00     0.074 A 
ATOM     64  C   UNL A   1      44.149  27.037  34.404  1.00  0.00     0.031 C 
ATOM     65  C   UNL A   1      44.627  25.203  32.618  1.00  0.00     0.034 A 
BRANCH  52  66
ATOM     66  C   UNL A   1      43.347  22.908  27.025  1.00  0.00     0.023 A 
ATOM     67  C   UNL A   1      42.772  21.616  27.021  1.00  0.00     0.031 A 
ATOM     68  C   UNL A   1      44.301  23.133  26.006  1.00  0.00     0.131 A 
ATOM     69  C   UNL A   1      43.153  20.640  26.074  1.00  0.00     0.055 A 
ATOM     70  C   UNL A   1      44.635  22.182  25.033  1.00  0.00     0.041 A 
ATOM     71  F   UNL A   1      45.022  24.254  25.916  1.00  0.00    -0.206 F 
ATOM     72  C   UNL A   1      44.070  20.923  25.067  1.00  0.00     0.022 A 
BRANCH  69  73
ATOM     73  S   UNL A   1      42.505  18.951  26.217  1.00  0.00     0.124 S 
ATOM     74  O   UNL A   1      43.386  18.207  25.322  1.00  0.00    -0.237 OA
ATOM     75  O   UNL A   1      42.648  18.682  27.642  1.00  0.00    -0.237 OA
ATOM     76  O   UNL A   1      41.124  19.077  25.750  1.00  0.00    -0.744 OA
ENDBRANCH  69  73
ENDBRANCH  52  66
BRANCH  53  77
ATOM     77  C   UNL A   1      41.222  30.187  32.964  1.00  0.00     0.023 A 
ATOM     78  C   UNL A   1      41.213  31.598  33.030  1.00  0.00     0.031 A 
ATOM     79  C   UNL A   1      39.991  29.520  33.010  1.00  0.00     0.131 A 
ATOM     80  C   UNL A   1      40.004  32.302  32.947  1.00  0.00     0.055 A 
ATOM     81  C   UNL A   1      38.782  30.230  33.014  1.00  0.00     0.041 A 
ATOM     82  F   UNL A   1      39.933  28.184  32.916  1.00  0.00    -0.206 F 
ATOM     83  C   UNL A   1      38.784  31.625  32.933  1.00  0.00     0.022 A 
BRANCH  80  84
ATOM     84  S   UNL A   1      40.070  34.078  32.556  1.00  0.00     0.124 S 
ATOM     85  O   UNL A   1      40.847  34.089  31.322  1.00  0.00    -0.237 OA
ATOM     86  O   UNL A   1      38.657  34.432  32.427  1.00  0.00    -0.237 OA
ATOM     87  O   UNL A   1      40.726  34.665  33.721  1.00  0.00    -0.744 OA
ENDBRANCH  80  84
ENDBRANCH  53  77
BRANCH  65  88
ATOM     88  C   UNL A   1      45.119  24.027  33.454  1.00  0.00     0.023 A 
ATOM     89  C   UNL A   1      46.405  23.938  34.009  1.00  0.00     0.031 A 
ATOM     90  C   UNL A   1      44.251  22.953  33.782  1.00  0.00     0.131 A 
ATOM     91  C   UNL A   1      46.811  22.815  34.758  1.00  0.00     0.055 A 
ATOM     92  C   UNL A   1      44.631  21.874  34.588  1.00  0.00     0.041 A 
ATOM     93  F   UNL A   1      42.983  22.908  33.348  1.00  0.00    -0.206 F 
ATOM     94  C   UNL A   1      45.926  21.789  35.069  1.00  0.00     0.022 A 
BRANCH  91  95
ATOM     95  S   UNL A   1      48.547  22.705  35.271  1.00  0.00     0.124 S 
ATOM     96  O   UNL A   1      49.244  23.178  34.078  1.00  0.00    -0.237 OA
ATOM     97  O   UNL A   1      48.591  23.598  36.424  1.00  0.00    -0.237 OA
ATOM     98  O   UNL A   1      48.730  21.288  35.574  1.00  0.00    -0.744 OA
ENDBRANCH  91  95
ENDBRANCH  65  88
ENDBRANCH  39  40
ENDBRANCH  31  34
ENDBRANCH  29  30
ENDBRANCH  28  29
ENDBRANCH   1  28
TORSDOF 17
ENDMDL
MODEL 2
REMARK VINA RESULT:     -12.7      3.997     10.675
REMARK SMILES Cc1nn(C(C)C)c(C)c1S(=O)(=O)Nc1cccc(C(=O)NCCCNC(=O)c2ccc(-c3c4nc(c(-c5cc(S(=O)(=O)[O-])ccc5F)c5ccc([nH]5)c(-c5cc(S(=O)(=O)[O-])ccc5F)c5nc(c(-c6cc(S(=O)(=O)[O-])ccc6F)c6ccc3[nH]6)C=C5)C=C4)cc2)c1C
REMARK SMILES IDX 23 1 22 2 20 3 21 4 19 6 15 7 16 8 92 9 17 10 93 11 18 12
REMARK SMILES IDX 14 13 11 15 12 16 13 17 10 18 1 19 2 20 3 21 4 22 8 23 9 24
REMARK SMILES IDX 5 25 6 26 7 27 24 28 25 29 26 30 27 31 28 33 29 34 30 35
REMARK SMILES IDX 91 36 31 37 90 38 32 39 33 40 34 41 84 42 35 43 89 44 83 45
REMARK SMILES IDX 85 46 36 47 88 48 82 49 81 50 37 52 69 53 49 54 68 55 50 56
REMARK SMILES IDX 53 57 67 58 86 59 51 60 52 61 66 63 87 64 54 65 38 66 39 67
REMARK SMILES IDX 47 68 40 69 46 70 48 71 45 72 41 73 42 74 43 75 44 76 70 77
REMARK SMILES IDX 71 78 79 79 72 80 78 81 80 82 77 83 73 84 74 85 75 86 76 87
REMARK SMILES IDX 55 88 56 89 64 90 57 91 63 92 65 93 62 94 58 95 59 96 60 97
REMARK SMILES IDX 61 98
REMARK H PARENT 22 5 14 14 26 32 85 51 53 62
REMARK Flexibility Score: inf
ROOT
ATOM      1  C   UNL A   1      36.011  22.018  25.663  1.00  0.00     0.118 C 
ENDROOT
BRANCH   1   2
ATOM      2  N   UNL A   1      35.357  20.868  25.049  1.00  0.00    -0.352 N 
ATOM      3  C   UNL A   1      34.057  20.657  24.656  1.00  0.00     0.251 C 
ATOM      4  O   UNL A   1      33.728  19.573  24.182  1.00  0.00    -0.269 OA
ATOM      5  H   UNL A   1      35.956  20.103  24.886  1.00  0.00     0.163 HD
BRANCH   3   6
ATOM      6  C   UNL A   1      33.025  21.720  24.789  1.00  0.00     0.044 A 
ATOM      7  C   UNL A   1      32.010  23.834  24.143  1.00  0.00     0.053 A 
ATOM      8  C   UNL A   1      31.036  23.672  25.130  1.00  0.00     0.027 A 
ATOM      9  C   UNL A   1      32.956  22.809  23.890  1.00  0.00    -0.014 A 
ATOM     10  C   UNL A   1      31.061  22.552  25.954  1.00  0.00     0.003 A 
ATOM     11  C   UNL A   1      33.869  22.940  22.693  1.00  0.00     0.047 C 
ATOM     12  C   UNL A   1      32.056  21.592  25.791  1.00  0.00     0.014 A 
BRANCH   7  13
ATOM     13  N   UNL A   1      32.098  25.010  23.341  1.00  0.00    -0.279 N 
ATOM     14  H   UNL A   1      32.895  25.103  22.770  1.00  0.00     0.180 HD
BRANCH  13  15
ATOM     15  S   UNL A   1      30.978  26.240  23.283  1.00  0.00     0.265 S 
ATOM     16  O   UNL A   1      29.699  25.750  23.756  1.00  0.00    -0.201 OA
ATOM     17  O   UNL A   1      31.088  26.767  21.936  1.00  0.00    -0.201 OA
BRANCH  15  18
ATOM     18  C   UNL A   1      31.281  27.618  24.280  1.00  0.00     0.131 A 
ATOM     19  C   UNL A   1      29.953  29.654  23.200  1.00  0.00     0.070 C 
ATOM     20  C   UNL A   1      30.856  28.965  24.148  1.00  0.00     0.080 A 
ATOM     21  N   UNL A   1      31.417  29.739  25.087  1.00  0.00    -0.176 NA
ATOM     22  N   UNL A   1      32.137  28.906  25.847  1.00  0.00    -0.266 N 
ATOM     23  C   UNL A   1      32.082  27.604  25.421  1.00  0.00     0.056 A 
ATOM     24  C   UNL A   1      32.781  26.495  26.119  1.00  0.00     0.068 C 
BRANCH  22  25
ATOM     25  C   UNL A   1      32.888  29.466  26.968  1.00  0.00     0.101 C 
ATOM     26  C   UNL A   1      34.391  29.272  26.762  1.00  0.00     0.033 C 
ATOM     27  C   UNL A   1      32.546  30.939  27.196  1.00  0.00     0.033 C 
ENDBRANCH  22  25
ENDBRANCH  15  18
ENDBRANCH  13  15
ENDBRANCH   7  13
ENDBRANCH   3   6
ENDBRANCH   1   2
BRANCH   1  28
ATOM     28  C   UNL A   1      37.530  21.850  25.737  1.00  0.00     0.042 C 
BRANCH  28  29
ATOM     29  C   UNL A   1      38.295  23.168  25.851  1.00  0.00     0.118 C 
BRANCH  29  30
ATOM     30  N   UNL A   1      39.638  22.988  26.412  1.00  0.00    -0.352 N 
ATOM     31  C   UNL A   1      40.443  23.904  27.069  1.00  0.00     0.251 C 
ATOM     32  H   UNL A   1      40.022  22.087  26.306  1.00  0.00     0.163 HD
ATOM     33  O   UNL A   1      41.529  23.592  27.527  1.00  0.00    -0.269 OA
BRANCH  31  34
ATOM     34  C   UNL A   1      39.909  25.263  27.284  1.00  0.00     0.039 A 
ATOM     35  C   UNL A   1      40.462  26.307  26.536  1.00  0.00     0.014 A 
ATOM     36  C   UNL A   1      39.077  25.515  28.371  1.00  0.00     0.014 A 
ATOM     37  C   UNL A   1      40.369  27.608  27.022  1.00  0.00     0.010 A 
ATOM     38  C   UNL A   1      39.066  26.789  28.902  1.00  0.00     0.010 A 
ATOM     39  C   UNL A   1      39.770  27.818  28.264  1.00  0.00    -0.014 A 
BRANCH  39  40
ATOM     40  C   UNL A   1      39.951  29.041  29.036  1.00  0.00     0.031 A 
ATOM     41  C   UNL A   1      38.954  30.128  28.960  1.00  0.00     0.074 A 
ATOM     42  C   UNL A   1      41.004  29.152  29.877  1.00  0.00     0.049 A 
ATOM     43  N   UNL A   1      39.167  31.331  29.373  1.00  0.00    -0.248 NA
ATOM     44  C   UNL A   1      37.652  29.970  28.317  1.00  0.00     0.031 C 
ATOM     45  C   UNL A   1      41.192  30.131  30.945  1.00  0.00     0.029 A 
ATOM     46  N   UNL A   1      42.255  28.551  29.732  1.00  0.00    -0.354 N 
ATOM     47  C   UNL A   1      37.966  31.994  29.357  1.00  0.00     0.074 A 
ATOM     48  C   UNL A   1      37.104  31.167  28.553  1.00  0.00     0.031 C 
ATOM     49  C   UNL A   1      42.504  30.265  31.185  1.00  0.00     0.029 A 
ATOM     50  C   UNL A   1      43.206  29.489  30.180  1.00  0.00     0.049 A 
ATOM     51  H   UNL A   1      42.438  27.648  29.385  1.00  0.00     0.167 HD
ATOM     52  C   UNL A   1      37.813  33.083  30.159  1.00  0.00     0.034 A 
ATOM     53  C   UNL A   1      44.169  29.976  29.346  1.00  0.00     0.034 A 
ATOM     54  C   UNL A   1      39.115  33.589  30.611  1.00  0.00     0.049 A 
ATOM     55  C   UNL A   1      44.125  31.478  29.179  1.00  0.00     0.074 A 
ATOM     56  C   UNL A   1      39.770  33.610  31.829  1.00  0.00     0.029 A 
ATOM     57  N   UNL A   1      40.058  33.969  29.656  1.00  0.00    -0.354 N 
ATOM     58  N   UNL A   1      43.104  32.225  29.501  1.00  0.00    -0.248 NA
ATOM     59  C   UNL A   1      45.230  32.256  28.632  1.00  0.00     0.031 C 
ATOM     60  C   UNL A   1      41.138  33.921  31.584  1.00  0.00     0.029 A 
ATOM     61  C   UNL A   1      41.304  34.139  30.225  1.00  0.00     0.049 A 
ATOM     62  H   UNL A   1      39.860  34.100  28.700  1.00  0.00     0.167 HD
ATOM     63  C   UNL A   1      43.376  33.539  29.205  1.00  0.00     0.074 A 
ATOM     64  C   UNL A   1      44.733  33.504  28.687  1.00  0.00     0.031 C 
ATOM     65  C   UNL A   1      42.449  34.529  29.405  1.00  0.00     0.034 A 
BRANCH  52  66
ATOM     66  C   UNL A   1      36.485  33.579  30.715  1.00  0.00     0.023 A 
ATOM     67  C   UNL A   1      35.555  34.174  29.832  1.00  0.00     0.031 A 
ATOM     68  C   UNL A   1      36.125  33.642  32.081  1.00  0.00     0.131 A 
ATOM     69  C   UNL A   1      34.377  34.793  30.304  1.00  0.00     0.055 A 
ATOM     70  C   UNL A   1      34.929  34.206  32.543  1.00  0.00     0.041 A 
ATOM     71  F   UNL A   1      36.926  33.226  33.066  1.00  0.00    -0.206 F 
ATOM     72  C   UNL A   1      34.050  34.796  31.656  1.00  0.00     0.022 A 
BRANCH  69  73
ATOM     73  S   UNL A   1      33.304  35.683  29.143  1.00  0.00     0.124 S 
ATOM     74  O   UNL A   1      34.272  36.369  28.294  1.00  0.00    -0.237 OA
ATOM     75  O   UNL A   1      32.548  34.600  28.525  1.00  0.00    -0.237 OA
ATOM     76  O   UNL A   1      32.520  36.562  30.012  1.00  0.00    -0.744 OA
ENDBRANCH  69  73
ENDBRANCH  52  66
BRANCH  53  77
ATOM     77  C   UNL A   1      44.605  28.986  28.320  1.00  0.00     0.023 A 
ATOM     78  C   UNL A   1      45.380  27.897  28.779  1.00  0.00     0.031 A 
ATOM     79  C   UNL A   1      43.959  28.856  27.085  1.00  0.00     0.131 A 
ATOM     80  C   UNL A   1      45.336  26.667  28.110  1.00  0.00     0.055 A 
ATOM     81  C   UNL A   1      43.988  27.647  26.375  1.00  0.00     0.041 A 
ATOM     82  F   UNL A   1      43.181  29.841  26.613  1.00  0.00    -0.206 F 
ATOM     83  C   UNL A   1      44.639  26.532  26.910  1.00  0.00     0.022 A 
BRANCH  80  84
ATOM     84  S   UNL A   1      45.947  25.192  28.984  1.00  0.00     0.124 S 
ATOM     85  O   UNL A   1      46.932  24.668  28.046  1.00  0.00    -0.237 OA
ATOM     86  O   UNL A   1      46.479  25.751  30.227  1.00  0.00    -0.237 OA
ATOM     87  O   UNL A   1      44.749  24.376  29.164  1.00  0.00    -0.744 OA
ENDBRANCH  80  84
ENDBRANCH  53  77
BRANCH  65  88
ATOM     88  C   UNL A   1      42.550  35.970  28.920  1.00  0.00     0.023 A 
ATOM     89  C   UNL A   1      43.262  36.978  29.587  1.00  0.00     0.031 A 
ATOM     90  C   UNL A   1      41.961  36.368  27.691  1.00  0.00     0.131 A 
ATOM     91  C   UNL A   1      43.305  38.301  29.100  1.00  0.00     0.055 A 
ATOM     92  C   UNL A   1      42.065  37.663  27.170  1.00  0.00     0.041 A 
ATOM     93  F   UNL A   1      41.269  35.511  26.926  1.00  0.00    -0.206 F 
ATOM     94  C   UNL A   1      42.726  38.647  27.884  1.00  0.00     0.022 A 
BRANCH  91  95
ATOM     95  S   UNL A   1      44.090  39.571  30.128  1.00  0.00     0.124 S 
ATOM     96  O   UNL A   1      43.644  39.195  31.466  1.00  0.00    -0.237 OA
ATOM     97  O   UNL A   1      45.507  39.365  29.853  1.00  0.00    -0.237 OA
ATOM     98  O   UNL A   1      43.533  40.823  29.619  1.00  0.00    -0.744 OA
ENDBRANCH  91  95
ENDBRANCH  65  88
ENDBRANCH  39  40
ENDBRANCH  31  34
ENDBRANCH  29  30
ENDBRANCH  28  29
ENDBRANCH   1  28
TORSDOF 17
ENDMDL
MODEL 3
REMARK VINA RESULT:     -12.6      1.673      2.407
REMARK SMILES Cc1nn(C(C)C)c(C)c1S(=O)(=O)Nc1cccc(C(=O)NCCCNC(=O)c2ccc(-c3c4nc(c(-c5cc(S(=O)(=O)[O-])ccc5F)c5ccc([nH]5)c(-c5cc(S(=O)(=O)[O-])ccc5F)c5nc(c(-c6cc(S(=O)(=O)[O-])ccc6F)c6ccc3[nH]6)C=C5)C=C4)cc2)c1C
REMARK SMILES IDX 23 1 22 2 20 3 21 4 19 6 15 7 16 8 92 9 17 10 93 11 18 12
REMARK SMILES IDX 14 13 11 15 12 16 13 17 10 18 1 19 2 20 3 21 4 22 8 23 9 24
REMARK SMILES IDX 5 25 6 26 7 27 24 28 25 29 26 30 27 31 28 33 29 34 30 35
REMARK SMILES IDX 91 36 31 37 90 38 32 39 33 40 34 41 84 42 35 43 89 44 83 45
REMARK SMILES IDX 85 46 36 47 88 48 82 49 81 50 37 52 69 53 49 54 68 55 50 56
REMARK SMILES IDX 53 57 67 58 86 59 51 60 52 61 66 63 87 64 54 65 38 66 39 67
REMARK SMILES IDX 47 68 40 69 46 70 48 71 45 72 41 73 42 74 43 75 44 76 70 77
REMARK SMILES IDX 71 78 79 79 72 80 78 81 80 82 77 83 73 84 74 85 75 86 76 87
REMARK SMILES IDX 55 88 56 89 64 90 57 91 63 92 65 93 62 94 58 95 59 96 60 97
REMARK SMILES IDX 61 98
REMARK H PARENT 22 5 14 14 26 32 85 51 53 62
REMARK Flexibility Score: inf
ROOT
ATOM      1  C   UNL A   1      32.277  28.656  25.759  1.00  0.00     0.118 C 
ENDROOT
BRANCH   1   2
ATOM      2  N   UNL A   1      31.278  29.083  24.786  1.00  0.00    -0.352 N 
ATOM      3  C   UNL A   1      30.681  28.423  23.738  1.00  0.00     0.251 C 
ATOM      4  O   UNL A   1      29.876  29.010  23.022  1.00  0.00    -0.269 OA
ATOM      5  H   UNL A   1      30.978  30.014  24.899  1.00  0.00     0.163 HD
BRANCH   3   6
ATOM      6  C   UNL A   1      30.986  26.995  23.447  1.00  0.00     0.044 A 
ATOM      7  C   UNL A   1      30.885  24.620  23.960  1.00  0.00     0.053 A 
ATOM      8  C   UNL A   1      31.623  24.337  22.809  1.00  0.00     0.027 A 
ATOM      9  C   UNL A   1      30.466  25.945  24.238  1.00  0.00    -0.014 A 
ATOM     10  C   UNL A   1      32.057  25.373  21.989  1.00  0.00     0.003 A 
ATOM     11  C   UNL A   1      29.512  26.182  25.386  1.00  0.00     0.047 C 
ATOM     12  C   UNL A   1      31.750  26.692  22.314  1.00  0.00     0.014 A 
BRANCH   7  13
ATOM     13  N   UNL A   1      30.505  23.611  24.893  1.00  0.00    -0.279 N 
ATOM     14  H   UNL A   1      29.541  23.469  25.030  1.00  0.00     0.180 HD
BRANCH  13  15
ATOM     15  S   UNL A   1      31.544  22.653  25.773  1.00  0.00     0.265 S 
ATOM     16  O   UNL A   1      31.343  21.264  25.412  1.00  0.00    -0.201 OA
ATOM     17  O   UNL A   1      31.346  23.070  27.148  1.00  0.00    -0.201 OA
BRANCH  15  18
ATOM     18  C   UNL A   1      33.236  22.898  25.519  1.00  0.00     0.131 A 
ATOM     19  C   UNL A   1      33.734  25.451  26.076  1.00  0.00     0.070 C 
ATOM     20  C   UNL A   1      34.026  24.071  25.629  1.00  0.00     0.080 A 
ATOM     21  N   UNL A   1      35.283  23.841  25.228  1.00  0.00    -0.176 NA
ATOM     22  N   UNL A   1      35.325  22.539  24.926  1.00  0.00    -0.266 N 
ATOM     23  C   UNL A   1      34.121  21.907  25.097  1.00  0.00     0.056 A 
ATOM     24  C   UNL A   1      33.927  20.455  24.849  1.00  0.00     0.068 C 
BRANCH  22  25
ATOM     25  C   UNL A   1      36.585  21.981  24.439  1.00  0.00     0.101 C 
ATOM     26  C   UNL A   1      37.019  22.674  23.147  1.00  0.00     0.033 C 
ATOM     27  C   UNL A   1      37.682  22.054  25.502  1.00  0.00     0.033 C 
ENDBRANCH  22  25
ENDBRANCH  15  18
ENDBRANCH  13  15
ENDBRANCH   7  13
ENDBRANCH   3   6
ENDBRANCH   1   2
BRANCH   1  28
ATOM     28  C   UNL A   1      33.309  29.748  26.048  1.00  0.00     0.042 C 
BRANCH  28  29
ATOM     29  C   UNL A   1      34.171  29.478  27.280  1.00  0.00     0.118 C 
BRANCH  29  30
ATOM     30  N   UNL A   1      34.739  30.706  27.846  1.00  0.00    -0.352 N 
ATOM     31  C   UNL A   1      36.017  30.941  28.323  1.00  0.00     0.251 C 
ATOM     32  H   UNL A   1      34.122  31.472  27.894  1.00  0.00     0.163 HD
ATOM     33  O   UNL A   1      36.361  32.040  28.724  1.00  0.00    -0.269 OA
BRANCH  31  34
ATOM     34  C   UNL A   1      36.996  29.838  28.250  1.00  0.00     0.039 A 
ATOM     35  C   UNL A   1      37.075  28.963  29.338  1.00  0.00     0.014 A 
ATOM     36  C   UNL A   1      37.966  29.839  27.252  1.00  0.00     0.014 A 
ATOM     37  C   UNL A   1      38.252  28.251  29.547  1.00  0.00     0.010 A 
ATOM     38  C   UNL A   1      39.166  29.208  27.509  1.00  0.00     0.010 A 
ATOM     39  C   UNL A   1      39.329  28.471  28.690  1.00  0.00    -0.014 A 
BRANCH  39  40
ATOM     40  C   UNL A   1      40.698  28.093  29.020  1.00  0.00     0.031 A 
ATOM     41  C   UNL A   1      41.288  26.859  28.462  1.00  0.00     0.074 A 
ATOM     42  C   UNL A   1      41.452  28.911  29.789  1.00  0.00     0.049 A 
ATOM     43  N   UNL A   1      42.362  26.307  28.914  1.00  0.00    -0.248 NA
ATOM     44  C   UNL A   1      40.654  26.083  27.399  1.00  0.00     0.031 C 
ATOM     45  C   UNL A   1      42.900  28.877  29.971  1.00  0.00     0.029 A 
ATOM     46  N   UNL A   1      40.996  29.774  30.786  1.00  0.00    -0.354 N 
ATOM     47  C   UNL A   1      42.732  25.330  28.025  1.00  0.00     0.074 A 
ATOM     48  C   UNL A   1      41.568  25.127  27.202  1.00  0.00     0.031 C 
ATOM     49  C   UNL A   1      43.204  29.448  31.146  1.00  0.00     0.029 A 
ATOM     50  C   UNL A   1      41.952  29.734  31.820  1.00  0.00     0.049 A 
ATOM     51  H   UNL A   1      40.168  30.308  30.770  1.00  0.00     0.167 HD
ATOM     52  C   UNL A   1      44.032  24.928  28.002  1.00  0.00     0.034 A 
ATOM     53  C   UNL A   1      41.623  29.308  33.073  1.00  0.00     0.034 A 
ATOM     54  C   UNL A   1      44.731  25.346  29.223  1.00  0.00     0.049 A 
ATOM     55  C   UNL A   1      42.422  28.111  33.538  1.00  0.00     0.074 A 
ATOM     56  C   UNL A   1      45.716  26.278  29.498  1.00  0.00     0.029 A 
ATOM     57  N   UNL A   1      44.241  24.921  30.458  1.00  0.00    -0.354 N 
ATOM     58  N   UNL A   1      43.113  27.336  32.747  1.00  0.00    -0.248 NA
ATOM     59  C   UNL A   1      42.502  27.694  34.933  1.00  0.00     0.031 C 
ATOM     60  C   UNL A   1      45.749  26.473  30.909  1.00  0.00     0.029 A 
ATOM     61  C   UNL A   1      44.824  25.624  31.493  1.00  0.00     0.049 A 
ATOM     62  H   UNL A   1      43.568  24.213  30.575  1.00  0.00     0.167 HD
ATOM     63  C   UNL A   1      43.702  26.332  33.477  1.00  0.00     0.074 A 
ATOM     64  C   UNL A   1      43.307  26.620  34.846  1.00  0.00     0.031 C 
ATOM     65  C   UNL A   1      44.450  25.351  32.880  1.00  0.00     0.034 A 
BRANCH  52  66
ATOM     66  C   UNL A   1      44.743  24.340  26.791  1.00  0.00     0.023 A 
ATOM     67  C   UNL A   1      44.424  23.023  26.385  1.00  0.00     0.031 A 
ATOM     68  C   UNL A   1      45.823  24.928  26.091  1.00  0.00     0.131 A 
ATOM     69  C   UNL A   1      45.155  22.363  25.372  1.00  0.00     0.055 A 
ATOM     70  C   UNL A   1      46.509  24.293  25.048  1.00  0.00     0.041 A 
ATOM     71  F   UNL A   1      46.332  26.122  26.406  1.00  0.00    -0.206 F 
ATOM     72  C   UNL A   1      46.185  23.000  24.688  1.00  0.00     0.022 A 
BRANCH  69  73
ATOM     73  S   UNL A   1      44.808  20.620  25.008  1.00  0.00     0.124 S 
ATOM     74  O   UNL A   1      46.056  19.971  25.396  1.00  0.00    -0.237 OA
ATOM     75  O   UNL A   1      43.646  20.352  25.846  1.00  0.00    -0.237 OA
ATOM     76  O   UNL A   1      44.540  20.622  23.569  1.00  0.00    -0.744 OA
ENDBRANCH  69  73
ENDBRANCH  52  66
BRANCH  53  77
ATOM     77  C   UNL A   1      40.215  29.628  33.446  1.00  0.00     0.023 A 
ATOM     78  C   UNL A   1      39.946  30.965  33.816  1.00  0.00     0.031 A 
ATOM     79  C   UNL A   1      39.137  28.828  33.050  1.00  0.00     0.131 A 
ATOM     80  C   UNL A   1      38.675  31.515  33.602  1.00  0.00     0.055 A 
ATOM     81  C   UNL A   1      37.847  29.362  32.919  1.00  0.00     0.041 A 
ATOM     82  F   UNL A   1      39.334  27.562  32.654  1.00  0.00    -0.206 F 
ATOM     83  C   UNL A   1      37.621  30.721  33.149  1.00  0.00     0.022 A 
BRANCH  80  84
ATOM     84  S   UNL A   1      38.507  33.327  33.636  1.00  0.00     0.124 S 
ATOM     85  O   UNL A   1      37.211  33.525  32.998  1.00  0.00    -0.237 OA
ATOM     86  O   UNL A   1      38.571  33.630  35.066  1.00  0.00    -0.237 OA
ATOM     87  O   UNL A   1      39.663  33.796  32.877  1.00  0.00    -0.744 OA
ENDBRANCH  80  84
ENDBRANCH  53  77
BRANCH  65  88
ATOM     88  C   UNL A   1      44.965  24.079  33.544  1.00  0.00     0.023 A 
ATOM     89  C   UNL A   1      46.262  23.929  34.058  1.00  0.00     0.031 A 
ATOM     90  C   UNL A   1      44.111  22.963  33.742  1.00  0.00     0.131 A 
ATOM     91  C   UNL A   1      46.690  22.720  34.645  1.00  0.00     0.055 A 
ATOM     92  C   UNL A   1      44.513  21.790  34.391  1.00  0.00     0.041 A 
ATOM     93  F   UNL A   1      42.835  22.965  33.329  1.00  0.00    -0.206 F 
ATOM     94  C   UNL A   1      45.817  21.654  34.833  1.00  0.00     0.022 A 
BRANCH  91  95
ATOM     95  S   UNL A   1      48.436  22.559  35.106  1.00  0.00     0.124 S 
ATOM     96  O   UNL A   1      48.453  23.161  36.437  1.00  0.00    -0.237 OA
ATOM     97  O   UNL A   1      48.640  21.115  35.063  1.00  0.00    -0.237 OA
ATOM     98  O   UNL A   1      49.139  23.318  34.075  1.00  0.00    -0.744 OA
ENDBRANCH  91  95
ENDBRANCH  65  88
ENDBRANCH  39  40
ENDBRANCH  31  34
ENDBRANCH  29  30
ENDBRANCH  28  29
ENDBRANCH   1  28
TORSDOF 17
ENDMDL
