MODEL 1
REMARK VINA RESULT:     -13.0      0.000      0.000
REMARK SMILES C[C@@]1(CN2C(=O)c3ccc(C(=O)NCCCNC(=O)c4ccc(-c5c6nc(c(-c7cc(S(=O)(=O)[O-])ccc7F)c7ccc([nH]7)c(-c7cc(S(=O)(=O)[O-])ccc7F)c7nc(c(-c8cc(S(=O)(=O)[O-])ccc8F)c8ccc5[nH]8)C=C7)C=C6)cc4)cc3C2=O)CCCO1
REMARK SMILES IDX 15 1 14 2 13 3 11 4 12 5 10 7 4 8 5 9 85 10 6 11 7 12 84 13
REMARK SMILES IDX 86 14 8 15 83 16 9 17 3 18 2 19 1 20 87 21 90 22 88 23 89 24
REMARK SMILES IDX 16 25 17 26 18 27 19 29 20 30 21 31 82 32 22 33 81 34 23 35
REMARK SMILES IDX 24 36 25 37 75 38 26 39 80 40 74 41 76 42 27 43 79 44 73 45
REMARK SMILES IDX 72 46 28 48 60 49 40 50 59 51 41 52 44 53 58 54 77 55 42 56
REMARK SMILES IDX 43 57 57 59 78 60 45 61 29 62 30 63 38 64 31 65 37 66 39 67
REMARK SMILES IDX 36 68 32 69 33 70 34 71 35 72 61 73 62 74 70 75 63 76 69 77
REMARK SMILES IDX 71 78 68 79 64 80 65 81 66 82 67 83 46 84 47 85 55 86 48 87
REMARK SMILES IDX 54 88 56 89 53 90 49 91 50 92 51 93 52 94
REMARK H PARENT 13 6 17 28 76 47 44 58
REMARK Flexibility Score: inf
ROOT
ATOM      1  C   UNL A   1      31.569  31.910  26.547  1.00  0.00     0.042 C 
ENDROOT
BRANCH   1   2
ATOM      2  C   UNL A   1      31.684  30.408  26.295  1.00  0.00     0.118 C 
BRANCH   2   3
ATOM      3  N   UNL A   1      32.300  30.130  25.010  1.00  0.00    -0.352 N 
ATOM      4  C   UNL A   1      32.594  28.962  24.356  1.00  0.00     0.251 C 
ATOM      5  O   UNL A   1      33.035  29.048  23.210  1.00  0.00    -0.269 OA
ATOM      6  H   UNL A   1      32.556  30.938  24.510  1.00  0.00     0.163 HD
BRANCH   4   7
ATOM      7  C   UNL A   1      32.389  27.603  24.939  1.00  0.00     0.040 A 
ATOM      8  N   UNL A   1      33.621  23.371  26.287  1.00  0.00    -0.271 N 
ATOM      9  C   UNL A   1      32.361  23.761  26.638  1.00  0.00     0.261 C 
ATOM     10  C   UNL A   1      34.293  24.363  25.621  1.00  0.00     0.261 C 
ATOM     11  O   UNL A   1      31.528  23.178  27.307  1.00  0.00    -0.269 OA
ATOM     12  C   UNL A   1      32.167  25.091  26.081  1.00  0.00     0.053 A 
ATOM     13  C   UNL A   1      33.345  25.473  25.470  1.00  0.00     0.054 A 
ATOM     14  O   UNL A   1      35.449  24.401  25.253  1.00  0.00    -0.269 OA
ATOM     15  C   UNL A   1      31.072  25.920  26.151  1.00  0.00     0.015 A 
ATOM     16  C   UNL A   1      33.488  26.720  24.893  1.00  0.00     0.028 A 
ATOM     17  C   UNL A   1      31.201  27.193  25.589  1.00  0.00     0.015 A 
BRANCH   8  18
ATOM     18  C   UNL A   1      34.199  22.095  26.669  1.00  0.00     0.164 C 
BRANCH  18  19
ATOM     19  C   UNL A   1      34.426  21.112  25.485  1.00  0.00     0.084 C 
ATOM     20  C   UNL A   1      35.896  20.957  25.098  1.00  0.00     0.044 C 
ATOM     21  C   UNL A   1      33.599  21.547  24.268  1.00  0.00     0.039 C 
ATOM     22  O   UNL A   1      33.919  19.810  25.850  1.00  0.00    -0.373 OA
ATOM     23  C   UNL A   1      32.275  20.864  24.502  1.00  0.00     0.031 C 
ATOM     24  C   UNL A   1      32.695  19.562  25.147  1.00  0.00     0.161 C 
ENDBRANCH  18  19
ENDBRANCH   8  18
ENDBRANCH   4   7
ENDBRANCH   2   3
ENDBRANCH   1   2
BRANCH   1  25
ATOM     25  C   UNL A   1      32.784  32.500  27.255  1.00  0.00     0.118 C 
BRANCH  25  26
ATOM     26  N   UNL A   1      32.574  33.894  27.615  1.00  0.00    -0.352 N 
ATOM     27  C   UNL A   1      33.126  34.630  28.635  1.00  0.00     0.251 C 
ATOM     28  H   UNL A   1      31.942  34.384  27.040  1.00  0.00     0.163 HD
ATOM     29  O   UNL A   1      32.627  35.711  28.933  1.00  0.00    -0.269 OA
BRANCH  27  30
ATOM     30  C   UNL A   1      34.302  34.119  29.372  1.00  0.00     0.039 A 
ATOM     31  C   UNL A   1      34.106  33.424  30.570  1.00  0.00     0.014 A 
ATOM     32  C   UNL A   1      35.598  34.352  28.903  1.00  0.00     0.014 A 
ATOM     33  C   UNL A   1      35.206  32.914  31.265  1.00  0.00     0.010 A 
ATOM     34  C   UNL A   1      36.685  33.778  29.555  1.00  0.00     0.010 A 
ATOM     35  C   UNL A   1      36.502  33.060  30.746  1.00  0.00    -0.014 A 
BRANCH  35  36
ATOM     36  C   UNL A   1      37.691  32.496  31.437  1.00  0.00     0.031 A 
ATOM     37  C   UNL A   1      38.441  31.350  30.812  1.00  0.00     0.074 A 
ATOM     38  C   UNL A   1      38.044  32.958  32.653  1.00  0.00     0.049 A 
ATOM     39  N   UNL A   1      39.404  30.618  31.309  1.00  0.00    -0.248 NA
ATOM     40  C   UNL A   1      38.026  30.955  29.456  1.00  0.00     0.031 C 
ATOM     41  C   UNL A   1      37.382  34.053  33.366  1.00  0.00     0.029 A 
ATOM     42  N   UNL A   1      39.035  32.556  33.514  1.00  0.00    -0.354 N 
ATOM     43  C   UNL A   1      39.698  29.668  30.338  1.00  0.00     0.074 A 
ATOM     44  C   UNL A   1      38.769  29.878  29.249  1.00  0.00     0.031 C 
ATOM     45  C   UNL A   1      37.995  34.244  34.544  1.00  0.00     0.029 A 
ATOM     46  C   UNL A   1      39.054  33.252  34.700  1.00  0.00     0.049 A 
ATOM     47  H   UNL A   1      39.672  31.836  33.301  1.00  0.00     0.167 HD
ATOM     48  C   UNL A   1      40.669  28.720  30.345  1.00  0.00     0.034 A 
ATOM     49  C   UNL A   1      39.823  33.094  35.797  1.00  0.00     0.034 A 
ATOM     50  C   UNL A   1      41.595  28.536  31.436  1.00  0.00     0.049 A 
ATOM     51  C   UNL A   1      40.865  32.002  35.800  1.00  0.00     0.074 A 
ATOM     52  C   UNL A   1      42.640  27.634  31.535  1.00  0.00     0.029 A 
ATOM     53  N   UNL A   1      41.585  29.263  32.620  1.00  0.00    -0.354 N 
ATOM     54  N   UNL A   1      41.149  31.127  34.863  1.00  0.00    -0.248 NA
ATOM     55  C   UNL A   1      41.696  31.880  37.007  1.00  0.00     0.031 C 
ATOM     56  C   UNL A   1      43.216  27.769  32.802  1.00  0.00     0.029 A 
ATOM     57  C   UNL A   1      42.588  28.812  33.463  1.00  0.00     0.049 A 
ATOM     58  H   UNL A   1      40.957  29.992  32.829  1.00  0.00     0.167 HD
ATOM     59  C   UNL A   1      42.221  30.383  35.350  1.00  0.00     0.074 A 
ATOM     60  C   UNL A   1      42.533  30.913  36.660  1.00  0.00     0.031 C 
ATOM     61  C   UNL A   1      42.891  29.358  34.765  1.00  0.00     0.034 A 
BRANCH  48  62
ATOM     62  C   UNL A   1      40.758  27.803  29.150  1.00  0.00     0.023 A 
ATOM     63  C   UNL A   1      41.704  28.012  28.129  1.00  0.00     0.031 A 
ATOM     64  C   UNL A   1      39.877  26.716  29.016  1.00  0.00     0.131 A 
ATOM     65  C   UNL A   1      41.694  27.195  26.988  1.00  0.00     0.055 A 
ATOM     66  C   UNL A   1      39.931  25.854  27.918  1.00  0.00     0.041 A 
ATOM     67  F   UNL A   1      38.939  26.477  29.946  1.00  0.00    -0.206 F 
ATOM     68  C   UNL A   1      40.834  26.101  26.888  1.00  0.00     0.022 A 
BRANCH  65  69
ATOM     69  S   UNL A   1      42.726  27.674  25.575  1.00  0.00     0.124 S 
ATOM     70  O   UNL A   1      42.000  28.833  25.061  1.00  0.00    -0.237 OA
ATOM     71  O   UNL A   1      44.012  27.953  26.203  1.00  0.00    -0.237 OA
ATOM     72  O   UNL A   1      42.694  26.494  24.713  1.00  0.00    -0.744 OA
ENDBRANCH  65  69
ENDBRANCH  48  62
BRANCH  49  73
ATOM     73  C   UNL A   1      39.635  33.969  36.991  1.00  0.00     0.023 A 
ATOM     74  C   UNL A   1      39.041  33.472  38.161  1.00  0.00     0.031 A 
ATOM     75  C   UNL A   1      39.995  35.329  36.963  1.00  0.00     0.131 A 
ATOM     76  C   UNL A   1      38.769  34.338  39.232  1.00  0.00     0.055 A 
ATOM     77  C   UNL A   1      39.780  36.173  38.054  1.00  0.00     0.041 A 
ATOM     78  F   UNL A   1      40.569  35.858  35.871  1.00  0.00    -0.206 F 
ATOM     79  C   UNL A   1      39.147  35.682  39.192  1.00  0.00     0.022 A 
BRANCH  76  80
ATOM     80  S   UNL A   1      37.811  33.705  40.636  1.00  0.00     0.124 S 
ATOM     81  O   UNL A   1      37.537  34.929  41.382  1.00  0.00    -0.237 OA
ATOM     82  O   UNL A   1      36.668  33.090  39.969  1.00  0.00    -0.237 OA
ATOM     83  O   UNL A   1      38.731  32.773  41.282  1.00  0.00    -0.744 OA
ENDBRANCH  76  80
ENDBRANCH  49  73
BRANCH  61  84
ATOM     84  C   UNL A   1      44.078  28.793  35.506  1.00  0.00     0.023 A 
ATOM     85  C   UNL A   1      43.952  27.725  36.410  1.00  0.00     0.031 A 
ATOM     86  C   UNL A   1      45.360  29.329  35.286  1.00  0.00     0.131 A 
ATOM     87  C   UNL A   1      45.084  27.254  37.094  1.00  0.00     0.055 A 
ATOM     88  C   UNL A   1      46.490  28.817  35.922  1.00  0.00     0.041 A 
ATOM     89  F   UNL A   1      45.535  30.351  34.433  1.00  0.00    -0.206 F 
ATOM     90  C   UNL A   1      46.354  27.779  36.841  1.00  0.00     0.022 A 
BRANCH  87  91
ATOM     91  S   UNL A   1      44.866  25.991  38.377  1.00  0.00     0.124 S 
ATOM     92  O   UNL A   1      44.121  26.720  39.397  1.00  0.00    -0.237 OA
ATOM     93  O   UNL A   1      44.128  24.950  37.670  1.00  0.00    -0.237 OA
ATOM     94  O   UNL A   1      46.236  25.635  38.745  1.00  0.00    -0.744 OA
ENDBRANCH  87  91
ENDBRANCH  61  84
ENDBRANCH  35  36
ENDBRANCH  27  30
ENDBRANCH  25  26
ENDBRANCH   1  25
TORSDOF 15
ENDMDL
MODEL 2
REMARK VINA RESULT:     -12.9      1.871      2.286
REMARK SMILES C[C@@]1(CN2C(=O)c3ccc(C(=O)NCCCNC(=O)c4ccc(-c5c6nc(c(-c7cc(S(=O)(=O)[O-])ccc7F)c7ccc([nH]7)c(-c7cc(S(=O)(=O)[O-])ccc7F)c7nc(c(-c8cc(S(=O)(=O)[O-])ccc8F)c8ccc5[nH]8)C=C7)C=C6)cc4)cc3C2=O)CCCO1
REMARK SMILES IDX 15 1 14 2 13 3 11 4 12 5 10 7 4 8 5 9 85 10 6 11 7 12 84 13
REMARK SMILES IDX 86 14 8 15 83 16 9 17 3 18 2 19 1 20 87 21 90 22 88 23 89 24
REMARK SMILES IDX 16 25 17 26 18 27 19 29 20 30 21 31 82 32 22 33 81 34 23 35
REMARK SMILES IDX 24 36 25 37 75 38 26 39 80 40 74 41 76 42 27 43 79 44 73 45
REMARK SMILES IDX 72 46 28 48 60 49 40 50 59 51 41 52 44 53 58 54 77 55 42 56
REMARK SMILES IDX 43 57 57 59 78 60 45 61 29 62 30 63 38 64 31 65 37 66 39 67
REMARK SMILES IDX 36 68 32 69 33 70 34 71 35 72 61 73 62 74 70 75 63 76 69 77
REMARK SMILES IDX 71 78 68 79 64 80 65 81 66 82 67 83 46 84 47 85 55 86 48 87
REMARK SMILES IDX 54 88 56 89 53 90 49 91 50 92 51 93 52 94
REMARK H PARENT 13 6 17 28 76 47 44 58
REMARK Flexibility Score: inf
ROOT
ATOM      1  C   UNL A   1      31.192  31.463  26.214  1.00  0.00     0.042 C 
ENDROOT
BRANCH   1   2
ATOM      2  C   UNL A   1      31.390  30.208  25.363  1.00  0.00     0.118 C 
BRANCH   2   3
ATOM      3  N   UNL A   1      30.684  30.307  24.098  1.00  0.00    -0.352 N 
ATOM      4  C   UNL A   1      30.229  29.364  23.215  1.00  0.00     0.251 C 
ATOM      5  O   UNL A   1      29.563  29.757  22.257  1.00  0.00    -0.269 OA
ATOM      6  H   UNL A   1      30.494  31.232  23.821  1.00  0.00     0.163 HD
BRANCH   4   7
ATOM      7  C   UNL A   1      30.470  27.897  23.359  1.00  0.00     0.040 A 
ATOM      8  N   UNL A   1      32.858  23.970  23.013  1.00  0.00    -0.271 N 
ATOM      9  C   UNL A   1      31.686  23.892  23.708  1.00  0.00     0.261 C 
ATOM     10  C   UNL A   1      33.109  25.248  22.583  1.00  0.00     0.261 C 
ATOM     11  O   UNL A   1      31.200  22.947  24.304  1.00  0.00    -0.269 OA
ATOM     12  C   UNL A   1      31.082  25.214  23.656  1.00  0.00     0.053 A 
ATOM     13  C   UNL A   1      31.949  26.052  22.983  1.00  0.00     0.054 A 
ATOM     14  O   UNL A   1      34.091  25.698  22.030  1.00  0.00    -0.269 OA
ATOM     15  C   UNL A   1      29.900  25.661  24.199  1.00  0.00     0.015 A 
ATOM     16  C   UNL A   1      31.673  27.396  22.820  1.00  0.00     0.028 A 
ATOM     17  C   UNL A   1      29.610  27.021  24.061  1.00  0.00     0.015 A 
BRANCH   8  18
ATOM     18  C   UNL A   1      33.765  22.849  22.846  1.00  0.00     0.164 C 
BRANCH  18  19
ATOM     19  C   UNL A   1      34.948  22.825  23.856  1.00  0.00     0.084 C 
ATOM     20  C   UNL A   1      36.312  23.041  23.200  1.00  0.00     0.044 C 
ATOM     21  C   UNL A   1      34.942  21.512  24.650  1.00  0.00     0.039 C 
ATOM     22  O   UNL A   1      34.752  23.869  24.836  1.00  0.00    -0.373 OA
ATOM     23  C   UNL A   1      34.035  21.828  25.812  1.00  0.00     0.031 C 
ATOM     24  C   UNL A   1      34.352  23.282  26.081  1.00  0.00     0.161 C 
ENDBRANCH  18  19
ENDBRANCH   8  18
ENDBRANCH   4   7
ENDBRANCH   2   3
ENDBRANCH   1   2
BRANCH   1  25
ATOM     25  C   UNL A   1      32.464  31.920  26.921  1.00  0.00     0.118 C 
BRANCH  25  26
ATOM     26  N   UNL A   1      32.407  33.331  27.273  1.00  0.00    -0.352 N 
ATOM     27  C   UNL A   1      33.129  34.033  28.206  1.00  0.00     0.251 C 
ATOM     28  H   UNL A   1      31.753  33.863  26.764  1.00  0.00     0.163 HD
ATOM     29  O   UNL A   1      32.754  35.154  28.536  1.00  0.00    -0.269 OA
BRANCH  27  30
ATOM     30  C   UNL A   1      34.339  33.438  28.815  1.00  0.00     0.039 A 
ATOM     31  C   UNL A   1      35.592  33.978  28.510  1.00  0.00     0.014 A 
ATOM     32  C   UNL A   1      34.242  32.328  29.660  1.00  0.00     0.014 A 
ATOM     33  C   UNL A   1      36.741  33.440  29.097  1.00  0.00     0.010 A 
ATOM     34  C   UNL A   1      35.377  31.845  30.302  1.00  0.00     0.010 A 
ATOM     35  C   UNL A   1      36.639  32.390  30.023  1.00  0.00    -0.014 A 
BRANCH  35  36
ATOM     36  C   UNL A   1      37.836  31.822  30.697  1.00  0.00     0.031 A 
ATOM     37  C   UNL A   1      38.653  30.768  29.999  1.00  0.00     0.074 A 
ATOM     38  C   UNL A   1      38.136  32.192  31.958  1.00  0.00     0.049 A 
ATOM     39  N   UNL A   1      39.637  30.040  30.460  1.00  0.00    -0.248 NA
ATOM     40  C   UNL A   1      38.290  30.474  28.604  1.00  0.00     0.031 C 
ATOM     41  C   UNL A   1      37.407  33.191  32.742  1.00  0.00     0.029 A 
ATOM     42  N   UNL A   1      39.124  31.762  32.810  1.00  0.00    -0.354 N 
ATOM     43  C   UNL A   1      39.999  29.190  29.421  1.00  0.00     0.074 A 
ATOM     44  C   UNL A   1      39.087  29.453  28.327  1.00  0.00     0.031 C 
ATOM     45  C   UNL A   1      37.981  33.307  33.950  1.00  0.00     0.029 A 
ATOM     46  C   UNL A   1      39.081  32.354  34.051  1.00  0.00     0.049 A 
ATOM     47  H   UNL A   1      39.799  31.092  32.555  1.00  0.00     0.167 HD
ATOM     48  C   UNL A   1      41.012  28.290  29.375  1.00  0.00     0.034 A 
ATOM     49  C   UNL A   1      39.829  32.136  35.152  1.00  0.00     0.034 A 
ATOM     50  C   UNL A   1      41.918  28.053  30.472  1.00  0.00     0.049 A 
ATOM     51  C   UNL A   1      40.921  31.094  35.092  1.00  0.00     0.074 A 
ATOM     52  C   UNL A   1      43.002  27.193  30.524  1.00  0.00     0.029 A 
ATOM     53  N   UNL A   1      41.845  28.674  31.713  1.00  0.00    -0.354 N 
ATOM     54  N   UNL A   1      41.268  30.317  34.092  1.00  0.00    -0.248 NA
ATOM     55  C   UNL A   1      41.726  30.906  36.307  1.00  0.00     0.031 C 
ATOM     56  C   UNL A   1      43.539  27.244  31.813  1.00  0.00     0.029 A 
ATOM     57  C   UNL A   1      42.847  28.197  32.543  1.00  0.00     0.049 A 
ATOM     58  H   UNL A   1      41.179  29.354  31.965  1.00  0.00     0.167 HD
ATOM     59  C   UNL A   1      42.361  29.582  34.545  1.00  0.00     0.074 A 
ATOM     60  C   UNL A   1      42.616  30.011  35.904  1.00  0.00     0.031 C 
ATOM     61  C   UNL A   1      43.092  28.642  33.894  1.00  0.00     0.034 A 
BRANCH  48  62
ATOM     62  C   UNL A   1      41.173  27.484  28.109  1.00  0.00     0.023 A 
ATOM     63  C   UNL A   1      40.798  26.130  28.043  1.00  0.00     0.031 A 
ATOM     64  C   UNL A   1      41.726  28.068  26.955  1.00  0.00     0.131 A 
ATOM     65  C   UNL A   1      41.050  25.389  26.879  1.00  0.00     0.055 A 
ATOM     66  C   UNL A   1      41.893  27.347  25.771  1.00  0.00     0.041 A 
ATOM     67  F   UNL A   1      42.123  29.351  26.961  1.00  0.00    -0.206 F 
ATOM     68  C   UNL A   1      41.569  25.994  25.733  1.00  0.00     0.022 A 
BRANCH  65  69
ATOM     69  S   UNL A   1      40.822  23.590  26.935  1.00  0.00     0.124 S 
ATOM     70  O   UNL A   1      41.737  23.146  25.885  1.00  0.00    -0.237 OA
ATOM     71  O   UNL A   1      41.212  23.264  28.302  1.00  0.00    -0.237 OA
ATOM     72  O   UNL A   1      39.403  23.415  26.631  1.00  0.00    -0.744 OA
ENDBRANCH  65  69
ENDBRANCH  48  62
BRANCH  49  73
ATOM     73  C   UNL A   1      39.572  32.896  36.410  1.00  0.00     0.023 A 
ATOM     74  C   UNL A   1      38.707  32.389  37.393  1.00  0.00     0.031 A 
ATOM     75  C   UNL A   1      40.140  34.164  36.626  1.00  0.00     0.131 A 
ATOM     76  C   UNL A   1      38.388  33.168  38.516  1.00  0.00     0.055 A 
ATOM     77  C   UNL A   1      39.869  34.910  37.775  1.00  0.00     0.041 A 
ATOM     78  F   UNL A   1      40.976  34.698  35.721  1.00  0.00    -0.206 F 
ATOM     79  C   UNL A   1      38.974  34.419  38.721  1.00  0.00     0.022 A 
BRANCH  76  80
ATOM     80  S   UNL A   1      37.108  32.568  39.652  1.00  0.00     0.124 S 
ATOM     81  O   UNL A   1      37.229  33.511  40.758  1.00  0.00    -0.237 OA
ATOM     82  O   UNL A   1      35.903  32.684  38.837  1.00  0.00    -0.237 OA
ATOM     83  O   UNL A   1      37.530  31.201  39.947  1.00  0.00    -0.744 OA
ENDBRANCH  76  80
ENDBRANCH  49  73
BRANCH  61  84
ATOM     84  C   UNL A   1      44.285  28.068  34.618  1.00  0.00     0.023 A 
ATOM     85  C   UNL A   1      44.193  26.906  35.403  1.00  0.00     0.031 A 
ATOM     86  C   UNL A   1      45.540  28.693  34.503  1.00  0.00     0.131 A 
ATOM     87  C   UNL A   1      45.328  26.429  36.077  1.00  0.00     0.055 A 
ATOM     88  C   UNL A   1      46.678  28.180  35.126  1.00  0.00     0.041 A 
ATOM     89  F   UNL A   1      45.683  29.807  33.767  1.00  0.00    -0.206 F 
ATOM     90  C   UNL A   1      46.573  27.047  35.928  1.00  0.00     0.022 A 
BRANCH  87  91
ATOM     91  S   UNL A   1      45.143  25.030  37.215  1.00  0.00     0.124 S 
ATOM     92  O   UNL A   1      43.936  25.392  37.950  1.00  0.00    -0.237 OA
ATOM     93  O   UNL A   1      45.018  23.898  36.302  1.00  0.00    -0.237 OA
ATOM     94  O   UNL A   1      46.377  25.058  37.998  1.00  0.00    -0.744 OA
ENDBRANCH  87  91
ENDBRANCH  61  84
ENDBRANCH  35  36
ENDBRANCH  27  30
ENDBRANCH  25  26
ENDBRANCH   1  25
TORSDOF 15
ENDMDL
MODEL 3
REMARK VINA RESULT:     -12.9      1.652      2.123
REMARK SMILES C[C@@]1(CN2C(=O)c3ccc(C(=O)NCCCNC(=O)c4ccc(-c5c6nc(c(-c7cc(S(=O)(=O)[O-])ccc7F)c7ccc([nH]7)c(-c7cc(S(=O)(=O)[O-])ccc7F)c7nc(c(-c8cc(S(=O)(=O)[O-])ccc8F)c8ccc5[nH]8)C=C7)C=C6)cc4)cc3C2=O)CCCO1
REMARK SMILES IDX 15 1 14 2 13 3 11 4 12 5 10 7 4 8 5 9 85 10 6 11 7 12 84 13
REMARK SMILES IDX 86 14 8 15 83 16 9 17 3 18 2 19 1 20 87 21 90 22 88 23 89 24
REMARK SMILES IDX 16 25 17 26 18 27 19 29 20 30 21 31 82 32 22 33 81 34 23 35
REMARK SMILES IDX 24 36 25 37 75 38 26 39 80 40 74 41 76 42 27 43 79 44 73 45
REMARK SMILES IDX 72 46 28 48 60 49 40 50 59 51 41 52 44 53 58 54 77 55 42 56
REMARK SMILES IDX 43 57 57 59 78 60 45 61 29 62 30 63 38 64 31 65 37 66 39 67
REMARK SMILES IDX 36 68 32 69 33 70 34 71 35 72 61 73 62 74 70 75 63 76 69 77
REMARK SMILES IDX 71 78 68 79 64 80 65 81 66 82 67 83 46 84 47 85 55 86 48 87
REMARK SMILES IDX 54 88 56 89 53 90 49 91 50 92 51 93 52 94
REMARK H PARENT 13 6 17 28 76 47 44 58
REMARK Flexibility Score: inf
ROOT
ATOM      1  C   UNL A   1      31.413  31.554  26.486  1.00  0.00     0.042 C 
ENDROOT
BRANCH   1   2
ATOM      2  C   UNL A   1      31.598  30.234  25.737  1.00  0.00     0.118 C 
BRANCH   2   3
ATOM      3  N   UNL A   1      30.951  30.265  24.437  1.00  0.00    -0.352 N 
ATOM      4  C   UNL A   1      30.544  29.276  23.581  1.00  0.00     0.251 C 
ATOM      5  O   UNL A   1      29.921  29.617  22.575  1.00  0.00    -0.269 OA
ATOM      6  H   UNL A   1      30.769  31.174  24.107  1.00  0.00     0.163 HD
BRANCH   4   7
ATOM      7  C   UNL A   1      30.787  27.821  23.809  1.00  0.00     0.040 A 
ATOM      8  N   UNL A   1      33.046  23.821  23.430  1.00  0.00    -0.271 N 
ATOM      9  C   UNL A   1      31.994  23.827  24.300  1.00  0.00     0.261 C 
ATOM     10  C   UNL A   1      33.243  25.054  22.862  1.00  0.00     0.261 C 
ATOM     11  O   UNL A   1      31.595  22.946  25.039  1.00  0.00    -0.269 OA
ATOM     12  C   UNL A   1      31.405  25.155  24.231  1.00  0.00     0.053 A 
ATOM     13  C   UNL A   1      32.168  25.915  23.366  1.00  0.00     0.054 A 
ATOM     14  O   UNL A   1      34.134  25.434  22.131  1.00  0.00    -0.269 OA
ATOM     15  C   UNL A   1      30.326  25.673  24.908  1.00  0.00     0.015 A 
ATOM     16  C   UNL A   1      31.887  27.249  23.136  1.00  0.00     0.028 A 
ATOM     17  C   UNL A   1      30.035  27.024  24.703  1.00  0.00     0.015 A 
BRANCH   8  18
ATOM     18  C   UNL A   1      33.904  22.669  23.221  1.00  0.00     0.164 C 
BRANCH  18  19
ATOM     19  C   UNL A   1      35.213  22.682  24.061  1.00  0.00     0.084 C 
ATOM     20  C   UNL A   1      36.457  23.028  23.241  1.00  0.00     0.044 C 
ATOM     21  C   UNL A   1      35.402  21.336  24.771  1.00  0.00     0.039 C 
ATOM     22  O   UNL A   1      35.086  23.661  25.116  1.00  0.00    -0.373 OA
ATOM     23  C   UNL A   1      34.645  21.529  26.061  1.00  0.00     0.031 C 
ATOM     24  C   UNL A   1      34.900  22.988  26.368  1.00  0.00     0.161 C 
ENDBRANCH  18  19
ENDBRANCH   8  18
ENDBRANCH   4   7
ENDBRANCH   2   3
ENDBRANCH   1   2
BRANCH   1  25
ATOM     25  C   UNL A   1      32.713  32.114  27.054  1.00  0.00     0.118 C 
BRANCH  25  26
ATOM     26  N   UNL A   1      32.578  33.513  27.431  1.00  0.00    -0.352 N 
ATOM     27  C   UNL A   1      33.208  34.219  28.426  1.00  0.00     0.251 C 
ATOM     28  H   UNL A   1      31.939  34.032  26.890  1.00  0.00     0.163 HD
ATOM     29  O   UNL A   1      32.768  35.317  28.753  1.00  0.00    -0.269 OA
BRANCH  27  30
ATOM     30  C   UNL A   1      34.396  33.655  29.103  1.00  0.00     0.039 A 
ATOM     31  C   UNL A   1      35.661  34.173  28.806  1.00  0.00     0.014 A 
ATOM     32  C   UNL A   1      34.268  32.594  30.005  1.00  0.00     0.014 A 
ATOM     33  C   UNL A   1      36.788  33.666  29.457  1.00  0.00     0.010 A 
ATOM     34  C   UNL A   1      35.382  32.144  30.707  1.00  0.00     0.010 A 
ATOM     35  C   UNL A   1      36.654  32.669  30.437  1.00  0.00    -0.014 A 
BRANCH  35  36
ATOM     36  C   UNL A   1      37.827  32.136  31.177  1.00  0.00     0.031 A 
ATOM     37  C   UNL A   1      38.664  31.047  30.561  1.00  0.00     0.074 A 
ATOM     38  C   UNL A   1      38.088  32.571  32.426  1.00  0.00     0.049 A 
ATOM     39  N   UNL A   1      39.630  30.343  31.090  1.00  0.00    -0.248 NA
ATOM     40  C   UNL A   1      38.345  30.681  29.172  1.00  0.00     0.031 C 
ATOM     41  C   UNL A   1      37.336  33.610  33.134  1.00  0.00     0.029 A 
ATOM     42  N   UNL A   1      39.047  32.185  33.330  1.00  0.00    -0.354 N 
ATOM     43  C   UNL A   1      40.023  29.440  30.108  1.00  0.00     0.074 A 
ATOM     44  C   UNL A   1      39.148  29.646  28.974  1.00  0.00     0.031 C 
ATOM     45  C   UNL A   1      37.872  33.788  34.351  1.00  0.00     0.029 A 
ATOM     46  C   UNL A   1      38.966  32.840  34.537  1.00  0.00     0.049 A 
ATOM     47  H   UNL A   1      39.728  31.501  33.132  1.00  0.00     0.167 HD
ATOM     48  C   UNL A   1      41.036  28.538  30.142  1.00  0.00     0.034 A 
ATOM     49  C   UNL A   1      39.678  32.679  35.671  1.00  0.00     0.034 A 
ATOM     50  C   UNL A   1      41.905  28.358  31.278  1.00  0.00     0.049 A 
ATOM     51  C   UNL A   1      40.769  31.635  35.700  1.00  0.00     0.074 A 
ATOM     52  C   UNL A   1      42.985  27.501  31.409  1.00  0.00     0.029 A 
ATOM     53  N   UNL A   1      41.795  29.042  32.482  1.00  0.00    -0.354 N 
ATOM     54  N   UNL A   1      41.145  30.806  34.754  1.00  0.00    -0.248 NA
ATOM     55  C   UNL A   1      41.534  31.509  36.948  1.00  0.00     0.031 C 
ATOM     56  C   UNL A   1      43.481  27.617  32.711  1.00  0.00     0.029 A 
ATOM     57  C   UNL A   1      42.768  28.608  33.367  1.00  0.00     0.049 A 
ATOM     58  H   UNL A   1      41.123  29.734  32.677  1.00  0.00     0.167 HD
ATOM     59  C   UNL A   1      42.222  30.095  35.279  1.00  0.00     0.074 A 
ATOM     60  C   UNL A   1      42.434  30.594  36.621  1.00  0.00     0.031 C 
ATOM     61  C   UNL A   1      42.971  29.123  34.701  1.00  0.00     0.034 A 
BRANCH  48  62
ATOM     62  C   UNL A   1      41.235  27.668  28.925  1.00  0.00     0.023 A 
ATOM     63  C   UNL A   1      42.255  27.927  27.991  1.00  0.00     0.031 A 
ATOM     64  C   UNL A   1      40.385  26.574  28.681  1.00  0.00     0.131 A 
ATOM     65  C   UNL A   1      42.351  27.153  26.825  1.00  0.00     0.055 A 
ATOM     66  C   UNL A   1      40.541  25.754  27.561  1.00  0.00     0.041 A 
ATOM     67  F   UNL A   1      39.380  26.288  29.524  1.00  0.00    -0.206 F 
ATOM     68  C   UNL A   1      41.519  26.052  26.616  1.00  0.00     0.022 A 
BRANCH  65  69
ATOM     69  S   UNL A   1      43.484  27.699  25.518  1.00  0.00     0.124 S 
ATOM     70  O   UNL A   1      44.352  26.532  25.376  1.00  0.00    -0.237 OA
ATOM     71  O   UNL A   1      42.580  27.962  24.404  1.00  0.00    -0.237 OA
ATOM     72  O   UNL A   1      44.127  28.879  26.093  1.00  0.00    -0.744 OA
ENDBRANCH  65  69
ENDBRANCH  48  62
BRANCH  49  73
ATOM     73  C   UNL A   1      39.382  33.503  36.879  1.00  0.00     0.023 A 
ATOM     74  C   UNL A   1      40.105  34.678  37.144  1.00  0.00     0.031 A 
ATOM     75  C   UNL A   1      38.413  33.103  37.816  1.00  0.00     0.131 A 
ATOM     76  C   UNL A   1      39.891  35.377  38.342  1.00  0.00     0.055 A 
ATOM     77  C   UNL A   1      38.160  33.837  38.977  1.00  0.00     0.041 A 
ATOM     78  F   UNL A   1      37.691  31.990  37.614  1.00  0.00    -0.206 F 
ATOM     79  C   UNL A   1      38.914  34.973  39.254  1.00  0.00     0.022 A 
BRANCH  76  80
ATOM     80  S   UNL A   1      40.990  36.764  38.742  1.00  0.00     0.124 S 
ATOM     81  O   UNL A   1      40.031  37.829  39.018  1.00  0.00    -0.237 OA
ATOM     82  O   UNL A   1      41.722  36.245  39.893  1.00  0.00    -0.237 OA
ATOM     83  O   UNL A   1      41.780  36.933  37.526  1.00  0.00    -0.744 OA
ENDBRANCH  76  80
ENDBRANCH  49  73
BRANCH  61  84
ATOM     84  C   UNL A   1      44.139  28.586  35.492  1.00  0.00     0.023 A 
ATOM     85  C   UNL A   1      44.002  27.516  36.392  1.00  0.00     0.031 A 
ATOM     86  C   UNL A   1      45.416  29.152  35.324  1.00  0.00     0.131 A 
ATOM     87  C   UNL A   1      45.115  27.072  37.122  1.00  0.00     0.055 A 
ATOM     88  C   UNL A   1      46.531  28.667  36.007  1.00  0.00     0.041 A 
ATOM     89  F   UNL A   1      45.602  30.178  34.478  1.00  0.00    -0.206 F 
ATOM     90  C   UNL A   1      46.382  27.628  36.921  1.00  0.00     0.022 A 
BRANCH  87  91
ATOM     91  S   UNL A   1      44.874  25.806  38.397  1.00  0.00     0.124 S 
ATOM     92  O   UNL A   1      46.227  25.288  38.571  1.00  0.00    -0.237 OA
ATOM     93  O   UNL A   1      44.341  26.582  39.512  1.00  0.00    -0.237 OA
ATOM     94  O   UNL A   1      43.928  24.875  37.784  1.00  0.00    -0.744 OA
ENDBRANCH  87  91
ENDBRANCH  61  84
ENDBRANCH  35  36
ENDBRANCH  27  30
ENDBRANCH  25  26
ENDBRANCH   1  25
TORSDOF 15
ENDMDL
