MODEL 1
REMARK VINA RESULT:     -13.5      0.000      0.000
REMARK SMILES Cc1ccc([C@H](C)NC(=O)[C@H]2[C@@H]3CC[C@@H](C3)[C@@H]2C(=O)NCCCNC(=O)c2ccc(-c3c4nc(c(-c5cc(S(=O)(=O)[O-])ccc5F)c5ccc([nH]5)c(-c5cc(S(=O)(=O)[O-])ccc5F)c5nc(c(-c6cc(S(=O)(=O)[O-])ccc6F)c6ccc3[nH]6)C=C5)C=C4)cc2)cc1
REMARK SMILES IDX 22 1 21 2 20 3 18 4 19 5 17 7 11 8 12 9 13 10 16 11 15 12
REMARK SMILES IDX 14 13 9 14 8 15 10 17 6 18 7 19 5 20 1 21 2 22 3 23 91 24
REMARK SMILES IDX 4 25 90 26 23 27 24 28 25 29 26 31 27 32 28 33 89 34 29 35
REMARK SMILES IDX 88 36 30 37 31 38 32 39 82 40 33 41 87 42 81 43 83 44 34 45
REMARK SMILES IDX 86 46 80 47 79 48 35 50 67 51 47 52 66 53 48 54 51 55 65 56
REMARK SMILES IDX 84 57 49 58 50 59 64 61 85 62 52 63 36 64 37 65 45 66 38 67
REMARK SMILES IDX 44 68 46 69 43 70 39 71 40 72 41 73 42 74 68 75 69 76 77 77
REMARK SMILES IDX 70 78 76 79 78 80 75 81 71 82 72 83 73 84 74 85 53 86 54 87
REMARK SMILES IDX 62 88 55 89 61 90 63 91 60 92 56 93 57 94 58 95 59 96
REMARK H PARENT 20 6 8 16 24 30 83 49 51 60
REMARK Flexibility Score: inf
ROOT
ATOM      1  C   UNL A   1      33.730  29.702  27.652  1.00  0.00     0.042 C 
ENDROOT
BRANCH   1   2
ATOM      2  C   UNL A   1      33.973  28.600  26.622  1.00  0.00     0.117 C 
BRANCH   2   3
ATOM      3  N   UNL A   1      34.040  29.107  25.259  1.00  0.00    -0.356 N 
ATOM      4  C   UNL A   1      33.563  28.612  24.087  1.00  0.00     0.224 C 
ATOM      5  O   UNL A   1      33.654  29.325  23.084  1.00  0.00    -0.275 OA
ATOM      6  H   UNL A   1      34.517  29.963  25.171  1.00  0.00     0.163 HD
BRANCH   4   7
ATOM      7  C   UNL A   1      32.817  27.276  24.028  1.00  0.00     0.094 C 
ATOM      8  C   UNL A   1      32.413  26.732  22.654  1.00  0.00     0.094 C 
ATOM      9  C   UNL A   1      30.895  26.449  22.786  1.00  0.00     0.002 C 
ATOM     10  C   UNL A   1      30.157  27.804  22.762  1.00  0.00     0.005 C 
ATOM     11  C   UNL A   1      30.737  26.063  24.251  1.00  0.00     0.009 C 
ATOM     12  C   UNL A   1      31.434  27.329  24.756  1.00  0.00     0.002 C 
ATOM     13  C   UNL A   1      30.507  28.400  24.133  1.00  0.00     0.005 C 
BRANCH   8  14
ATOM     14  C   UNL A   1      33.166  25.552  22.040  1.00  0.00     0.224 C 
ATOM     15  N   UNL A   1      33.686  24.488  22.691  1.00  0.00    -0.349 N 
ATOM     16  H   UNL A   1      34.291  23.960  22.121  1.00  0.00     0.164 HD
ATOM     17  O   UNL A   1      33.309  25.534  20.808  1.00  0.00    -0.275 OA
BRANCH  15  18
ATOM     18  C   UNL A   1      33.567  23.932  24.035  1.00  0.00     0.109 C 
ATOM     19  C   UNL A   1      32.512  22.821  24.025  1.00  0.00     0.036 C 
BRANCH  18  20
ATOM     20  C   UNL A   1      34.883  23.414  24.584  1.00  0.00    -0.026 A 
ATOM     21  C   UNL A   1      38.734  21.926  25.895  1.00  0.00     0.044 C 
ATOM     22  C   UNL A   1      37.402  22.451  25.448  1.00  0.00    -0.051 A 
ATOM     23  C   UNL A   1      36.586  21.666  24.631  1.00  0.00     0.004 A 
ATOM     24  C   UNL A   1      36.941  23.706  25.857  1.00  0.00     0.004 A 
ATOM     25  C   UNL A   1      35.348  22.145  24.199  1.00  0.00     0.006 A 
ATOM     26  C   UNL A   1      35.693  24.182  25.434  1.00  0.00     0.006 A 
ENDBRANCH  18  20
ENDBRANCH  15  18
ENDBRANCH   8  14
ENDBRANCH   4   7
ENDBRANCH   2   3
ENDBRANCH   1   2
BRANCH   1  27
ATOM     27  C   UNL A   1      34.581  30.944  27.405  1.00  0.00     0.118 C 
BRANCH  27  28
ATOM     28  N   UNL A   1      35.071  31.568  28.634  1.00  0.00    -0.352 N 
ATOM     29  C   UNL A   1      36.140  31.182  29.432  1.00  0.00     0.251 C 
ATOM     30  H   UNL A   1      34.579  32.367  28.933  1.00  0.00     0.163 HD
ATOM     31  O   UNL A   1      36.479  31.806  30.408  1.00  0.00    -0.269 OA
BRANCH  29  32
ATOM     32  C   UNL A   1      36.938  30.020  28.971  1.00  0.00     0.039 A 
ATOM     33  C   UNL A   1      37.164  28.994  29.892  1.00  0.00     0.014 A 
ATOM     34  C   UNL A   1      37.659  30.092  27.782  1.00  0.00     0.014 A 
ATOM     35  C   UNL A   1      38.275  28.173  29.727  1.00  0.00     0.010 A 
ATOM     36  C   UNL A   1      38.812  29.335  27.665  1.00  0.00     0.010 A 
ATOM     37  C   UNL A   1      39.155  28.423  28.670  1.00  0.00    -0.014 A 
BRANCH  37  38
ATOM     38  C   UNL A   1      40.518  27.898  28.655  1.00  0.00     0.031 A 
ATOM     39  C   UNL A   1      40.807  26.519  28.216  1.00  0.00     0.074 A 
ATOM     40  C   UNL A   1      41.550  28.649  29.099  1.00  0.00     0.049 A 
ATOM     41  N   UNL A   1      41.731  25.782  28.739  1.00  0.00    -0.248 NA
ATOM     42  C   UNL A   1      40.049  25.846  27.168  1.00  0.00     0.031 C 
ATOM     43  C   UNL A   1      42.974  28.343  28.986  1.00  0.00     0.029 A 
ATOM     44  N   UNL A   1      41.497  29.728  29.976  1.00  0.00    -0.354 N 
ATOM     45  C   UNL A   1      41.886  24.684  27.930  1.00  0.00     0.074 A 
ATOM     46  C   UNL A   1      40.767  24.728  27.013  1.00  0.00     0.031 C 
ATOM     47  C   UNL A   1      43.640  29.018  29.933  1.00  0.00     0.029 A 
ATOM     48  C   UNL A   1      42.660  29.696  30.761  1.00  0.00     0.049 A 
ATOM     49  H   UNL A   1      40.775  30.393  30.035  1.00  0.00     0.167 HD
ATOM     50  C   UNL A   1      43.016  23.927  28.000  1.00  0.00     0.034 A 
ATOM     51  C   UNL A   1      42.610  29.665  32.123  1.00  0.00     0.034 A 
ATOM     52  C   UNL A   1      43.981  24.442  28.966  1.00  0.00     0.049 A 
ATOM     53  C   UNL A   1      43.306  28.477  32.733  1.00  0.00     0.074 A 
ATOM     54  C   UNL A   1      45.141  25.187  28.823  1.00  0.00     0.029 A 
ATOM     55  N   UNL A   1      43.689  24.430  30.325  1.00  0.00    -0.354 N 
ATOM     56  N   UNL A   1      43.666  27.416  32.068  1.00  0.00    -0.248 NA
ATOM     57  C   UNL A   1      43.615  28.376  34.154  1.00  0.00     0.031 C 
ATOM     58  C   UNL A   1      45.547  25.624  30.108  1.00  0.00     0.029 A 
ATOM     59  C   UNL A   1      44.643  25.136  31.034  1.00  0.00     0.049 A 
ATOM     60  H   UNL A   1      42.911  23.981  30.726  1.00  0.00     0.167 HD
ATOM     61  C   UNL A   1      44.191  26.484  32.932  1.00  0.00     0.074 A 
ATOM     62  C   UNL A   1      44.165  27.152  34.222  1.00  0.00     0.031 C 
ATOM     63  C   UNL A   1      44.573  25.245  32.488  1.00  0.00     0.034 A 
BRANCH  50  64
ATOM     64  C   UNL A   1      43.360  22.905  26.946  1.00  0.00     0.023 A 
ATOM     65  C   UNL A   1      42.804  21.613  27.011  1.00  0.00     0.031 A 
ATOM     66  C   UNL A   1      44.249  23.137  25.880  1.00  0.00     0.131 A 
ATOM     67  C   UNL A   1      43.209  20.597  26.129  1.00  0.00     0.055 A 
ATOM     68  C   UNL A   1      44.698  22.114  25.035  1.00  0.00     0.041 A 
ATOM     69  F   UNL A   1      44.701  24.373  25.610  1.00  0.00    -0.206 F 
ATOM     70  C   UNL A   1      44.188  20.829  25.168  1.00  0.00     0.022 A 
BRANCH  67  71
ATOM     71  S   UNL A   1      42.431  18.962  26.256  1.00  0.00     0.124 S 
ATOM     72  O   UNL A   1      42.544  18.673  27.682  1.00  0.00    -0.237 OA
ATOM     73  O   UNL A   1      41.086  19.222  25.754  1.00  0.00    -0.237 OA
ATOM     74  O   UNL A   1      43.260  18.125  25.390  1.00  0.00    -0.744 OA
ENDBRANCH  67  71
ENDBRANCH  50  64
BRANCH  51  75
ATOM     75  C   UNL A   1      41.418  30.350  32.692  1.00  0.00     0.023 A 
ATOM     76  C   UNL A   1      41.446  31.758  32.709  1.00  0.00     0.031 A 
ATOM     77  C   UNL A   1      40.177  29.715  32.818  1.00  0.00     0.131 A 
ATOM     78  C   UNL A   1      40.253  32.488  32.658  1.00  0.00     0.055 A 
ATOM     79  C   UNL A   1      38.986  30.452  32.846  1.00  0.00     0.041 A 
ATOM     80  F   UNL A   1      40.087  28.378  32.784  1.00  0.00    -0.206 F 
ATOM     81  C   UNL A   1      39.017  31.843  32.715  1.00  0.00     0.022 A 
BRANCH  78  82
ATOM     82  S   UNL A   1      40.348  34.243  32.197  1.00  0.00     0.124 S 
ATOM     83  O   UNL A   1      41.066  34.822  33.326  1.00  0.00    -0.237 OA
ATOM     84  O   UNL A   1      41.080  34.193  30.933  1.00  0.00    -0.237 OA
ATOM     85  O   UNL A   1      38.948  34.640  32.061  1.00  0.00    -0.744 OA
ENDBRANCH  78  82
ENDBRANCH  51  75
BRANCH  63  86
ATOM     86  C   UNL A   1      44.994  24.051  33.335  1.00  0.00     0.023 A 
ATOM     87  C   UNL A   1      46.301  23.825  33.788  1.00  0.00     0.031 A 
ATOM     88  C   UNL A   1      44.041  23.087  33.760  1.00  0.00     0.131 A 
ATOM     89  C   UNL A   1      46.635  22.692  34.556  1.00  0.00     0.055 A 
ATOM     90  C   UNL A   1      44.362  21.988  34.567  1.00  0.00     0.041 A 
ATOM     91  F   UNL A   1      42.746  23.170  33.427  1.00  0.00    -0.206 F 
ATOM     92  C   UNL A   1      45.671  21.777  34.962  1.00  0.00     0.022 A 
BRANCH  89  93
ATOM     93  S   UNL A   1      48.378  22.425  34.978  1.00  0.00     0.124 S 
ATOM     94  O   UNL A   1      49.004  23.638  34.459  1.00  0.00    -0.237 OA
ATOM     95  O   UNL A   1      48.333  22.309  36.431  1.00  0.00    -0.237 OA
ATOM     96  O   UNL A   1      48.722  21.195  34.266  1.00  0.00    -0.744 OA
ENDBRANCH  89  93
ENDBRANCH  63  86
ENDBRANCH  37  38
ENDBRANCH  29  32
ENDBRANCH  27  28
ENDBRANCH   1  27
TORSDOF 16
ENDMDL
MODEL 2
REMARK VINA RESULT:     -13.3      4.030     10.474
REMARK SMILES Cc1ccc([C@H](C)NC(=O)[C@H]2[C@@H]3CC[C@@H](C3)[C@@H]2C(=O)NCCCNC(=O)c2ccc(-c3c4nc(c(-c5cc(S(=O)(=O)[O-])ccc5F)c5ccc([nH]5)c(-c5cc(S(=O)(=O)[O-])ccc5F)c5nc(c(-c6cc(S(=O)(=O)[O-])ccc6F)c6ccc3[nH]6)C=C5)C=C4)cc2)cc1
REMARK SMILES IDX 22 1 21 2 20 3 18 4 19 5 17 7 11 8 12 9 13 10 16 11 15 12
REMARK SMILES IDX 14 13 9 14 8 15 10 17 6 18 7 19 5 20 1 21 2 22 3 23 91 24
REMARK SMILES IDX 4 25 90 26 23 27 24 28 25 29 26 31 27 32 28 33 89 34 29 35
REMARK SMILES IDX 88 36 30 37 31 38 32 39 82 40 33 41 87 42 81 43 83 44 34 45
REMARK SMILES IDX 86 46 80 47 79 48 35 50 67 51 47 52 66 53 48 54 51 55 65 56
REMARK SMILES IDX 84 57 49 58 50 59 64 61 85 62 52 63 36 64 37 65 45 66 38 67
REMARK SMILES IDX 44 68 46 69 43 70 39 71 40 72 41 73 42 74 68 75 69 76 77 77
REMARK SMILES IDX 70 78 76 79 78 80 75 81 71 82 72 83 73 84 74 85 53 86 54 87
REMARK SMILES IDX 62 88 55 89 61 90 63 91 60 92 56 93 57 94 58 95 59 96
REMARK H PARENT 20 6 8 16 24 30 83 49 51 60
REMARK Flexibility Score: inf
ROOT
ATOM      1  C   UNL A   1      38.021  23.245  25.333  1.00  0.00     0.042 C 
ENDROOT
BRANCH   1   2
ATOM      2  C   UNL A   1      36.641  23.745  25.758  1.00  0.00     0.117 C 
BRANCH   2   3
ATOM      3  N   UNL A   1      36.001  22.872  26.731  1.00  0.00    -0.356 N 
ATOM      4  C   UNL A   1      34.712  22.462  26.866  1.00  0.00     0.224 C 
ATOM      5  O   UNL A   1      34.469  21.606  27.722  1.00  0.00    -0.275 OA
ATOM      6  H   UNL A   1      36.612  22.515  27.415  1.00  0.00     0.163 HD
BRANCH   4   7
ATOM      7  C   UNL A   1      33.618  22.938  25.908  1.00  0.00     0.094 C 
ATOM      8  C   UNL A   1      32.168  22.548  26.213  1.00  0.00     0.094 C 
ATOM      9  C   UNL A   1      31.662  21.898  24.901  1.00  0.00     0.002 C 
ATOM     10  C   UNL A   1      32.295  20.496  24.793  1.00  0.00     0.005 C 
ATOM     11  C   UNL A   1      32.432  22.645  23.821  1.00  0.00     0.009 C 
ATOM     12  C   UNL A   1      33.792  22.362  24.465  1.00  0.00     0.002 C 
ATOM     13  C   UNL A   1      33.761  20.815  24.465  1.00  0.00     0.005 C 
BRANCH   8  14
ATOM     14  C   UNL A   1      31.186  23.589  26.755  1.00  0.00     0.224 C 
ATOM     15  N   UNL A   1      31.175  24.914  26.490  1.00  0.00    -0.349 N 
ATOM     16  H   UNL A   1      30.581  25.411  27.098  1.00  0.00     0.164 HD
ATOM     17  O   UNL A   1      30.279  23.196  27.503  1.00  0.00    -0.275 OA
BRANCH  15  18
ATOM     18  C   UNL A   1      31.829  25.786  25.520  1.00  0.00     0.109 C 
ATOM     19  C   UNL A   1      30.857  26.074  24.371  1.00  0.00     0.036 C 
BRANCH  18  20
ATOM     20  C   UNL A   1      32.335  27.080  26.128  1.00  0.00    -0.026 A 
ATOM     21  C   UNL A   1      33.855  30.856  27.612  1.00  0.00     0.044 C 
ATOM     22  C   UNL A   1      33.318  29.550  27.102  1.00  0.00    -0.051 A 
ATOM     23  C   UNL A   1      34.180  28.636  26.495  1.00  0.00     0.004 A 
ATOM     24  C   UNL A   1      31.969  29.213  27.249  1.00  0.00     0.004 A 
ATOM     25  C   UNL A   1      33.693  27.422  26.007  1.00  0.00     0.006 A 
ATOM     26  C   UNL A   1      31.483  27.989  26.771  1.00  0.00     0.006 A 
ENDBRANCH  18  20
ENDBRANCH  15  18
ENDBRANCH   8  14
ENDBRANCH   4   7
ENDBRANCH   2   3
ENDBRANCH   1   2
BRANCH   1  27
ATOM     27  C   UNL A   1      38.856  22.737  26.505  1.00  0.00     0.118 C 
BRANCH  27  28
ATOM     28  N   UNL A   1      40.291  22.965  26.340  1.00  0.00    -0.352 N 
ATOM     29  C   UNL A   1      41.004  24.145  26.514  1.00  0.00     0.251 C 
ATOM     30  H   UNL A   1      40.820  22.180  26.071  1.00  0.00     0.163 HD
ATOM     31  O   UNL A   1      42.203  24.202  26.390  1.00  0.00    -0.269 OA
BRANCH  29  32
ATOM     32  C   UNL A   1      40.241  25.328  26.982  1.00  0.00     0.039 A 
ATOM     33  C   UNL A   1      40.490  26.543  26.338  1.00  0.00     0.014 A 
ATOM     34  C   UNL A   1      39.538  25.280  28.183  1.00  0.00     0.014 A 
ATOM     35  C   UNL A   1      40.235  27.730  27.017  1.00  0.00     0.010 A 
ATOM     36  C   UNL A   1      39.367  26.456  28.892  1.00  0.00     0.010 A 
ATOM     37  C   UNL A   1      39.776  27.674  28.336  1.00  0.00    -0.014 A 
BRANCH  37  38
ATOM     38  C   UNL A   1      39.869  28.819  29.239  1.00  0.00     0.031 A 
ATOM     39  C   UNL A   1      38.824  29.860  29.273  1.00  0.00     0.074 A 
ATOM     40  C   UNL A   1      40.952  28.983  30.032  1.00  0.00     0.049 A 
ATOM     41  N   UNL A   1      39.071  31.113  29.474  1.00  0.00    -0.248 NA
ATOM     42  C   UNL A   1      37.413  29.573  29.048  1.00  0.00     0.031 C 
ATOM     43  C   UNL A   1      41.116  29.962  31.104  1.00  0.00     0.029 A 
ATOM     44  N   UNL A   1      42.225  28.455  29.848  1.00  0.00    -0.354 N 
ATOM     45  C   UNL A   1      37.868  31.736  29.694  1.00  0.00     0.074 A 
ATOM     46  C   UNL A   1      36.862  30.756  29.340  1.00  0.00     0.031 C 
ATOM     47  C   UNL A   1      42.425  30.161  31.313  1.00  0.00     0.029 A 
ATOM     48  C   UNL A   1      43.151  29.403  30.311  1.00  0.00     0.049 A 
ATOM     49  H   UNL A   1      42.439  27.575  29.463  1.00  0.00     0.167 HD
ATOM     50  C   UNL A   1      37.821  32.956  30.296  1.00  0.00     0.034 A 
ATOM     51  C   UNL A   1      44.149  29.884  29.517  1.00  0.00     0.034 A 
ATOM     52  C   UNL A   1      39.141  33.448  30.678  1.00  0.00     0.049 A 
ATOM     53  C   UNL A   1      44.131  31.381  29.353  1.00  0.00     0.074 A 
ATOM     54  C   UNL A   1      39.813  33.479  31.890  1.00  0.00     0.029 A 
ATOM     55  N   UNL A   1      40.075  33.780  29.704  1.00  0.00    -0.354 N 
ATOM     56  N   UNL A   1      43.120  32.142  29.664  1.00  0.00    -0.248 NA
ATOM     57  C   UNL A   1      45.241  32.134  28.783  1.00  0.00     0.031 C 
ATOM     58  C   UNL A   1      41.162  33.833  31.638  1.00  0.00     0.029 A 
ATOM     59  C   UNL A   1      41.309  34.030  30.277  1.00  0.00     0.049 A 
ATOM     60  H   UNL A   1      39.885  33.829  28.740  1.00  0.00     0.167 HD
ATOM     61  C   UNL A   1      43.392  33.442  29.308  1.00  0.00     0.074 A 
ATOM     62  C   UNL A   1      44.748  33.384  28.791  1.00  0.00     0.031 C 
ATOM     63  C   UNL A   1      42.451  34.427  29.460  1.00  0.00     0.034 A 
BRANCH  50  64
ATOM     64  C   UNL A   1      36.534  33.541  30.821  1.00  0.00     0.023 A 
ATOM     65  C   UNL A   1      35.625  34.150  29.935  1.00  0.00     0.031 A 
ATOM     66  C   UNL A   1      36.167  33.552  32.180  1.00  0.00     0.131 A 
ATOM     67  C   UNL A   1      34.486  34.825  30.405  1.00  0.00     0.055 A 
ATOM     68  C   UNL A   1      35.064  34.272  32.657  1.00  0.00     0.041 A 
ATOM     69  F   UNL A   1      36.859  32.850  33.091  1.00  0.00    -0.206 F 
ATOM     70  C   UNL A   1      34.224  34.928  31.768  1.00  0.00     0.022 A 
BRANCH  67  71
ATOM     71  S   UNL A   1      33.346  35.567  29.203  1.00  0.00     0.124 S 
ATOM     72  O   UNL A   1      32.547  36.457  30.039  1.00  0.00    -0.237 OA
ATOM     73  O   UNL A   1      34.262  36.210  28.267  1.00  0.00    -0.237 OA
ATOM     74  O   UNL A   1      32.624  34.414  28.665  1.00  0.00    -0.744 OA
ENDBRANCH  67  71
ENDBRANCH  50  64
BRANCH  51  75
ATOM     75  C   UNL A   1      44.619  28.911  28.494  1.00  0.00     0.023 A 
ATOM     76  C   UNL A   1      45.482  27.892  28.941  1.00  0.00     0.031 A 
ATOM     77  C   UNL A   1      43.956  28.726  27.276  1.00  0.00     0.131 A 
ATOM     78  C   UNL A   1      45.519  26.658  28.279  1.00  0.00     0.055 A 
ATOM     79  C   UNL A   1      44.056  27.517  26.573  1.00  0.00     0.041 A 
ATOM     80  F   UNL A   1      43.105  29.652  26.812  1.00  0.00    -0.206 F 
ATOM     81  C   UNL A   1      44.800  26.458  27.101  1.00  0.00     0.022 A 
BRANCH  78  82
ATOM     82  S   UNL A   1      46.253  25.246  29.153  1.00  0.00     0.124 S 
ATOM     83  O   UNL A   1      47.293  24.813  28.226  1.00  0.00    -0.237 OA
ATOM     84  O   UNL A   1      46.721  25.857  30.396  1.00  0.00    -0.237 OA
ATOM     85  O   UNL A   1      45.131  24.326  29.326  1.00  0.00    -0.744 OA
ENDBRANCH  78  82
ENDBRANCH  51  75
BRANCH  63  86
ATOM     86  C   UNL A   1      42.527  35.860  28.951  1.00  0.00     0.023 A 
ATOM     87  C   UNL A   1      43.238  36.888  29.585  1.00  0.00     0.031 A 
ATOM     88  C   UNL A   1      41.890  36.237  27.739  1.00  0.00     0.131 A 
ATOM     89  C   UNL A   1      43.258  38.202  29.075  1.00  0.00     0.055 A 
ATOM     90  C   UNL A   1      41.952  37.530  27.203  1.00  0.00     0.041 A 
ATOM     91  F   UNL A   1      41.185  35.367  27.003  1.00  0.00    -0.206 F 
ATOM     92  C   UNL A   1      42.631  38.528  27.878  1.00  0.00     0.022 A 
BRANCH  89  93
ATOM     93  S   UNL A   1      44.095  39.486  30.043  1.00  0.00     0.124 S 
ATOM     94  O   UNL A   1      45.503  39.167  29.816  1.00  0.00    -0.237 OA
ATOM     95  O   UNL A   1      43.617  40.713  29.415  1.00  0.00    -0.237 OA
ATOM     96  O   UNL A   1      43.620  39.258  31.406  1.00  0.00    -0.744 OA
ENDBRANCH  89  93
ENDBRANCH  63  86
ENDBRANCH  37  38
ENDBRANCH  29  32
ENDBRANCH  27  28
ENDBRANCH   1  27
TORSDOF 16
ENDMDL
MODEL 3
REMARK VINA RESULT:     -13.0      1.890      2.329
REMARK SMILES Cc1ccc([C@H](C)NC(=O)[C@H]2[C@@H]3CC[C@@H](C3)[C@@H]2C(=O)NCCCNC(=O)c2ccc(-c3c4nc(c(-c5cc(S(=O)(=O)[O-])ccc5F)c5ccc([nH]5)c(-c5cc(S(=O)(=O)[O-])ccc5F)c5nc(c(-c6cc(S(=O)(=O)[O-])ccc6F)c6ccc3[nH]6)C=C5)C=C4)cc2)cc1
REMARK SMILES IDX 22 1 21 2 20 3 18 4 19 5 17 7 11 8 12 9 13 10 16 11 15 12
REMARK SMILES IDX 14 13 9 14 8 15 10 17 6 18 7 19 5 20 1 21 2 22 3 23 91 24
REMARK SMILES IDX 4 25 90 26 23 27 24 28 25 29 26 31 27 32 28 33 89 34 29 35
REMARK SMILES IDX 88 36 30 37 31 38 32 39 82 40 33 41 87 42 81 43 83 44 34 45
REMARK SMILES IDX 86 46 80 47 79 48 35 50 67 51 47 52 66 53 48 54 51 55 65 56
REMARK SMILES IDX 84 57 49 58 50 59 64 61 85 62 52 63 36 64 37 65 45 66 38 67
REMARK SMILES IDX 44 68 46 69 43 70 39 71 40 72 41 73 42 74 68 75 69 76 77 77
REMARK SMILES IDX 70 78 76 79 78 80 75 81 71 82 72 83 73 84 74 85 53 86 54 87
REMARK SMILES IDX 62 88 55 89 61 90 63 91 60 92 56 93 57 94 58 95 59 96
REMARK H PARENT 20 6 8 16 24 30 83 49 51 60
REMARK Flexibility Score: inf
ROOT
ATOM      1  C   UNL A   1      33.015  30.171  27.445  1.00  0.00     0.042 C 
ENDROOT
BRANCH   1   2
ATOM      2  C   UNL A   1      33.429  28.954  26.620  1.00  0.00     0.117 C 
BRANCH   2   3
ATOM      3  N   UNL A   1      33.841  29.302  25.268  1.00  0.00    -0.356 N 
ATOM      4  C   UNL A   1      33.600  28.709  24.069  1.00  0.00     0.224 C 
ATOM      5  O   UNL A   1      33.971  29.300  23.051  1.00  0.00    -0.275 OA
ATOM      6  H   UNL A   1      34.394  30.115  25.212  1.00  0.00     0.163 HD
BRANCH   4   7
ATOM      7  C   UNL A   1      32.780  27.420  23.966  1.00  0.00     0.094 C 
ATOM      8  C   UNL A   1      32.393  26.918  22.571  1.00  0.00     0.094 C 
ATOM      9  C   UNL A   1      30.858  26.723  22.647  1.00  0.00     0.002 C 
ATOM     10  C   UNL A   1      30.202  28.119  22.618  1.00  0.00     0.005 C 
ATOM     11  C   UNL A   1      30.626  26.329  24.100  1.00  0.00     0.009 C 
ATOM     12  C   UNL A   1      31.379  27.545  24.647  1.00  0.00     0.002 C 
ATOM     13  C   UNL A   1      30.538  28.677  24.008  1.00  0.00     0.005 C 
BRANCH   8  14
ATOM     14  C   UNL A   1      33.097  25.703  21.966  1.00  0.00     0.224 C 
ATOM     15  N   UNL A   1      33.680  24.682  22.632  1.00  0.00    -0.349 N 
ATOM     16  H   UNL A   1      34.236  24.121  22.044  1.00  0.00     0.164 HD
ATOM     17  O   UNL A   1      33.130  25.609  20.730  1.00  0.00    -0.275 OA
BRANCH  15  18
ATOM     18  C   UNL A   1      33.685  24.210  24.013  1.00  0.00     0.109 C 
ATOM     19  C   UNL A   1      32.580  23.164  24.187  1.00  0.00     0.036 C 
BRANCH  18  20
ATOM     20  C   UNL A   1      35.026  23.648  24.446  1.00  0.00    -0.026 A 
ATOM     21  C   UNL A   1      38.743  21.990  25.929  1.00  0.00     0.044 C 
ATOM     22  C   UNL A   1      37.455  22.556  25.407  1.00  0.00    -0.051 A 
ATOM     23  C   UNL A   1      36.916  23.705  25.989  1.00  0.00     0.004 A 
ATOM     24  C   UNL A   1      36.792  21.973  24.323  1.00  0.00     0.004 A 
ATOM     25  C   UNL A   1      35.714  24.238  25.520  1.00  0.00     0.006 A 
ATOM     26  C   UNL A   1      35.592  22.514  23.844  1.00  0.00     0.006 A 
ENDBRANCH  18  20
ENDBRANCH  15  18
ENDBRANCH   8  14
ENDBRANCH   4   7
ENDBRANCH   2   3
ENDBRANCH   1   2
BRANCH   1  27
ATOM     27  C   UNL A   1      34.030  31.309  27.376  1.00  0.00     0.118 C 
BRANCH  27  28
ATOM     28  N   UNL A   1      34.395  31.844  28.687  1.00  0.00    -0.352 N 
ATOM     29  C   UNL A   1      35.371  31.391  29.565  1.00  0.00     0.251 C 
ATOM     30  H   UNL A   1      33.880  32.629  28.986  1.00  0.00     0.163 HD
ATOM     31  O   UNL A   1      35.612  31.946  30.609  1.00  0.00    -0.269 OA
BRANCH  29  32
ATOM     32  C   UNL A   1      36.204  30.250  29.112  1.00  0.00     0.039 A 
ATOM     33  C   UNL A   1      36.677  29.376  30.095  1.00  0.00     0.014 A 
ATOM     34  C   UNL A   1      36.720  30.227  27.819  1.00  0.00     0.014 A 
ATOM     35  C   UNL A   1      37.828  28.637  29.841  1.00  0.00     0.010 A 
ATOM     36  C   UNL A   1      37.913  29.561  27.598  1.00  0.00     0.010 A 
ATOM     37  C   UNL A   1      38.501  28.820  28.630  1.00  0.00    -0.014 A 
BRANCH  37  38
ATOM     38  C   UNL A   1      39.892  28.413  28.447  1.00  0.00     0.031 A 
ATOM     39  C   UNL A   1      40.257  27.006  28.198  1.00  0.00     0.074 A 
ATOM     40  C   UNL A   1      40.892  29.316  28.557  1.00  0.00     0.049 A 
ATOM     41  N   UNL A   1      41.335  26.456  28.655  1.00  0.00    -0.248 NA
ATOM     42  C   UNL A   1      39.413  26.090  27.440  1.00  0.00     0.031 C 
ATOM     43  C   UNL A   1      42.302  29.110  28.230  1.00  0.00     0.029 A 
ATOM     44  N   UNL A   1      40.868  30.530  29.234  1.00  0.00    -0.354 N 
ATOM     45  C   UNL A   1      41.472  25.243  28.027  1.00  0.00     0.074 A 
ATOM     46  C   UNL A   1      40.216  25.025  27.343  1.00  0.00     0.031 C 
ATOM     47  C   UNL A   1      43.039  30.002  28.908  1.00  0.00     0.029 A 
ATOM     48  C   UNL A   1      42.144  30.739  29.781  1.00  0.00     0.049 A 
ATOM     49  H   UNL A   1      40.096  31.134  29.315  1.00  0.00     0.167 HD
ATOM     50  C   UNL A   1      42.676  24.607  28.009  1.00  0.00     0.034 A 
ATOM     51  C   UNL A   1      42.330  30.958  31.113  1.00  0.00     0.034 A 
ATOM     52  C   UNL A   1      43.727  25.369  28.675  1.00  0.00     0.049 A 
ATOM     53  C   UNL A   1      43.251  29.964  31.772  1.00  0.00     0.074 A 
ATOM     54  C   UNL A   1      44.753  26.166  28.194  1.00  0.00     0.029 A 
ATOM     55  N   UNL A   1      43.675  25.585  30.047  1.00  0.00    -0.354 N 
ATOM     56  N   UNL A   1      43.610  28.830  31.238  1.00  0.00    -0.248 NA
ATOM     57  C   UNL A   1      43.807  30.153  33.105  1.00  0.00     0.031 C 
ATOM     58  C   UNL A   1      45.321  26.866  29.288  1.00  0.00     0.029 A 
ATOM     59  C   UNL A   1      44.649  26.486  30.436  1.00  0.00     0.049 A 
ATOM     60  H   UNL A   1      43.032  25.156  30.657  1.00  0.00     0.167 HD
ATOM     61  C   UNL A   1      44.377  28.121  32.132  1.00  0.00     0.074 A 
ATOM     62  C   UNL A   1      44.496  29.013  33.273  1.00  0.00     0.031 C 
ATOM     63  C   UNL A   1      44.816  26.856  31.838  1.00  0.00     0.034 A 
BRANCH  50  64
ATOM     64  C   UNL A   1      42.949  23.438  27.096  1.00  0.00     0.023 A 
ATOM     65  C   UNL A   1      42.332  22.196  27.339  1.00  0.00     0.031 A 
ATOM     66  C   UNL A   1      43.827  23.483  25.997  1.00  0.00     0.131 A 
ATOM     67  C   UNL A   1      42.670  21.054  26.594  1.00  0.00     0.055 A 
ATOM     68  C   UNL A   1      44.209  22.335  25.289  1.00  0.00     0.041 A 
ATOM     69  F   UNL A   1      44.333  24.647  25.559  1.00  0.00    -0.206 F 
ATOM     70  C   UNL A   1      43.641  21.107  25.598  1.00  0.00     0.022 A 
BRANCH  67  71
ATOM     71  S   UNL A   1      41.817  19.491  26.947  1.00  0.00     0.124 S 
ATOM     72  O   UNL A   1      41.244  19.148  25.649  1.00  0.00    -0.237 OA
ATOM     73  O   UNL A   1      42.907  18.644  27.416  1.00  0.00    -0.237 OA
ATOM     74  O   UNL A   1      40.841  19.863  27.972  1.00  0.00    -0.744 OA
ENDBRANCH  67  71
ENDBRANCH  50  64
BRANCH  51  75
ATOM     75  C   UNL A   1      41.183  31.637  31.773  1.00  0.00     0.023 A 
ATOM     76  C   UNL A   1      40.312  30.822  32.522  1.00  0.00     0.031 A 
ATOM     77  C   UNL A   1      41.165  33.016  32.012  1.00  0.00     0.131 A 
ATOM     78  C   UNL A   1      39.599  31.358  33.601  1.00  0.00     0.055 A 
ATOM     79  C   UNL A   1      40.389  33.561  33.043  1.00  0.00     0.041 A 
ATOM     80  F   UNL A   1      41.988  33.837  31.345  1.00  0.00    -0.206 F 
ATOM     81  C   UNL A   1      39.641  32.725  33.877  1.00  0.00     0.022 A 
BRANCH  78  82
ATOM     82  S   UNL A   1      38.891  30.202  34.810  1.00  0.00     0.124 S 
ATOM     83  O   UNL A   1      38.148  31.094  35.693  1.00  0.00    -0.237 OA
ATOM     84  O   UNL A   1      38.084  29.323  33.966  1.00  0.00    -0.237 OA
ATOM     85  O   UNL A   1      40.063  29.556  35.397  1.00  0.00    -0.744 OA
ENDBRANCH  78  82
ENDBRANCH  51  75
BRANCH  63  86
ATOM     86  C   UNL A   1      45.508  25.878  32.779  1.00  0.00     0.023 A 
ATOM     87  C   UNL A   1      44.836  24.961  33.599  1.00  0.00     0.031 A 
ATOM     88  C   UNL A   1      46.925  25.812  32.847  1.00  0.00     0.131 A 
ATOM     89  C   UNL A   1      45.531  24.091  34.463  1.00  0.00     0.055 A 
ATOM     90  C   UNL A   1      47.617  24.911  33.667  1.00  0.00     0.041 A 
ATOM     91  F   UNL A   1      47.712  26.609  32.112  1.00  0.00    -0.206 F 
ATOM     92  C   UNL A   1      46.919  24.048  34.493  1.00  0.00     0.022 A 
BRANCH  89  93
ATOM     93  S   UNL A   1      44.564  23.039  35.579  1.00  0.00     0.124 S 
ATOM     94  O   UNL A   1      43.194  23.368  35.195  1.00  0.00    -0.237 OA
ATOM     95  O   UNL A   1      45.017  21.700  35.217  1.00  0.00    -0.237 OA
ATOM     96  O   UNL A   1      44.961  23.490  36.912  1.00  0.00    -0.744 OA
ENDBRANCH  89  93
ENDBRANCH  63  86
ENDBRANCH  37  38
ENDBRANCH  29  32
ENDBRANCH  27  28
ENDBRANCH   1  27
TORSDOF 16
ENDMDL
