MODEL 1
REMARK VINA RESULT:     -12.9      0.000      0.000
REMARK SMILES CS(=O)(=O)c1ccc(C2=NN(c3ccc(C(=O)NCCCNC(=O)c4ccc(-c5c6nc(c(-c7cc(S(=O)(=O)[O-])ccc7F)c7ccc([nH]7)c(-c7cc(S(=O)(=O)[O-])ccc7F)c7nc(c(-c8cc(S(=O)(=O)[O-])ccc8F)c8ccc5[nH]8)C=C7)C=C6)cc4)cc3)[C@H](c3ccc(F)cc3)C2)cc1
REMARK SMILES IDX 20 1 19 2 18 3 16 4 17 5 15 7 12 8 13 9 89 10 14 11 88 12
REMARK SMILES IDX 11 13 9 14 10 15 98 16 90 17 8 18 5 19 6 20 100 21 7 22
REMARK SMILES IDX 99 23 2 24 1 25 3 26 4 27 91 28 92 29 97 30 93 31 96 32
REMARK SMILES IDX 94 33 95 34 21 35 22 36 23 37 24 39 25 40 26 41 87 42 27 43
REMARK SMILES IDX 86 44 28 45 29 46 30 47 80 48 31 49 85 50 79 51 81 52 32 53
REMARK SMILES IDX 84 54 78 55 77 56 33 58 65 59 45 60 64 61 46 62 49 63 63 64
REMARK SMILES IDX 82 65 47 66 48 67 62 69 83 70 50 71 34 72 35 73 43 74 36 75
REMARK SMILES IDX 42 76 44 77 41 78 37 79 38 80 39 81 40 82 66 83 67 84 75 85
REMARK SMILES IDX 68 86 74 87 76 88 73 89 69 90 70 91 71 92 72 93 51 94 52 95
REMARK SMILES IDX 60 96 53 97 59 98 61 99 58 100 54 101 55 102 56 103 57 104
REMARK H PARENT 18 6 22 38 81 57 49 68
REMARK Flexibility Score: inf
ROOT
ATOM      1  C   UNL A   1      32.486  33.483  27.289  1.00  0.00     0.042 C 
ENDROOT
BRANCH   1   2
ATOM      2  C   UNL A   1      32.431  31.990  27.607  1.00  0.00     0.118 C 
BRANCH   2   3
ATOM      3  N   UNL A   1      33.743  31.470  27.954  1.00  0.00    -0.352 N 
ATOM      4  C   UNL A   1      34.379  30.305  27.600  1.00  0.00     0.251 C 
ATOM      5  O   UNL A   1      35.552  30.153  27.937  1.00  0.00    -0.269 OA
ATOM      6  H   UNL A   1      34.267  32.054  28.548  1.00  0.00     0.163 HD
BRANCH   4   7
ATOM      7  C   UNL A   1      33.718  29.263  26.771  1.00  0.00     0.039 A 
ATOM      8  C   UNL A   1      32.484  27.172  25.339  1.00  0.00     0.060 A 
ATOM      9  C   UNL A   1      32.116  27.438  26.661  1.00  0.00     0.029 A 
ATOM     10  C   UNL A   1      33.411  28.013  24.723  1.00  0.00     0.029 A 
ATOM     11  C   UNL A   1      32.729  28.474  27.375  1.00  0.00     0.016 A 
ATOM     12  C   UNL A   1      34.007  29.061  25.422  1.00  0.00     0.016 A 
BRANCH   8  13
ATOM     13  N   UNL A   1      31.941  26.125  24.612  1.00  0.00    -0.257 N 
ATOM     14  C   UNL A   1      32.048  24.128  23.905  1.00  0.00     0.071 C 
ATOM     15  N   UNL A   1      32.338  24.871  24.921  1.00  0.00    -0.176 NA
ATOM     16  C   UNL A   1      31.469  24.836  22.713  1.00  0.00     0.091 C 
ATOM     17  C   UNL A   1      31.391  26.276  23.258  1.00  0.00     0.144 C 
BRANCH  14  18
ATOM     18  C   UNL A   1      32.244  22.673  23.941  1.00  0.00    -0.002 A 
ATOM     19  C   UNL A   1      32.540  19.912  23.894  1.00  0.00     0.067 A 
ATOM     20  C   UNL A   1      32.297  20.592  22.701  1.00  0.00     0.021 A 
ATOM     21  C   UNL A   1      32.625  20.605  25.112  1.00  0.00     0.021 A 
ATOM     22  C   UNL A   1      32.137  21.977  22.730  1.00  0.00     0.011 A 
ATOM     23  C   UNL A   1      32.489  21.996  25.135  1.00  0.00     0.011 A 
BRANCH  19  24
ATOM     24  S   UNL A   1      32.730  18.144  23.929  1.00  0.00     0.175 S 
ATOM     25  C   UNL A   1      34.431  17.809  24.295  1.00  0.00     0.163 C 
ATOM     26  O   UNL A   1      32.481  17.674  22.581  1.00  0.00    -0.224 OA
ATOM     27  O   UNL A   1      31.928  17.674  25.045  1.00  0.00    -0.224 OA
ENDBRANCH  19  24
ENDBRANCH  14  18
BRANCH  17  28
ATOM     28  C   UNL A   1      30.025  26.966  23.285  1.00  0.00    -0.023 A 
ATOM     29  C   UNL A   1      29.767  28.237  22.744  1.00  0.00     0.009 A 
ATOM     30  C   UNL A   1      28.937  26.273  23.863  1.00  0.00     0.009 A 
ATOM     31  C   UNL A   1      28.482  28.792  22.784  1.00  0.00     0.039 A 
ATOM     32  C   UNL A   1      27.647  26.811  23.873  1.00  0.00     0.039 A 
ATOM     33  C   UNL A   1      27.433  28.071  23.339  1.00  0.00     0.123 A 
ATOM     34  F   UNL A   1      26.201  28.598  23.355  1.00  0.00    -0.207 F 
ENDBRANCH  17  28
ENDBRANCH   8  13
ENDBRANCH   4   7
ENDBRANCH   2   3
ENDBRANCH   1   2
BRANCH   1  35
ATOM     35  C   UNL A   1      33.580  34.222  28.050  1.00  0.00     0.118 C 
BRANCH  35  36
ATOM     36  N   UNL A   1      33.053  34.929  29.208  1.00  0.00    -0.352 N 
ATOM     37  C   UNL A   1      33.387  34.816  30.535  1.00  0.00     0.251 C 
ATOM     38  H   UNL A   1      32.350  35.589  29.009  1.00  0.00     0.163 HD
ATOM     39  O   UNL A   1      32.654  35.323  31.380  1.00  0.00    -0.269 OA
BRANCH  37  40
ATOM     40  C   UNL A   1      34.603  34.079  30.944  1.00  0.00     0.039 A 
ATOM     41  C   UNL A   1      35.848  34.530  30.498  1.00  0.00     0.014 A 
ATOM     42  C   UNL A   1      34.521  32.931  31.739  1.00  0.00     0.014 A 
ATOM     43  C   UNL A   1      37.010  33.867  30.897  1.00  0.00     0.010 A 
ATOM     44  C   UNL A   1      35.684  32.321  32.201  1.00  0.00     0.010 A 
ATOM     45  C   UNL A   1      36.941  32.780  31.783  1.00  0.00    -0.014 A 
BRANCH  45  46
ATOM     46  C   UNL A   1      38.173  32.113  32.284  1.00  0.00     0.031 A 
ATOM     47  C   UNL A   1      38.824  31.021  31.478  1.00  0.00     0.074 A 
ATOM     48  C   UNL A   1      38.666  32.451  33.492  1.00  0.00     0.049 A 
ATOM     49  N   UNL A   1      39.853  30.271  31.780  1.00  0.00    -0.248 NA
ATOM     50  C   UNL A   1      38.221  30.714  30.172  1.00  0.00     0.031 C 
ATOM     51  C   UNL A   1      38.100  33.471  34.377  1.00  0.00     0.029 A 
ATOM     52  N   UNL A   1      39.748  31.972  34.188  1.00  0.00    -0.354 N 
ATOM     53  C   UNL A   1      40.014  29.397  30.709  1.00  0.00     0.074 A 
ATOM     54  C   UNL A   1      38.936  29.671  29.782  1.00  0.00     0.031 C 
ATOM     55  C   UNL A   1      38.854  33.559  35.485  1.00  0.00     0.029 A 
ATOM     56  C   UNL A   1      39.923  32.568  35.416  1.00  0.00     0.049 A 
ATOM     57  H   UNL A   1      40.342  31.269  33.841  1.00  0.00     0.167 HD
ATOM     58  C   UNL A   1      40.983  28.469  30.509  1.00  0.00     0.034 A 
ATOM     59  C   UNL A   1      40.830  32.333  36.385  1.00  0.00     0.034 A 
ATOM     60  C   UNL A   1      42.051  28.216  31.446  1.00  0.00     0.049 A 
ATOM     61  C   UNL A   1      41.872  31.267  36.158  1.00  0.00     0.074 A 
ATOM     62  C   UNL A   1      43.112  27.334  31.324  1.00  0.00     0.029 A 
ATOM     63  N   UNL A   1      42.191  28.831  32.684  1.00  0.00    -0.354 N 
ATOM     64  N   UNL A   1      42.039  30.481  35.119  1.00  0.00    -0.248 NA
ATOM     65  C   UNL A   1      42.856  31.064  37.230  1.00  0.00     0.031 C 
ATOM     66  C   UNL A   1      43.843  27.358  32.516  1.00  0.00     0.029 A 
ATOM     67  C   UNL A   1      43.297  28.323  33.347  1.00  0.00     0.049 A 
ATOM     68  H   UNL A   1      41.591  29.528  33.038  1.00  0.00     0.167 HD
ATOM     69  C   UNL A   1      43.170  29.718  35.398  1.00  0.00     0.074 A 
ATOM     70  C   UNL A   1      43.649  30.147  36.695  1.00  0.00     0.031 C 
ATOM     71  C   UNL A   1      43.762  28.754  34.647  1.00  0.00     0.034 A 
BRANCH  58  72
ATOM     72  C   UNL A   1      40.911  27.644  29.245  1.00  0.00     0.023 A 
ATOM     73  C   UNL A   1      41.821  27.827  28.189  1.00  0.00     0.031 A 
ATOM     74  C   UNL A   1      39.906  26.675  29.083  1.00  0.00     0.131 A 
ATOM     75  C   UNL A   1      41.662  27.111  26.992  1.00  0.00     0.055 A 
ATOM     76  C   UNL A   1      39.806  25.901  27.924  1.00  0.00     0.041 A 
ATOM     77  F   UNL A   1      38.992  26.468  30.045  1.00  0.00    -0.206 F 
ATOM     78  C   UNL A   1      40.677  26.129  26.862  1.00  0.00     0.022 A 
BRANCH  75  79
ATOM     79  S   UNL A   1      42.661  27.590  25.557  1.00  0.00     0.124 S 
ATOM     80  O   UNL A   1      43.964  27.832  26.173  1.00  0.00    -0.237 OA
ATOM     81  O   UNL A   1      42.568  26.413  24.700  1.00  0.00    -0.237 OA
ATOM     82  O   UNL A   1      41.988  28.786  25.053  1.00  0.00    -0.744 OA
ENDBRANCH  75  79
ENDBRANCH  58  72
BRANCH  59  83
ATOM     83  C   UNL A   1      40.790  33.103  37.662  1.00  0.00     0.023 A 
ATOM     84  C   UNL A   1      39.996  32.679  38.740  1.00  0.00     0.031 A 
ATOM     85  C   UNL A   1      41.514  34.300  37.811  1.00  0.00     0.131 A 
ATOM     86  C   UNL A   1      39.903  33.469  39.895  1.00  0.00     0.055 A 
ATOM     87  C   UNL A   1      41.467  35.051  38.986  1.00  0.00     0.041 A 
ATOM     88  F   UNL A   1      42.291  34.752  36.813  1.00  0.00    -0.206 F 
ATOM     89  C   UNL A   1      40.645  34.644  40.032  1.00  0.00     0.022 A 
BRANCH  86  90
ATOM     90  S   UNL A   1      38.718  32.990  41.182  1.00  0.00     0.124 S 
ATOM     91  O   UNL A   1      38.414  31.614  40.807  1.00  0.00    -0.237 OA
ATOM     92  O   UNL A   1      39.504  33.166  42.398  1.00  0.00    -0.237 OA
ATOM     93  O   UNL A   1      37.623  33.942  41.006  1.00  0.00    -0.744 OA
ENDBRANCH  86  90
ENDBRANCH  59  83
BRANCH  71  94
ATOM     94  C   UNL A   1      45.031  28.139  35.190  1.00  0.00     0.023 A 
ATOM     95  C   UNL A   1      45.018  26.970  35.969  1.00  0.00     0.031 A 
ATOM     96  C   UNL A   1      46.274  28.741  34.924  1.00  0.00     0.131 A 
ATOM     97  C   UNL A   1      46.217  26.473  36.503  1.00  0.00     0.055 A 
ATOM     98  C   UNL A   1      47.469  28.204  35.400  1.00  0.00     0.041 A 
ATOM     99  F   UNL A   1      46.346  29.863  34.188  1.00  0.00    -0.206 F 
ATOM    100  C   UNL A   1      47.445  27.071  36.207  1.00  0.00     0.022 A 
BRANCH  97 101
ATOM    101  S   UNL A   1      46.142  25.092  37.678  1.00  0.00     0.124 S 
ATOM    102  O   UNL A   1      44.703  24.897  37.824  1.00  0.00    -0.237 OA
ATOM    103  O   UNL A   1      46.859  24.038  36.966  1.00  0.00    -0.237 OA
ATOM    104  O   UNL A   1      46.822  25.612  38.863  1.00  0.00    -0.744 OA
ENDBRANCH  97 101
ENDBRANCH  71  94
ENDBRANCH  45  46
ENDBRANCH  37  40
ENDBRANCH  35  36
ENDBRANCH   1  35
TORSDOF 17
ENDMDL
MODEL 2
REMARK VINA RESULT:     -12.9      0.626      7.370
REMARK SMILES CS(=O)(=O)c1ccc(C2=NN(c3ccc(C(=O)NCCCNC(=O)c4ccc(-c5c6nc(c(-c7cc(S(=O)(=O)[O-])ccc7F)c7ccc([nH]7)c(-c7cc(S(=O)(=O)[O-])ccc7F)c7nc(c(-c8cc(S(=O)(=O)[O-])ccc8F)c8ccc5[nH]8)C=C7)C=C6)cc4)cc3)[C@H](c3ccc(F)cc3)C2)cc1
REMARK SMILES IDX 20 1 19 2 18 3 16 4 17 5 15 7 12 8 13 9 89 10 14 11 88 12
REMARK SMILES IDX 11 13 9 14 10 15 98 16 90 17 8 18 5 19 6 20 100 21 7 22
REMARK SMILES IDX 99 23 2 24 1 25 3 26 4 27 91 28 92 29 97 30 93 31 96 32
REMARK SMILES IDX 94 33 95 34 21 35 22 36 23 37 24 39 25 40 26 41 87 42 27 43
REMARK SMILES IDX 86 44 28 45 29 46 30 47 80 48 31 49 85 50 79 51 81 52 32 53
REMARK SMILES IDX 84 54 78 55 77 56 33 58 65 59 45 60 64 61 46 62 49 63 63 64
REMARK SMILES IDX 82 65 47 66 48 67 62 69 83 70 50 71 34 72 35 73 43 74 36 75
REMARK SMILES IDX 42 76 44 77 41 78 37 79 38 80 39 81 40 82 66 83 67 84 75 85
REMARK SMILES IDX 68 86 74 87 76 88 73 89 69 90 70 91 71 92 72 93 51 94 52 95
REMARK SMILES IDX 60 96 53 97 59 98 61 99 58 100 54 101 55 102 56 103 57 104
REMARK H PARENT 18 6 22 38 81 57 49 68
REMARK Flexibility Score: inf
ROOT
ATOM      1  C   UNL A   1      32.660  33.571  27.616  1.00  0.00     0.042 C 
ENDROOT
BRANCH   1   2
ATOM      2  C   UNL A   1      32.693  32.078  27.297  1.00  0.00     0.118 C 
BRANCH   2   3
ATOM      3  N   UNL A   1      33.858  31.433  27.880  1.00  0.00    -0.352 N 
ATOM      4  C   UNL A   1      34.382  30.175  27.703  1.00  0.00     0.251 C 
ATOM      5  O   UNL A   1      35.461  29.912  28.232  1.00  0.00    -0.269 OA
ATOM      6  H   UNL A   1      34.360  31.996  28.512  1.00  0.00     0.163 HD
BRANCH   4   7
ATOM      7  C   UNL A   1      33.721  29.156  26.845  1.00  0.00     0.039 A 
ATOM      8  C   UNL A   1      32.471  27.112  25.361  1.00  0.00     0.060 A 
ATOM      9  C   UNL A   1      32.017  27.435  26.643  1.00  0.00     0.029 A 
ATOM     10  C   UNL A   1      33.497  27.877  24.804  1.00  0.00     0.029 A 
ATOM     11  C   UNL A   1      32.639  28.448  27.383  1.00  0.00     0.016 A 
ATOM     12  C   UNL A   1      34.103  28.902  25.528  1.00  0.00     0.016 A 
BRANCH   8  13
ATOM     13  N   UNL A   1      31.920  26.085  24.613  1.00  0.00    -0.257 N 
ATOM     14  C   UNL A   1      32.015  24.103  23.863  1.00  0.00     0.071 C 
ATOM     15  N   UNL A   1      32.313  24.822  24.894  1.00  0.00    -0.176 NA
ATOM     16  C   UNL A   1      31.434  24.839  22.689  1.00  0.00     0.091 C 
ATOM     17  C   UNL A   1      31.365  26.267  23.266  1.00  0.00     0.144 C 
BRANCH  14  18
ATOM     18  C   UNL A   1      32.204  22.647  23.867  1.00  0.00    -0.002 A 
ATOM     19  C   UNL A   1      32.658  19.908  23.972  1.00  0.00     0.067 A 
ATOM     20  C   UNL A   1      32.937  20.689  25.093  1.00  0.00     0.021 A 
ATOM     21  C   UNL A   1      32.163  20.492  22.795  1.00  0.00     0.021 A 
ATOM     22  C   UNL A   1      32.720  22.065  25.032  1.00  0.00     0.011 A 
ATOM     23  C   UNL A   1      31.922  21.868  22.745  1.00  0.00     0.011 A 
BRANCH  19  24
ATOM     24  S   UNL A   1      32.936  18.152  23.975  1.00  0.00     0.175 S 
ATOM     25  C   UNL A   1      34.639  17.893  24.388  1.00  0.00     0.163 C 
ATOM     26  O   UNL A   1      32.754  17.702  22.609  1.00  0.00    -0.224 OA
ATOM     27  O   UNL A   1      32.124  17.617  25.053  1.00  0.00    -0.224 OA
ENDBRANCH  19  24
ENDBRANCH  14  18
BRANCH  17  28
ATOM     28  C   UNL A   1      30.002  26.962  23.314  1.00  0.00    -0.023 A 
ATOM     29  C   UNL A   1      29.750  28.249  22.808  1.00  0.00     0.009 A 
ATOM     30  C   UNL A   1      28.911  26.259  23.875  1.00  0.00     0.009 A 
ATOM     31  C   UNL A   1      28.467  28.808  22.865  1.00  0.00     0.039 A 
ATOM     32  C   UNL A   1      27.624  26.803  23.902  1.00  0.00     0.039 A 
ATOM     33  C   UNL A   1      27.416  28.078  23.402  1.00  0.00     0.123 A 
ATOM     34  F   UNL A   1      26.186  28.609  23.434  1.00  0.00    -0.207 F 
ENDBRANCH  17  28
ENDBRANCH   8  13
ENDBRANCH   4   7
ENDBRANCH   2   3
ENDBRANCH   1   2
BRANCH   1  35
ATOM     35  C   UNL A   1      33.769  34.009  28.566  1.00  0.00     0.118 C 
BRANCH  35  36
ATOM     36  N   UNL A   1      33.254  34.802  29.672  1.00  0.00    -0.352 N 
ATOM     37  C   UNL A   1      33.581  34.768  31.005  1.00  0.00     0.251 C 
ATOM     38  H   UNL A   1      32.566  35.462  29.428  1.00  0.00     0.163 HD
ATOM     39  O   UNL A   1      32.857  35.346  31.813  1.00  0.00    -0.269 OA
BRANCH  37  40
ATOM     40  C   UNL A   1      34.780  34.034  31.467  1.00  0.00     0.039 A 
ATOM     41  C   UNL A   1      34.614  32.792  32.086  1.00  0.00     0.014 A 
ATOM     42  C   UNL A   1      36.062  34.574  31.320  1.00  0.00     0.014 A 
ATOM     43  C   UNL A   1      35.734  32.070  32.502  1.00  0.00     0.010 A 
ATOM     44  C   UNL A   1      37.179  33.817  31.661  1.00  0.00     0.010 A 
ATOM     45  C   UNL A   1      37.028  32.558  32.259  1.00  0.00    -0.014 A 
BRANCH  45  46
ATOM     46  C   UNL A   1      38.233  31.765  32.621  1.00  0.00     0.031 A 
ATOM     47  C   UNL A   1      38.972  32.050  33.901  1.00  0.00     0.074 A 
ATOM     48  C   UNL A   1      38.693  30.830  31.766  1.00  0.00     0.049 A 
ATOM     49  N   UNL A   1      40.080  31.523  34.352  1.00  0.00    -0.248 NA
ATOM     50  C   UNL A   1      38.401  33.087  34.775  1.00  0.00     0.031 C 
ATOM     51  C   UNL A   1      38.081  30.490  30.480  1.00  0.00     0.029 A 
ATOM     52  N   UNL A   1      39.784  30.001  31.842  1.00  0.00    -0.354 N 
ATOM     53  C   UNL A   1      40.348  32.169  35.555  1.00  0.00     0.074 A 
ATOM     54  C   UNL A   1      39.317  33.171  35.728  1.00  0.00     0.031 C 
ATOM     55  C   UNL A   1      38.788  29.505  29.903  1.00  0.00     0.029 A 
ATOM     56  C   UNL A   1      39.934  29.182  30.747  1.00  0.00     0.049 A 
ATOM     57  H   UNL A   1      40.402  29.993  32.609  1.00  0.00     0.167 HD
ATOM     58  C   UNL A   1      41.346  31.932  36.442  1.00  0.00     0.034 A 
ATOM     59  C   UNL A   1      40.894  28.285  30.445  1.00  0.00     0.034 A 
ATOM     60  C   UNL A   1      42.362  30.925  36.251  1.00  0.00     0.049 A 
ATOM     61  C   UNL A   1      42.018  28.069  31.428  1.00  0.00     0.074 A 
ATOM     62  C   UNL A   1      43.392  30.568  37.105  1.00  0.00     0.029 A 
ATOM     63  N   UNL A   1      42.488  30.121  35.125  1.00  0.00    -0.354 N 
ATOM     64  N   UNL A   1      42.230  28.655  32.583  1.00  0.00    -0.248 NA
ATOM     65  C   UNL A   1      43.026  27.062  31.070  1.00  0.00     0.031 C 
ATOM     66  C   UNL A   1      44.183  29.610  36.464  1.00  0.00     0.029 A 
ATOM     67  C   UNL A   1      43.596  29.297  35.248  1.00  0.00     0.049 A 
ATOM     68  H   UNL A   1      41.878  30.135  34.351  1.00  0.00     0.167 HD
ATOM     69  C   UNL A   1      43.375  28.060  33.107  1.00  0.00     0.074 A 
ATOM     70  C   UNL A   1      43.799  27.062  32.146  1.00  0.00     0.031 C 
ATOM     71  C   UNL A   1      44.015  28.311  34.278  1.00  0.00     0.034 A 
BRANCH  58  72
ATOM     72  C   UNL A   1      41.402  32.799  37.680  1.00  0.00     0.023 A 
ATOM     73  C   UNL A   1      40.812  32.397  38.891  1.00  0.00     0.031 A 
ATOM     74  C   UNL A   1      42.035  34.053  37.644  1.00  0.00     0.131 A 
ATOM     75  C   UNL A   1      40.799  33.270  39.990  1.00  0.00     0.055 A 
ATOM     76  C   UNL A   1      42.097  34.881  38.767  1.00  0.00     0.041 A 
ATOM     77  F   UNL A   1      42.597  34.504  36.511  1.00  0.00    -0.206 F 
ATOM     78  C   UNL A   1      41.462  34.499  39.945  1.00  0.00     0.022 A 
BRANCH  75  79
ATOM     79  S   UNL A   1      39.774  32.843  41.423  1.00  0.00     0.124 S 
ATOM     80  O   UNL A   1      38.767  31.974  40.817  1.00  0.00    -0.237 OA
ATOM     81  O   UNL A   1      40.729  32.191  42.313  1.00  0.00    -0.237 OA
ATOM     82  O   UNL A   1      39.272  34.135  41.884  1.00  0.00    -0.744 OA
ENDBRANCH  75  79
ENDBRANCH  58  72
BRANCH  59  83
ATOM     83  C   UNL A   1      40.850  27.533  29.157  1.00  0.00     0.023 A 
ATOM     84  C   UNL A   1      41.748  27.824  28.117  1.00  0.00     0.031 A 
ATOM     85  C   UNL A   1      39.881  26.539  28.930  1.00  0.00     0.131 A 
ATOM     86  C   UNL A   1      41.626  27.167  26.883  1.00  0.00     0.055 A 
ATOM     87  C   UNL A   1      39.804  25.845  27.721  1.00  0.00     0.041 A 
ATOM     88  F   UNL A   1      38.998  26.218  29.890  1.00  0.00    -0.206 F 
ATOM     89  C   UNL A   1      40.671  26.169  26.683  1.00  0.00     0.022 A 
BRANCH  86  90
ATOM     90  S   UNL A   1      42.674  27.709  25.505  1.00  0.00     0.124 S 
ATOM     91  O   UNL A   1      41.926  28.853  24.996  1.00  0.00    -0.237 OA
ATOM     92  O   UNL A   1      43.930  28.013  26.182  1.00  0.00    -0.237 OA
ATOM     93  O   UNL A   1      42.708  26.543  24.626  1.00  0.00    -0.744 OA
ENDBRANCH  86  90
ENDBRANCH  59  83
BRANCH  71  94
ATOM     94  C   UNL A   1      45.210  27.448  34.609  1.00  0.00     0.023 A 
ATOM     95  C   UNL A   1      45.078  26.211  35.263  1.00  0.00     0.031 A 
ATOM     96  C   UNL A   1      46.505  27.879  34.267  1.00  0.00     0.131 A 
ATOM     97  C   UNL A   1      46.224  25.477  35.606  1.00  0.00     0.055 A 
ATOM     98  C   UNL A   1      47.635  27.112  34.549  1.00  0.00     0.041 A 
ATOM     99  F   UNL A   1      46.692  29.055  33.645  1.00  0.00    -0.206 F 
ATOM    100  C   UNL A   1      47.500  25.909  35.235  1.00  0.00     0.022 A 
BRANCH  97 101
ATOM    101  S   UNL A   1      46.034  23.995  36.636  1.00  0.00     0.124 S 
ATOM    102  O   UNL A   1      46.605  22.957  35.783  1.00  0.00    -0.237 OA
ATOM    103  O   UNL A   1      46.808  24.340  37.825  1.00  0.00    -0.237 OA
ATOM    104  O   UNL A   1      44.590  23.904  36.843  1.00  0.00    -0.744 OA
ENDBRANCH  97 101
ENDBRANCH  71  94
ENDBRANCH  45  46
ENDBRANCH  37  40
ENDBRANCH  35  36
ENDBRANCH   1  35
TORSDOF 17
ENDMDL
MODEL 3
REMARK VINA RESULT:     -12.3      1.821      7.355
REMARK SMILES CS(=O)(=O)c1ccc(C2=NN(c3ccc(C(=O)NCCCNC(=O)c4ccc(-c5c6nc(c(-c7cc(S(=O)(=O)[O-])ccc7F)c7ccc([nH]7)c(-c7cc(S(=O)(=O)[O-])ccc7F)c7nc(c(-c8cc(S(=O)(=O)[O-])ccc8F)c8ccc5[nH]8)C=C7)C=C6)cc4)cc3)[C@H](c3ccc(F)cc3)C2)cc1
REMARK SMILES IDX 20 1 19 2 18 3 16 4 17 5 15 7 12 8 13 9 89 10 14 11 88 12
REMARK SMILES IDX 11 13 9 14 10 15 98 16 90 17 8 18 5 19 6 20 100 21 7 22
REMARK SMILES IDX 99 23 2 24 1 25 3 26 4 27 91 28 92 29 97 30 93 31 96 32
REMARK SMILES IDX 94 33 95 34 21 35 22 36 23 37 24 39 25 40 26 41 87 42 27 43
REMARK SMILES IDX 86 44 28 45 29 46 30 47 80 48 31 49 85 50 79 51 81 52 32 53
REMARK SMILES IDX 84 54 78 55 77 56 33 58 65 59 45 60 64 61 46 62 49 63 63 64
REMARK SMILES IDX 82 65 47 66 48 67 62 69 83 70 50 71 34 72 35 73 43 74 36 75
REMARK SMILES IDX 42 76 44 77 41 78 37 79 38 80 39 81 40 82 66 83 67 84 75 85
REMARK SMILES IDX 68 86 74 87 76 88 73 89 69 90 70 91 71 92 72 93 51 94 52 95
REMARK SMILES IDX 60 96 53 97 59 98 61 99 58 100 54 101 55 102 56 103 57 104
REMARK H PARENT 18 6 22 38 81 57 49 68
REMARK Flexibility Score: inf
ROOT
ATOM      1  C   UNL A   1      32.444  33.353  27.847  1.00  0.00     0.042 C 
ENDROOT
BRANCH   1   2
ATOM      2  C   UNL A   1      33.061  32.196  27.063  1.00  0.00     0.118 C 
BRANCH   2   3
ATOM      3  N   UNL A   1      34.062  31.494  27.847  1.00  0.00    -0.352 N 
ATOM      4  C   UNL A   1      34.474  30.183  27.829  1.00  0.00     0.251 C 
ATOM      5  O   UNL A   1      35.437  29.863  28.523  1.00  0.00    -0.269 OA
ATOM      6  H   UNL A   1      34.528  32.056  28.508  1.00  0.00     0.163 HD
BRANCH   4   7
ATOM      7  C   UNL A   1      33.836  29.166  26.952  1.00  0.00     0.039 A 
ATOM      8  C   UNL A   1      32.623  27.125  25.432  1.00  0.00     0.060 A 
ATOM      9  C   UNL A   1      32.128  27.455  26.698  1.00  0.00     0.029 A 
ATOM     10  C   UNL A   1      33.672  27.882  24.909  1.00  0.00     0.029 A 
ATOM     11  C   UNL A   1      32.731  28.466  27.455  1.00  0.00     0.016 A 
ATOM     12  C   UNL A   1      34.260  28.905  25.649  1.00  0.00     0.016 A 
BRANCH   8  13
ATOM     13  N   UNL A   1      32.091  26.099  24.670  1.00  0.00    -0.257 N 
ATOM     14  C   UNL A   1      32.196  24.113  23.931  1.00  0.00     0.071 C 
ATOM     15  N   UNL A   1      32.463  24.834  24.969  1.00  0.00    -0.176 NA
ATOM     16  C   UNL A   1      31.664  24.849  22.734  1.00  0.00     0.091 C 
ATOM     17  C   UNL A   1      31.586  26.280  23.302  1.00  0.00     0.144 C 
BRANCH  14  18
ATOM     18  C   UNL A   1      32.374  22.656  23.947  1.00  0.00    -0.002 A 
ATOM     19  C   UNL A   1      32.615  19.889  23.877  1.00  0.00     0.067 A 
ATOM     20  C   UNL A   1      32.179  20.565  22.738  1.00  0.00     0.021 A 
ATOM     21  C   UNL A   1      32.922  20.590  25.054  1.00  0.00     0.021 A 
ATOM     22  C   UNL A   1      32.047  21.952  22.781  1.00  0.00     0.011 A 
ATOM     23  C   UNL A   1      32.813  21.984  25.087  1.00  0.00     0.011 A 
BRANCH  19  24
ATOM     24  S   UNL A   1      32.782  18.119  23.897  1.00  0.00     0.175 S 
ATOM     25  C   UNL A   1      34.472  17.759  24.289  1.00  0.00     0.163 C 
ATOM     26  O   UNL A   1      32.552  17.667  22.539  1.00  0.00    -0.224 OA
ATOM     27  O   UNL A   1      31.955  17.648  24.993  1.00  0.00    -0.224 OA
ENDBRANCH  19  24
ENDBRANCH  14  18
BRANCH  17  28
ATOM     28  C   UNL A   1      30.228  26.986  23.299  1.00  0.00    -0.023 A 
ATOM     29  C   UNL A   1      29.991  28.248  22.726  1.00  0.00     0.009 A 
ATOM     30  C   UNL A   1      29.125  26.320  23.881  1.00  0.00     0.009 A 
ATOM     31  C   UNL A   1      28.711  28.818  22.740  1.00  0.00     0.039 A 
ATOM     32  C   UNL A   1      27.842  26.873  23.865  1.00  0.00     0.039 A 
ATOM     33  C   UNL A   1      27.649  28.122  23.299  1.00  0.00     0.123 A 
ATOM     34  F   UNL A   1      26.423  28.664  23.290  1.00  0.00    -0.207 F 
ENDBRANCH  17  28
ENDBRANCH   8  13
ENDBRANCH   4   7
ENDBRANCH   2   3
ENDBRANCH   1   2
BRANCH   1  35
ATOM     35  C   UNL A   1      33.480  34.306  28.429  1.00  0.00     0.118 C 
BRANCH  35  36
ATOM     36  N   UNL A   1      32.910  35.165  29.456  1.00  0.00    -0.352 N 
ATOM     37  C   UNL A   1      33.179  35.225  30.801  1.00  0.00     0.251 C 
ATOM     38  H   UNL A   1      32.228  35.800  29.139  1.00  0.00     0.163 HD
ATOM     39  O   UNL A   1      32.415  35.847  31.536  1.00  0.00    -0.269 OA
BRANCH  37  40
ATOM     40  C   UNL A   1      34.363  34.538  31.363  1.00  0.00     0.039 A 
ATOM     41  C   UNL A   1      34.204  33.266  31.918  1.00  0.00     0.014 A 
ATOM     42  C   UNL A   1      35.620  35.152  31.373  1.00  0.00     0.014 A 
ATOM     43  C   UNL A   1      35.314  32.587  32.426  1.00  0.00     0.010 A 
ATOM     44  C   UNL A   1      36.737  34.442  31.805  1.00  0.00     0.010 A 
ATOM     45  C   UNL A   1      36.596  33.153  32.340  1.00  0.00    -0.014 A 
BRANCH  45  46
ATOM     46  C   UNL A   1      37.800  32.411  32.801  1.00  0.00     0.031 A 
ATOM     47  C   UNL A   1      38.428  32.738  34.129  1.00  0.00     0.074 A 
ATOM     48  C   UNL A   1      38.359  31.487  31.995  1.00  0.00     0.049 A 
ATOM     49  N   UNL A   1      39.519  32.259  34.669  1.00  0.00    -0.248 NA
ATOM     50  C   UNL A   1      37.754  33.760  34.945  1.00  0.00     0.031 C 
ATOM     51  C   UNL A   1      37.859  31.111  30.671  1.00  0.00     0.029 A 
ATOM     52  N   UNL A   1      39.472  30.702  32.163  1.00  0.00    -0.354 N 
ATOM     53  C   UNL A   1      39.670  32.926  35.881  1.00  0.00     0.074 A 
ATOM     54  C   UNL A   1      38.591  33.889  35.963  1.00  0.00     0.031 C 
ATOM     55  C   UNL A   1      38.645  30.149  30.161  1.00  0.00     0.029 A 
ATOM     56  C   UNL A   1      39.736  29.879  31.093  1.00  0.00     0.049 A 
ATOM     57  H   UNL A   1      40.030  30.726  32.974  1.00  0.00     0.167 HD
ATOM     58  C   UNL A   1      40.607  32.737  36.843  1.00  0.00     0.034 A 
ATOM     59  C   UNL A   1      40.749  29.017  30.875  1.00  0.00     0.034 A 
ATOM     60  C   UNL A   1      41.672  31.769  36.742  1.00  0.00     0.049 A 
ATOM     61  C   UNL A   1      41.803  28.856  31.942  1.00  0.00     0.074 A 
ATOM     62  C   UNL A   1      42.647  31.461  37.675  1.00  0.00     0.029 A 
ATOM     63  N   UNL A   1      41.914  30.960  35.638  1.00  0.00    -0.354 N 
ATOM     64  N   UNL A   1      41.905  29.460  33.103  1.00  0.00    -0.248 NA
ATOM     65  C   UNL A   1      42.873  27.885  31.673  1.00  0.00     0.031 C 
ATOM     66  C   UNL A   1      43.521  30.528  37.107  1.00  0.00     0.029 A 
ATOM     67  C   UNL A   1      43.040  30.182  35.854  1.00  0.00     0.049 A 
ATOM     68  H   UNL A   1      41.364  30.942  34.821  1.00  0.00     0.167 HD
ATOM     69  C   UNL A   1      43.029  28.916  33.718  1.00  0.00     0.074 A 
ATOM     70  C   UNL A   1      43.562  27.926  32.805  1.00  0.00     0.031 C 
ATOM     71  C   UNL A   1      43.568  29.203  34.931  1.00  0.00     0.034 A 
BRANCH  58  72
ATOM     72  C   UNL A   1      40.536  33.617  38.070  1.00  0.00     0.023 A 
ATOM     73  C   UNL A   1      41.330  34.770  38.201  1.00  0.00     0.031 A 
ATOM     74  C   UNL A   1      39.677  33.290  39.133  1.00  0.00     0.131 A 
ATOM     75  C   UNL A   1      41.308  35.507  39.396  1.00  0.00     0.055 A 
ATOM     76  C   UNL A   1      39.592  34.077  40.284  1.00  0.00     0.041 A 
ATOM     77  F   UNL A   1      38.908  32.190  39.079  1.00  0.00    -0.206 F 
ATOM     78  C   UNL A   1      40.424  35.184  40.428  1.00  0.00     0.022 A 
BRANCH  75  79
ATOM     79  S   UNL A   1      42.558  36.797  39.641  1.00  0.00     0.124 S 
ATOM     80  O   UNL A   1      42.766  37.269  38.274  1.00  0.00    -0.237 OA
ATOM     81  O   UNL A   1      41.882  37.725  40.542  1.00  0.00    -0.237 OA
ATOM     82  O   UNL A   1      43.689  36.075  40.220  1.00  0.00    -0.744 OA
ENDBRANCH  75  79
ENDBRANCH  58  72
BRANCH  59  83
ATOM     83  C   UNL A   1      40.832  28.252  29.597  1.00  0.00     0.023 A 
ATOM     84  C   UNL A   1      41.767  28.593  28.607  1.00  0.00     0.031 A 
ATOM     85  C   UNL A   1      39.946  27.193  29.327  1.00  0.00     0.131 A 
ATOM     86  C   UNL A   1      41.763  27.918  27.377  1.00  0.00     0.055 A 
ATOM     87  C   UNL A   1      39.987  26.484  28.126  1.00  0.00     0.041 A 
ATOM     88  F   UNL A   1      39.032  26.823  30.239  1.00  0.00    -0.206 F 
ATOM     89  C   UNL A   1      40.890  26.856  27.136  1.00  0.00     0.022 A 
BRANCH  86  90
ATOM     90  S   UNL A   1      42.851  28.516  26.055  1.00  0.00     0.124 S 
ATOM     91  O   UNL A   1      42.021  28.314  24.874  1.00  0.00    -0.237 OA
ATOM     92  O   UNL A   1      43.076  29.902  26.452  1.00  0.00    -0.237 OA
ATOM     93  O   UNL A   1      44.019  27.643  26.156  1.00  0.00    -0.744 OA
ENDBRANCH  86  90
ENDBRANCH  59  83
BRANCH  71  94
ATOM     94  C   UNL A   1      44.767  28.391  35.362  1.00  0.00     0.023 A 
ATOM     95  C   UNL A   1      46.083  28.812  35.105  1.00  0.00     0.031 A 
ATOM     96  C   UNL A   1      44.585  27.170  36.037  1.00  0.00     0.131 A 
ATOM     97  C   UNL A   1      47.163  27.991  35.469  1.00  0.00     0.055 A 
ATOM     98  C   UNL A   1      45.663  26.393  36.458  1.00  0.00     0.041 A 
ATOM     99  F   UNL A   1      43.349  26.716  36.305  1.00  0.00    -0.206 F 
ATOM    100  C   UNL A   1      46.962  26.795  36.161  1.00  0.00     0.022 A 
BRANCH  97 101
ATOM    101  S   UNL A   1      48.832  28.459  34.933  1.00  0.00     0.124 S 
ATOM    102  O   UNL A   1      48.670  28.555  33.486  1.00  0.00    -0.237 OA
ATOM    103  O   UNL A   1      49.043  29.721  35.635  1.00  0.00    -0.237 OA
ATOM    104  O   UNL A   1      49.663  27.349  35.393  1.00  0.00    -0.744 OA
ENDBRANCH  97 101
ENDBRANCH  71  94
ENDBRANCH  45  46
ENDBRANCH  37  40
ENDBRANCH  35  36
ENDBRANCH   1  35
TORSDOF 17
ENDMDL
