MODEL 1
REMARK VINA RESULT:     -12.2      0.000      0.000
REMARK SMILES C[C@H](Nc1ccc(C(=O)NCCCNC(=O)c2ccc(-c3c4nc(c(-c5cc(S(=O)(=O)[O-])ccc5F)c5ccc([nH]5)c(-c5cc(S(=O)(=O)[O-])ccc5F)c5nc(c(-c6cc(S(=O)(=O)[O-])ccc6F)c6ccc3[nH]6)C=C5)C=C4)cc2)c(F)c1F)c1ccccc1Cl
REMARK SMILES IDX 12 1 11 2 10 3 8 4 9 5 7 7 4 8 5 9 82 10 6 11 80 12 83 13
REMARK SMILES IDX 81 14 3 15 2 17 1 18 84 19 85 20 89 21 86 22 88 23 90 24
REMARK SMILES IDX 87 25 13 26 14 27 15 28 16 30 17 31 18 32 79 33 19 34 78 35
REMARK SMILES IDX 20 36 21 37 22 38 72 39 23 40 77 41 71 42 73 43 24 44 76 45
REMARK SMILES IDX 70 46 69 47 25 49 57 50 37 51 56 52 38 53 41 54 55 55 74 56
REMARK SMILES IDX 39 57 40 58 54 60 75 61 42 62 26 63 27 64 35 65 28 66 34 67
REMARK SMILES IDX 36 68 33 69 29 70 30 71 31 72 32 73 58 74 59 75 67 76 60 77
REMARK SMILES IDX 66 78 68 79 65 80 61 81 62 82 63 83 64 84 43 85 44 86 52 87
REMARK SMILES IDX 45 88 51 89 53 90 50 91 46 92 47 93 48 94 49 95
REMARK H PARENT 10 6 3 16 14 29 73 48 41 59
REMARK Flexibility Score: inf
ROOT
ATOM      1  C   UNL A   1      32.956  29.198  25.080  1.00  0.00     0.042 C 
ENDROOT
BRANCH   1   2
ATOM      2  C   UNL A   1      31.524  29.727  25.208  1.00  0.00     0.118 C 
BRANCH   2   3
ATOM      3  N   UNL A   1      30.842  29.743  23.927  1.00  0.00    -0.352 N 
ATOM      4  C   UNL A   1      30.607  28.798  22.966  1.00  0.00     0.254 C 
ATOM      5  O   UNL A   1      29.919  29.159  22.007  1.00  0.00    -0.269 OA
ATOM      6  H   UNL A   1      30.467  30.624  23.701  1.00  0.00     0.163 HD
BRANCH   4   7
ATOM      7  C   UNL A   1      31.073  27.384  22.991  1.00  0.00     0.078 A 
ATOM      8  C   UNL A   1      31.629  24.593  23.012  1.00  0.00     0.074 A 
ATOM      9  C   UNL A   1      30.465  25.074  23.600  1.00  0.00     0.030 A 
ATOM     10  C   UNL A   1      32.510  25.523  22.440  1.00  0.00     0.182 A 
ATOM     11  C   UNL A   1      30.204  26.454  23.609  1.00  0.00     0.019 A 
ATOM     12  C   UNL A   1      32.220  26.883  22.389  1.00  0.00     0.173 A 
ATOM     13  F   UNL A   1      33.621  25.069  21.836  1.00  0.00    -0.201 F 
ATOM     14  F   UNL A   1      33.042  27.637  21.654  1.00  0.00    -0.203 F 
BRANCH   8  15
ATOM     15  N   UNL A   1      31.860  23.224  22.801  1.00  0.00    -0.376 N 
ATOM     16  H   UNL A   1      31.598  22.789  21.958  1.00  0.00     0.161 HD
BRANCH  15  17
ATOM     17  C   UNL A   1      32.513  22.457  23.888  1.00  0.00     0.108 C 
ATOM     18  C   UNL A   1      32.498  20.955  23.533  1.00  0.00     0.036 C 
BRANCH  17  19
ATOM     19  C   UNL A   1      33.960  22.906  24.134  1.00  0.00    -0.007 A 
ATOM     20  C   UNL A   1      35.022  22.526  23.287  1.00  0.00     0.007 A 
ATOM     21  C   UNL A   1      34.298  23.665  25.277  1.00  0.00     0.046 A 
ATOM     22  C   UNL A   1      36.354  22.824  23.599  1.00  0.00     0.000 A 
ATOM     23  C   UNL A   1      35.634  23.940  25.598  1.00  0.00     0.021 A 
ATOM     24  Cl  UNL A   1      33.102  24.324  26.343  1.00  0.00    -0.084 Cl
ATOM     25  C   UNL A   1      36.662  23.509  24.767  1.00  0.00     0.002 A 
ENDBRANCH  17  19
ENDBRANCH  15  17
ENDBRANCH   8  15
ENDBRANCH   4   7
ENDBRANCH   2   3
ENDBRANCH   1   2
BRANCH   1  26
ATOM     26  C   UNL A   1      33.804  29.391  26.338  1.00  0.00     0.118 C 
BRANCH  26  27
ATOM     27  N   UNL A   1      33.695  30.744  26.860  1.00  0.00    -0.352 N 
ATOM     28  C   UNL A   1      34.380  31.380  27.863  1.00  0.00     0.251 C 
ATOM     29  H   UNL A   1      33.013  31.298  26.417  1.00  0.00     0.163 HD
ATOM     30  O   UNL A   1      33.920  32.431  28.303  1.00  0.00    -0.269 OA
BRANCH  28  31
ATOM     31  C   UNL A   1      35.643  30.838  28.415  1.00  0.00     0.039 A 
ATOM     32  C   UNL A   1      36.850  31.340  27.916  1.00  0.00     0.014 A 
ATOM     33  C   UNL A   1      35.663  29.787  29.338  1.00  0.00     0.014 A 
ATOM     34  C   UNL A   1      38.065  30.812  28.357  1.00  0.00     0.010 A 
ATOM     35  C   UNL A   1      36.879  29.306  29.829  1.00  0.00     0.010 A 
ATOM     36  C   UNL A   1      38.093  29.803  29.333  1.00  0.00    -0.014 A 
BRANCH  36  37
ATOM     37  C   UNL A   1      39.391  29.276  29.829  1.00  0.00     0.031 A 
ATOM     38  C   UNL A   1      40.064  29.888  31.029  1.00  0.00     0.074 A 
ATOM     39  C   UNL A   1      39.972  28.248  29.177  1.00  0.00     0.049 A 
ATOM     40  N   UNL A   1      41.179  29.539  31.620  1.00  0.00    -0.248 NA
ATOM     41  C   UNL A   1      39.413  31.063  31.624  1.00  0.00     0.031 C 
ATOM     42  C   UNL A   1      39.444  27.615  27.967  1.00  0.00     0.029 A 
ATOM     43  N   UNL A   1      41.124  27.552  29.440  1.00  0.00    -0.354 N 
ATOM     44  C   UNL A   1      41.370  30.456  32.650  1.00  0.00     0.074 A 
ATOM     45  C   UNL A   1      40.284  31.411  32.560  1.00  0.00     0.031 C 
ATOM     46  C   UNL A   1      40.249  26.602  27.613  1.00  0.00     0.029 A 
ATOM     47  C   UNL A   1      41.365  26.530  28.550  1.00  0.00     0.049 A 
ATOM     48  H   UNL A   1      41.722  27.762  30.193  1.00  0.00     0.167 HD
ATOM     49  C   UNL A   1      42.345  30.486  33.594  1.00  0.00     0.034 A 
ATOM     50  C   UNL A   1      42.368  25.632  28.500  1.00  0.00     0.034 A 
ATOM     51  C   UNL A   1      43.415  29.518  33.669  1.00  0.00     0.049 A 
ATOM     52  C   UNL A   1      43.419  25.662  29.578  1.00  0.00     0.074 A 
ATOM     53  C   UNL A   1      44.428  29.418  34.609  1.00  0.00     0.029 A 
ATOM     54  N   UNL A   1      43.616  28.481  32.765  1.00  0.00    -0.354 N 
ATOM     55  N   UNL A   1      43.548  26.496  30.585  1.00  0.00    -0.248 NA
ATOM     56  C   UNL A   1      44.443  24.612  29.527  1.00  0.00     0.031 C 
ATOM     57  C   UNL A   1      45.271  28.363  34.240  1.00  0.00     0.029 A 
ATOM     58  C   UNL A   1      44.746  27.754  33.111  1.00  0.00     0.049 A 
ATOM     59  H   UNL A   1      43.039  28.290  31.991  1.00  0.00     0.167 HD
ATOM     60  C   UNL A   1      44.657  26.055  31.301  1.00  0.00     0.074 A 
ATOM     61  C   UNL A   1      45.138  24.866  30.625  1.00  0.00     0.031 C 
ATOM     62  C   UNL A   1      45.228  26.583  32.414  1.00  0.00     0.034 A 
BRANCH  49  63
ATOM     63  C   UNL A   1      42.309  31.619  34.596  1.00  0.00     0.023 A 
ATOM     64  C   UNL A   1      41.440  31.600  35.702  1.00  0.00     0.031 A 
ATOM     65  C   UNL A   1      43.131  32.747  34.429  1.00  0.00     0.131 A 
ATOM     66  C   UNL A   1      41.353  32.719  36.547  1.00  0.00     0.055 A 
ATOM     67  C   UNL A   1      43.101  33.821  35.321  1.00  0.00     0.041 A 
ATOM     68  F   UNL A   1      43.969  32.834  33.384  1.00  0.00    -0.206 F 
ATOM     69  C   UNL A   1      42.196  33.819  36.378  1.00  0.00     0.022 A 
BRANCH  66  70
ATOM     70  S   UNL A   1      40.021  32.776  37.777  1.00  0.00     0.124 S 
ATOM     71  O   UNL A   1      39.094  31.775  37.255  1.00  0.00    -0.237 OA
ATOM     72  O   UNL A   1      40.716  32.423  39.011  1.00  0.00    -0.237 OA
ATOM     73  O   UNL A   1      39.544  34.155  37.703  1.00  0.00    -0.744 OA
ENDBRANCH  66  70
ENDBRANCH  49  63
BRANCH  50  74
ATOM     74  C   UNL A   1      42.418  24.621  27.407  1.00  0.00     0.023 A 
ATOM     75  C   UNL A   1      41.612  23.472  27.443  1.00  0.00     0.031 A 
ATOM     76  C   UNL A   1      43.291  24.781  26.316  1.00  0.00     0.131 A 
ATOM     77  C   UNL A   1      41.728  22.504  26.434  1.00  0.00     0.055 A 
ATOM     78  C   UNL A   1      43.366  23.839  25.289  1.00  0.00     0.041 A 
ATOM     79  F   UNL A   1      44.074  25.868  26.227  1.00  0.00    -0.206 F 
ATOM     80  C   UNL A   1      42.591  22.686  25.350  1.00  0.00     0.022 A 
BRANCH  77  81
ATOM     81  S   UNL A   1      40.784  20.963  26.593  1.00  0.00     0.124 S 
ATOM     82  O   UNL A   1      39.480  21.357  26.073  1.00  0.00    -0.237 OA
ATOM     83  O   UNL A   1      41.557  20.048  25.761  1.00  0.00    -0.237 OA
ATOM     84  O   UNL A   1      40.828  20.685  28.027  1.00  0.00    -0.744 OA
ENDBRANCH  77  81
ENDBRANCH  50  74
BRANCH  62  85
ATOM     85  C   UNL A   1      46.420  25.846  32.975  1.00  0.00     0.023 A 
ATOM     86  C   UNL A   1      47.723  26.084  32.503  1.00  0.00     0.031 A 
ATOM     87  C   UNL A   1      46.244  24.855  33.957  1.00  0.00     0.131 A 
ATOM     88  C   UNL A   1      48.787  25.285  32.951  1.00  0.00     0.055 A 
ATOM     89  C   UNL A   1      47.317  24.110  34.450  1.00  0.00     0.041 A 
ATOM     90  F   UNL A   1      45.023  24.584  34.444  1.00  0.00    -0.206 F 
ATOM     91  C   UNL A   1      48.594  24.309  33.931  1.00  0.00     0.022 A 
BRANCH  88  92
ATOM     92  S   UNL A   1      50.398  25.447  32.132  1.00  0.00     0.124 S 
ATOM     93  O   UNL A   1      50.606  24.105  31.601  1.00  0.00    -0.237 OA
ATOM     94  O   UNL A   1      50.141  26.491  31.146  1.00  0.00    -0.237 OA
ATOM     95  O   UNL A   1      51.297  25.829  33.219  1.00  0.00    -0.744 OA
ENDBRANCH  88  92
ENDBRANCH  62  85
ENDBRANCH  36  37
ENDBRANCH  28  31
ENDBRANCH  26  27
ENDBRANCH   1  26
TORSDOF 16
ENDMDL
MODEL 2
REMARK VINA RESULT:     -12.1      1.570      1.900
REMARK SMILES C[C@H](Nc1ccc(C(=O)NCCCNC(=O)c2ccc(-c3c4nc(c(-c5cc(S(=O)(=O)[O-])ccc5F)c5ccc([nH]5)c(-c5cc(S(=O)(=O)[O-])ccc5F)c5nc(c(-c6cc(S(=O)(=O)[O-])ccc6F)c6ccc3[nH]6)C=C5)C=C4)cc2)c(F)c1F)c1ccccc1Cl
REMARK SMILES IDX 12 1 11 2 10 3 8 4 9 5 7 7 4 8 5 9 82 10 6 11 80 12 83 13
REMARK SMILES IDX 81 14 3 15 2 17 1 18 84 19 85 20 89 21 86 22 88 23 90 24
REMARK SMILES IDX 87 25 13 26 14 27 15 28 16 30 17 31 18 32 79 33 19 34 78 35
REMARK SMILES IDX 20 36 21 37 22 38 72 39 23 40 77 41 71 42 73 43 24 44 76 45
REMARK SMILES IDX 70 46 69 47 25 49 57 50 37 51 56 52 38 53 41 54 55 55 74 56
REMARK SMILES IDX 39 57 40 58 54 60 75 61 42 62 26 63 27 64 35 65 28 66 34 67
REMARK SMILES IDX 36 68 33 69 29 70 30 71 31 72 32 73 58 74 59 75 67 76 60 77
REMARK SMILES IDX 66 78 68 79 65 80 61 81 62 82 63 83 64 84 43 85 44 86 52 87
REMARK SMILES IDX 45 88 51 89 53 90 50 91 46 92 47 93 48 94 49 95
REMARK H PARENT 10 6 3 16 14 29 73 48 41 59
REMARK Flexibility Score: inf
ROOT
ATOM      1  C   UNL A   1      32.848  28.379  25.287  1.00  0.00     0.042 C 
ENDROOT
BRANCH   1   2
ATOM      2  C   UNL A   1      33.101  29.013  23.916  1.00  0.00     0.118 C 
BRANCH   2   3
ATOM      3  N   UNL A   1      31.895  29.040  23.107  1.00  0.00    -0.352 N 
ATOM      4  C   UNL A   1      31.125  28.073  22.522  1.00  0.00     0.254 C 
ATOM      5  O   UNL A   1      30.108  28.467  21.943  1.00  0.00    -0.269 OA
ATOM      6  H   UNL A   1      31.561  29.951  22.944  1.00  0.00     0.163 HD
BRANCH   4   7
ATOM      7  C   UNL A   1      31.382  26.607  22.550  1.00  0.00     0.078 A 
ATOM      8  C   UNL A   1      32.212  23.885  22.575  1.00  0.00     0.074 A 
ATOM      9  C   UNL A   1      32.915  24.818  21.823  1.00  0.00     0.030 A 
ATOM     10  C   UNL A   1      31.088  24.327  23.289  1.00  0.00     0.182 A 
ATOM     11  C   UNL A   1      32.490  26.156  21.793  1.00  0.00     0.019 A 
ATOM     12  C   UNL A   1      30.706  25.665  23.314  1.00  0.00     0.173 A 
ATOM     13  F   UNL A   1      30.421  23.443  24.050  1.00  0.00    -0.201 F 
ATOM     14  F   UNL A   1      29.739  25.989  24.177  1.00  0.00    -0.203 F 
BRANCH   8  15
ATOM     15  N   UNL A   1      32.687  22.582  22.801  1.00  0.00    -0.376 N 
ATOM     16  H   UNL A   1      32.710  21.917  22.076  1.00  0.00     0.161 HD
BRANCH  15  17
ATOM     17  C   UNL A   1      33.151  22.243  24.167  1.00  0.00     0.108 C 
ATOM     18  C   UNL A   1      33.160  20.709  24.337  1.00  0.00     0.036 C 
BRANCH  17  19
ATOM     19  C   UNL A   1      34.553  22.794  24.462  1.00  0.00    -0.007 A 
ATOM     20  C   UNL A   1      35.719  22.228  23.907  1.00  0.00     0.007 A 
ATOM     21  C   UNL A   1      34.735  23.858  25.375  1.00  0.00     0.046 A 
ATOM     22  C   UNL A   1      36.997  22.648  24.293  1.00  0.00     0.000 A 
ATOM     23  C   UNL A   1      36.015  24.260  25.777  1.00  0.00     0.021 A 
ATOM     24  Cl  UNL A   1      33.407  24.750  26.041  1.00  0.00    -0.084 Cl
ATOM     25  C   UNL A   1      37.145  23.647  25.246  1.00  0.00     0.002 A 
ENDBRANCH  17  19
ENDBRANCH  15  17
ENDBRANCH   8  15
ENDBRANCH   4   7
ENDBRANCH   2   3
ENDBRANCH   1   2
BRANCH   1  26
ATOM     26  C   UNL A   1      33.904  28.727  26.337  1.00  0.00     0.118 C 
BRANCH  26  27
ATOM     27  N   UNL A   1      33.801  30.113  26.767  1.00  0.00    -0.352 N 
ATOM     28  C   UNL A   1      34.518  30.824  27.694  1.00  0.00     0.251 C 
ATOM     29  H   UNL A   1      33.096  30.629  26.313  1.00  0.00     0.163 HD
ATOM     30  O   UNL A   1      34.064  31.899  28.077  1.00  0.00    -0.269 OA
BRANCH  28  31
ATOM     31  C   UNL A   1      35.808  30.333  28.232  1.00  0.00     0.039 A 
ATOM     32  C   UNL A   1      36.949  30.464  27.432  1.00  0.00     0.014 A 
ATOM     33  C   UNL A   1      35.899  29.664  29.457  1.00  0.00     0.014 A 
ATOM     34  C   UNL A   1      38.173  29.954  27.868  1.00  0.00     0.010 A 
ATOM     35  C   UNL A   1      37.137  29.214  29.922  1.00  0.00     0.010 A 
ATOM     36  C   UNL A   1      38.284  29.342  29.127  1.00  0.00    -0.014 A 
BRANCH  36  37
ATOM     37  C   UNL A   1      39.600  28.840  29.602  1.00  0.00     0.031 A 
ATOM     38  C   UNL A   1      40.309  29.505  30.753  1.00  0.00     0.074 A 
ATOM     39  C   UNL A   1      40.164  27.787  28.977  1.00  0.00     0.049 A 
ATOM     40  N   UNL A   1      41.444  29.184  31.322  1.00  0.00    -0.248 NA
ATOM     41  C   UNL A   1      39.672  30.702  31.318  1.00  0.00     0.031 C 
ATOM     42  C   UNL A   1      39.600  27.102  27.811  1.00  0.00     0.029 A 
ATOM     43  N   UNL A   1      41.327  27.107  29.231  1.00  0.00    -0.354 N 
ATOM     44  C   UNL A   1      41.663  30.146  32.305  1.00  0.00     0.074 A 
ATOM     45  C   UNL A   1      40.571  31.092  32.210  1.00  0.00     0.031 C 
ATOM     46  C   UNL A   1      40.398  26.077  27.475  1.00  0.00     0.029 A 
ATOM     47  C   UNL A   1      41.544  26.049  28.378  1.00  0.00     0.049 A 
ATOM     48  H   UNL A   1      41.948  27.351  29.955  1.00  0.00     0.167 HD
ATOM     49  C   UNL A   1      42.669  30.218  33.215  1.00  0.00     0.034 A 
ATOM     50  C   UNL A   1      42.548  25.152  28.333  1.00  0.00     0.034 A 
ATOM     51  C   UNL A   1      43.744  29.258  33.297  1.00  0.00     0.049 A 
ATOM     52  C   UNL A   1      43.634  25.231  29.375  1.00  0.00     0.074 A 
ATOM     53  C   UNL A   1      44.787  29.201  34.206  1.00  0.00     0.029 A 
ATOM     54  N   UNL A   1      43.920  28.184  32.431  1.00  0.00    -0.354 N 
ATOM     55  N   UNL A   1      43.791  26.107  30.340  1.00  0.00    -0.248 NA
ATOM     56  C   UNL A   1      44.660  24.183  29.334  1.00  0.00     0.031 C 
ATOM     57  C   UNL A   1      45.623  28.133  33.856  1.00  0.00     0.029 A 
ATOM     58  C   UNL A   1      45.065  27.475  32.771  1.00  0.00     0.049 A 
ATOM     59  H   UNL A   1      43.320  27.958  31.685  1.00  0.00     0.167 HD
ATOM     60  C   UNL A   1      44.924  25.701  31.038  1.00  0.00     0.074 A 
ATOM     61  C   UNL A   1      45.389  24.486  30.398  1.00  0.00     0.031 C 
ATOM     62  C   UNL A   1      45.529  26.278  32.109  1.00  0.00     0.034 A 
BRANCH  49  63
ATOM     63  C   UNL A   1      42.660  31.392  34.168  1.00  0.00     0.023 A 
ATOM     64  C   UNL A   1      41.944  31.357  35.380  1.00  0.00     0.031 A 
ATOM     65  C   UNL A   1      43.350  32.576  33.852  1.00  0.00     0.131 A 
ATOM     66  C   UNL A   1      41.867  32.504  36.185  1.00  0.00     0.055 A 
ATOM     67  C   UNL A   1      43.338  33.687  34.698  1.00  0.00     0.041 A 
ATOM     68  F   UNL A   1      44.037  32.680  32.703  1.00  0.00    -0.206 F 
ATOM     69  C   UNL A   1      42.579  33.662  35.865  1.00  0.00     0.022 A 
BRANCH  66  70
ATOM     70  S   UNL A   1      40.703  32.511  37.577  1.00  0.00     0.124 S 
ATOM     71  O   UNL A   1      40.399  33.934  37.700  1.00  0.00    -0.237 OA
ATOM     72  O   UNL A   1      39.621  31.665  37.087  1.00  0.00    -0.237 OA
ATOM     73  O   UNL A   1      41.483  31.951  38.679  1.00  0.00    -0.744 OA
ENDBRANCH  66  70
ENDBRANCH  49  63
BRANCH  50  74
ATOM     74  C   UNL A   1      42.567  24.096  27.283  1.00  0.00     0.023 A 
ATOM     75  C   UNL A   1      41.731  22.972  27.368  1.00  0.00     0.031 A 
ATOM     76  C   UNL A   1      43.442  24.186  26.185  1.00  0.00     0.131 A 
ATOM     77  C   UNL A   1      41.817  21.960  26.399  1.00  0.00     0.055 A 
ATOM     78  C   UNL A   1      43.489  23.201  25.198  1.00  0.00     0.041 A 
ATOM     79  F   UNL A   1      44.254  25.246  26.050  1.00  0.00    -0.206 F 
ATOM     80  C   UNL A   1      42.682  22.073  25.308  1.00  0.00     0.022 A 
BRANCH  77  81
ATOM     81  S   UNL A   1      40.831  20.454  26.624  1.00  0.00     0.124 S 
ATOM     82  O   UNL A   1      40.860  20.292  28.073  1.00  0.00    -0.237 OA
ATOM     83  O   UNL A   1      39.549  20.845  26.048  1.00  0.00    -0.237 OA
ATOM     84  O   UNL A   1      41.571  19.447  25.867  1.00  0.00    -0.744 OA
ENDBRANCH  77  81
ENDBRANCH  50  74
BRANCH  62  85
ATOM     85  C   UNL A   1      46.742  25.569  32.662  1.00  0.00     0.023 A 
ATOM     86  C   UNL A   1      46.634  24.619  33.693  1.00  0.00     0.031 A 
ATOM     87  C   UNL A   1      48.027  25.886  32.188  1.00  0.00     0.131 A 
ATOM     88  C   UNL A   1      47.793  24.082  34.274  1.00  0.00     0.055 A 
ATOM     89  C   UNL A   1      49.174  25.297  32.723  1.00  0.00     0.041 A 
ATOM     90  F   UNL A   1      48.191  26.787  31.206  1.00  0.00    -0.206 F 
ATOM     91  C   UNL A   1      49.062  24.404  33.786  1.00  0.00     0.022 A 
BRANCH  88  92
ATOM     92  S   UNL A   1      47.625  23.063  35.766  1.00  0.00     0.124 S 
ATOM     93  O   UNL A   1      48.189  21.791  35.332  1.00  0.00    -0.237 OA
ATOM     94  O   UNL A   1      48.411  23.811  36.742  1.00  0.00    -0.237 OA
ATOM     95  O   UNL A   1      46.184  23.051  36.011  1.00  0.00    -0.744 OA
ENDBRANCH  88  92
ENDBRANCH  62  85
ENDBRANCH  36  37
ENDBRANCH  28  31
ENDBRANCH  26  27
ENDBRANCH   1  26
TORSDOF 16
ENDMDL
MODEL 3
REMARK VINA RESULT:     -12.1      2.432      2.876
REMARK SMILES C[C@H](Nc1ccc(C(=O)NCCCNC(=O)c2ccc(-c3c4nc(c(-c5cc(S(=O)(=O)[O-])ccc5F)c5ccc([nH]5)c(-c5cc(S(=O)(=O)[O-])ccc5F)c5nc(c(-c6cc(S(=O)(=O)[O-])ccc6F)c6ccc3[nH]6)C=C5)C=C4)cc2)c(F)c1F)c1ccccc1Cl
REMARK SMILES IDX 12 1 11 2 10 3 8 4 9 5 7 7 4 8 5 9 82 10 6 11 80 12 83 13
REMARK SMILES IDX 81 14 3 15 2 17 1 18 84 19 85 20 89 21 86 22 88 23 90 24
REMARK SMILES IDX 87 25 13 26 14 27 15 28 16 30 17 31 18 32 79 33 19 34 78 35
REMARK SMILES IDX 20 36 21 37 22 38 72 39 23 40 77 41 71 42 73 43 24 44 76 45
REMARK SMILES IDX 70 46 69 47 25 49 57 50 37 51 56 52 38 53 41 54 55 55 74 56
REMARK SMILES IDX 39 57 40 58 54 60 75 61 42 62 26 63 27 64 35 65 28 66 34 67
REMARK SMILES IDX 36 68 33 69 29 70 30 71 31 72 32 73 58 74 59 75 67 76 60 77
REMARK SMILES IDX 66 78 68 79 65 80 61 81 62 82 63 83 64 84 43 85 44 86 52 87
REMARK SMILES IDX 45 88 51 89 53 90 50 91 46 92 47 93 48 94 49 95
REMARK H PARENT 10 6 3 16 14 29 73 48 41 59
REMARK Flexibility Score: inf
ROOT
ATOM      1  C   UNL A   1      31.902  28.667  25.909  1.00  0.00     0.042 C 
ENDROOT
BRANCH   1   2
ATOM      2  C   UNL A   1      32.497  29.318  24.656  1.00  0.00     0.118 C 
BRANCH   2   3
ATOM      3  N   UNL A   1      31.533  29.372  23.571  1.00  0.00    -0.352 N 
ATOM      4  C   UNL A   1      31.009  28.438  22.722  1.00  0.00     0.254 C 
ATOM      5  O   UNL A   1      30.142  28.841  21.941  1.00  0.00    -0.269 OA
ATOM      6  H   UNL A   1      31.182  30.278  23.413  1.00  0.00     0.163 HD
BRANCH   4   7
ATOM      7  C   UNL A   1      31.362  26.991  22.679  1.00  0.00     0.078 A 
ATOM      8  C   UNL A   1      32.365  24.329  22.656  1.00  0.00     0.074 A 
ATOM      9  C   UNL A   1      33.148  25.370  22.172  1.00  0.00     0.030 A 
ATOM     10  C   UNL A   1      31.079  24.636  23.125  1.00  0.00     0.182 A 
ATOM     11  C   UNL A   1      32.642  26.680  22.163  1.00  0.00     0.019 A 
ATOM     12  C   UNL A   1      30.603  25.942  23.179  1.00  0.00     0.173 A 
ATOM     13  F   UNL A   1      30.326  23.644  23.630  1.00  0.00    -0.201 F 
ATOM     14  F   UNL A   1      29.445  26.124  23.819  1.00  0.00    -0.203 F 
BRANCH   8  15
ATOM     15  N   UNL A   1      32.873  23.036  22.869  1.00  0.00    -0.376 N 
ATOM     16  H   UNL A   1      33.003  22.412  22.121  1.00  0.00     0.161 HD
BRANCH  15  17
ATOM     17  C   UNL A   1      33.204  22.646  24.260  1.00  0.00     0.108 C 
ATOM     18  C   UNL A   1      32.822  21.166  24.479  1.00  0.00     0.036 C 
BRANCH  17  19
ATOM     19  C   UNL A   1      34.692  22.839  24.583  1.00  0.00    -0.007 A 
ATOM     20  C   UNL A   1      35.668  21.876  24.251  1.00  0.00     0.007 A 
ATOM     21  C   UNL A   1      35.135  23.970  25.304  1.00  0.00     0.046 A 
ATOM     22  C   UNL A   1      36.996  21.998  24.675  1.00  0.00     0.000 A 
ATOM     23  C   UNL A   1      36.460  24.078  25.747  1.00  0.00     0.021 A 
ATOM     24  Cl  UNL A   1      34.094  25.306  25.672  1.00  0.00    -0.084 Cl
ATOM     25  C   UNL A   1      37.387  23.086  25.444  1.00  0.00     0.002 A 
ENDBRANCH  17  19
ENDBRANCH  15  17
ENDBRANCH   8  15
ENDBRANCH   4   7
ENDBRANCH   2   3
ENDBRANCH   1   2
BRANCH   1  26
ATOM     26  C   UNL A   1      31.947  29.556  27.152  1.00  0.00     0.118 C 
BRANCH  26  27
ATOM     27  N   UNL A   1      32.212  30.945  26.812  1.00  0.00    -0.352 N 
ATOM     28  C   UNL A   1      33.179  31.812  27.253  1.00  0.00     0.251 C 
ATOM     29  H   UNL A   1      31.592  31.329  26.151  1.00  0.00     0.163 HD
ATOM     30  O   UNL A   1      33.029  33.010  27.028  1.00  0.00    -0.269 OA
BRANCH  28  31
ATOM     31  C   UNL A   1      34.380  31.342  27.980  1.00  0.00     0.039 A 
ATOM     32  C   UNL A   1      35.343  32.289  28.346  1.00  0.00     0.014 A 
ATOM     33  C   UNL A   1      34.622  29.985  28.222  1.00  0.00     0.014 A 
ATOM     34  C   UNL A   1      36.524  31.884  28.971  1.00  0.00     0.010 A 
ATOM     35  C   UNL A   1      35.772  29.588  28.909  1.00  0.00     0.010 A 
ATOM     36  C   UNL A   1      36.741  30.531  29.278  1.00  0.00    -0.014 A 
BRANCH  36  37
ATOM     37  C   UNL A   1      37.981  30.112  29.983  1.00  0.00     0.031 A 
ATOM     38  C   UNL A   1      38.251  30.554  31.397  1.00  0.00     0.074 A 
ATOM     39  C   UNL A   1      38.876  29.342  29.332  1.00  0.00     0.049 A 
ATOM     40  N   UNL A   1      39.260  30.260  32.178  1.00  0.00    -0.248 NA
ATOM     41  C   UNL A   1      37.272  31.468  32.002  1.00  0.00     0.031 C 
ATOM     42  C   UNL A   1      38.752  28.904  27.940  1.00  0.00     0.029 A 
ATOM     43  N   UNL A   1      40.059  28.787  29.750  1.00  0.00    -0.354 N 
ATOM     44  C   UNL A   1      39.044  30.961  33.362  1.00  0.00     0.074 A 
ATOM     45  C   UNL A   1      37.838  31.740  33.168  1.00  0.00     0.031 C 
ATOM     46  C   UNL A   1      39.795  28.119  27.631  1.00  0.00     0.029 A 
ATOM     47  C   UNL A   1      40.678  28.021  28.789  1.00  0.00     0.049 A 
ATOM     48  H   UNL A   1      40.429  28.922  30.652  1.00  0.00     0.167 HD
ATOM     49  C   UNL A   1      39.771  30.939  34.508  1.00  0.00     0.034 A 
ATOM     50  C   UNL A   1      41.823  27.313  28.837  1.00  0.00     0.034 A 
ATOM     51  C   UNL A   1      40.967  30.147  34.682  1.00  0.00     0.049 A 
ATOM     52  C   UNL A   1      42.594  27.275  30.131  1.00  0.00     0.074 A 
ATOM     53  C   UNL A   1      41.756  30.007  35.812  1.00  0.00     0.029 A 
ATOM     54  N   UNL A   1      41.554  29.364  33.695  1.00  0.00    -0.354 N 
ATOM     55  N   UNL A   1      42.340  27.890  31.263  1.00  0.00    -0.248 NA
ATOM     56  C   UNL A   1      43.789  26.425  30.158  1.00  0.00     0.031 C 
ATOM     57  C   UNL A   1      42.847  29.190  35.491  1.00  0.00     0.029 A 
ATOM     58  C   UNL A   1      42.704  28.758  34.181  1.00  0.00     0.049 A 
ATOM     59  H   UNL A   1      41.204  29.255  32.781  1.00  0.00     0.167 HD
ATOM     60  C   UNL A   1      43.334  27.481  32.146  1.00  0.00     0.074 A 
ATOM     61  C   UNL A   1      44.170  26.545  31.420  1.00  0.00     0.031 C 
ATOM     62  C   UNL A   1      43.541  27.845  33.438  1.00  0.00     0.034 A 
BRANCH  49  63
ATOM     63  C   UNL A   1      39.303  31.819  35.646  1.00  0.00     0.023 A 
ATOM     64  C   UNL A   1      38.622  31.290  36.759  1.00  0.00     0.031 A 
ATOM     65  C   UNL A   1      39.511  33.209  35.606  1.00  0.00     0.131 A 
ATOM     66  C   UNL A   1      38.103  32.151  37.740  1.00  0.00     0.055 A 
ATOM     67  C   UNL A   1      39.065  34.052  36.627  1.00  0.00     0.041 A 
ATOM     68  F   UNL A   1      40.137  33.777  34.564  1.00  0.00    -0.206 F 
ATOM     69  C   UNL A   1      38.342  33.526  37.694  1.00  0.00     0.022 A 
BRANCH  66  70
ATOM     70  S   UNL A   1      36.988  31.464  38.994  1.00  0.00     0.124 S 
ATOM     71  O   UNL A   1      36.778  30.109  38.491  1.00  0.00    -0.237 OA
ATOM     72  O   UNL A   1      37.776  31.579  40.215  1.00  0.00    -0.237 OA
ATOM     73  O   UNL A   1      35.815  32.335  38.924  1.00  0.00    -0.744 OA
ENDBRANCH  66  70
ENDBRANCH  49  63
BRANCH  50  74
ATOM     74  C   UNL A   1      42.300  26.572  27.637  1.00  0.00     0.023 A 
ATOM     75  C   UNL A   1      42.006  25.211  27.459  1.00  0.00     0.031 A 
ATOM     76  C   UNL A   1      43.079  27.212  26.656  1.00  0.00     0.131 A 
ATOM     77  C   UNL A   1      42.525  24.521  26.353  1.00  0.00     0.055 A 
ATOM     78  C   UNL A   1      43.551  26.534  25.531  1.00  0.00     0.041 A 
ATOM     79  F   UNL A   1      43.378  28.516  26.771  1.00  0.00    -0.206 F 
ATOM     80  C   UNL A   1      43.285  25.177  25.381  1.00  0.00     0.022 A 
BRANCH  77  81
ATOM     81  S   UNL A   1      42.251  22.732  26.237  1.00  0.00     0.124 S 
ATOM     82  O   UNL A   1      40.811  22.636  26.442  1.00  0.00    -0.237 OA
ATOM     83  O   UNL A   1      42.728  22.441  24.889  1.00  0.00    -0.237 OA
ATOM     84  O   UNL A   1      43.074  22.191  27.316  1.00  0.00    -0.744 OA
ENDBRANCH  77  81
ENDBRANCH  50  74
BRANCH  62  85
ATOM     85  C   UNL A   1      44.706  27.193  34.145  1.00  0.00     0.023 A 
ATOM     86  C   UNL A   1      44.595  25.920  34.732  1.00  0.00     0.031 A 
ATOM     87  C   UNL A   1      45.928  27.877  34.278  1.00  0.00     0.131 A 
ATOM     88  C   UNL A   1      45.654  25.407  35.495  1.00  0.00     0.055 A 
ATOM     89  C   UNL A   1      47.003  27.331  34.981  1.00  0.00     0.041 A 
ATOM     90  F   UNL A   1      46.091  29.096  33.739  1.00  0.00    -0.206 F 
ATOM     91  C   UNL A   1      46.862  26.098  35.612  1.00  0.00     0.022 A 
BRANCH  88  92
ATOM     92  S   UNL A   1      45.380  23.887  36.448  1.00  0.00     0.124 S 
ATOM     93  O   UNL A   1      46.590  23.125  36.161  1.00  0.00    -0.237 OA
ATOM     94  O   UNL A   1      45.252  24.393  37.810  1.00  0.00    -0.237 OA
ATOM     95  O   UNL A   1      44.152  23.339  35.873  1.00  0.00    -0.744 OA
ENDBRANCH  88  92
ENDBRANCH  62  85
ENDBRANCH  36  37
ENDBRANCH  28  31
ENDBRANCH  26  27
ENDBRANCH   1  26
TORSDOF 16
ENDMDL
