MODEL 1
REMARK VINA RESULT:     -10.7      0.000      0.000
REMARK SMILES CC(C)[C@H](CO)Nc1ccc(C(=O)NCCCNC(=O)c2ccc(-c3c4nc(c(-c5cc(S(=O)(=O)[O-])ccc5F)c5ccc([nH]5)c(-c5cc(S(=O)(=O)[O-])ccc5F)c5nc(c(-c6cc(S(=O)(=O)[O-])ccc6F)c6ccc3[nH]6)C=C5)C=C4)cc2)cc1
REMARK SMILES IDX 15 1 14 2 12 3 13 4 11 6 8 7 9 8 85 9 10 10 84 11 7 12 4 14
REMARK SMILES IDX 2 15 1 16 3 17 5 18 6 19 16 21 17 22 18 23 19 24 20 26 21 27
REMARK SMILES IDX 22 28 83 29 23 30 82 31 24 32 25 33 26 34 76 35 27 36 81 37
REMARK SMILES IDX 75 38 77 39 28 40 80 41 74 42 73 43 29 45 61 46 41 47 60 48
REMARK SMILES IDX 42 49 45 50 59 51 78 52 43 53 44 54 58 56 79 57 46 58 30 59
REMARK SMILES IDX 31 60 39 61 32 62 38 63 40 64 37 65 33 66 34 67 35 68 36 69
REMARK SMILES IDX 62 70 63 71 71 72 64 73 70 74 72 75 69 76 65 77 66 78 67 79
REMARK SMILES IDX 68 80 47 81 48 82 56 83 49 84 55 85 57 86 54 87 50 88 51 89
REMARK SMILES IDX 52 90 53 91
REMARK H PARENT 14 5 7 13 6 20 18 25 77 44 45 55
REMARK Flexibility Score: inf
ROOT
ATOM      1  C   UNL A   1      31.507  29.279  25.054  1.00  0.00     0.118 C 
ENDROOT
BRANCH   1   2
ATOM      2  N   UNL A   1      30.835  29.456  23.778  1.00  0.00    -0.352 N 
ATOM      3  C   UNL A   1      30.597  28.602  22.731  1.00  0.00     0.251 C 
ATOM      4  O   UNL A   1      29.908  29.020  21.800  1.00  0.00    -0.269 OA
ATOM      5  H   UNL A   1      30.483  30.364  23.638  1.00  0.00     0.163 HD
BRANCH   3   6
ATOM      6  C   UNL A   1      31.084  27.193  22.693  1.00  0.00     0.039 A 
ATOM      7  C   UNL A   1      32.104  24.552  22.474  1.00  0.00     0.034 A 
ATOM      8  C   UNL A   1      32.744  25.622  21.844  1.00  0.00     0.026 A 
ATOM      9  C   UNL A   1      30.965  24.833  23.227  1.00  0.00     0.026 A 
ATOM     10  C   UNL A   1      32.234  26.924  21.939  1.00  0.00     0.016 A 
ATOM     11  C   UNL A   1      30.491  26.139  23.381  1.00  0.00     0.016 A 
BRANCH   7  12
ATOM     12  N   UNL A   1      32.572  23.264  22.281  1.00  0.00    -0.380 N 
ATOM     13  H   UNL A   1      32.880  23.001  21.383  1.00  0.00     0.160 HD
BRANCH  12  14
ATOM     14  C   UNL A   1      32.627  22.277  23.362  1.00  0.00     0.107 C 
BRANCH  14  15
ATOM     15  C   UNL A   1      34.048  22.089  23.967  1.00  0.00     0.007 C 
ATOM     16  C   UNL A   1      34.561  23.230  24.850  1.00  0.00     0.009 C 
ATOM     17  C   UNL A   1      34.087  20.776  24.764  1.00  0.00     0.009 C 
ENDBRANCH  14  15
BRANCH  14  18
ATOM     18  C   UNL A   1      32.063  20.931  22.834  1.00  0.00     0.181 C 
BRANCH  18  19
ATOM     19  O   UNL A   1      31.613  21.018  21.482  1.00  0.00    -0.394 OA
ATOM     20  H   UNL A   1      31.895  21.865  21.101  1.00  0.00     0.210 HD
ENDBRANCH  18  19
ENDBRANCH  14  18
ENDBRANCH  12  14
ENDBRANCH   7  12
ENDBRANCH   3   6
ENDBRANCH   1   2
BRANCH   1  21
ATOM     21  C   UNL A   1      33.010  29.067  24.870  1.00  0.00     0.042 C 
BRANCH  21  22
ATOM     22  C   UNL A   1      33.806  29.239  26.161  1.00  0.00     0.118 C 
BRANCH  22  23
ATOM     23  N   UNL A   1      33.722  30.601  26.669  1.00  0.00    -0.352 N 
ATOM     24  C   UNL A   1      34.445  31.221  27.656  1.00  0.00     0.251 C 
ATOM     25  H   UNL A   1      33.041  31.163  26.235  1.00  0.00     0.163 HD
ATOM     26  O   UNL A   1      34.046  32.296  28.097  1.00  0.00    -0.269 OA
BRANCH  24  27
ATOM     27  C   UNL A   1      35.680  30.607  28.196  1.00  0.00     0.039 A 
ATOM     28  C   UNL A   1      36.904  30.921  27.597  1.00  0.00     0.014 A 
ATOM     29  C   UNL A   1      35.635  29.686  29.246  1.00  0.00     0.014 A 
ATOM     30  C   UNL A   1      38.084  30.353  28.083  1.00  0.00     0.010 A 
ATOM     31  C   UNL A   1      36.818  29.173  29.775  1.00  0.00     0.010 A 
ATOM     32  C   UNL A   1      38.055  29.495  29.193  1.00  0.00    -0.014 A 
BRANCH  32  33
ATOM     33  C   UNL A   1      39.304  28.920  29.756  1.00  0.00     0.031 A 
ATOM     34  C   UNL A   1      39.976  29.573  30.933  1.00  0.00     0.074 A 
ATOM     35  C   UNL A   1      39.873  27.857  29.155  1.00  0.00     0.049 A 
ATOM     36  N   UNL A   1      41.110  29.273  31.512  1.00  0.00    -0.248 NA
ATOM     37  C   UNL A   1      39.295  30.740  31.511  1.00  0.00     0.031 C 
ATOM     38  C   UNL A   1      39.342  27.174  27.974  1.00  0.00     0.029 A 
ATOM     39  N   UNL A   1      41.030  27.177  29.441  1.00  0.00    -0.354 N 
ATOM     40  C   UNL A   1      41.293  30.228  32.507  1.00  0.00     0.074 A 
ATOM     41  C   UNL A   1      40.177  31.147  32.411  1.00  0.00     0.031 C 
ATOM     42  C   UNL A   1      40.169  26.169  27.640  1.00  0.00     0.029 A 
ATOM     43  C   UNL A   1      41.306  26.162  28.555  1.00  0.00     0.049 A 
ATOM     44  H   UNL A   1      41.608  27.395  30.207  1.00  0.00     0.167 HD
ATOM     45  C   UNL A   1      42.289  30.319  33.425  1.00  0.00     0.034 A 
ATOM     46  C   UNL A   1      42.364  25.333  28.472  1.00  0.00     0.034 A 
ATOM     47  C   UNL A   1      43.385  29.382  33.509  1.00  0.00     0.049 A 
ATOM     48  C   UNL A   1      43.457  25.444  29.501  1.00  0.00     0.074 A 
ATOM     49  C   UNL A   1      44.400  29.322  34.448  1.00  0.00     0.029 A 
ATOM     50  N   UNL A   1      43.621  28.350  32.607  1.00  0.00    -0.354 N 
ATOM     51  N   UNL A   1      43.578  26.302  30.486  1.00  0.00    -0.248 NA
ATOM     52  C   UNL A   1      44.547  24.463  29.418  1.00  0.00     0.031 C 
ATOM     53  C   UNL A   1      45.286  28.306  34.074  1.00  0.00     0.029 A 
ATOM     54  C   UNL A   1      44.785  27.675  32.946  1.00  0.00     0.049 A 
ATOM     55  H   UNL A   1      43.044  28.128  31.840  1.00  0.00     0.167 HD
ATOM     56  C   UNL A   1      44.750  25.955  31.152  1.00  0.00     0.074 A 
ATOM     57  C   UNL A   1      45.287  24.797  30.465  1.00  0.00     0.031 C 
ATOM     58  C   UNL A   1      45.325  26.536  32.237  1.00  0.00     0.034 A 
BRANCH  45  59
ATOM     59  C   UNL A   1      42.249  31.491  34.379  1.00  0.00     0.023 A 
ATOM     60  C   UNL A   1      41.421  31.497  35.517  1.00  0.00     0.031 A 
ATOM     61  C   UNL A   1      43.012  32.645  34.122  1.00  0.00     0.131 A 
ATOM     62  C   UNL A   1      41.301  32.660  36.293  1.00  0.00     0.055 A 
ATOM     63  C   UNL A   1      42.958  33.767  34.952  1.00  0.00     0.041 A 
ATOM     64  F   UNL A   1      43.809  32.712  33.043  1.00  0.00    -0.206 F 
ATOM     65  C   UNL A   1      42.082  33.787  36.033  1.00  0.00     0.022 A 
BRANCH  62  66
ATOM     66  S   UNL A   1      39.980  32.737  37.534  1.00  0.00     0.124 S 
ATOM     67  O   UNL A   1      39.070  31.695  37.062  1.00  0.00    -0.237 OA
ATOM     68  O   UNL A   1      40.694  32.448  38.772  1.00  0.00    -0.237 OA
ATOM     69  O   UNL A   1      39.470  34.101  37.409  1.00  0.00    -0.744 OA
ENDBRANCH  62  66
ENDBRANCH  45  59
BRANCH  46  70
ATOM     70  C   UNL A   1      42.445  24.341  27.363  1.00  0.00     0.023 A 
ATOM     71  C   UNL A   1      41.865  23.069  27.478  1.00  0.00     0.031 A 
ATOM     72  C   UNL A   1      43.104  24.662  26.162  1.00  0.00     0.131 A 
ATOM     73  C   UNL A   1      41.978  22.153  26.420  1.00  0.00     0.055 A 
ATOM     74  C   UNL A   1      43.177  23.763  25.098  1.00  0.00     0.041 A 
ATOM     75  F   UNL A   1      43.665  25.872  25.999  1.00  0.00    -0.206 F 
ATOM     76  C   UNL A   1      42.618  22.496  25.227  1.00  0.00     0.022 A 
BRANCH  73  77
ATOM     77  S   UNL A   1      41.312  20.480  26.643  1.00  0.00     0.124 S 
ATOM     78  O   UNL A   1      41.788  19.807  25.440  1.00  0.00    -0.237 OA
ATOM     79  O   UNL A   1      41.934  20.070  27.898  1.00  0.00    -0.237 OA
ATOM     80  O   UNL A   1      39.868  20.695  26.710  1.00  0.00    -0.744 OA
ENDBRANCH  73  77
ENDBRANCH  46  70
BRANCH  58  81
ATOM     81  C   UNL A   1      46.591  25.903  32.761  1.00  0.00     0.023 A 
ATOM     82  C   UNL A   1      46.563  24.860  33.704  1.00  0.00     0.031 A 
ATOM     83  C   UNL A   1      47.846  26.358  32.316  1.00  0.00     0.131 A 
ATOM     84  C   UNL A   1      47.765  24.343  34.210  1.00  0.00     0.055 A 
ATOM     85  C   UNL A   1      49.037  25.798  32.778  1.00  0.00     0.041 A 
ATOM     86  F   UNL A   1      47.933  27.354  31.420  1.00  0.00    -0.206 F 
ATOM     87  C   UNL A   1      49.001  24.793  33.741  1.00  0.00     0.022 A 
BRANCH  84  88
ATOM     88  S   UNL A   1      47.693  23.136  35.563  1.00  0.00     0.124 S 
ATOM     89  O   UNL A   1      48.717  22.174  35.166  1.00  0.00    -0.237 OA
ATOM     90  O   UNL A   1      48.004  23.955  36.730  1.00  0.00    -0.237 OA
ATOM     91  O   UNL A   1      46.319  22.638  35.505  1.00  0.00    -0.744 OA
ENDBRANCH  84  88
ENDBRANCH  58  81
ENDBRANCH  32  33
ENDBRANCH  24  27
ENDBRANCH  22  23
ENDBRANCH  21  22
ENDBRANCH   1  21
TORSDOF 18
ENDMDL
MODEL 2
REMARK VINA RESULT:     -10.6      4.210      9.607
REMARK SMILES CC(C)[C@H](CO)Nc1ccc(C(=O)NCCCNC(=O)c2ccc(-c3c4nc(c(-c5cc(S(=O)(=O)[O-])ccc5F)c5ccc([nH]5)c(-c5cc(S(=O)(=O)[O-])ccc5F)c5nc(c(-c6cc(S(=O)(=O)[O-])ccc6F)c6ccc3[nH]6)C=C5)C=C4)cc2)cc1
REMARK SMILES IDX 15 1 14 2 12 3 13 4 11 6 8 7 9 8 85 9 10 10 84 11 7 12 4 14
REMARK SMILES IDX 2 15 1 16 3 17 5 18 6 19 16 21 17 22 18 23 19 24 20 26 21 27
REMARK SMILES IDX 22 28 83 29 23 30 82 31 24 32 25 33 26 34 76 35 27 36 81 37
REMARK SMILES IDX 75 38 77 39 28 40 80 41 74 42 73 43 29 45 61 46 41 47 60 48
REMARK SMILES IDX 42 49 45 50 59 51 78 52 43 53 44 54 58 56 79 57 46 58 30 59
REMARK SMILES IDX 31 60 39 61 32 62 38 63 40 64 37 65 33 66 34 67 35 68 36 69
REMARK SMILES IDX 62 70 63 71 71 72 64 73 70 74 72 75 69 76 65 77 66 78 67 79
REMARK SMILES IDX 68 80 47 81 48 82 56 83 49 84 55 85 57 86 54 87 50 88 51 89
REMARK SMILES IDX 52 90 53 91
REMARK H PARENT 14 5 7 13 6 20 18 25 77 44 45 55
REMARK Flexibility Score: inf
ROOT
ATOM      1  C   UNL A   1      35.088  21.633  24.707  1.00  0.00     0.118 C 
ENDROOT
BRANCH   1   2
ATOM      2  N   UNL A   1      33.939  20.768  24.913  1.00  0.00    -0.352 N 
ATOM      3  C   UNL A   1      32.589  21.012  24.933  1.00  0.00     0.251 C 
ATOM      4  O   UNL A   1      31.836  20.044  25.043  1.00  0.00    -0.269 OA
ATOM      5  H   UNL A   1      34.174  19.825  25.068  1.00  0.00     0.163 HD
BRANCH   3   6
ATOM      6  C   UNL A   1      31.997  22.371  24.778  1.00  0.00     0.039 A 
ATOM      7  C   UNL A   1      30.943  24.968  24.318  1.00  0.00     0.034 A 
ATOM      8  C   UNL A   1      31.345  24.159  23.253  1.00  0.00     0.026 A 
ATOM      9  C   UNL A   1      31.058  24.446  25.606  1.00  0.00     0.026 A 
ATOM     10  C   UNL A   1      31.878  22.882  23.478  1.00  0.00     0.016 A 
ATOM     11  C   UNL A   1      31.526  23.148  25.832  1.00  0.00     0.016 A 
BRANCH   7  12
ATOM     12  N   UNL A   1      30.513  26.260  24.073  1.00  0.00    -0.380 N 
ATOM     13  H   UNL A   1      29.564  26.412  23.860  1.00  0.00     0.160 HD
BRANCH  12  14
ATOM     14  C   UNL A   1      31.417  27.412  24.117  1.00  0.00     0.107 C 
BRANCH  14  15
ATOM     15  C   UNL A   1      31.363  28.200  25.457  1.00  0.00     0.007 C 
ATOM     16  C   UNL A   1      32.403  27.809  26.511  1.00  0.00     0.009 C 
ATOM     17  C   UNL A   1      31.481  29.704  25.163  1.00  0.00     0.009 C 
ENDBRANCH  14  15
BRANCH  14  18
ATOM     18  C   UNL A   1      31.102  28.338  22.912  1.00  0.00     0.181 C 
BRANCH  18  19
ATOM     19  O   UNL A   1      30.755  27.606  21.735  1.00  0.00    -0.394 OA
ATOM     20  H   UNL A   1      31.406  27.784  21.039  1.00  0.00     0.210 HD
ENDBRANCH  18  19
ENDBRANCH  14  18
ENDBRANCH  12  14
ENDBRANCH   7  12
ENDBRANCH   3   6
ENDBRANCH   1   2
BRANCH   1  21
ATOM     21  C   UNL A   1      35.350  22.515  25.929  1.00  0.00     0.042 C 
BRANCH  21  22
ATOM     22  C   UNL A   1      36.685  23.253  25.865  1.00  0.00     0.118 C 
BRANCH  22  23
ATOM     23  N   UNL A   1      37.809  22.353  26.076  1.00  0.00    -0.352 N 
ATOM     24  C   UNL A   1      39.114  22.630  26.393  1.00  0.00     0.251 C 
ATOM     25  H   UNL A   1      37.598  21.397  25.976  1.00  0.00     0.163 HD
ATOM     26  O   UNL A   1      39.954  21.740  26.281  1.00  0.00    -0.269 OA
BRANCH  24  27
ATOM     27  C   UNL A   1      39.516  23.980  26.853  1.00  0.00     0.039 A 
ATOM     28  C   UNL A   1      39.339  24.311  28.200  1.00  0.00     0.014 A 
ATOM     29  C   UNL A   1      40.012  24.933  25.960  1.00  0.00     0.014 A 
ATOM     30  C   UNL A   1      39.705  25.579  28.660  1.00  0.00     0.010 A 
ATOM     31  C   UNL A   1      40.442  26.172  26.432  1.00  0.00     0.010 A 
ATOM     32  C   UNL A   1      40.285  26.511  27.786  1.00  0.00    -0.014 A 
BRANCH  32  33
ATOM     33  C   UNL A   1      40.727  27.846  28.267  1.00  0.00     0.031 A 
ATOM     34  C   UNL A   1      42.193  28.160  28.390  1.00  0.00     0.074 A 
ATOM     35  C   UNL A   1      39.806  28.744  28.666  1.00  0.00     0.049 A 
ATOM     36  N   UNL A   1      42.775  29.231  28.865  1.00  0.00    -0.248 NA
ATOM     37  C   UNL A   1      43.126  27.113  27.949  1.00  0.00     0.031 C 
ATOM     38  C   UNL A   1      38.357  28.531  28.645  1.00  0.00     0.029 A 
ATOM     39  N   UNL A   1      39.948  30.006  29.185  1.00  0.00    -0.354 N 
ATOM     40  C   UNL A   1      44.142  28.978  28.805  1.00  0.00     0.074 A 
ATOM     41  C   UNL A   1      44.294  27.629  28.299  1.00  0.00     0.031 C 
ATOM     42  C   UNL A   1      37.746  29.626  29.124  1.00  0.00     0.029 A 
ATOM     43  C   UNL A   1      38.756  30.601  29.524  1.00  0.00     0.049 A 
ATOM     44  H   UNL A   1      40.822  30.444  29.305  1.00  0.00     0.167 HD
ATOM     45  C   UNL A   1      45.173  29.802  29.127  1.00  0.00     0.034 A 
ATOM     46  C   UNL A   1      38.502  31.787  30.110  1.00  0.00     0.034 A 
ATOM     47  C   UNL A   1      44.995  31.148  29.618  1.00  0.00     0.049 A 
ATOM     48  C   UNL A   1      39.656  32.689  30.456  1.00  0.00     0.074 A 
ATOM     49  C   UNL A   1      45.960  32.101  29.892  1.00  0.00     0.029 A 
ATOM     50  N   UNL A   1      43.769  31.728  29.928  1.00  0.00    -0.354 N 
ATOM     51  N   UNL A   1      40.944  32.470  30.321  1.00  0.00    -0.248 NA
ATOM     52  C   UNL A   1      39.324  34.005  31.016  1.00  0.00     0.031 C 
ATOM     53  C   UNL A   1      45.328  33.225  30.435  1.00  0.00     0.029 A 
ATOM     54  C   UNL A   1      43.958  33.009  30.427  1.00  0.00     0.049 A 
ATOM     55  H   UNL A   1      42.894  31.293  29.809  1.00  0.00     0.167 HD
ATOM     56  C   UNL A   1      41.575  33.629  30.764  1.00  0.00     0.074 A 
ATOM     57  C   UNL A   1      40.524  34.549  31.152  1.00  0.00     0.031 C 
ATOM     58  C   UNL A   1      42.902  33.908  30.836  1.00  0.00     0.034 A 
BRANCH  45  59
ATOM     59  C   UNL A   1      46.573  29.247  28.989  1.00  0.00     0.023 A 
ATOM     60  C   UNL A   1      47.238  29.205  27.750  1.00  0.00     0.031 A 
ATOM     61  C   UNL A   1      47.237  28.705  30.105  1.00  0.00     0.131 A 
ATOM     62  C   UNL A   1      48.473  28.548  27.638  1.00  0.00     0.055 A 
ATOM     63  C   UNL A   1      48.508  28.135  30.004  1.00  0.00     0.041 A 
ATOM     64  F   UNL A   1      46.651  28.698  31.313  1.00  0.00    -0.206 F 
ATOM     65  C   UNL A   1      49.125  28.035  28.761  1.00  0.00     0.022 A 
BRANCH  62  66
ATOM     66  S   UNL A   1      49.127  28.218  25.978  1.00  0.00     0.124 S 
ATOM     67  O   UNL A   1      50.102  29.296  25.825  1.00  0.00    -0.237 OA
ATOM     68  O   UNL A   1      49.677  26.875  26.117  1.00  0.00    -0.237 OA
ATOM     69  O   UNL A   1      47.950  28.327  25.118  1.00  0.00    -0.744 OA
ENDBRANCH  62  66
ENDBRANCH  45  59
BRANCH  46  70
ATOM     70  C   UNL A   1      37.098  32.175  30.422  1.00  0.00     0.023 A 
ATOM     71  C   UNL A   1      36.255  32.715  29.441  1.00  0.00     0.031 A 
ATOM     72  C   UNL A   1      36.578  32.001  31.719  1.00  0.00     0.131 A 
ATOM     73  C   UNL A   1      34.943  33.088  29.776  1.00  0.00     0.055 A 
ATOM     74  C   UNL A   1      35.262  32.333  32.036  1.00  0.00     0.041 A 
ATOM     75  F   UNL A   1      37.343  31.476  32.691  1.00  0.00    -0.206 F 
ATOM     76  C   UNL A   1      34.438  32.888  31.062  1.00  0.00     0.022 A 
BRANCH  73  77
ATOM     77  S   UNL A   1      33.915  33.884  28.511  1.00  0.00     0.124 S 
ATOM     78  O   UNL A   1      34.872  34.775  27.866  1.00  0.00    -0.237 OA
ATOM     79  O   UNL A   1      33.467  32.741  27.721  1.00  0.00    -0.237 OA
ATOM     80  O   UNL A   1      32.869  34.545  29.290  1.00  0.00    -0.744 OA
ENDBRANCH  73  77
ENDBRANCH  46  70
BRANCH  58  81
ATOM     81  C   UNL A   1      43.286  35.283  31.330  1.00  0.00     0.023 A 
ATOM     82  C   UNL A   1      43.341  35.589  32.701  1.00  0.00     0.031 A 
ATOM     83  C   UNL A   1      43.591  36.304  30.411  1.00  0.00     0.131 A 
ATOM     84  C   UNL A   1      43.642  36.896  33.113  1.00  0.00     0.055 A 
ATOM     85  C   UNL A   1      43.949  37.586  30.829  1.00  0.00     0.041 A 
ATOM     86  F   UNL A   1      43.550  36.069  29.090  1.00  0.00    -0.206 F 
ATOM     87  C   UNL A   1      43.963  37.892  32.187  1.00  0.00     0.022 A 
BRANCH  84  88
ATOM     88  S   UNL A   1      43.517  37.304  34.876  1.00  0.00     0.124 S 
ATOM     89  O   UNL A   1      42.099  37.079  35.140  1.00  0.00    -0.237 OA
ATOM     90  O   UNL A   1      44.439  36.350  35.484  1.00  0.00    -0.237 OA
ATOM     91  O   UNL A   1      43.944  38.701  34.936  1.00  0.00    -0.744 OA
ENDBRANCH  84  88
ENDBRANCH  58  81
ENDBRANCH  32  33
ENDBRANCH  24  27
ENDBRANCH  22  23
ENDBRANCH  21  22
ENDBRANCH   1  21
TORSDOF 18
ENDMDL
MODEL 3
REMARK VINA RESULT:     -10.6      1.414      1.734
REMARK SMILES CC(C)[C@H](CO)Nc1ccc(C(=O)NCCCNC(=O)c2ccc(-c3c4nc(c(-c5cc(S(=O)(=O)[O-])ccc5F)c5ccc([nH]5)c(-c5cc(S(=O)(=O)[O-])ccc5F)c5nc(c(-c6cc(S(=O)(=O)[O-])ccc6F)c6ccc3[nH]6)C=C5)C=C4)cc2)cc1
REMARK SMILES IDX 15 1 14 2 12 3 13 4 11 6 8 7 9 8 85 9 10 10 84 11 7 12 4 14
REMARK SMILES IDX 2 15 1 16 3 17 5 18 6 19 16 21 17 22 18 23 19 24 20 26 21 27
REMARK SMILES IDX 22 28 83 29 23 30 82 31 24 32 25 33 26 34 76 35 27 36 81 37
REMARK SMILES IDX 75 38 77 39 28 40 80 41 74 42 73 43 29 45 61 46 41 47 60 48
REMARK SMILES IDX 42 49 45 50 59 51 78 52 43 53 44 54 58 56 79 57 46 58 30 59
REMARK SMILES IDX 31 60 39 61 32 62 38 63 40 64 37 65 33 66 34 67 35 68 36 69
REMARK SMILES IDX 62 70 63 71 71 72 64 73 70 74 72 75 69 76 65 77 66 78 67 79
REMARK SMILES IDX 68 80 47 81 48 82 56 83 49 84 55 85 57 86 54 87 50 88 51 89
REMARK SMILES IDX 52 90 53 91
REMARK H PARENT 14 5 7 13 6 20 18 25 77 44 45 55
REMARK Flexibility Score: inf
ROOT
ATOM      1  C   UNL A   1      31.709  29.251  25.271  1.00  0.00     0.118 C 
ENDROOT
BRANCH   1   2
ATOM      2  N   UNL A   1      31.084  29.593  24.005  1.00  0.00    -0.352 N 
ATOM      3  C   UNL A   1      30.931  28.899  22.831  1.00  0.00     0.251 C 
ATOM      4  O   UNL A   1      30.263  29.425  21.941  1.00  0.00    -0.269 OA
ATOM      5  H   UNL A   1      30.695  30.497  23.985  1.00  0.00     0.163 HD
BRANCH   3   6
ATOM      6  C   UNL A   1      31.485  27.533  22.606  1.00  0.00     0.039 A 
ATOM      7  C   UNL A   1      32.415  24.868  22.289  1.00  0.00     0.034 A 
ATOM      8  C   UNL A   1      31.125  25.126  22.760  1.00  0.00     0.026 A 
ATOM      9  C   UNL A   1      33.215  25.963  21.962  1.00  0.00     0.026 A 
ATOM     10  C   UNL A   1      30.669  26.440  22.931  1.00  0.00     0.016 A 
ATOM     11  C   UNL A   1      32.741  27.274  22.066  1.00  0.00     0.016 A 
BRANCH   7  12
ATOM     12  N   UNL A   1      32.873  23.564  22.225  1.00  0.00    -0.380 N 
ATOM     13  H   UNL A   1      33.070  23.174  21.343  1.00  0.00     0.160 HD
BRANCH  12  14
ATOM     14  C   UNL A   1      33.075  22.741  23.421  1.00  0.00     0.107 C 
BRANCH  14  15
ATOM     15  C   UNL A   1      34.568  22.593  23.833  1.00  0.00     0.007 C 
ATOM     16  C   UNL A   1      35.171  23.761  24.617  1.00  0.00     0.009 C 
ATOM     17  C   UNL A   1      34.740  21.298  24.642  1.00  0.00     0.009 C 
ENDBRANCH  14  15
BRANCH  14  18
ATOM     18  C   UNL A   1      32.420  21.355  23.186  1.00  0.00     0.181 C 
BRANCH  18  19
ATOM     19  O   UNL A   1      31.794  21.254  21.906  1.00  0.00    -0.394 OA
ATOM     20  H   UNL A   1      31.430  22.117  21.655  1.00  0.00     0.210 HD
ENDBRANCH  18  19
ENDBRANCH  14  18
ENDBRANCH  12  14
ENDBRANCH   7  12
ENDBRANCH   3   6
ENDBRANCH   1   2
BRANCH   1  21
ATOM     21  C   UNL A   1      33.235  29.266  25.163  1.00  0.00     0.042 C 
BRANCH  21  22
ATOM     22  C   UNL A   1      33.933  29.461  26.507  1.00  0.00     0.118 C 
BRANCH  22  23
ATOM     23  N   UNL A   1      33.828  30.835  26.974  1.00  0.00    -0.352 N 
ATOM     24  C   UNL A   1      34.550  31.499  27.933  1.00  0.00     0.251 C 
ATOM     25  H   UNL A   1      33.133  31.372  26.531  1.00  0.00     0.163 HD
ATOM     26  O   UNL A   1      34.136  32.579  28.346  1.00  0.00    -0.269 OA
BRANCH  24  27
ATOM     27  C   UNL A   1      35.802  30.923  28.478  1.00  0.00     0.039 A 
ATOM     28  C   UNL A   1      35.714  29.927  29.455  1.00  0.00     0.014 A 
ATOM     29  C   UNL A   1      37.054  31.394  28.075  1.00  0.00     0.014 A 
ATOM     30  C   UNL A   1      36.878  29.369  29.989  1.00  0.00     0.010 A 
ATOM     31  C   UNL A   1      38.214  30.790  28.557  1.00  0.00     0.010 A 
ATOM     32  C   UNL A   1      38.138  29.777  29.526  1.00  0.00    -0.014 A 
BRANCH  32  33
ATOM     33  C   UNL A   1      39.386  29.160  30.045  1.00  0.00     0.031 A 
ATOM     34  C   UNL A   1      40.102  29.771  31.219  1.00  0.00     0.074 A 
ATOM     35  C   UNL A   1      39.914  28.096  29.409  1.00  0.00     0.049 A 
ATOM     36  N   UNL A   1      41.242  29.431  31.764  1.00  0.00    -0.248 NA
ATOM     37  C   UNL A   1      39.463  30.941  31.838  1.00  0.00     0.031 C 
ATOM     38  C   UNL A   1      39.339  27.452  28.226  1.00  0.00     0.029 A 
ATOM     39  N   UNL A   1      41.060  27.382  29.652  1.00  0.00    -0.354 N 
ATOM     40  C   UNL A   1      41.471  30.360  32.775  1.00  0.00     0.074 A 
ATOM     41  C   UNL A   1      40.376  31.307  32.725  1.00  0.00     0.031 C 
ATOM     42  C   UNL A   1      40.132  26.436  27.851  1.00  0.00     0.029 A 
ATOM     43  C   UNL A   1      41.290  26.381  28.738  1.00  0.00     0.049 A 
ATOM     44  H   UNL A   1      41.661  27.570  30.408  1.00  0.00     0.167 HD
ATOM     45  C   UNL A   1      42.491  30.406  33.670  1.00  0.00     0.034 A 
ATOM     46  C   UNL A   1      42.325  25.528  28.612  1.00  0.00     0.034 A 
ATOM     47  C   UNL A   1      43.565  29.441  33.707  1.00  0.00     0.049 A 
ATOM     48  C   UNL A   1      43.445  25.590  29.617  1.00  0.00     0.074 A 
ATOM     49  C   UNL A   1      44.600  29.336  34.619  1.00  0.00     0.029 A 
ATOM     50  N   UNL A   1      43.754  28.423  32.778  1.00  0.00    -0.354 N 
ATOM     51  N   UNL A   1      43.610  26.424  30.616  1.00  0.00    -0.248 NA
ATOM     52  C   UNL A   1      44.507  24.586  29.486  1.00  0.00     0.031 C 
ATOM     53  C   UNL A   1      45.452  28.308  34.203  1.00  0.00     0.029 A 
ATOM     54  C   UNL A   1      44.908  27.713  33.075  1.00  0.00     0.049 A 
ATOM     55  H   UNL A   1      43.154  28.233  32.021  1.00  0.00     0.167 HD
ATOM     56  C   UNL A   1      44.788  26.034  31.246  1.00  0.00     0.074 A 
ATOM     57  C   UNL A   1      45.280  24.879  30.522  1.00  0.00     0.031 C 
ATOM     58  C   UNL A   1      45.403  26.577  32.328  1.00  0.00     0.034 A 
BRANCH  45  59
ATOM     59  C   UNL A   1      42.502  31.558  34.649  1.00  0.00     0.023 A 
ATOM     60  C   UNL A   1      41.693  31.565  35.800  1.00  0.00     0.031 A 
ATOM     61  C   UNL A   1      43.298  32.693  34.405  1.00  0.00     0.131 A 
ATOM     62  C   UNL A   1      41.621  32.714  36.602  1.00  0.00     0.055 A 
ATOM     63  C   UNL A   1      43.292  33.797  35.259  1.00  0.00     0.041 A 
ATOM     64  F   UNL A   1      44.080  32.758  33.315  1.00  0.00    -0.206 F 
ATOM     65  C   UNL A   1      42.434  33.821  36.354  1.00  0.00     0.022 A 
BRANCH  62  66
ATOM     66  S   UNL A   1      40.322  32.805  37.866  1.00  0.00     0.124 S 
ATOM     67  O   UNL A   1      39.306  31.914  37.310  1.00  0.00    -0.237 OA
ATOM     68  O   UNL A   1      41.010  32.326  39.059  1.00  0.00    -0.237 OA
ATOM     69  O   UNL A   1      39.956  34.221  37.880  1.00  0.00    -0.744 OA
ENDBRANCH  62  66
ENDBRANCH  45  59
BRANCH  46  70
ATOM     70  C   UNL A   1      42.354  24.559  27.481  1.00  0.00     0.023 A 
ATOM     71  C   UNL A   1      41.602  23.376  27.513  1.00  0.00     0.031 A 
ATOM     72  C   UNL A   1      43.140  24.813  26.341  1.00  0.00     0.131 A 
ATOM     73  C   UNL A   1      41.670  22.476  26.438  1.00  0.00     0.055 A 
ATOM     74  C   UNL A   1      43.171  23.936  25.257  1.00  0.00     0.041 A 
ATOM     75  F   UNL A   1      43.869  25.938  26.257  1.00  0.00    -0.206 F 
ATOM     76  C   UNL A   1      42.438  22.754  25.306  1.00  0.00     0.022 A 
BRANCH  73  77
ATOM     77  S   UNL A   1      40.770  20.905  26.559  1.00  0.00     0.124 S 
ATOM     78  O   UNL A   1      41.585  20.030  25.725  1.00  0.00    -0.237 OA
ATOM     79  O   UNL A   1      40.808  20.644  27.995  1.00  0.00    -0.237 OA
ATOM     80  O   UNL A   1      39.448  21.229  26.023  1.00  0.00    -0.744 OA
ENDBRANCH  73  77
ENDBRANCH  46  70
BRANCH  58  81
ATOM     81  C   UNL A   1      46.665  25.902  32.809  1.00  0.00     0.023 A 
ATOM     82  C   UNL A   1      47.912  26.146  32.206  1.00  0.00     0.031 A 
ATOM     83  C   UNL A   1      46.616  24.992  33.882  1.00  0.00     0.131 A 
ATOM     84  C   UNL A   1      49.048  25.449  32.645  1.00  0.00     0.055 A 
ATOM     85  C   UNL A   1      47.760  24.348  34.353  1.00  0.00     0.041 A 
ATOM     86  F   UNL A   1      45.452  24.718  34.492  1.00  0.00    -0.206 F 
ATOM     87  C   UNL A   1      48.983  24.565  33.725  1.00  0.00     0.022 A 
BRANCH  84  88
ATOM     88  S   UNL A   1      50.599  25.642  31.723  1.00  0.00     0.124 S 
ATOM     89  O   UNL A   1      50.637  24.416  30.932  1.00  0.00    -0.237 OA
ATOM     90  O   UNL A   1      50.367  26.876  30.978  1.00  0.00    -0.237 OA
ATOM     91  O   UNL A   1      51.612  25.735  32.773  1.00  0.00    -0.744 OA
ENDBRANCH  84  88
ENDBRANCH  58  81
ENDBRANCH  32  33
ENDBRANCH  24  27
ENDBRANCH  22  23
ENDBRANCH  21  22
ENDBRANCH   1  21
TORSDOF 18
ENDMDL
