MODEL 1
REMARK VINA RESULT:     -12.9      0.000      0.000
REMARK SMILES O=C(NCCCNC(=O)[C@@H]1C=C[C@@H](NC(=O)c2ccc3ncccc3c2)C1)c1ccc(-c2c3nc(c(-c4cc(S(=O)(=O)[O-])ccc4F)c4ccc([nH]4)c(-c4cc(S(=O)(=O)[O-])ccc4F)c4nc(c(-c5cc(S(=O)(=O)[O-])ccc5F)c5ccc2[nH]5)C=C4)C=C3)cc1
REMARK SMILES IDX 4 1 3 2 1 3 2 4 28 6 29 7 90 8 30 9 89 10 31 11 32 12 33 13
REMARK SMILES IDX 83 14 34 15 88 16 82 17 84 18 35 19 87 20 81 21 80 22 36 24
REMARK SMILES IDX 68 25 48 26 67 27 49 28 52 29 66 30 85 31 50 32 51 33 65 35
REMARK SMILES IDX 86 36 53 37 37 38 38 39 46 40 39 41 45 42 47 43 44 44 40 45
REMARK SMILES IDX 41 46 42 47 43 48 69 49 70 50 78 51 71 52 77 53 79 54 76 55
REMARK SMILES IDX 72 56 73 57 74 58 75 59 54 60 55 61 63 62 56 63 62 64 64 65
REMARK SMILES IDX 61 66 57 67 58 68 59 69 60 70 5 71 6 72 7 73 8 74 9 76 10 77
REMARK SMILES IDX 11 78 27 79 12 80 13 81 14 82 15 83 16 85 17 86 18 87 26 88
REMARK SMILES IDX 19 89 25 90 20 91 24 92 21 93 23 94 22 95
REMARK H PARENT 3 5 84 23 52 34 7 75 14 84
REMARK Flexibility Score: inf
ROOT
ATOM      1  C   UNL A   1      32.762  32.496  27.088  1.00  0.00     0.118 C 
ENDROOT
BRANCH   1   2
ATOM      2  N   UNL A   1      32.610  33.852  27.603  1.00  0.00    -0.352 N 
ATOM      3  O   UNL A   1      32.833  35.566  29.043  1.00  0.00    -0.269 OA
ATOM      4  C   UNL A   1      33.245  34.477  28.648  1.00  0.00     0.251 C 
ATOM      5  H   UNL A   1      31.949  34.405  27.127  1.00  0.00     0.163 HD
BRANCH   4   6
ATOM      6  C   UNL A   1      34.407  33.838  29.304  1.00  0.00     0.039 A 
ATOM      7  C   UNL A   1      34.221  32.821  30.240  1.00  0.00     0.014 A 
ATOM      8  C   UNL A   1      35.701  34.243  28.963  1.00  0.00     0.014 A 
ATOM      9  C   UNL A   1      35.304  32.331  30.956  1.00  0.00     0.010 A 
ATOM     10  C   UNL A   1      36.803  33.664  29.604  1.00  0.00     0.010 A 
ATOM     11  C   UNL A   1      36.611  32.722  30.625  1.00  0.00    -0.014 A 
BRANCH  11  12
ATOM     12  C   UNL A   1      37.750  32.054  31.305  1.00  0.00     0.031 A 
ATOM     13  C   UNL A   1      38.537  30.967  30.629  1.00  0.00     0.074 A 
ATOM     14  C   UNL A   1      38.088  32.477  32.541  1.00  0.00     0.049 A 
ATOM     15  N   UNL A   1      39.565  30.295  31.083  1.00  0.00    -0.248 NA
ATOM     16  C   UNL A   1      38.116  30.576  29.276  1.00  0.00     0.031 C 
ATOM     17  C   UNL A   1      37.386  33.524  33.292  1.00  0.00     0.029 A 
ATOM     18  N   UNL A   1      39.108  32.105  33.377  1.00  0.00    -0.354 N 
ATOM     19  C   UNL A   1      39.903  29.389  30.083  1.00  0.00     0.074 A 
ATOM     20  C   UNL A   1      38.955  29.583  29.006  1.00  0.00     0.031 C 
ATOM     21  C   UNL A   1      38.025  33.743  34.448  1.00  0.00     0.029 A 
ATOM     22  C   UNL A   1      39.129  32.802  34.564  1.00  0.00     0.049 A 
ATOM     23  H   UNL A   1      39.764  31.406  33.150  1.00  0.00     0.167 HD
ATOM     24  C   UNL A   1      40.914  28.484  30.071  1.00  0.00     0.034 A 
ATOM     25  C   UNL A   1      39.927  32.677  35.641  1.00  0.00     0.034 A 
ATOM     26  C   UNL A   1      41.855  28.316  31.153  1.00  0.00     0.049 A 
ATOM     27  C   UNL A   1      41.016  31.640  35.609  1.00  0.00     0.074 A 
ATOM     28  C   UNL A   1      42.941  27.460  31.224  1.00  0.00     0.029 A 
ATOM     29  N   UNL A   1      41.819  29.007  32.358  1.00  0.00    -0.354 N 
ATOM     30  N   UNL A   1      41.335  30.809  34.643  1.00  0.00    -0.248 NA
ATOM     31  C   UNL A   1      41.852  31.523  36.809  1.00  0.00     0.031 C 
ATOM     32  C   UNL A   1      43.518  27.584  32.493  1.00  0.00     0.029 A 
ATOM     33  C   UNL A   1      42.841  28.572  33.189  1.00  0.00     0.049 A 
ATOM     34  H   UNL A   1      41.165  29.706  32.588  1.00  0.00     0.167 HD
ATOM     35  C   UNL A   1      42.422  30.083  35.115  1.00  0.00     0.074 A 
ATOM     36  C   UNL A   1      42.720  30.593  36.438  1.00  0.00     0.031 C 
ATOM     37  C   UNL A   1      43.112  29.081  34.513  1.00  0.00     0.034 A 
BRANCH  24  38
ATOM     38  C   UNL A   1      41.030  27.572  28.874  1.00  0.00     0.023 A 
ATOM     39  C   UNL A   1      42.027  27.745  27.898  1.00  0.00     0.031 A 
ATOM     40  C   UNL A   1      40.137  26.495  28.720  1.00  0.00     0.131 A 
ATOM     41  C   UNL A   1      42.080  26.882  26.791  1.00  0.00     0.055 A 
ATOM     42  C   UNL A   1      40.235  25.602  27.652  1.00  0.00     0.041 A 
ATOM     43  F   UNL A   1      39.153  26.293  29.610  1.00  0.00    -0.206 F 
ATOM     44  C   UNL A   1      41.207  25.798  26.675  1.00  0.00     0.022 A 
BRANCH  41  45
ATOM     45  S   UNL A   1      43.245  27.255  25.452  1.00  0.00     0.124 S 
ATOM     46  O   UNL A   1      42.421  28.064  24.559  1.00  0.00    -0.237 OA
ATOM     47  O   UNL A   1      44.314  27.961  26.149  1.00  0.00    -0.237 OA
ATOM     48  O   UNL A   1      43.605  25.936  24.933  1.00  0.00    -0.744 OA
ENDBRANCH  41  45
ENDBRANCH  24  38
BRANCH  25  49
ATOM     49  C   UNL A   1      39.696  33.514  36.853  1.00  0.00     0.023 A 
ATOM     50  C   UNL A   1      39.039  32.995  37.979  1.00  0.00     0.031 A 
ATOM     51  C   UNL A   1      40.090  34.865  36.883  1.00  0.00     0.131 A 
ATOM     52  C   UNL A   1      38.751  33.834  39.067  1.00  0.00     0.055 A 
ATOM     53  C   UNL A   1      39.858  35.678  37.993  1.00  0.00     0.041 A 
ATOM     54  F   UNL A   1      40.723  35.412  35.834  1.00  0.00    -0.206 F 
ATOM     55  C   UNL A   1      39.168  35.167  39.088  1.00  0.00     0.022 A 
BRANCH  52  56
ATOM     56  S   UNL A   1      37.724  33.185  40.412  1.00  0.00     0.124 S 
ATOM     57  O   UNL A   1      38.515  32.047  40.869  1.00  0.00    -0.237 OA
ATOM     58  O   UNL A   1      37.658  34.326  41.318  1.00  0.00    -0.237 OA
ATOM     59  O   UNL A   1      36.468  32.844  39.747  1.00  0.00    -0.744 OA
ENDBRANCH  52  56
ENDBRANCH  25  49
BRANCH  37  60
ATOM     60  C   UNL A   1      44.273  28.505  35.283  1.00  0.00     0.023 A 
ATOM     61  C   UNL A   1      44.097  27.466  36.213  1.00  0.00     0.031 A 
ATOM     62  C   UNL A   1      45.566  29.027  35.108  1.00  0.00     0.131 A 
ATOM     63  C   UNL A   1      45.185  27.026  36.981  1.00  0.00     0.055 A 
ATOM     64  C   UNL A   1      46.657  28.542  35.830  1.00  0.00     0.041 A 
ATOM     65  F   UNL A   1      45.790  30.023  34.235  1.00  0.00    -0.206 F 
ATOM     66  C   UNL A   1      46.466  27.546  36.783  1.00  0.00     0.022 A 
BRANCH  63  67
ATOM     67  S   UNL A   1      44.881  25.832  38.312  1.00  0.00     0.124 S 
ATOM     68  O   UNL A   1      44.027  24.851  37.651  1.00  0.00    -0.237 OA
ATOM     69  O   UNL A   1      46.230  25.383  38.642  1.00  0.00    -0.237 OA
ATOM     70  O   UNL A   1      44.224  26.631  39.345  1.00  0.00    -0.744 OA
ENDBRANCH  63  67
ENDBRANCH  37  60
ENDBRANCH  11  12
ENDBRANCH   4   6
ENDBRANCH   1   2
BRANCH   1  71
ATOM     71  C   UNL A   1      31.436  31.862  26.701  1.00  0.00     0.042 C 
BRANCH  71  72
ATOM     72  C   UNL A   1      31.579  30.680  25.761  1.00  0.00     0.117 C 
BRANCH  72  73
ATOM     73  N   UNL A   1      31.792  29.428  26.471  1.00  0.00    -0.356 N 
ATOM     74  C   UNL A   1      31.443  28.159  26.108  1.00  0.00     0.227 C 
ATOM     75  H   UNL A   1      32.256  29.509  27.336  1.00  0.00     0.163 HD
ATOM     76  O   UNL A   1      31.709  27.241  26.885  1.00  0.00    -0.274 OA
BRANCH  74  77
ATOM     77  C   UNL A   1      30.743  27.950  24.763  1.00  0.00     0.103 C 
ATOM     78  C   UNL A   1      30.014  26.636  24.690  1.00  0.00    -0.016 C 
ATOM     79  C   UNL A   1      31.754  27.802  23.615  1.00  0.00     0.047 C 
ATOM     80  C   UNL A   1      30.681  25.735  23.957  1.00  0.00    -0.006 C 
ATOM     81  C   UNL A   1      31.968  26.298  23.460  1.00  0.00     0.106 C 
BRANCH  81  82
ATOM     82  N   UNL A   1      32.165  25.928  22.079  1.00  0.00    -0.346 N 
ATOM     83  C   UNL A   1      32.927  24.908  21.569  1.00  0.00     0.251 C 
ATOM     84  H   UNL A   1      31.691  26.480  21.416  1.00  0.00     0.164 HD
ATOM     85  O   UNL A   1      33.234  24.894  20.381  1.00  0.00    -0.269 OA
BRANCH  83  86
ATOM     86  C   UNL A   1      33.396  23.815  22.451  1.00  0.00     0.040 A 
ATOM     87  C   UNL A   1      34.581  23.931  23.178  1.00  0.00     0.016 A 
ATOM     88  C   UNL A   1      32.603  22.675  22.596  1.00  0.00     0.024 A 
ATOM     89  C   UNL A   1      35.010  22.871  23.981  1.00  0.00     0.030 A 
ATOM     90  C   UNL A   1      33.032  21.621  23.424  1.00  0.00     0.001 A 
ATOM     91  C   UNL A   1      34.260  21.711  24.115  1.00  0.00     0.070 A 
ATOM     92  C   UNL A   1      32.271  20.457  23.590  1.00  0.00     0.012 A 
ATOM     93  N   UNL A   1      34.721  20.721  24.899  1.00  0.00    -0.256 NA
ATOM     94  C   UNL A   1      32.744  19.432  24.401  1.00  0.00     0.021 A 
ATOM     95  C   UNL A   1      33.966  19.609  25.022  1.00  0.00     0.112 A 
ENDBRANCH  83  86
ENDBRANCH  81  82
ENDBRANCH  74  77
ENDBRANCH  72  73
ENDBRANCH  71  72
ENDBRANCH   1  71
TORSDOF 15
ENDMDL
MODEL 2
REMARK VINA RESULT:     -12.8      1.324      1.474
REMARK SMILES O=C(NCCCNC(=O)[C@@H]1C=C[C@@H](NC(=O)c2ccc3ncccc3c2)C1)c1ccc(-c2c3nc(c(-c4cc(S(=O)(=O)[O-])ccc4F)c4ccc([nH]4)c(-c4cc(S(=O)(=O)[O-])ccc4F)c4nc(c(-c5cc(S(=O)(=O)[O-])ccc5F)c5ccc2[nH]5)C=C4)C=C3)cc1
REMARK SMILES IDX 4 1 3 2 1 3 2 4 28 6 29 7 90 8 30 9 89 10 31 11 32 12 33 13
REMARK SMILES IDX 83 14 34 15 88 16 82 17 84 18 35 19 87 20 81 21 80 22 36 24
REMARK SMILES IDX 68 25 48 26 67 27 49 28 52 29 66 30 85 31 50 32 51 33 65 35
REMARK SMILES IDX 86 36 53 37 37 38 38 39 46 40 39 41 45 42 47 43 44 44 40 45
REMARK SMILES IDX 41 46 42 47 43 48 69 49 70 50 78 51 71 52 77 53 79 54 76 55
REMARK SMILES IDX 72 56 73 57 74 58 75 59 54 60 55 61 63 62 56 63 62 64 64 65
REMARK SMILES IDX 61 66 57 67 58 68 59 69 60 70 5 71 6 72 7 73 8 74 9 76 10 77
REMARK SMILES IDX 11 78 27 79 12 80 13 81 14 82 15 83 16 85 17 86 18 87 26 88
REMARK SMILES IDX 19 89 25 90 20 91 24 92 21 93 23 94 22 95
REMARK H PARENT 3 5 84 23 52 34 7 75 14 84
REMARK Flexibility Score: inf
ROOT
ATOM      1  C   UNL A   1      32.743  32.708  27.087  1.00  0.00     0.118 C 
ENDROOT
BRANCH   1   2
ATOM      2  N   UNL A   1      32.579  34.045  27.644  1.00  0.00    -0.352 N 
ATOM      3  O   UNL A   1      32.779  35.712  29.142  1.00  0.00    -0.269 OA
ATOM      4  C   UNL A   1      33.199  34.638  28.717  1.00  0.00     0.251 C 
ATOM      5  H   UNL A   1      31.922  34.612  27.178  1.00  0.00     0.163 HD
BRANCH   4   6
ATOM      6  C   UNL A   1      34.355  33.982  29.366  1.00  0.00     0.039 A 
ATOM      7  C   UNL A   1      34.162  32.919  30.250  1.00  0.00     0.014 A 
ATOM      8  C   UNL A   1      35.651  34.416  29.072  1.00  0.00     0.014 A 
ATOM      9  C   UNL A   1      35.236  32.409  30.965  1.00  0.00     0.010 A 
ATOM     10  C   UNL A   1      36.746  33.820  29.708  1.00  0.00     0.010 A 
ATOM     11  C   UNL A   1      36.544  32.828  30.680  1.00  0.00    -0.014 A 
BRANCH  11  12
ATOM     12  C   UNL A   1      37.677  32.142  31.351  1.00  0.00     0.031 A 
ATOM     13  C   UNL A   1      38.439  31.038  30.671  1.00  0.00     0.074 A 
ATOM     14  C   UNL A   1      38.033  32.561  32.583  1.00  0.00     0.049 A 
ATOM     15  N   UNL A   1      39.458  30.350  31.117  1.00  0.00    -0.248 NA
ATOM     16  C   UNL A   1      37.999  30.652  29.323  1.00  0.00     0.031 C 
ATOM     17  C   UNL A   1      37.357  33.623  33.338  1.00  0.00     0.029 A 
ATOM     18  N   UNL A   1      39.055  32.172  33.411  1.00  0.00    -0.354 N 
ATOM     19  C   UNL A   1      39.770  29.435  30.118  1.00  0.00     0.074 A 
ATOM     20  C   UNL A   1      38.817  29.643  29.048  1.00  0.00     0.031 C 
ATOM     21  C   UNL A   1      38.010  33.833  34.488  1.00  0.00     0.029 A 
ATOM     22  C   UNL A   1      39.098  32.872  34.596  1.00  0.00     0.049 A 
ATOM     23  H   UNL A   1      39.695  31.461  33.180  1.00  0.00     0.167 HD
ATOM     24  C   UNL A   1      40.765  28.512  30.099  1.00  0.00     0.034 A 
ATOM     25  C   UNL A   1      39.903  32.735  35.666  1.00  0.00     0.034 A 
ATOM     26  C   UNL A   1      41.713  28.329  31.173  1.00  0.00     0.049 A 
ATOM     27  C   UNL A   1      40.973  31.679  35.627  1.00  0.00     0.074 A 
ATOM     28  C   UNL A   1      42.784  27.454  31.236  1.00  0.00     0.029 A 
ATOM     29  N   UNL A   1      41.700  29.024  32.376  1.00  0.00    -0.354 N 
ATOM     30  N   UNL A   1      41.269  30.840  34.660  1.00  0.00    -0.248 NA
ATOM     31  C   UNL A   1      41.817  31.549  36.820  1.00  0.00     0.031 C 
ATOM     32  C   UNL A   1      43.374  27.571  32.500  1.00  0.00     0.029 A 
ATOM     33  C   UNL A   1      42.720  28.572  33.200  1.00  0.00     0.049 A 
ATOM     34  H   UNL A   1      41.061  29.735  32.610  1.00  0.00     0.167 HD
ATOM     35  C   UNL A   1      42.346  30.095  35.125  1.00  0.00     0.074 A 
ATOM     36  C   UNL A   1      42.665  30.603  36.444  1.00  0.00     0.031 C 
ATOM     37  C   UNL A   1      43.012  29.079  34.520  1.00  0.00     0.034 A 
BRANCH  24  38
ATOM     38  C   UNL A   1      40.854  27.595  28.903  1.00  0.00     0.023 A 
ATOM     39  C   UNL A   1      41.806  27.785  27.886  1.00  0.00     0.031 A 
ATOM     40  C   UNL A   1      39.982  26.496  28.792  1.00  0.00     0.131 A 
ATOM     41  C   UNL A   1      41.834  26.917  26.783  1.00  0.00     0.055 A 
ATOM     42  C   UNL A   1      40.058  25.598  27.726  1.00  0.00     0.041 A 
ATOM     43  F   UNL A   1      39.041  26.276  29.723  1.00  0.00    -0.206 F 
ATOM     44  C   UNL A   1      40.983  25.811  26.708  1.00  0.00     0.022 A 
BRANCH  41  45
ATOM     45  S   UNL A   1      42.934  27.309  25.395  1.00  0.00     0.124 S 
ATOM     46  O   UNL A   1      42.179  28.350  24.703  1.00  0.00    -0.237 OA
ATOM     47  O   UNL A   1      44.152  27.744  26.068  1.00  0.00    -0.237 OA
ATOM     48  O   UNL A   1      43.040  26.042  24.673  1.00  0.00    -0.744 OA
ENDBRANCH  41  45
ENDBRANCH  24  38
BRANCH  25  49
ATOM     49  C   UNL A   1      39.698  33.579  36.878  1.00  0.00     0.023 A 
ATOM     50  C   UNL A   1      40.508  34.697  37.130  1.00  0.00     0.031 A 
ATOM     51  C   UNL A   1      38.713  33.250  37.829  1.00  0.00     0.131 A 
ATOM     52  C   UNL A   1      40.353  35.414  38.326  1.00  0.00     0.055 A 
ATOM     53  C   UNL A   1      38.521  34.005  38.986  1.00  0.00     0.041 A 
ATOM     54  F   UNL A   1      37.910  32.192  37.637  1.00  0.00    -0.206 F 
ATOM     55  C   UNL A   1      39.357  35.086  39.248  1.00  0.00     0.022 A 
BRANCH  52  56
ATOM     56  S   UNL A   1      41.549  36.722  38.711  1.00  0.00     0.124 S 
ATOM     57  O   UNL A   1      42.381  36.076  39.722  1.00  0.00    -0.237 OA
ATOM     58  O   UNL A   1      42.175  36.949  37.413  1.00  0.00    -0.237 OA
ATOM     59  O   UNL A   1      40.712  37.815  39.199  1.00  0.00    -0.744 OA
ENDBRANCH  52  56
ENDBRANCH  25  49
BRANCH  37  60
ATOM     60  C   UNL A   1      44.169  28.485  35.281  1.00  0.00     0.023 A 
ATOM     61  C   UNL A   1      43.979  27.474  36.239  1.00  0.00     0.031 A 
ATOM     62  C   UNL A   1      45.476  28.960  35.069  1.00  0.00     0.131 A 
ATOM     63  C   UNL A   1      45.067  27.016  36.996  1.00  0.00     0.055 A 
ATOM     64  C   UNL A   1      46.564  28.458  35.781  1.00  0.00     0.041 A 
ATOM     65  F   UNL A   1      45.713  29.928  34.168  1.00  0.00    -0.206 F 
ATOM     66  C   UNL A   1      46.360  27.490  36.762  1.00  0.00     0.022 A 
BRANCH  63  67
ATOM     67  S   UNL A   1      44.752  25.864  38.360  1.00  0.00     0.124 S 
ATOM     68  O   UNL A   1      44.362  24.652  37.650  1.00  0.00    -0.237 OA
ATOM     69  O   UNL A   1      46.045  25.819  39.036  1.00  0.00    -0.237 OA
ATOM     70  O   UNL A   1      43.682  26.513  39.116  1.00  0.00    -0.744 OA
ENDBRANCH  63  67
ENDBRANCH  37  60
ENDBRANCH  11  12
ENDBRANCH   4   6
ENDBRANCH   1   2
BRANCH   1  71
ATOM     71  C   UNL A   1      31.418  31.987  26.891  1.00  0.00     0.042 C 
BRANCH  71  72
ATOM     72  C   UNL A   1      31.499  30.820  25.925  1.00  0.00     0.117 C 
BRANCH  72  73
ATOM     73  N   UNL A   1      31.934  29.592  26.573  1.00  0.00    -0.356 N 
ATOM     74  C   UNL A   1      31.721  28.296  26.199  1.00  0.00     0.227 C 
ATOM     75  H   UNL A   1      32.456  29.713  27.398  1.00  0.00     0.163 HD
ATOM     76  O   UNL A   1      32.170  27.404  26.919  1.00  0.00    -0.274 OA
BRANCH  74  77
ATOM     77  C   UNL A   1      30.938  28.026  24.910  1.00  0.00     0.103 C 
ATOM     78  C   UNL A   1      30.276  26.675  24.910  1.00  0.00    -0.016 C 
ATOM     79  C   UNL A   1      31.872  27.908  23.695  1.00  0.00     0.047 C 
ATOM     80  C   UNL A   1      30.936  25.797  24.144  1.00  0.00    -0.006 C 
ATOM     81  C   UNL A   1      32.152  26.415  23.548  1.00  0.00     0.106 C 
BRANCH  81  82
ATOM     82  N   UNL A   1      32.271  26.030  22.162  1.00  0.00    -0.346 N 
ATOM     83  C   UNL A   1      32.961  24.973  21.625  1.00  0.00     0.251 C 
ATOM     84  H   UNL A   1      31.793  26.600  21.517  1.00  0.00     0.164 HD
ATOM     85  O   UNL A   1      33.213  24.940  20.425  1.00  0.00    -0.269 OA
BRANCH  83  86
ATOM     86  C   UNL A   1      33.418  23.864  22.492  1.00  0.00     0.040 A 
ATOM     87  C   UNL A   1      34.597  23.962  23.232  1.00  0.00     0.016 A 
ATOM     88  C   UNL A   1      32.620  22.724  22.611  1.00  0.00     0.024 A 
ATOM     89  C   UNL A   1      35.014  22.887  24.021  1.00  0.00     0.030 A 
ATOM     90  C   UNL A   1      33.036  21.655  23.424  1.00  0.00     0.001 A 
ATOM     91  C   UNL A   1      34.259  21.728  24.129  1.00  0.00     0.070 A 
ATOM     92  C   UNL A   1      32.270  20.491  23.563  1.00  0.00     0.012 A 
ATOM     93  N   UNL A   1      34.709  20.724  24.900  1.00  0.00    -0.256 NA
ATOM     94  C   UNL A   1      32.731  19.451  24.361  1.00  0.00     0.021 A 
ATOM     95  C   UNL A   1      33.949  19.612  24.996  1.00  0.00     0.112 A 
ENDBRANCH  83  86
ENDBRANCH  81  82
ENDBRANCH  74  77
ENDBRANCH  72  73
ENDBRANCH  71  72
ENDBRANCH   1  71
TORSDOF 15
ENDMDL
MODEL 3
REMARK VINA RESULT:     -12.8      3.117      8.363
REMARK SMILES O=C(NCCCNC(=O)[C@@H]1C=C[C@@H](NC(=O)c2ccc3ncccc3c2)C1)c1ccc(-c2c3nc(c(-c4cc(S(=O)(=O)[O-])ccc4F)c4ccc([nH]4)c(-c4cc(S(=O)(=O)[O-])ccc4F)c4nc(c(-c5cc(S(=O)(=O)[O-])ccc5F)c5ccc2[nH]5)C=C4)C=C3)cc1
REMARK SMILES IDX 4 1 3 2 1 3 2 4 28 6 29 7 90 8 30 9 89 10 31 11 32 12 33 13
REMARK SMILES IDX 83 14 34 15 88 16 82 17 84 18 35 19 87 20 81 21 80 22 36 24
REMARK SMILES IDX 68 25 48 26 67 27 49 28 52 29 66 30 85 31 50 32 51 33 65 35
REMARK SMILES IDX 86 36 53 37 37 38 38 39 46 40 39 41 45 42 47 43 44 44 40 45
REMARK SMILES IDX 41 46 42 47 43 48 69 49 70 50 78 51 71 52 77 53 79 54 76 55
REMARK SMILES IDX 72 56 73 57 74 58 75 59 54 60 55 61 63 62 56 63 62 64 64 65
REMARK SMILES IDX 61 66 57 67 58 68 59 69 60 70 5 71 6 72 7 73 8 74 9 76 10 77
REMARK SMILES IDX 11 78 27 79 12 80 13 81 14 82 15 83 16 85 17 86 18 87 26 88
REMARK SMILES IDX 19 89 25 90 20 91 24 92 21 93 23 94 22 95
REMARK H PARENT 3 5 84 23 52 34 7 75 14 84
REMARK Flexibility Score: inf
ROOT
ATOM      1  C   UNL A   1      34.119  29.169  26.130  1.00  0.00     0.118 C 
ENDROOT
BRANCH   1   2
ATOM      2  N   UNL A   1      33.846  30.468  26.735  1.00  0.00    -0.352 N 
ATOM      3  O   UNL A   1      33.980  32.124  28.251  1.00  0.00    -0.269 OA
ATOM      4  C   UNL A   1      34.488  31.117  27.761  1.00  0.00     0.251 C 
ATOM      5  H   UNL A   1      33.082  30.954  26.347  1.00  0.00     0.163 HD
BRANCH   4   6
ATOM      6  C   UNL A   1      35.772  30.602  28.282  1.00  0.00     0.039 A 
ATOM      7  C   UNL A   1      36.977  30.961  27.679  1.00  0.00     0.014 A 
ATOM      8  C   UNL A   1      35.777  29.767  29.404  1.00  0.00     0.014 A 
ATOM      9  C   UNL A   1      38.161  30.357  28.080  1.00  0.00     0.010 A 
ATOM     10  C   UNL A   1      36.986  29.249  29.882  1.00  0.00     0.010 A 
ATOM     11  C   UNL A   1      38.186  29.520  29.206  1.00  0.00    -0.014 A 
BRANCH  11  12
ATOM     12  C   UNL A   1      39.496  29.025  29.699  1.00  0.00     0.031 A 
ATOM     13  C   UNL A   1      40.196  29.681  30.857  1.00  0.00     0.074 A 
ATOM     14  C   UNL A   1      40.031  27.941  29.102  1.00  0.00     0.049 A 
ATOM     15  N   UNL A   1      41.337  29.360  31.414  1.00  0.00    -0.248 NA
ATOM     16  C   UNL A   1      39.539  30.847  31.465  1.00  0.00     0.031 C 
ATOM     17  C   UNL A   1      39.436  27.230  27.964  1.00  0.00     0.029 A 
ATOM     18  N   UNL A   1      41.172  27.230  29.369  1.00  0.00    -0.354 N 
ATOM     19  C   UNL A   1      41.547  30.294  32.423  1.00  0.00     0.074 A 
ATOM     20  C   UNL A   1      40.424  31.208  32.387  1.00  0.00     0.031 C 
ATOM     21  C   UNL A   1      40.188  26.161  27.668  1.00  0.00     0.029 A 
ATOM     22  C   UNL A   1      41.359  26.153  28.533  1.00  0.00     0.049 A 
ATOM     23  H   UNL A   1      41.798  27.467  30.091  1.00  0.00     0.167 HD
ATOM     24  C   UNL A   1      42.582  30.374  33.297  1.00  0.00     0.034 A 
ATOM     25  C   UNL A   1      42.374  25.273  28.448  1.00  0.00     0.034 A 
ATOM     26  C   UNL A   1      43.687  29.445  33.321  1.00  0.00     0.049 A 
ATOM     27  C   UNL A   1      43.523  25.411  29.408  1.00  0.00     0.074 A 
ATOM     28  C   UNL A   1      44.763  29.410  34.192  1.00  0.00     0.029 A 
ATOM     29  N   UNL A   1      43.866  28.393  32.432  1.00  0.00    -0.354 N 
ATOM     30  N   UNL A   1      43.691  26.287  30.373  1.00  0.00    -0.248 NA
ATOM     31  C   UNL A   1      44.618  24.445  29.271  1.00  0.00     0.031 C 
ATOM     32  C   UNL A   1      45.624  28.384  33.787  1.00  0.00     0.029 A 
ATOM     33  C   UNL A   1      45.050  27.728  32.710  1.00  0.00     0.049 A 
ATOM     34  H   UNL A   1      43.242  28.154  31.708  1.00  0.00     0.167 HD
ATOM     35  C   UNL A   1      44.905  25.964  30.968  1.00  0.00     0.074 A 
ATOM     36  C   UNL A   1      45.410  24.797  30.273  1.00  0.00     0.031 C 
ATOM     37  C   UNL A   1      45.547  26.576  31.995  1.00  0.00     0.034 A 
BRANCH  24  38
ATOM     38  C   UNL A   1      42.598  31.530  34.268  1.00  0.00     0.023 A 
ATOM     39  C   UNL A   1      41.904  31.487  35.490  1.00  0.00     0.031 A 
ATOM     40  C   UNL A   1      43.341  32.688  33.972  1.00  0.00     0.131 A 
ATOM     41  C   UNL A   1      41.933  32.597  36.350  1.00  0.00     0.055 A 
ATOM     42  C   UNL A   1      43.418  33.762  34.861  1.00  0.00     0.041 A 
ATOM     43  F   UNL A   1      44.007  32.793  32.811  1.00  0.00    -0.206 F 
ATOM     44  C   UNL A   1      42.705  33.723  36.055  1.00  0.00     0.022 A 
BRANCH  41  45
ATOM     45  S   UNL A   1      40.866  32.589  37.817  1.00  0.00     0.124 S 
ATOM     46  O   UNL A   1      41.704  31.890  38.789  1.00  0.00    -0.237 OA
ATOM     47  O   UNL A   1      40.653  34.011  38.062  1.00  0.00    -0.237 OA
ATOM     48  O   UNL A   1      39.685  31.848  37.378  1.00  0.00    -0.744 OA
ENDBRANCH  41  45
ENDBRANCH  24  38
BRANCH  25  49
ATOM     49  C   UNL A   1      42.377  24.223  27.389  1.00  0.00     0.023 A 
ATOM     50  C   UNL A   1      41.760  22.981  27.597  1.00  0.00     0.031 A 
ATOM     51  C   UNL A   1      43.041  24.433  26.166  1.00  0.00     0.131 A 
ATOM     52  C   UNL A   1      41.862  21.979  26.620  1.00  0.00     0.055 A 
ATOM     53  C   UNL A   1      43.085  23.456  25.171  1.00  0.00     0.041 A 
ATOM     54  F   UNL A   1      43.647  25.604  25.913  1.00  0.00    -0.206 F 
ATOM     55  C   UNL A   1      42.507  22.212  25.403  1.00  0.00     0.022 A 
BRANCH  52  56
ATOM     56  S   UNL A   1      41.232  20.324  27.009  1.00  0.00     0.124 S 
ATOM     57  O   UNL A   1      42.405  19.493  26.758  1.00  0.00    -0.237 OA
ATOM     58  O   UNL A   1      40.836  20.472  28.405  1.00  0.00    -0.237 OA
ATOM     59  O   UNL A   1      40.131  20.149  26.064  1.00  0.00    -0.744 OA
ENDBRANCH  52  56
ENDBRANCH  25  49
BRANCH  37  60
ATOM     60  C   UNL A   1      46.851  25.961  32.435  1.00  0.00     0.023 A 
ATOM     61  C   UNL A   1      46.904  25.005  33.463  1.00  0.00     0.031 A 
ATOM     62  C   UNL A   1      48.060  26.363  31.840  1.00  0.00     0.131 A 
ATOM     63  C   UNL A   1      48.145  24.530  33.911  1.00  0.00     0.055 A 
ATOM     64  C   UNL A   1      49.287  25.841  32.248  1.00  0.00     0.041 A 
ATOM     65  F   UNL A   1      48.067  27.277  30.855  1.00  0.00    -0.206 F 
ATOM     66  C   UNL A   1      49.336  24.930  33.299  1.00  0.00     0.022 A 
BRANCH  63  67
ATOM     67  S   UNL A   1      48.188  23.457  35.373  1.00  0.00     0.124 S 
ATOM     68  O   UNL A   1      47.766  22.175  34.820  1.00  0.00    -0.237 OA
ATOM     69  O   UNL A   1      49.586  23.545  35.784  1.00  0.00    -0.237 OA
ATOM     70  O   UNL A   1      47.234  24.084  36.286  1.00  0.00    -0.744 OA
ENDBRANCH  63  67
ENDBRANCH  37  60
ENDBRANCH  11  12
ENDBRANCH   4   6
ENDBRANCH   1   2
BRANCH   1  71
ATOM     71  C   UNL A   1      33.527  28.015  26.923  1.00  0.00     0.042 C 
BRANCH  71  72
ATOM     72  C   UNL A   1      32.088  28.244  27.346  1.00  0.00     0.117 C 
BRANCH  72  73
ATOM     73  N   UNL A   1      31.315  27.012  27.375  1.00  0.00    -0.356 N 
ATOM     74  C   UNL A   1      30.640  26.392  26.363  1.00  0.00     0.227 C 
ATOM     75  H   UNL A   1      31.272  26.563  28.250  1.00  0.00     0.163 HD
ATOM     76  O   UNL A   1      30.029  25.355  26.625  1.00  0.00    -0.274 OA
BRANCH  74  77
ATOM     77  C   UNL A   1      30.682  27.017  24.966  1.00  0.00     0.103 C 
ATOM     78  C   UNL A   1      29.449  26.712  24.161  1.00  0.00    -0.016 C 
ATOM     79  C   UNL A   1      31.779  26.384  24.095  1.00  0.00     0.047 C 
ATOM     80  C   UNL A   1      29.675  25.767  23.239  1.00  0.00    -0.006 C 
ATOM     81  C   UNL A   1      31.079  25.276  23.311  1.00  0.00     0.106 C 
BRANCH  81  82
ATOM     82  N   UNL A   1      31.622  25.141  21.981  1.00  0.00    -0.346 N 
ATOM     83  C   UNL A   1      32.763  24.490  21.586  1.00  0.00     0.251 C 
ATOM     84  H   UNL A   1      31.106  25.572  21.262  1.00  0.00     0.164 HD
ATOM     85  O   UNL A   1      33.251  24.704  20.481  1.00  0.00    -0.269 OA
BRANCH  83  86
ATOM     86  C   UNL A   1      33.423  23.526  22.496  1.00  0.00     0.040 A 
ATOM     87  C   UNL A   1      32.736  22.421  23.000  1.00  0.00     0.016 A 
ATOM     88  C   UNL A   1      34.773  23.701  22.805  1.00  0.00     0.024 A 
ATOM     89  C   UNL A   1      33.380  21.544  23.877  1.00  0.00     0.030 A 
ATOM     90  C   UNL A   1      35.420  22.802  23.672  1.00  0.00     0.001 A 
ATOM     91  C   UNL A   1      34.711  21.715  24.230  1.00  0.00     0.070 A 
ATOM     92  C   UNL A   1      36.770  22.948  24.014  1.00  0.00     0.012 A 
ATOM     93  N   UNL A   1      35.279  20.843  25.080  1.00  0.00    -0.256 NA
ATOM     94  C   UNL A   1      37.361  22.047  24.892  1.00  0.00     0.021 A 
ATOM     95  C   UNL A   1      36.579  21.026  25.397  1.00  0.00     0.112 A 
ENDBRANCH  83  86
ENDBRANCH  81  82
ENDBRANCH  74  77
ENDBRANCH  72  73
ENDBRANCH  71  72
ENDBRANCH   1  71
TORSDOF 15
ENDMDL
