MODEL 1
REMARK VINA RESULT:     -11.5      0.000      0.000
REMARK SMILES C#CC[C@@H](C(=O)NCCCNC(=O)c1ccc(-c2c3nc(c(-c4cc(S(=O)(=O)[O-])ccc4F)c4ccc([nH]4)c(-c4cc(S(=O)(=O)[O-])ccc4F)c4nc(c(-c5cc(S(=O)(=O)[O-])ccc5F)c5ccc2[nH]5)C=C4)C=C3)cc1)c1cccc(Br)c1
REMARK SMILES IDX 9 1 8 2 7 3 5 4 6 5 4 7 3 8 2 9 1 10 77 11 78 12 83 13 79 14
REMARK SMILES IDX 81 15 80 16 82 17 10 18 11 19 12 20 13 22 14 23 15 24 76 25
REMARK SMILES IDX 16 26 75 27 17 28 18 29 19 30 69 31 20 32 74 33 68 34 70 35
REMARK SMILES IDX 21 36 73 37 67 38 66 39 22 41 54 42 34 43 53 44 35 45 38 46
REMARK SMILES IDX 52 47 71 48 36 49 37 50 51 52 72 53 39 54 23 55 24 56 32 57
REMARK SMILES IDX 25 58 31 59 33 60 30 61 26 62 27 63 28 64 29 65 55 66 56 67
REMARK SMILES IDX 64 68 57 69 63 70 65 71 62 72 58 73 59 74 60 75 61 76 40 77
REMARK SMILES IDX 41 78 49 79 42 80 48 81 50 82 47 83 43 84 44 85 45 86 46 87
REMARK H PARENT 7 6 11 21 70 40 38 51
REMARK Flexibility Score: inf
ROOT
ATOM      1  C   UNL A   1      36.086  20.995  25.348  1.00  0.00     0.042 C 
ENDROOT
BRANCH   1   2
ATOM      2  C   UNL A   1      35.656  22.263  26.103  1.00  0.00     0.117 C 
BRANCH   2   3
ATOM      3  N   UNL A   1      34.647  21.938  27.104  1.00  0.00    -0.355 N 
ATOM      4  C   UNL A   1      33.333  22.302  27.218  1.00  0.00     0.228 C 
ATOM      5  O   UNL A   1      32.857  22.243  28.357  1.00  0.00    -0.274 OA
ATOM      6  H   UNL A   1      34.969  21.353  27.828  1.00  0.00     0.163 HD
BRANCH   4   7
ATOM      7  C   UNL A   1      32.447  22.663  25.991  1.00  0.00     0.120 C 
BRANCH   7   8
ATOM      8  C   UNL A   1      31.002  23.005  26.425  1.00  0.00     0.107 C 
BRANCH   8   9
ATOM      9  C   UNL A   1      30.639  24.433  26.051  1.00  0.00    -0.106 C 
ATOM     10  C   UNL A   1      30.328  25.658  25.730  1.00  0.00     0.004 C 
ENDBRANCH   8   9
ENDBRANCH   7   8
BRANCH   7  11
ATOM     11  C   UNL A   1      32.486  21.492  24.980  1.00  0.00    -0.034 A 
ATOM     12  C   UNL A   1      32.318  21.664  23.592  1.00  0.00     0.004 A 
ATOM     13  C   UNL A   1      32.621  20.175  25.461  1.00  0.00     0.020 A 
ATOM     14  C   UNL A   1      32.240  20.568  22.728  1.00  0.00     0.001 A 
ATOM     15  C   UNL A   1      32.522  19.083  24.594  1.00  0.00     0.018 A 
ATOM     16  C   UNL A   1      32.327  19.275  23.229  1.00  0.00     0.016 A 
ATOM     17  Br  UNL A   1      32.610  17.324  25.283  1.00  0.00    -0.051 Br
ENDBRANCH   7  11
ENDBRANCH   4   7
ENDBRANCH   2   3
ENDBRANCH   1   2
BRANCH   1  18
ATOM     18  C   UNL A   1      37.464  21.027  24.703  1.00  0.00     0.118 C 
BRANCH  18  19
ATOM     19  N   UNL A   1      38.380  20.143  25.406  1.00  0.00    -0.352 N 
ATOM     20  C   UNL A   1      39.566  20.349  26.074  1.00  0.00     0.251 C 
ATOM     21  H   UNL A   1      38.094  19.200  25.402  1.00  0.00     0.163 HD
ATOM     22  O   UNL A   1      40.286  19.357  26.214  1.00  0.00    -0.269 OA
BRANCH  20  23
ATOM     23  C   UNL A   1      40.026  21.657  26.640  1.00  0.00     0.039 A 
ATOM     24  C   UNL A   1      39.419  22.826  26.145  1.00  0.00     0.014 A 
ATOM     25  C   UNL A   1      41.109  21.809  27.504  1.00  0.00     0.014 A 
ATOM     26  C   UNL A   1      39.914  24.100  26.468  1.00  0.00     0.010 A 
ATOM     27  C   UNL A   1      41.539  23.082  27.911  1.00  0.00     0.010 A 
ATOM     28  C   UNL A   1      40.991  24.246  27.350  1.00  0.00    -0.014 A 
BRANCH  28  29
ATOM     29  C   UNL A   1      41.638  25.574  27.590  1.00  0.00     0.031 A 
ATOM     30  C   UNL A   1      40.906  26.632  28.389  1.00  0.00     0.074 A 
ATOM     31  C   UNL A   1      42.857  25.853  27.089  1.00  0.00     0.049 A 
ATOM     32  N   UNL A   1      41.240  27.875  28.636  1.00  0.00    -0.248 NA
ATOM     33  C   UNL A   1      39.603  26.247  28.952  1.00  0.00     0.031 C 
ATOM     34  C   UNL A   1      43.668  24.943  26.280  1.00  0.00     0.029 A 
ATOM     35  N   UNL A   1      43.628  26.988  27.181  1.00  0.00    -0.354 N 
ATOM     36  C   UNL A   1      40.177  28.423  29.353  1.00  0.00     0.074 A 
ATOM     37  C   UNL A   1      39.160  27.398  29.430  1.00  0.00     0.031 C 
ATOM     38  C   UNL A   1      44.827  25.545  25.968  1.00  0.00     0.029 A 
ATOM     39  C   UNL A   1      44.830  26.899  26.515  1.00  0.00     0.049 A 
ATOM     40  H   UNL A   1      43.347  27.791  27.676  1.00  0.00     0.167 HD
ATOM     41  C   UNL A   1      40.066  29.651  29.922  1.00  0.00     0.034 A 
ATOM     42  C   UNL A   1      45.817  27.803  26.354  1.00  0.00     0.034 A 
ATOM     43  C   UNL A   1      41.101  30.656  29.869  1.00  0.00     0.049 A 
ATOM     44  C   UNL A   1      45.684  29.159  27.002  1.00  0.00     0.074 A 
ATOM     45  C   UNL A   1      41.113  31.918  30.440  1.00  0.00     0.029 A 
ATOM     46  N   UNL A   1      42.316  30.512  29.211  1.00  0.00    -0.354 N 
ATOM     47  N   UNL A   1      44.681  29.651  27.694  1.00  0.00    -0.248 NA
ATOM     48  C   UNL A   1      46.824  30.074  26.864  1.00  0.00     0.031 C 
ATOM     49  C   UNL A   1      42.306  32.555  30.079  1.00  0.00     0.029 A 
ATOM     50  C   UNL A   1      43.076  31.665  29.348  1.00  0.00     0.049 A 
ATOM     51  H   UNL A   1      42.597  29.708  28.717  1.00  0.00     0.167 HD
ATOM     52  C   UNL A   1      45.087  30.921  28.100  1.00  0.00     0.074 A 
ATOM     53  C   UNL A   1      46.429  31.109  27.591  1.00  0.00     0.031 C 
ATOM     54  C   UNL A   1      44.412  31.845  28.831  1.00  0.00     0.034 A 
BRANCH  41  55
ATOM     55  C   UNL A   1      38.768  29.973  30.635  1.00  0.00     0.023 A 
ATOM     56  C   UNL A   1      37.719  30.652  29.989  1.00  0.00     0.031 A 
ATOM     57  C   UNL A   1      38.592  29.640  31.990  1.00  0.00     0.131 A 
ATOM     58  C   UNL A   1      36.593  31.066  30.717  1.00  0.00     0.055 A 
ATOM     59  C   UNL A   1      37.425  29.969  32.686  1.00  0.00     0.041 A 
ATOM     60  F   UNL A   1      39.559  29.006  32.670  1.00  0.00    -0.206 F 
ATOM     61  C   UNL A   1      36.426  30.705  32.055  1.00  0.00     0.022 A 
BRANCH  58  62
ATOM     62  S   UNL A   1      35.439  32.229  29.939  1.00  0.00     0.124 S 
ATOM     63  O   UNL A   1      36.317  33.357  29.639  1.00  0.00    -0.237 OA
ATOM     64  O   UNL A   1      34.955  31.472  28.790  1.00  0.00    -0.237 OA
ATOM     65  O   UNL A   1      34.449  32.481  30.983  1.00  0.00    -0.744 OA
ENDBRANCH  58  62
ENDBRANCH  41  55
BRANCH  42  66
ATOM     66  C   UNL A   1      47.023  27.464  25.542  1.00  0.00     0.023 A 
ATOM     67  C   UNL A   1      47.130  27.854  24.197  1.00  0.00     0.031 A 
ATOM     68  C   UNL A   1      48.077  26.716  26.096  1.00  0.00     0.131 A 
ATOM     69  C   UNL A   1      48.243  27.459  23.439  1.00  0.00     0.055 A 
ATOM     70  C   UNL A   1      49.207  26.370  25.353  1.00  0.00     0.041 A 
ATOM     71  F   UNL A   1      48.030  26.323  27.379  1.00  0.00    -0.206 F 
ATOM     72  C   UNL A   1      49.290  26.731  24.012  1.00  0.00     0.022 A 
BRANCH  69  73
ATOM     73  S   UNL A   1      48.273  27.846  21.667  1.00  0.00     0.124 S 
ATOM     74  O   UNL A   1      48.618  26.553  21.086  1.00  0.00    -0.237 OA
ATOM     75  O   UNL A   1      46.909  28.309  21.436  1.00  0.00    -0.237 OA
ATOM     76  O   UNL A   1      49.305  28.876  21.560  1.00  0.00    -0.744 OA
ENDBRANCH  69  73
ENDBRANCH  42  66
BRANCH  54  77
ATOM     77  C   UNL A   1      45.143  33.123  29.166  1.00  0.00     0.023 A 
ATOM     78  C   UNL A   1      45.050  34.269  28.356  1.00  0.00     0.031 A 
ATOM     79  C   UNL A   1      45.967  33.187  30.305  1.00  0.00     0.131 A 
ATOM     80  C   UNL A   1      45.819  35.403  28.657  1.00  0.00     0.055 A 
ATOM     81  C   UNL A   1      46.680  34.340  30.636  1.00  0.00     0.041 A 
ATOM     82  F   UNL A   1      46.095  32.124  31.116  1.00  0.00    -0.206 F 
ATOM     83  C   UNL A   1      46.620  35.452  29.802  1.00  0.00     0.022 A 
BRANCH  80  84
ATOM     84  S   UNL A   1      45.847  36.777  27.472  1.00  0.00     0.124 S 
ATOM     85  O   UNL A   1      46.735  36.264  26.434  1.00  0.00    -0.237 OA
ATOM     86  O   UNL A   1      44.440  36.899  27.105  1.00  0.00    -0.237 OA
ATOM     87  O   UNL A   1      46.383  37.891  28.252  1.00  0.00    -0.744 OA
ENDBRANCH  80  84
ENDBRANCH  54  77
ENDBRANCH  28  29
ENDBRANCH  20  23
ENDBRANCH  18  19
ENDBRANCH   1  18
TORSDOF 16
ENDMDL
MODEL 2
REMARK VINA RESULT:     -11.2      5.343      7.836
REMARK SMILES C#CC[C@@H](C(=O)NCCCNC(=O)c1ccc(-c2c3nc(c(-c4cc(S(=O)(=O)[O-])ccc4F)c4ccc([nH]4)c(-c4cc(S(=O)(=O)[O-])ccc4F)c4nc(c(-c5cc(S(=O)(=O)[O-])ccc5F)c5ccc2[nH]5)C=C4)C=C3)cc1)c1cccc(Br)c1
REMARK SMILES IDX 9 1 8 2 7 3 5 4 6 5 4 7 3 8 2 9 1 10 77 11 78 12 83 13 79 14
REMARK SMILES IDX 81 15 80 16 82 17 10 18 11 19 12 20 13 22 14 23 15 24 76 25
REMARK SMILES IDX 16 26 75 27 17 28 18 29 19 30 69 31 20 32 74 33 68 34 70 35
REMARK SMILES IDX 21 36 73 37 67 38 66 39 22 41 54 42 34 43 53 44 35 45 38 46
REMARK SMILES IDX 52 47 71 48 36 49 37 50 51 52 72 53 39 54 23 55 24 56 32 57
REMARK SMILES IDX 25 58 31 59 33 60 30 61 26 62 27 63 28 64 29 65 55 66 56 67
REMARK SMILES IDX 64 68 57 69 63 70 65 71 62 72 58 73 59 74 60 75 61 76 40 77
REMARK SMILES IDX 41 78 49 79 42 80 48 81 50 82 47 83 43 84 44 85 45 86 46 87
REMARK H PARENT 7 6 11 21 70 40 38 51
REMARK Flexibility Score: inf
ROOT
ATOM      1  C   UNL A   1      31.905  29.075  27.075  1.00  0.00     0.042 C 
ENDROOT
BRANCH   1   2
ATOM      2  C   UNL A   1      32.509  27.671  27.234  1.00  0.00     0.117 C 
BRANCH   2   3
ATOM      3  N   UNL A   1      31.474  26.655  27.087  1.00  0.00    -0.355 N 
ATOM      4  C   UNL A   1      30.755  26.244  25.997  1.00  0.00     0.228 C 
ATOM      5  O   UNL A   1      29.676  25.694  26.244  1.00  0.00    -0.274 OA
ATOM      6  H   UNL A   1      31.252  26.181  27.921  1.00  0.00     0.163 HD
BRANCH   4   7
ATOM      7  C   UNL A   1      31.293  26.352  24.541  1.00  0.00     0.120 C 
BRANCH   7   8
ATOM      8  C   UNL A   1      30.181  26.805  23.565  1.00  0.00     0.107 C 
BRANCH   8   9
ATOM      9  C   UNL A   1      30.081  28.321  23.514  1.00  0.00    -0.106 C 
ATOM     10  C   UNL A   1      29.995  29.621  23.469  1.00  0.00     0.004 C 
ENDBRANCH   8   9
ENDBRANCH   7   8
BRANCH   7  11
ATOM     11  C   UNL A   1      31.904  24.991  24.128  1.00  0.00    -0.034 A 
ATOM     12  C   UNL A   1      31.129  23.848  23.850  1.00  0.00     0.004 A 
ATOM     13  C   UNL A   1      33.306  24.851  24.097  1.00  0.00     0.020 A 
ATOM     14  C   UNL A   1      31.725  22.609  23.599  1.00  0.00     0.001 A 
ATOM     15  C   UNL A   1      33.894  23.604  23.865  1.00  0.00     0.018 A 
ATOM     16  C   UNL A   1      33.109  22.482  23.620  1.00  0.00     0.016 A 
ATOM     17  Br  UNL A   1      35.777  23.428  23.925  1.00  0.00    -0.051 Br
ENDBRANCH   7  11
ENDBRANCH   4   7
ENDBRANCH   2   3
ENDBRANCH   1   2
BRANCH   1  18
ATOM     18  C   UNL A   1      32.634  30.023  26.134  1.00  0.00     0.118 C 
BRANCH  18  19
ATOM     19  N   UNL A   1      32.797  31.331  26.749  1.00  0.00    -0.352 N 
ATOM     20  C   UNL A   1      33.687  31.837  27.669  1.00  0.00     0.251 C 
ATOM     21  H   UNL A   1      32.133  31.992  26.444  1.00  0.00     0.163 HD
ATOM     22  O   UNL A   1      33.322  32.850  28.271  1.00  0.00    -0.269 OA
BRANCH  20  23
ATOM     23  C   UNL A   1      35.038  31.268  27.972  1.00  0.00     0.039 A 
ATOM     24  C   UNL A   1      35.102  29.913  28.342  1.00  0.00     0.014 A 
ATOM     25  C   UNL A   1      36.212  32.016  28.061  1.00  0.00     0.014 A 
ATOM     26  C   UNL A   1      36.288  29.342  28.832  1.00  0.00     0.010 A 
ATOM     27  C   UNL A   1      37.423  31.422  28.450  1.00  0.00     0.010 A 
ATOM     28  C   UNL A   1      37.466  30.095  28.903  1.00  0.00    -0.014 A 
BRANCH  28  29
ATOM     29  C   UNL A   1      38.701  29.564  29.562  1.00  0.00     0.031 A 
ATOM     30  C   UNL A   1      39.112  30.089  30.922  1.00  0.00     0.074 A 
ATOM     31  C   UNL A   1      39.467  28.637  28.955  1.00  0.00     0.049 A 
ATOM     32  N   UNL A   1      40.187  29.837  31.627  1.00  0.00    -0.248 NA
ATOM     33  C   UNL A   1      38.205  31.061  31.553  1.00  0.00     0.031 C 
ATOM     34  C   UNL A   1      39.211  28.058  27.636  1.00  0.00     0.029 A 
ATOM     35  N   UNL A   1      40.625  28.020  29.366  1.00  0.00    -0.354 N 
ATOM     36  C   UNL A   1      40.098  30.640  32.763  1.00  0.00     0.074 A 
ATOM     37  C   UNL A   1      38.903  31.440  32.610  1.00  0.00     0.031 C 
ATOM     38  C   UNL A   1      40.169  27.159  27.356  1.00  0.00     0.029 A 
ATOM     39  C   UNL A   1      41.132  27.123  28.452  1.00  0.00     0.049 A 
ATOM     40  H   UNL A   1      41.054  28.202  30.234  1.00  0.00     0.167 HD
ATOM     41  C   UNL A   1      40.913  30.688  33.849  1.00  0.00     0.034 A 
ATOM     42  C   UNL A   1      42.248  26.366  28.486  1.00  0.00     0.034 A 
ATOM     43  C   UNL A   1      42.086  29.861  34.008  1.00  0.00     0.049 A 
ATOM     44  C   UNL A   1      43.137  26.423  29.703  1.00  0.00     0.074 A 
ATOM     45  C   UNL A   1      42.962  29.798  35.079  1.00  0.00     0.029 A 
ATOM     46  N   UNL A   1      42.545  28.943  33.071  1.00  0.00    -0.354 N 
ATOM     47  N   UNL A   1      43.025  27.171  30.777  1.00  0.00    -0.248 NA
ATOM     48  C   UNL A   1      44.293  25.516  29.721  1.00  0.00     0.031 C 
ATOM     49  C   UNL A   1      43.978  28.888  34.765  1.00  0.00     0.029 A 
ATOM     50  C   UNL A   1      43.697  28.323  33.532  1.00  0.00     0.049 A 
ATOM     51  H   UNL A   1      42.114  28.760  32.205  1.00  0.00     0.167 HD
ATOM     52  C   UNL A   1      44.078  26.800  31.610  1.00  0.00     0.074 A 
ATOM     53  C   UNL A   1      44.800  25.751  30.922  1.00  0.00     0.031 C 
ATOM     54  C   UNL A   1      44.414  27.281  32.835  1.00  0.00     0.034 A 
BRANCH  41  55
ATOM     55  C   UNL A   1      40.566  31.684  34.936  1.00  0.00     0.023 A 
ATOM     56  C   UNL A   1      39.623  31.387  35.938  1.00  0.00     0.031 A 
ATOM     57  C   UNL A   1      41.147  32.965  34.948  1.00  0.00     0.131 A 
ATOM     58  C   UNL A   1      39.215  32.382  36.839  1.00  0.00     0.055 A 
ATOM     59  C   UNL A   1      40.807  33.922  35.909  1.00  0.00     0.041 A 
ATOM     60  F   UNL A   1      42.040  33.320  34.012  1.00  0.00    -0.206 F 
ATOM     61  C   UNL A   1      39.820  33.639  36.849  1.00  0.00     0.022 A 
BRANCH  58  62
ATOM     62  S   UNL A   1      37.761  32.064  37.877  1.00  0.00     0.124 S 
ATOM     63  O   UNL A   1      37.425  30.693  37.500  1.00  0.00    -0.237 OA
ATOM     64  O   UNL A   1      38.290  32.246  39.223  1.00  0.00    -0.237 OA
ATOM     65  O   UNL A   1      36.801  33.075  37.441  1.00  0.00    -0.744 OA
ENDBRANCH  58  62
ENDBRANCH  41  55
BRANCH  42  66
ATOM     66  C   UNL A   1      42.596  25.488  27.329  1.00  0.00     0.023 A 
ATOM     67  C   UNL A   1      42.179  24.148  27.279  1.00  0.00     0.031 A 
ATOM     68  C   UNL A   1      43.380  25.973  26.268  1.00  0.00     0.131 A 
ATOM     69  C   UNL A   1      42.582  23.328  26.214  1.00  0.00     0.055 A 
ATOM     70  C   UNL A   1      43.736  25.168  25.184  1.00  0.00     0.041 A 
ATOM     71  F   UNL A   1      43.802  27.248  26.261  1.00  0.00    -0.206 F 
ATOM     72  C   UNL A   1      43.346  23.832  25.159  1.00  0.00     0.022 A 
BRANCH  69  73
ATOM     73  S   UNL A   1      42.156  21.565  26.262  1.00  0.00     0.124 S 
ATOM     74  O   UNL A   1      40.758  21.585  25.844  1.00  0.00    -0.237 OA
ATOM     75  O   UNL A   1      43.103  21.000  25.306  1.00  0.00    -0.237 OA
ATOM     76  O   UNL A   1      42.387  21.196  27.657  1.00  0.00    -0.744 OA
ENDBRANCH  69  73
ENDBRANCH  42  66
BRANCH  54  77
ATOM     77  C   UNL A   1      45.588  26.632  33.529  1.00  0.00     0.023 A 
ATOM     78  C   UNL A   1      45.461  25.421  34.231  1.00  0.00     0.031 A 
ATOM     79  C   UNL A   1      46.851  27.251  33.506  1.00  0.00     0.131 A 
ATOM     80  C   UNL A   1      46.558  24.903  34.937  1.00  0.00     0.055 A 
ATOM     81  C   UNL A   1      47.955  26.698  34.156  1.00  0.00     0.041 A 
ATOM     82  F   UNL A   1      47.033  28.410  32.852  1.00  0.00    -0.206 F 
ATOM     83  C   UNL A   1      47.808  25.525  34.890  1.00  0.00     0.022 A 
BRANCH  80  84
ATOM     84  S   UNL A   1      46.301  23.464  36.012  1.00  0.00     0.124 S 
ATOM     85  O   UNL A   1      46.985  23.872  37.234  1.00  0.00    -0.237 OA
ATOM     86  O   UNL A   1      44.846  23.390  36.090  1.00  0.00    -0.237 OA
ATOM     87  O   UNL A   1      46.939  22.371  35.279  1.00  0.00    -0.744 OA
ENDBRANCH  80  84
ENDBRANCH  54  77
ENDBRANCH  28  29
ENDBRANCH  20  23
ENDBRANCH  18  19
ENDBRANCH   1  18
TORSDOF 16
ENDMDL
MODEL 3
REMARK VINA RESULT:     -11.1      5.274      7.806
REMARK SMILES C#CC[C@@H](C(=O)NCCCNC(=O)c1ccc(-c2c3nc(c(-c4cc(S(=O)(=O)[O-])ccc4F)c4ccc([nH]4)c(-c4cc(S(=O)(=O)[O-])ccc4F)c4nc(c(-c5cc(S(=O)(=O)[O-])ccc5F)c5ccc2[nH]5)C=C4)C=C3)cc1)c1cccc(Br)c1
REMARK SMILES IDX 9 1 8 2 7 3 5 4 6 5 4 7 3 8 2 9 1 10 77 11 78 12 83 13 79 14
REMARK SMILES IDX 81 15 80 16 82 17 10 18 11 19 12 20 13 22 14 23 15 24 76 25
REMARK SMILES IDX 16 26 75 27 17 28 18 29 19 30 69 31 20 32 74 33 68 34 70 35
REMARK SMILES IDX 21 36 73 37 67 38 66 39 22 41 54 42 34 43 53 44 35 45 38 46
REMARK SMILES IDX 52 47 71 48 36 49 37 50 51 52 72 53 39 54 23 55 24 56 32 57
REMARK SMILES IDX 25 58 31 59 33 60 30 61 26 62 27 63 28 64 29 65 55 66 56 67
REMARK SMILES IDX 64 68 57 69 63 70 65 71 62 72 58 73 59 74 60 75 61 76 40 77
REMARK SMILES IDX 41 78 49 79 42 80 48 81 50 82 47 83 43 84 44 85 45 86 46 87
REMARK H PARENT 7 6 11 21 70 40 38 51
REMARK Flexibility Score: inf
ROOT
ATOM      1  C   UNL A   1      32.672  29.499  25.144  1.00  0.00     0.042 C 
ENDROOT
BRANCH   1   2
ATOM      2  C   UNL A   1      33.586  28.266  25.219  1.00  0.00     0.117 C 
BRANCH   2   3
ATOM      3  N   UNL A   1      32.938  27.201  25.976  1.00  0.00    -0.355 N 
ATOM      4  C   UNL A   1      32.507  25.958  25.602  1.00  0.00     0.228 C 
ATOM      5  O   UNL A   1      31.630  25.458  26.316  1.00  0.00    -0.274 OA
ATOM      6  H   UNL A   1      32.782  27.416  26.924  1.00  0.00     0.163 HD
BRANCH   4   7
ATOM      7  C   UNL A   1      33.143  25.160  24.427  1.00  0.00     0.120 C 
BRANCH   7   8
ATOM      8  C   UNL A   1      32.116  24.914  23.296  1.00  0.00     0.107 C 
BRANCH   8   9
ATOM      9  C   UNL A   1      31.435  26.209  22.882  1.00  0.00    -0.106 C 
ATOM     10  C   UNL A   1      30.851  27.319  22.526  1.00  0.00     0.004 C 
ENDBRANCH   8   9
ENDBRANCH   7   8
BRANCH   7  11
ATOM     11  C   UNL A   1      33.727  23.836  24.975  1.00  0.00    -0.034 A 
ATOM     12  C   UNL A   1      34.921  23.769  25.720  1.00  0.00     0.004 A 
ATOM     13  C   UNL A   1      33.087  22.622  24.660  1.00  0.00     0.020 A 
ATOM     14  C   UNL A   1      35.477  22.542  26.093  1.00  0.00     0.001 A 
ATOM     15  C   UNL A   1      33.659  21.398  25.019  1.00  0.00     0.018 A 
ATOM     16  C   UNL A   1      34.854  21.353  25.730  1.00  0.00     0.016 A 
ATOM     17  Br  UNL A   1      32.825  19.782  24.497  1.00  0.00    -0.051 Br
ENDBRANCH   7  11
ENDBRANCH   4   7
ENDBRANCH   2   3
ENDBRANCH   1   2
BRANCH   1  18
ATOM     18  C   UNL A   1      32.031  29.947  26.450  1.00  0.00     0.118 C 
BRANCH  18  19
ATOM     19  N   UNL A   1      32.235  31.372  26.659  1.00  0.00    -0.352 N 
ATOM     20  C   UNL A   1      33.162  32.098  27.372  1.00  0.00     0.251 C 
ATOM     21  H   UNL A   1      31.572  31.934  26.196  1.00  0.00     0.163 HD
ATOM     22  O   UNL A   1      32.833  33.250  27.668  1.00  0.00    -0.269 OA
BRANCH  20  23
ATOM     23  C   UNL A   1      34.513  31.607  27.790  1.00  0.00     0.039 A 
ATOM     24  C   UNL A   1      34.630  30.248  28.135  1.00  0.00     0.014 A 
ATOM     25  C   UNL A   1      35.622  32.425  28.007  1.00  0.00     0.014 A 
ATOM     26  C   UNL A   1      35.800  29.740  28.723  1.00  0.00     0.010 A 
ATOM     27  C   UNL A   1      36.828  31.897  28.496  1.00  0.00     0.010 A 
ATOM     28  C   UNL A   1      36.915  30.563  28.922  1.00  0.00    -0.014 A 
BRANCH  28  29
ATOM     29  C   UNL A   1      38.114  30.093  29.684  1.00  0.00     0.031 A 
ATOM     30  C   UNL A   1      38.340  30.574  31.102  1.00  0.00     0.074 A 
ATOM     31  C   UNL A   1      39.011  29.259  29.121  1.00  0.00     0.049 A 
ATOM     32  N   UNL A   1      39.354  30.367  31.906  1.00  0.00    -0.248 NA
ATOM     33  C   UNL A   1      37.298  31.440  31.676  1.00  0.00     0.031 C 
ATOM     34  C   UNL A   1      38.939  28.734  27.758  1.00  0.00     0.029 A 
ATOM     35  N   UNL A   1      40.167  28.711  29.625  1.00  0.00    -0.354 N 
ATOM     36  C   UNL A   1      39.085  31.099  33.061  1.00  0.00     0.074 A 
ATOM     37  C   UNL A   1      37.851  31.814  32.818  1.00  0.00     0.031 C 
ATOM     38  C   UNL A   1      39.989  27.926  27.540  1.00  0.00     0.029 A 
ATOM     39  C   UNL A   1      40.835  27.905  28.730  1.00  0.00     0.049 A 
ATOM     40  H   UNL A   1      40.488  28.879  30.540  1.00  0.00     0.167 HD
ATOM     41  C   UNL A   1      39.778  31.151  34.228  1.00  0.00     0.034 A 
ATOM     42  C   UNL A   1      41.999  27.234  28.848  1.00  0.00     0.034 A 
ATOM     43  C   UNL A   1      40.991  30.407  34.473  1.00  0.00     0.049 A 
ATOM     44  C   UNL A   1      42.752  27.292  30.154  1.00  0.00     0.074 A 
ATOM     45  C   UNL A   1      41.755  30.354  35.628  1.00  0.00     0.029 A 
ATOM     46  N   UNL A   1      41.616  29.578  33.550  1.00  0.00    -0.354 N 
ATOM     47  N   UNL A   1      42.470  27.972  31.242  1.00  0.00    -0.248 NA
ATOM     48  C   UNL A   1      43.969  26.476  30.254  1.00  0.00     0.031 C 
ATOM     49  C   UNL A   1      42.868  29.541  35.383  1.00  0.00     0.029 A 
ATOM     50  C   UNL A   1      42.761  29.023  34.102  1.00  0.00     0.049 A 
ATOM     51  H   UNL A   1      41.292  29.410  32.636  1.00  0.00     0.167 HD
ATOM     52  C   UNL A   1      43.458  27.638  32.166  1.00  0.00     0.074 A 
ATOM     53  C   UNL A   1      44.330  26.685  31.511  1.00  0.00     0.031 C 
ATOM     54  C   UNL A   1      43.627  28.077  33.439  1.00  0.00     0.034 A 
BRANCH  41  55
ATOM     55  C   UNL A   1      39.242  32.059  35.316  1.00  0.00     0.023 A 
ATOM     56  C   UNL A   1      39.660  33.398  35.434  1.00  0.00     0.031 A 
ATOM     57  C   UNL A   1      38.338  31.572  36.277  1.00  0.00     0.131 A 
ATOM     58  C   UNL A   1      39.260  34.166  36.538  1.00  0.00     0.055 A 
ATOM     59  C   UNL A   1      37.867  32.372  37.321  1.00  0.00     0.041 A 
ATOM     60  F   UNL A   1      37.912  30.300  36.233  1.00  0.00    -0.206 F 
ATOM     61  C   UNL A   1      38.344  33.671  37.468  1.00  0.00     0.022 A 
BRANCH  58  62
ATOM     62  S   UNL A   1      40.090  35.752  36.834  1.00  0.00     0.124 S 
ATOM     63  O   UNL A   1      39.618  36.545  35.702  1.00  0.00    -0.237 OA
ATOM     64  O   UNL A   1      39.576  36.136  38.144  1.00  0.00    -0.237 OA
ATOM     65  O   UNL A   1      41.510  35.409  36.796  1.00  0.00    -0.744 OA
ENDBRANCH  58  62
ENDBRANCH  41  55
BRANCH  42  66
ATOM     66  C   UNL A   1      42.534  26.447  27.697  1.00  0.00     0.023 A 
ATOM     67  C   UNL A   1      42.108  25.132  27.452  1.00  0.00     0.031 A 
ATOM     68  C   UNL A   1      43.504  26.995  26.840  1.00  0.00     0.131 A 
ATOM     69  C   UNL A   1      42.681  24.393  26.405  1.00  0.00     0.055 A 
ATOM     70  C   UNL A   1      44.035  26.275  25.768  1.00  0.00     0.041 A 
ATOM     71  F   UNL A   1      43.943  28.251  27.024  1.00  0.00    -0.206 F 
ATOM     72  C   UNL A   1      43.632  24.960  25.553  1.00  0.00     0.022 A 
BRANCH  69  73
ATOM     73  S   UNL A   1      42.222  22.648  26.216  1.00  0.00     0.124 S 
ATOM     74  O   UNL A   1      40.765  22.718  26.254  1.00  0.00    -0.237 OA
ATOM     75  O   UNL A   1      42.815  22.319  24.924  1.00  0.00    -0.237 OA
ATOM     76  O   UNL A   1      42.848  22.004  27.369  1.00  0.00    -0.744 OA
ENDBRANCH  69  73
ENDBRANCH  42  66
BRANCH  54  77
ATOM     77  C   UNL A   1      44.773  27.483  34.224  1.00  0.00     0.023 A 
ATOM     78  C   UNL A   1      44.643  26.275  34.933  1.00  0.00     0.031 A 
ATOM     79  C   UNL A   1      46.010  28.150  34.283  1.00  0.00     0.131 A 
ATOM     80  C   UNL A   1      45.705  25.809  35.723  1.00  0.00     0.055 A 
ATOM     81  C   UNL A   1      47.084  27.648  35.018  1.00  0.00     0.041 A 
ATOM     82  F   UNL A   1      46.193  29.308  33.626  1.00  0.00    -0.206 F 
ATOM     83  C   UNL A   1      46.931  26.479  35.756  1.00  0.00     0.022 A 
BRANCH  80  84
ATOM     84  S   UNL A   1      45.427  24.373  36.797  1.00  0.00     0.124 S 
ATOM     85  O   UNL A   1      44.833  24.989  37.979  1.00  0.00    -0.237 OA
ATOM     86  O   UNL A   1      44.533  23.549  35.989  1.00  0.00    -0.237 OA
ATOM     87  O   UNL A   1      46.768  23.826  36.990  1.00  0.00    -0.744 OA
ENDBRANCH  80  84
ENDBRANCH  54  77
ENDBRANCH  28  29
ENDBRANCH  20  23
ENDBRANCH  18  19
ENDBRANCH   1  18
TORSDOF 16
ENDMDL
