MODEL 1
REMARK VINA RESULT:     -11.5      0.000      0.000
REMARK SMILES O=C(Cn1nc(C2CC2)c2c(C(F)F)cc(-c3ccc(Cl)cc3)nc21)NCCCNC(=O)c1ccc(-c2c3nc(c(-c4cc(S(=O)(=O)[O-])ccc4F)c4ccc([nH]4)c(-c4cc(S(=O)(=O)[O-])ccc4F)c4nc(c(-c5cc(S(=O)(=O)[O-])ccc5F)c5ccc2[nH]5)C=C4)C=C3)cc1
REMARK SMILES IDX 28 1 27 2 26 3 1 4 2 5 3 7 4 8 5 9 25 10 6 11 10 12 24 13
REMARK SMILES IDX 11 14 16 15 15 16 7 17 8 18 9 19 12 20 13 21 14 22 17 23
REMARK SMILES IDX 18 24 23 25 19 26 22 27 20 28 21 29 29 30 30 31 31 32 32 34
REMARK SMILES IDX 33 35 34 36 95 37 35 38 94 39 36 40 37 41 38 42 88 43 39 44
REMARK SMILES IDX 93 45 87 46 89 47 40 48 92 49 86 50 85 51 41 53 73 54 53 55
REMARK SMILES IDX 72 56 54 57 57 58 71 59 90 60 55 61 56 62 70 64 91 65 58 66
REMARK SMILES IDX 42 67 43 68 51 69 44 70 50 71 52 72 49 73 45 74 46 75 47 76
REMARK SMILES IDX 48 77 74 78 75 79 83 80 76 81 82 82 84 83 81 84 77 85 78 86
REMARK SMILES IDX 79 87 80 88 59 89 60 90 68 91 61 92 67 93 69 94 66 95 62 96
REMARK SMILES IDX 63 97 64 98 65 99
REMARK H PARENT 26 6 30 33 89 52 57 63
REMARK Flexibility Score: inf
ROOT
ATOM      1  C   UNL A   1      42.657  20.220  26.103  1.00  0.00     0.042 C 
ENDROOT
BRANCH   1   2
ATOM      2  C   UNL A   1      44.011  20.752  25.629  1.00  0.00     0.117 C 
BRANCH   2   3
ATOM      3  N   UNL A   1      44.117  22.203  25.671  1.00  0.00    -0.354 N 
ATOM      4  O   UNL A   1      44.234  22.532  23.409  1.00  0.00    -0.273 OA
ATOM      5  C   UNL A   1      44.169  23.000  24.545  1.00  0.00     0.241 C 
ATOM      6  H   UNL A   1      44.154  22.641  26.552  1.00  0.00     0.163 HD
BRANCH   5   7
ATOM      7  C   UNL A   1      44.190  24.495  24.807  1.00  0.00     0.246 C 
BRANCH   7   8
ATOM      8  N   UNL A   1      45.480  24.955  25.293  1.00  0.00    -0.237 N 
ATOM      9  N   UNL A   1      46.442  25.323  24.437  1.00  0.00    -0.175 NA
ATOM     10  C   UNL A   1      45.878  25.014  26.599  1.00  0.00     0.159 A 
ATOM     11  C   UNL A   1      47.518  25.527  25.213  1.00  0.00     0.076 A 
ATOM     12  C   UNL A   1      47.248  25.332  26.607  1.00  0.00     0.051 A 
ATOM     13  N   UNL A   1      45.054  24.810  27.649  1.00  0.00    -0.228 NA
ATOM     14  C   UNL A   1      47.878  25.386  27.882  1.00  0.00     0.033 A 
ATOM     15  C   UNL A   1      45.677  24.951  28.827  1.00  0.00     0.073 A 
ATOM     16  C   UNL A   1      47.030  25.196  28.980  1.00  0.00     0.039 A 
BRANCH  11  17
ATOM     17  C   UNL A   1      48.780  25.947  24.470  1.00  0.00     0.041 C 
ATOM     18  C   UNL A   1      48.810  27.050  23.451  1.00  0.00     0.011 C 
ATOM     19  C   UNL A   1      49.441  27.261  24.791  1.00  0.00     0.011 C 
ENDBRANCH  11  17
BRANCH  14  20
ATOM     20  C   UNL A   1      49.297  25.697  28.288  1.00  0.00     0.373 C 
ATOM     21  F   UNL A   1      50.262  24.979  27.670  1.00  0.00    -0.205 F 
ATOM     22  F   UNL A   1      49.604  27.015  28.123  1.00  0.00    -0.205 F 
ENDBRANCH  14  20
BRANCH  15  23
ATOM     23  C   UNL A   1      44.939  24.689  30.039  1.00  0.00     0.000 A 
ATOM     24  C   UNL A   1      44.175  23.541  30.078  1.00  0.00     0.012 A 
ATOM     25  C   UNL A   1      45.206  25.386  31.234  1.00  0.00     0.012 A 
ATOM     26  C   UNL A   1      43.791  23.065  31.312  1.00  0.00     0.021 A 
ATOM     27  C   UNL A   1      44.800  24.880  32.470  1.00  0.00     0.021 A 
ATOM     28  C   UNL A   1      44.121  23.681  32.510  1.00  0.00     0.041 A 
ATOM     29  Cl  UNL A   1      43.705  22.963  34.013  1.00  0.00    -0.084 Cl
ENDBRANCH  15  23
ENDBRANCH   7   8
ENDBRANCH   5   7
ENDBRANCH   2   3
ENDBRANCH   1   2
BRANCH   1  30
ATOM     30  C   UNL A   1      41.805  21.296  26.749  1.00  0.00     0.118 C 
BRANCH  30  31
ATOM     31  N   UNL A   1      40.441  21.401  26.259  1.00  0.00    -0.352 N 
ATOM     32  C   UNL A   1      39.527  22.430  26.430  1.00  0.00     0.251 C 
ATOM     33  H   UNL A   1      40.122  20.634  25.730  1.00  0.00     0.163 HD
ATOM     34  O   UNL A   1      38.370  22.246  26.075  1.00  0.00    -0.269 OA
BRANCH  32  35
ATOM     35  C   UNL A   1      39.938  23.768  26.962  1.00  0.00     0.039 A 
ATOM     36  C   UNL A   1      41.155  23.920  27.647  1.00  0.00     0.014 A 
ATOM     37  C   UNL A   1      39.051  24.840  26.965  1.00  0.00     0.014 A 
ATOM     38  C   UNL A   1      41.409  25.088  28.390  1.00  0.00     0.010 A 
ATOM     39  C   UNL A   1      39.305  25.997  27.661  1.00  0.00     0.010 A 
ATOM     40  C   UNL A   1      40.433  26.086  28.461  1.00  0.00    -0.014 A 
BRANCH  40  41
ATOM     41  C   UNL A   1      40.580  27.371  29.135  1.00  0.00     0.031 A 
ATOM     42  C   UNL A   1      41.552  28.208  28.405  1.00  0.00     0.074 A 
ATOM     43  C   UNL A   1      39.755  27.905  30.067  1.00  0.00     0.049 A 
ATOM     44  N   UNL A   1      42.790  28.338  28.748  1.00  0.00    -0.248 NA
ATOM     45  C   UNL A   1      41.242  28.708  27.054  1.00  0.00     0.031 C 
ATOM     46  C   UNL A   1      38.663  27.324  30.841  1.00  0.00     0.029 A 
ATOM     47  N   UNL A   1      39.686  29.205  30.464  1.00  0.00    -0.354 N 
ATOM     48  C   UNL A   1      43.327  29.185  27.796  1.00  0.00     0.074 A 
ATOM     49  C   UNL A   1      42.455  29.096  26.654  1.00  0.00     0.031 C 
ATOM     50  C   UNL A   1      37.839  28.279  31.326  1.00  0.00     0.029 A 
ATOM     51  C   UNL A   1      38.523  29.541  31.146  1.00  0.00     0.049 A 
ATOM     52  H   UNL A   1      40.402  29.855  30.282  1.00  0.00     0.167 HD
ATOM     53  C   UNL A   1      44.218  30.150  28.158  1.00  0.00     0.034 A 
ATOM     54  C   UNL A   1      38.200  30.695  31.782  1.00  0.00     0.034 A 
ATOM     55  C   UNL A   1      44.641  29.970  29.528  1.00  0.00     0.049 A 
ATOM     56  C   UNL A   1      39.478  31.390  32.048  1.00  0.00     0.074 A 
ATOM     57  C   UNL A   1      45.279  28.965  30.227  1.00  0.00     0.029 A 
ATOM     58  N   UNL A   1      44.005  30.748  30.469  1.00  0.00    -0.354 N 
ATOM     59  N   UNL A   1      40.360  30.942  32.900  1.00  0.00    -0.248 NA
ATOM     60  C   UNL A   1      39.996  32.266  31.011  1.00  0.00     0.031 C 
ATOM     61  C   UNL A   1      44.655  28.943  31.507  1.00  0.00     0.029 A 
ATOM     62  C   UNL A   1      43.719  29.979  31.568  1.00  0.00     0.049 A 
ATOM     63  H   UNL A   1      43.790  31.703  30.370  1.00  0.00     0.167 HD
ATOM     64  C   UNL A   1      41.575  31.081  32.243  1.00  0.00     0.074 A 
ATOM     65  C   UNL A   1      41.299  31.998  31.135  1.00  0.00     0.031 C 
ATOM     66  C   UNL A   1      42.606  30.215  32.473  1.00  0.00     0.034 A 
BRANCH  53  67
ATOM     67  C   UNL A   1      44.358  31.462  27.433  1.00  0.00     0.023 A 
ATOM     68  C   UNL A   1      43.699  32.640  27.836  1.00  0.00     0.031 A 
ATOM     69  C   UNL A   1      45.330  31.613  26.431  1.00  0.00     0.131 A 
ATOM     70  C   UNL A   1      43.973  33.878  27.250  1.00  0.00     0.055 A 
ATOM     71  C   UNL A   1      45.658  32.863  25.892  1.00  0.00     0.041 A 
ATOM     72  F   UNL A   1      46.031  30.558  25.989  1.00  0.00    -0.206 F 
ATOM     73  C   UNL A   1      44.976  34.005  26.298  1.00  0.00     0.022 A 
BRANCH  70  74
ATOM     74  S   UNL A   1      43.036  35.348  27.755  1.00  0.00     0.124 S 
ATOM     75  O   UNL A   1      44.101  36.253  28.170  1.00  0.00    -0.237 OA
ATOM     76  O   UNL A   1      42.349  35.698  26.514  1.00  0.00    -0.237 OA
ATOM     77  O   UNL A   1      42.170  34.852  28.821  1.00  0.00    -0.744 OA
ENDBRANCH  70  74
ENDBRANCH  53  67
BRANCH  54  78
ATOM     78  C   UNL A   1      36.902  31.395  31.620  1.00  0.00     0.023 A 
ATOM     79  C   UNL A   1      36.335  31.552  30.339  1.00  0.00     0.031 A 
ATOM     80  C   UNL A   1      36.338  32.136  32.670  1.00  0.00     0.131 A 
ATOM     81  C   UNL A   1      35.300  32.471  30.126  1.00  0.00     0.055 A 
ATOM     82  C   UNL A   1      35.290  33.041  32.458  1.00  0.00     0.041 A 
ATOM     83  F   UNL A   1      36.833  32.038  33.914  1.00  0.00    -0.206 F 
ATOM     84  C   UNL A   1      34.776  33.225  31.176  1.00  0.00     0.022 A 
BRANCH  81  85
ATOM     85  S   UNL A   1      34.654  32.741  28.450  1.00  0.00     0.124 S 
ATOM     86  O   UNL A   1      33.686  33.815  28.658  1.00  0.00    -0.237 OA
ATOM     87  O   UNL A   1      35.861  33.114  27.723  1.00  0.00    -0.237 OA
ATOM     88  O   UNL A   1      34.072  31.448  28.098  1.00  0.00    -0.744 OA
ENDBRANCH  81  85
ENDBRANCH  54  78
BRANCH  66  89
ATOM     89  C   UNL A   1      42.516  29.273  33.657  1.00  0.00     0.023 A 
ATOM     90  C   UNL A   1      43.238  29.632  34.805  1.00  0.00     0.031 A 
ATOM     91  C   UNL A   1      41.972  27.976  33.616  1.00  0.00     0.131 A 
ATOM     92  C   UNL A   1      43.449  28.703  35.831  1.00  0.00     0.055 A 
ATOM     93  C   UNL A   1      42.141  27.063  34.665  1.00  0.00     0.041 A 
ATOM     94  F   UNL A   1      41.330  27.523  32.536  1.00  0.00    -0.206 F 
ATOM     95  C   UNL A   1      42.899  27.420  35.774  1.00  0.00     0.022 A 
BRANCH  92  96
ATOM     96  S   UNL A   1      44.557  29.105  37.203  1.00  0.00     0.124 S 
ATOM     97  O   UNL A   1      44.777  27.799  37.817  1.00  0.00    -0.237 OA
ATOM     98  O   UNL A   1      45.711  29.674  36.509  1.00  0.00    -0.237 OA
ATOM     99  O   UNL A   1      43.792  30.052  38.010  1.00  0.00    -0.744 OA
ENDBRANCH  92  96
ENDBRANCH  66  89
ENDBRANCH  40  41
ENDBRANCH  32  35
ENDBRANCH  30  31
ENDBRANCH   1  30
TORSDOF 17
ENDMDL
MODEL 2
REMARK VINA RESULT:     -11.3      3.759     11.034
REMARK SMILES O=C(Cn1nc(C2CC2)c2c(C(F)F)cc(-c3ccc(Cl)cc3)nc21)NCCCNC(=O)c1ccc(-c2c3nc(c(-c4cc(S(=O)(=O)[O-])ccc4F)c4ccc([nH]4)c(-c4cc(S(=O)(=O)[O-])ccc4F)c4nc(c(-c5cc(S(=O)(=O)[O-])ccc5F)c5ccc2[nH]5)C=C4)C=C3)cc1
REMARK SMILES IDX 28 1 27 2 26 3 1 4 2 5 3 7 4 8 5 9 25 10 6 11 10 12 24 13
REMARK SMILES IDX 11 14 16 15 15 16 7 17 8 18 9 19 12 20 13 21 14 22 17 23
REMARK SMILES IDX 18 24 23 25 19 26 22 27 20 28 21 29 29 30 30 31 31 32 32 34
REMARK SMILES IDX 33 35 34 36 95 37 35 38 94 39 36 40 37 41 38 42 88 43 39 44
REMARK SMILES IDX 93 45 87 46 89 47 40 48 92 49 86 50 85 51 41 53 73 54 53 55
REMARK SMILES IDX 72 56 54 57 57 58 71 59 90 60 55 61 56 62 70 64 91 65 58 66
REMARK SMILES IDX 42 67 43 68 51 69 44 70 50 71 52 72 49 73 45 74 46 75 47 76
REMARK SMILES IDX 48 77 74 78 75 79 83 80 76 81 82 82 84 83 81 84 77 85 78 86
REMARK SMILES IDX 79 87 80 88 59 89 60 90 68 91 61 92 67 93 69 94 66 95 62 96
REMARK SMILES IDX 63 97 64 98 65 99
REMARK H PARENT 26 6 30 33 89 52 57 63
REMARK Flexibility Score: inf
ROOT
ATOM      1  C   UNL A   1      35.231  34.251  31.732  1.00  0.00     0.042 C 
ENDROOT
BRANCH   1   2
ATOM      2  C   UNL A   1      34.841  33.102  32.665  1.00  0.00     0.117 C 
BRANCH   2   3
ATOM      3  N   UNL A   1      35.978  32.352  33.177  1.00  0.00    -0.354 N 
ATOM      4  O   UNL A   1      35.748  30.538  31.800  1.00  0.00    -0.273 OA
ATOM      5  C   UNL A   1      36.386  31.136  32.667  1.00  0.00     0.241 C 
ATOM      6  H   UNL A   1      36.486  32.734  33.929  1.00  0.00     0.163 HD
BRANCH   5   7
ATOM      7  C   UNL A   1      37.647  30.561  33.283  1.00  0.00     0.246 C 
BRANCH   7   8
ATOM      8  N   UNL A   1      38.345  31.525  34.117  1.00  0.00    -0.237 N 
ATOM      9  N   UNL A   1      38.195  31.513  35.449  1.00  0.00    -0.175 NA
ATOM     10  C   UNL A   1      39.149  32.541  33.681  1.00  0.00     0.159 A 
ATOM     11  C   UNL A   1      38.840  32.614  35.866  1.00  0.00     0.076 A 
ATOM     12  C   UNL A   1      39.461  33.338  34.796  1.00  0.00     0.051 A 
ATOM     13  N   UNL A   1      39.549  32.689  32.399  1.00  0.00    -0.228 NA
ATOM     14  C   UNL A   1      40.251  34.495  34.545  1.00  0.00     0.033 A 
ATOM     15  C   UNL A   1      40.355  33.746  32.231  1.00  0.00     0.073 A 
ATOM     16  C   UNL A   1      40.690  34.649  33.224  1.00  0.00     0.039 A 
BRANCH  11  17
ATOM     17  C   UNL A   1      38.807  32.851  37.370  1.00  0.00     0.041 C 
ATOM     18  C   UNL A   1      38.474  34.178  37.989  1.00  0.00     0.011 C 
ATOM     19  C   UNL A   1      37.490  33.054  38.072  1.00  0.00     0.011 C 
ENDBRANCH  11  17
BRANCH  14  20
ATOM     20  C   UNL A   1      40.786  35.564  35.465  1.00  0.00     0.373 C 
ATOM     21  F   UNL A   1      39.947  36.591  35.733  1.00  0.00    -0.205 F 
ATOM     22  F   UNL A   1      41.199  35.057  36.661  1.00  0.00    -0.205 F 
ENDBRANCH  14  20
BRANCH  15  23
ATOM     23  C   UNL A   1      40.803  34.073  30.899  1.00  0.00     0.000 A 
ATOM     24  C   UNL A   1      39.843  34.464  29.989  1.00  0.00     0.012 A 
ATOM     25  C   UNL A   1      42.164  34.285  30.606  1.00  0.00     0.012 A 
ATOM     26  C   UNL A   1      40.260  35.147  28.868  1.00  0.00     0.021 A 
ATOM     27  C   UNL A   1      42.556  34.977  29.459  1.00  0.00     0.021 A 
ATOM     28  C   UNL A   1      41.586  35.451  28.602  1.00  0.00     0.041 A 
ATOM     29  Cl  UNL A   1      42.016  36.407  27.241  1.00  0.00    -0.084 Cl
ENDBRANCH  15  23
ENDBRANCH   7   8
ENDBRANCH   5   7
ENDBRANCH   2   3
ENDBRANCH   1   2
BRANCH   1  30
ATOM     30  C   UNL A   1      35.651  33.765  30.358  1.00  0.00     0.118 C 
BRANCH  30  31
ATOM     31  N   UNL A   1      34.660  32.987  29.634  1.00  0.00    -0.352 N 
ATOM     32  C   UNL A   1      34.850  31.933  28.752  1.00  0.00     0.251 C 
ATOM     33  H   UNL A   1      33.723  33.244  29.791  1.00  0.00     0.163 HD
ATOM     34  O   UNL A   1      33.886  31.524  28.118  1.00  0.00    -0.269 OA
BRANCH  32  35
ATOM     35  C   UNL A   1      36.174  31.248  28.617  1.00  0.00     0.039 A 
ATOM     36  C   UNL A   1      36.245  29.907  28.205  1.00  0.00     0.014 A 
ATOM     37  C   UNL A   1      37.342  31.851  29.075  1.00  0.00     0.014 A 
ATOM     38  C   UNL A   1      37.442  29.182  28.353  1.00  0.00     0.010 A 
ATOM     39  C   UNL A   1      38.523  31.160  29.192  1.00  0.00     0.010 A 
ATOM     40  C   UNL A   1      38.554  29.799  28.933  1.00  0.00    -0.014 A 
BRANCH  40  41
ATOM     41  C   UNL A   1      39.873  29.197  29.091  1.00  0.00     0.031 A 
ATOM     42  C   UNL A   1      40.099  28.855  30.509  1.00  0.00     0.074 A 
ATOM     43  C   UNL A   1      40.664  28.693  28.114  1.00  0.00     0.049 A 
ATOM     44  N   UNL A   1      40.777  29.589  31.327  1.00  0.00    -0.248 NA
ATOM     45  C   UNL A   1      39.302  27.801  31.161  1.00  0.00     0.031 C 
ATOM     46  C   UNL A   1      40.593  28.795  26.660  1.00  0.00     0.029 A 
ATOM     47  N   UNL A   1      41.725  27.853  28.259  1.00  0.00    -0.354 N 
ATOM     48  C   UNL A   1      40.722  28.912  32.530  1.00  0.00     0.074 A 
ATOM     49  C   UNL A   1      39.572  28.051  32.444  1.00  0.00     0.031 C 
ATOM     50  C   UNL A   1      41.303  27.814  26.060  1.00  0.00     0.029 A 
ATOM     51  C   UNL A   1      42.117  27.208  27.091  1.00  0.00     0.049 A 
ATOM     52  H   UNL A   1      42.179  27.712  29.121  1.00  0.00     0.167 HD
ATOM     53  C   UNL A   1      41.820  28.846  33.333  1.00  0.00     0.034 A 
ATOM     54  C   UNL A   1      43.198  26.422  26.863  1.00  0.00     0.034 A 
ATOM     55  C   UNL A   1      42.855  29.737  32.861  1.00  0.00     0.049 A 
ATOM     56  C   UNL A   1      44.169  26.737  27.933  1.00  0.00     0.074 A 
ATOM     57  C   UNL A   1      42.951  31.099  32.658  1.00  0.00     0.029 A 
ATOM     58  N   UNL A   1      43.853  29.166  32.104  1.00  0.00    -0.354 N 
ATOM     59  N   UNL A   1      44.782  27.887  28.013  1.00  0.00    -0.248 NA
ATOM     60  C   UNL A   1      44.063  25.994  29.177  1.00  0.00     0.031 C 
ATOM     61  C   UNL A   1      43.723  31.249  31.471  1.00  0.00     0.029 A 
ATOM     62  C   UNL A   1      44.134  29.984  31.040  1.00  0.00     0.049 A 
ATOM     63  H   UNL A   1      44.294  28.307  32.295  1.00  0.00     0.167 HD
ATOM     64  C   UNL A   1      44.710  28.222  29.358  1.00  0.00     0.074 A 
ATOM     65  C   UNL A   1      44.355  26.974  30.037  1.00  0.00     0.031 C 
ATOM     66  C   UNL A   1      44.646  29.526  29.759  1.00  0.00     0.034 A 
BRANCH  53  67
ATOM     67  C   UNL A   1      42.106  27.689  34.253  1.00  0.00     0.023 A 
ATOM     68  C   UNL A   1      42.855  26.562  33.865  1.00  0.00     0.031 A 
ATOM     69  C   UNL A   1      41.804  27.786  35.622  1.00  0.00     0.131 A 
ATOM     70  C   UNL A   1      43.247  25.582  34.781  1.00  0.00     0.055 A 
ATOM     71  C   UNL A   1      42.256  26.843  36.554  1.00  0.00     0.041 A 
ATOM     72  F   UNL A   1      41.112  28.830  36.101  1.00  0.00    -0.206 F 
ATOM     73  C   UNL A   1      42.978  25.731  36.135  1.00  0.00     0.022 A 
BRANCH  70  74
ATOM     74  S   UNL A   1      44.144  24.112  34.210  1.00  0.00     0.124 S 
ATOM     75  O   UNL A   1      45.294  24.097  35.104  1.00  0.00    -0.237 OA
ATOM     76  O   UNL A   1      43.153  23.061  34.428  1.00  0.00    -0.237 OA
ATOM     77  O   UNL A   1      44.430  24.409  32.809  1.00  0.00    -0.744 OA
ENDBRANCH  70  74
ENDBRANCH  53  67
BRANCH  54  78
ATOM     78  C   UNL A   1      43.139  25.114  26.165  1.00  0.00     0.023 A 
ATOM     79  C   UNL A   1      42.232  24.123  26.590  1.00  0.00     0.031 A 
ATOM     80  C   UNL A   1      44.135  24.729  25.254  1.00  0.00     0.131 A 
ATOM     81  C   UNL A   1      42.379  22.795  26.170  1.00  0.00     0.055 A 
ATOM     82  C   UNL A   1      44.269  23.404  24.819  1.00  0.00     0.041 A 
ATOM     83  F   UNL A   1      45.035  25.622  24.812  1.00  0.00    -0.206 F 
ATOM     84  C   UNL A   1      43.398  22.424  25.291  1.00  0.00     0.022 A 
BRANCH  81  85
ATOM     85  S   UNL A   1      41.269  21.509  26.812  1.00  0.00     0.124 S 
ATOM     86  O   UNL A   1      40.214  21.474  25.801  1.00  0.00    -0.237 OA
ATOM     87  O   UNL A   1      42.147  20.346  26.844  1.00  0.00    -0.237 OA
ATOM     88  O   UNL A   1      40.858  22.034  28.112  1.00  0.00    -0.744 OA
ENDBRANCH  81  85
ENDBRANCH  54  78
BRANCH  66  89
ATOM     89  C   UNL A   1      44.941  30.615  28.747  1.00  0.00     0.023 A 
ATOM     90  C   UNL A   1      46.288  30.965  28.572  1.00  0.00     0.031 A 
ATOM     91  C   UNL A   1      43.975  31.450  28.156  1.00  0.00     0.131 A 
ATOM     92  C   UNL A   1      46.634  32.135  27.886  1.00  0.00     0.055 A 
ATOM     93  C   UNL A   1      44.324  32.594  27.427  1.00  0.00     0.041 A 
ATOM     94  F   UNL A   1      42.668  31.235  28.328  1.00  0.00    -0.206 F 
ATOM     95  C   UNL A   1      45.662  32.951  27.304  1.00  0.00     0.022 A 
BRANCH  92  96
ATOM     96  S   UNL A   1      48.356  32.688  27.850  1.00  0.00     0.124 S 
ATOM     97  O   UNL A   1      48.750  32.386  26.477  1.00  0.00    -0.237 OA
ATOM     98  O   UNL A   1      48.229  34.109  28.168  1.00  0.00    -0.237 OA
ATOM     99  O   UNL A   1      49.009  31.880  28.877  1.00  0.00    -0.744 OA
ENDBRANCH  92  96
ENDBRANCH  66  89
ENDBRANCH  40  41
ENDBRANCH  32  35
ENDBRANCH  30  31
ENDBRANCH   1  30
TORSDOF 17
ENDMDL
MODEL 3
REMARK VINA RESULT:     -10.7      4.247     11.028
REMARK SMILES O=C(Cn1nc(C2CC2)c2c(C(F)F)cc(-c3ccc(Cl)cc3)nc21)NCCCNC(=O)c1ccc(-c2c3nc(c(-c4cc(S(=O)(=O)[O-])ccc4F)c4ccc([nH]4)c(-c4cc(S(=O)(=O)[O-])ccc4F)c4nc(c(-c5cc(S(=O)(=O)[O-])ccc5F)c5ccc2[nH]5)C=C4)C=C3)cc1
REMARK SMILES IDX 28 1 27 2 26 3 1 4 2 5 3 7 4 8 5 9 25 10 6 11 10 12 24 13
REMARK SMILES IDX 11 14 16 15 15 16 7 17 8 18 9 19 12 20 13 21 14 22 17 23
REMARK SMILES IDX 18 24 23 25 19 26 22 27 20 28 21 29 29 30 30 31 31 32 32 34
REMARK SMILES IDX 33 35 34 36 95 37 35 38 94 39 36 40 37 41 38 42 88 43 39 44
REMARK SMILES IDX 93 45 87 46 89 47 40 48 92 49 86 50 85 51 41 53 73 54 53 55
REMARK SMILES IDX 72 56 54 57 57 58 71 59 90 60 55 61 56 62 70 64 91 65 58 66
REMARK SMILES IDX 42 67 43 68 51 69 44 70 50 71 52 72 49 73 45 74 46 75 47 76
REMARK SMILES IDX 48 77 74 78 75 79 83 80 76 81 82 82 84 83 81 84 77 85 78 86
REMARK SMILES IDX 79 87 80 88 59 89 60 90 68 91 61 92 67 93 69 94 66 95 62 96
REMARK SMILES IDX 63 97 64 98 65 99
REMARK H PARENT 26 6 30 33 89 52 57 63
REMARK Flexibility Score: inf
ROOT
ATOM      1  C   UNL A   1      33.786  34.391  32.924  1.00  0.00     0.042 C 
ENDROOT
BRANCH   1   2
ATOM      2  C   UNL A   1      33.421  35.224  31.693  1.00  0.00     0.117 C 
BRANCH   2   3
ATOM      3  N   UNL A   1      33.668  34.543  30.431  1.00  0.00    -0.354 N 
ATOM      4  O   UNL A   1      32.529  36.016  29.100  1.00  0.00    -0.273 OA
ATOM      5  C   UNL A   1      33.244  35.020  29.207  1.00  0.00     0.241 C 
ATOM      6  H   UNL A   1      34.165  33.693  30.451  1.00  0.00     0.163 HD
BRANCH   5   7
ATOM      7  C   UNL A   1      33.680  34.205  28.004  1.00  0.00     0.246 C 
BRANCH   7   8
ATOM      8  N   UNL A   1      34.835  33.370  28.289  1.00  0.00    -0.237 N 
ATOM      9  N   UNL A   1      35.939  33.894  28.840  1.00  0.00    -0.175 NA
ATOM     10  C   UNL A   1      34.964  32.040  28.001  1.00  0.00     0.159 A 
ATOM     11  C   UNL A   1      36.833  32.894  28.809  1.00  0.00     0.076 A 
ATOM     12  C   UNL A   1      36.296  31.679  28.270  1.00  0.00     0.051 A 
ATOM     13  N   UNL A   1      33.953  31.263  27.556  1.00  0.00    -0.228 NA
ATOM     14  C   UNL A   1      36.658  30.334  27.979  1.00  0.00     0.033 A 
ATOM     15  C   UNL A   1      34.325  29.989  27.374  1.00  0.00     0.073 A 
ATOM     16  C   UNL A   1      35.614  29.512  27.536  1.00  0.00     0.039 A 
BRANCH  11  17
ATOM     17  C   UNL A   1      38.206  33.237  29.372  1.00  0.00     0.041 C 
ATOM     18  C   UNL A   1      38.715  34.644  29.505  1.00  0.00     0.011 C 
ATOM     19  C   UNL A   1      38.326  33.878  30.729  1.00  0.00     0.011 C 
ENDBRANCH  11  17
BRANCH  14  20
ATOM     20  C   UNL A   1      37.959  29.587  28.138  1.00  0.00     0.373 C 
ATOM     21  F   UNL A   1      37.856  28.275  28.448  1.00  0.00    -0.205 F 
ATOM     22  F   UNL A   1      38.746  29.680  27.028  1.00  0.00    -0.205 F 
ENDBRANCH  14  20
BRANCH  15  23
ATOM     23  C   UNL A   1      33.367  29.057  26.830  1.00  0.00     0.000 A 
ATOM     24  C   UNL A   1      33.817  28.183  25.861  1.00  0.00     0.012 A 
ATOM     25  C   UNL A   1      32.124  28.826  27.450  1.00  0.00     0.012 A 
ATOM     26  C   UNL A   1      33.067  27.054  25.616  1.00  0.00     0.021 A 
ATOM     27  C   UNL A   1      31.385  27.674  27.178  1.00  0.00     0.021 A 
ATOM     28  C   UNL A   1      31.887  26.755  26.280  1.00  0.00     0.041 A 
ATOM     29  Cl  UNL A   1      31.071  25.271  26.002  1.00  0.00    -0.084 Cl
ENDBRANCH  15  23
ENDBRANCH   7   8
ENDBRANCH   5   7
ENDBRANCH   2   3
ENDBRANCH   1   2
BRANCH   1  30
ATOM     30  C   UNL A   1      35.274  34.409  33.217  1.00  0.00     0.118 C 
BRANCH  30  31
ATOM     31  N   UNL A   1      35.645  34.265  34.614  1.00  0.00    -0.352 N 
ATOM     32  C   UNL A   1      36.626  33.464  35.180  1.00  0.00     0.251 C 
ATOM     33  H   UNL A   1      35.127  34.812  35.248  1.00  0.00     0.163 HD
ATOM     34  O   UNL A   1      36.662  33.364  36.400  1.00  0.00    -0.269 OA
BRANCH  32  35
ATOM     35  C   UNL A   1      37.671  32.791  34.347  1.00  0.00     0.039 A 
ATOM     36  C   UNL A   1      37.376  31.604  33.655  1.00  0.00     0.014 A 
ATOM     37  C   UNL A   1      38.998  33.208  34.388  1.00  0.00     0.014 A 
ATOM     38  C   UNL A   1      38.414  30.823  33.114  1.00  0.00     0.010 A 
ATOM     39  C   UNL A   1      40.014  32.468  33.835  1.00  0.00     0.010 A 
ATOM     40  C   UNL A   1      39.742  31.223  33.289  1.00  0.00    -0.014 A 
BRANCH  40  41
ATOM     41  C   UNL A   1      40.911  30.553  32.733  1.00  0.00     0.031 A 
ATOM     42  C   UNL A   1      41.502  29.657  33.747  1.00  0.00     0.074 A 
ATOM     43  C   UNL A   1      41.253  30.454  31.427  1.00  0.00     0.049 A 
ATOM     44  N   UNL A   1      42.523  29.968  34.474  1.00  0.00    -0.248 NA
ATOM     45  C   UNL A   1      40.770  28.465  34.209  1.00  0.00     0.031 C 
ATOM     46  C   UNL A   1      40.752  31.138  30.239  1.00  0.00     0.029 A 
ATOM     47  N   UNL A   1      42.134  29.582  30.865  1.00  0.00    -0.354 N 
ATOM     48  C   UNL A   1      42.724  28.864  35.282  1.00  0.00     0.074 A 
ATOM     49  C   UNL A   1      41.468  28.162  35.306  1.00  0.00     0.031 C 
ATOM     50  C   UNL A   1      41.048  30.455  29.112  1.00  0.00     0.029 A 
ATOM     51  C   UNL A   1      42.019  29.449  29.486  1.00  0.00     0.049 A 
ATOM     52  H   UNL A   1      42.801  29.086  31.392  1.00  0.00     0.167 HD
ATOM     53  C   UNL A   1      43.986  28.432  35.554  1.00  0.00     0.034 A 
ATOM     54  C   UNL A   1      42.812  28.777  28.615  1.00  0.00     0.034 A 
ATOM     55  C   UNL A   1      44.966  29.393  35.102  1.00  0.00     0.049 A 
ATOM     56  C   UNL A   1      44.109  28.590  29.302  1.00  0.00     0.074 A 
ATOM     57  C   UNL A   1      45.240  30.715  35.389  1.00  0.00     0.029 A 
ATOM     58  N   UNL A   1      45.556  29.134  33.885  1.00  0.00    -0.354 N 
ATOM     59  N   UNL A   1      44.915  29.582  29.570  1.00  0.00    -0.248 NA
ATOM     60  C   UNL A   1      44.263  27.412  30.139  1.00  0.00     0.031 C 
ATOM     61  C   UNL A   1      45.617  31.299  34.146  1.00  0.00     0.029 A 
ATOM     62  C   UNL A   1      45.636  30.300  33.168  1.00  0.00     0.049 A 
ATOM     63  H   UNL A   1      45.871  28.253  33.579  1.00  0.00     0.167 HD
ATOM     64  C   UNL A   1      45.328  29.346  30.874  1.00  0.00     0.074 A 
ATOM     65  C   UNL A   1      44.982  27.947  31.131  1.00  0.00     0.031 C 
ATOM     66  C   UNL A   1      45.631  30.378  31.717  1.00  0.00     0.034 A 
BRANCH  53  67
ATOM     67  C   UNL A   1      44.328  26.990  35.821  1.00  0.00     0.023 A 
ATOM     68  C   UNL A   1      44.300  25.994  34.827  1.00  0.00     0.031 A 
ATOM     69  C   UNL A   1      44.899  26.617  37.050  1.00  0.00     0.131 A 
ATOM     70  C   UNL A   1      44.780  24.702  35.059  1.00  0.00     0.055 A 
ATOM     71  C   UNL A   1      45.446  25.346  37.263  1.00  0.00     0.041 A 
ATOM     72  F   UNL A   1      44.994  27.497  38.058  1.00  0.00    -0.206 F 
ATOM     73  C   UNL A   1      45.385  24.379  36.266  1.00  0.00     0.022 A 
BRANCH  70  74
ATOM     74  S   UNL A   1      44.646  23.438  33.766  1.00  0.00     0.124 S 
ATOM     75  O   UNL A   1      44.897  24.216  32.559  1.00  0.00    -0.237 OA
ATOM     76  O   UNL A   1      45.702  22.506  34.155  1.00  0.00    -0.237 OA
ATOM     77  O   UNL A   1      43.286  22.930  33.924  1.00  0.00    -0.744 OA
ENDBRANCH  70  74
ENDBRANCH  53  67
BRANCH  54  78
ATOM     78  C   UNL A   1      42.302  27.868  27.561  1.00  0.00     0.023 A 
ATOM     79  C   UNL A   1      41.297  26.926  27.860  1.00  0.00     0.031 A 
ATOM     80  C   UNL A   1      42.965  27.733  26.331  1.00  0.00     0.131 A 
ATOM     81  C   UNL A   1      41.034  25.861  26.989  1.00  0.00     0.055 A 
ATOM     82  C   UNL A   1      42.689  26.678  25.452  1.00  0.00     0.041 A 
ATOM     83  F   UNL A   1      43.937  28.592  25.985  1.00  0.00    -0.206 F 
ATOM     84  C   UNL A   1      41.730  25.725  25.787  1.00  0.00     0.022 A 
BRANCH  81  85
ATOM     85  S   UNL A   1      39.813  24.597  27.440  1.00  0.00     0.124 S 
ATOM     86  O   UNL A   1      40.653  23.432  27.709  1.00  0.00    -0.237 OA
ATOM     87  O   UNL A   1      39.180  25.198  28.608  1.00  0.00    -0.237 OA
ATOM     88  O   UNL A   1      38.977  24.490  26.246  1.00  0.00    -0.744 OA
ENDBRANCH  81  85
ENDBRANCH  54  78
BRANCH  66  89
ATOM     89  C   UNL A   1      45.788  31.770  31.137  1.00  0.00     0.023 A 
ATOM     90  C   UNL A   1      44.636  32.568  31.090  1.00  0.00     0.031 A 
ATOM     91  C   UNL A   1      46.920  32.229  30.438  1.00  0.00     0.131 A 
ATOM     92  C   UNL A   1      44.613  33.739  30.324  1.00  0.00     0.055 A 
ATOM     93  C   UNL A   1      46.912  33.427  29.713  1.00  0.00     0.041 A 
ATOM     94  F   UNL A   1      48.039  31.503  30.368  1.00  0.00    -0.206 F 
ATOM     95  C   UNL A   1      45.747  34.181  29.639  1.00  0.00     0.022 A 
BRANCH  92  96
ATOM     96  S   UNL A   1      43.063  34.644  30.099  1.00  0.00     0.124 S 
ATOM     97  O   UNL A   1      42.239  34.122  31.187  1.00  0.00    -0.237 OA
ATOM     98  O   UNL A   1      43.494  36.033  30.250  1.00  0.00    -0.237 OA
ATOM     99  O   UNL A   1      42.628  34.274  28.755  1.00  0.00    -0.744 OA
ENDBRANCH  92  96
ENDBRANCH  66  89
ENDBRANCH  40  41
ENDBRANCH  32  35
ENDBRANCH  30  31
ENDBRANCH   1  30
TORSDOF 17
ENDMDL
