MODEL 1
REMARK VINA RESULT:     -13.0      0.000      0.000
REMARK SMILES COc1ccccc1-c1nnc(S[C@@H](C)C(=O)NCCCNC(=O)c2ccc(-c3c4nc(c(-c5cc(S(=O)(=O)[O-])ccc5F)c5ccc([nH]5)c(-c5cc(S(=O)(=O)[O-])ccc5F)c5nc(c(-c6cc(S(=O)(=O)[O-])ccc6F)c6ccc3[nH]6)C=C5)C=C4)cc2)n1-c1ccccc1
REMARK SMILES IDX 19 1 18 2 16 3 17 4 14 6 15 7 13 8 12 9 9 10 10 11 88 12
REMARK SMILES IDX 11 13 8 14 3 15 4 16 5 17 7 18 6 19 2 20 1 21 89 22 90 23
REMARK SMILES IDX 94 24 91 25 93 26 92 27 20 28 21 29 22 30 23 31 24 33 25 34
REMARK SMILES IDX 26 35 87 36 27 37 86 38 28 39 29 40 30 41 80 42 31 43 85 44
REMARK SMILES IDX 79 45 81 46 32 47 84 48 78 49 77 50 33 52 65 53 45 54 64 55
REMARK SMILES IDX 46 56 49 57 63 58 82 59 47 60 48 61 62 63 83 64 50 65 34 66
REMARK SMILES IDX 35 67 43 68 36 69 42 70 44 71 41 72 37 73 38 74 39 75 40 76
REMARK SMILES IDX 66 77 67 78 75 79 68 80 74 81 76 82 73 83 69 84 70 85 71 86
REMARK SMILES IDX 72 87 51 88 52 89 60 90 53 91 59 92 61 93 58 94 54 95 55 96
REMARK SMILES IDX 56 97 57 98
REMARK H PARENT 18 5 22 32 81 51 49 62
REMARK Flexibility Score: inf
ROOT
ATOM      1  C   UNL A   1      36.803  22.680  25.743  1.00  0.00     0.117 C 
ENDROOT
BRANCH   1   2
ATOM      2  N   UNL A   1      35.556  22.553  26.460  1.00  0.00    -0.355 N 
ATOM      3  C   UNL A   1      34.350  22.562  25.785  1.00  0.00     0.233 C 
ATOM      4  O   UNL A   1      33.699  21.513  25.776  1.00  0.00    -0.274 OA
ATOM      5  H   UNL A   1      35.565  22.457  27.440  1.00  0.00     0.163 HD
BRANCH   3   6
ATOM      6  C   UNL A   1      33.707  23.881  25.344  1.00  0.00     0.141 C 
ATOM      7  C   UNL A   1      32.220  24.075  25.636  1.00  0.00     0.030 C 
BRANCH   6   8
ATOM      8  S   UNL A   1      34.186  24.714  23.855  1.00  0.00    -0.073 SA
BRANCH   8   9
ATOM      9  C   UNL A   1      33.124  25.889  23.165  1.00  0.00     0.196 A 
ATOM     10  C   UNL A   1      31.359  27.110  22.700  1.00  0.00     0.173 A 
ATOM     11  N   UNL A   1      31.551  26.260  21.714  1.00  0.00    -0.129 NA
ATOM     12  N   UNL A   1      32.388  26.980  23.652  1.00  0.00    -0.270 N 
ATOM     13  N   UNL A   1      32.680  25.567  21.966  1.00  0.00    -0.122 NA
BRANCH  10  14
ATOM     14  C   UNL A   1      30.292  28.101  22.651  1.00  0.00     0.062 A 
ATOM     15  C   UNL A   1      28.996  27.816  23.086  1.00  0.00     0.129 A 
ATOM     16  C   UNL A   1      27.953  28.690  22.785  1.00  0.00     0.047 A 
ATOM     17  C   UNL A   1      28.227  29.923  22.196  1.00  0.00     0.004 A 
ATOM     18  C   UNL A   1      30.576  29.392  22.180  1.00  0.00     0.016 A 
ATOM     19  C   UNL A   1      29.544  30.304  21.960  1.00  0.00     0.001 A 
BRANCH  15  20
ATOM     20  O   UNL A   1      28.687  26.694  23.814  1.00  0.00    -0.496 OA
ATOM     21  C   UNL A   1      27.299  26.682  24.179  1.00  0.00     0.278 C 
ENDBRANCH  15  20
ENDBRANCH  10  14
BRANCH  12  22
ATOM     22  C   UNL A   1      32.539  27.704  24.882  1.00  0.00     0.050 A 
ATOM     23  C   UNL A   1      33.737  28.352  25.166  1.00  0.00     0.027 A 
ATOM     24  C   UNL A   1      31.537  27.689  25.866  1.00  0.00     0.027 A 
ATOM     25  C   UNL A   1      34.009  28.796  26.467  1.00  0.00     0.002 A 
ATOM     26  C   UNL A   1      31.833  28.072  27.179  1.00  0.00     0.002 A 
ATOM     27  C   UNL A   1      33.083  28.594  27.487  1.00  0.00     0.000 A 
ENDBRANCH  12  22
ENDBRANCH   8   9
ENDBRANCH   6   8
ENDBRANCH   3   6
ENDBRANCH   1   2
BRANCH   1  28
ATOM     28  C   UNL A   1      37.540  21.424  25.300  1.00  0.00     0.042 C 
BRANCH  28  29
ATOM     29  C   UNL A   1      38.956  21.401  25.888  1.00  0.00     0.118 C 
BRANCH  29  30
ATOM     30  N   UNL A   1      39.677  20.109  25.851  1.00  0.00    -0.352 N 
ATOM     31  C   UNL A   1      41.036  19.849  26.041  1.00  0.00     0.251 C 
ATOM     32  H   UNL A   1      39.119  19.320  25.666  1.00  0.00     0.163 HD
ATOM     33  O   UNL A   1      41.521  18.721  26.102  1.00  0.00    -0.269 OA
BRANCH  31  34
ATOM     34  C   UNL A   1      41.884  20.956  26.411  1.00  0.00     0.039 A 
ATOM     35  C   UNL A   1      42.504  21.863  25.538  1.00  0.00     0.014 A 
ATOM     36  C   UNL A   1      41.714  21.194  27.750  1.00  0.00     0.014 A 
ATOM     37  C   UNL A   1      42.904  23.083  26.075  1.00  0.00     0.010 A 
ATOM     38  C   UNL A   1      41.620  22.500  28.033  1.00  0.00     0.010 A 
ATOM     39  C   UNL A   1      42.441  23.379  27.356  1.00  0.00    -0.014 A 
BRANCH  39  40
ATOM     40  C   UNL A   1      42.555  24.611  28.100  1.00  0.00     0.031 A 
ATOM     41  C   UNL A   1      41.386  25.496  27.897  1.00  0.00     0.074 A 
ATOM     42  C   UNL A   1      43.371  24.638  29.188  1.00  0.00     0.049 A 
ATOM     43  N   UNL A   1      41.275  26.439  27.021  1.00  0.00    -0.248 NA
ATOM     44  C   UNL A   1      40.087  25.104  28.488  1.00  0.00     0.031 C 
ATOM     45  C   UNL A   1      44.256  23.577  29.724  1.00  0.00     0.029 A 
ATOM     46  N   UNL A   1      43.488  25.592  30.136  1.00  0.00    -0.354 N 
ATOM     47  C   UNL A   1      40.024  26.994  27.261  1.00  0.00     0.074 A 
ATOM     48  C   UNL A   1      39.259  25.935  27.848  1.00  0.00     0.031 C 
ATOM     49  C   UNL A   1      44.648  23.881  30.984  1.00  0.00     0.029 A 
ATOM     50  C   UNL A   1      44.233  25.240  31.261  1.00  0.00     0.049 A 
ATOM     51  H   UNL A   1      43.074  26.480  30.039  1.00  0.00     0.167 HD
ATOM     52  C   UNL A   1      39.879  28.348  27.355  1.00  0.00     0.034 A 
ATOM     53  C   UNL A   1      44.534  26.045  32.315  1.00  0.00     0.034 A 
ATOM     54  C   UNL A   1      41.131  28.990  26.989  1.00  0.00     0.049 A 
ATOM     55  C   UNL A   1      44.362  27.430  31.801  1.00  0.00     0.074 A 
ATOM     56  C   UNL A   1      41.903  29.050  25.848  1.00  0.00     0.029 A 
ATOM     57  N   UNL A   1      41.970  29.294  28.044  1.00  0.00    -0.354 N 
ATOM     58  N   UNL A   1      45.067  27.918  30.813  1.00  0.00    -0.248 NA
ATOM     59  C   UNL A   1      43.078  28.082  32.017  1.00  0.00     0.031 C 
ATOM     60  C   UNL A   1      43.255  28.985  26.308  1.00  0.00     0.029 A 
ATOM     61  C   UNL A   1      43.271  29.011  27.706  1.00  0.00     0.049 A 
ATOM     62  H   UNL A   1      41.678  29.659  28.909  1.00  0.00     0.167 HD
ATOM     63  C   UNL A   1      44.161  28.623  30.028  1.00  0.00     0.074 A 
ATOM     64  C   UNL A   1      42.989  28.795  30.889  1.00  0.00     0.031 C 
ATOM     65  C   UNL A   1      44.327  28.713  28.672  1.00  0.00     0.034 A 
BRANCH  52  66
ATOM     66  C   UNL A   1      38.840  29.089  28.184  1.00  0.00     0.023 A 
ATOM     67  C   UNL A   1      38.966  28.987  29.585  1.00  0.00     0.031 A 
ATOM     68  C   UNL A   1      37.638  29.680  27.732  1.00  0.00     0.131 A 
ATOM     69  C   UNL A   1      37.914  29.347  30.445  1.00  0.00     0.055 A 
ATOM     70  C   UNL A   1      36.610  30.079  28.594  1.00  0.00     0.041 A 
ATOM     71  F   UNL A   1      37.343  29.850  26.441  1.00  0.00    -0.206 F 
ATOM     72  C   UNL A   1      36.730  29.888  29.957  1.00  0.00     0.022 A 
BRANCH  69  73
ATOM     73  S   UNL A   1      38.068  28.957  32.205  1.00  0.00     0.124 S 
ATOM     74  O   UNL A   1      36.737  29.289  32.698  1.00  0.00    -0.237 OA
ATOM     75  O   UNL A   1      38.411  27.539  32.167  1.00  0.00    -0.237 OA
ATOM     76  O   UNL A   1      39.139  29.843  32.654  1.00  0.00    -0.744 OA
ENDBRANCH  69  73
ENDBRANCH  52  66
BRANCH  53  77
ATOM     77  C   UNL A   1      44.547  25.691  33.766  1.00  0.00     0.023 A 
ATOM     78  C   UNL A   1      43.506  26.045  34.653  1.00  0.00     0.031 A 
ATOM     79  C   UNL A   1      45.485  24.746  34.239  1.00  0.00     0.131 A 
ATOM     80  C   UNL A   1      43.425  25.449  35.937  1.00  0.00     0.055 A 
ATOM     81  C   UNL A   1      45.391  24.150  35.502  1.00  0.00     0.041 A 
ATOM     82  F   UNL A   1      46.477  24.303  33.451  1.00  0.00    -0.206 F 
ATOM     83  C   UNL A   1      44.351  24.489  36.352  1.00  0.00     0.022 A 
BRANCH  80  84
ATOM     84  S   UNL A   1      42.050  25.856  37.068  1.00  0.00     0.124 S 
ATOM     85  O   UNL A   1      41.360  24.577  37.187  1.00  0.00    -0.237 OA
ATOM     86  O   UNL A   1      42.751  26.329  38.255  1.00  0.00    -0.237 OA
ATOM     87  O   UNL A   1      41.306  26.889  36.344  1.00  0.00    -0.744 OA
ENDBRANCH  80  84
ENDBRANCH  53  77
BRANCH  65  88
ATOM     88  C   UNL A   1      45.698  28.379  28.094  1.00  0.00     0.023 A 
ATOM     89  C   UNL A   1      46.143  27.110  27.645  1.00  0.00     0.031 A 
ATOM     90  C   UNL A   1      46.552  29.476  27.883  1.00  0.00     0.131 A 
ATOM     91  C   UNL A   1      47.400  26.990  27.005  1.00  0.00     0.055 A 
ATOM     92  C   UNL A   1      47.777  29.357  27.230  1.00  0.00     0.041 A 
ATOM     93  F   UNL A   1      46.180  30.706  28.271  1.00  0.00    -0.206 F 
ATOM     94  C   UNL A   1      48.206  28.112  26.790  1.00  0.00     0.022 A 
BRANCH  91  95
ATOM     95  S   UNL A   1      48.033  25.369  26.444  1.00  0.00     0.124 S 
ATOM     96  O   UNL A   1      47.549  24.445  27.463  1.00  0.00    -0.237 OA
ATOM     97  O   UNL A   1      47.433  25.232  25.120  1.00  0.00    -0.237 OA
ATOM     98  O   UNL A   1      49.486  25.554  26.434  1.00  0.00    -0.744 OA
ENDBRANCH  91  95
ENDBRANCH  65  88
ENDBRANCH  39  40
ENDBRANCH  31  34
ENDBRANCH  29  30
ENDBRANCH  28  29
ENDBRANCH   1  28
TORSDOF 18
ENDMDL
MODEL 2
REMARK VINA RESULT:     -12.8      3.110      8.531
REMARK SMILES COc1ccccc1-c1nnc(S[C@@H](C)C(=O)NCCCNC(=O)c2ccc(-c3c4nc(c(-c5cc(S(=O)(=O)[O-])ccc5F)c5ccc([nH]5)c(-c5cc(S(=O)(=O)[O-])ccc5F)c5nc(c(-c6cc(S(=O)(=O)[O-])ccc6F)c6ccc3[nH]6)C=C5)C=C4)cc2)n1-c1ccccc1
REMARK SMILES IDX 19 1 18 2 16 3 17 4 14 6 15 7 13 8 12 9 9 10 10 11 88 12
REMARK SMILES IDX 11 13 8 14 3 15 4 16 5 17 7 18 6 19 2 20 1 21 89 22 90 23
REMARK SMILES IDX 94 24 91 25 93 26 92 27 20 28 21 29 22 30 23 31 24 33 25 34
REMARK SMILES IDX 26 35 87 36 27 37 86 38 28 39 29 40 30 41 80 42 31 43 85 44
REMARK SMILES IDX 79 45 81 46 32 47 84 48 78 49 77 50 33 52 65 53 45 54 64 55
REMARK SMILES IDX 46 56 49 57 63 58 82 59 47 60 48 61 62 63 83 64 50 65 34 66
REMARK SMILES IDX 35 67 43 68 36 69 42 70 44 71 41 72 37 73 38 74 39 75 40 76
REMARK SMILES IDX 66 77 67 78 75 79 68 80 74 81 76 82 73 83 69 84 70 85 71 86
REMARK SMILES IDX 72 87 51 88 52 89 60 90 53 91 59 92 61 93 58 94 54 95 55 96
REMARK SMILES IDX 56 97 57 98
REMARK H PARENT 18 5 22 32 81 51 49 62
REMARK Flexibility Score: inf
ROOT
ATOM      1  C   UNL A   1      33.915  28.945  26.073  1.00  0.00     0.117 C 
ENDROOT
BRANCH   1   2
ATOM      2  N   UNL A   1      33.298  29.462  24.874  1.00  0.00    -0.355 N 
ATOM      3  C   UNL A   1      32.554  28.637  24.052  1.00  0.00     0.233 C 
ATOM      4  O   UNL A   1      31.340  28.850  23.986  1.00  0.00    -0.274 OA
ATOM      5  H   UNL A   1      33.406  30.412  24.640  1.00  0.00     0.163 HD
BRANCH   3   6
ATOM      6  C   UNL A   1      33.239  27.716  23.037  1.00  0.00     0.141 C 
ATOM      7  C   UNL A   1      34.296  28.333  22.123  1.00  0.00     0.030 C 
BRANCH   6   8
ATOM      8  S   UNL A   1      32.376  26.396  22.226  1.00  0.00    -0.073 SA
BRANCH   8   9
ATOM      9  C   UNL A   1      32.114  24.913  23.073  1.00  0.00     0.196 A 
ATOM     10  C   UNL A   1      32.061  22.787  23.620  1.00  0.00     0.173 A 
ATOM     11  N   UNL A   1      30.846  23.163  23.283  1.00  0.00    -0.129 NA
ATOM     12  N   UNL A   1      32.932  23.892  23.578  1.00  0.00    -0.270 N 
ATOM     13  N   UNL A   1      30.867  24.485  23.024  1.00  0.00    -0.122 NA
BRANCH  10  14
ATOM     14  C   UNL A   1      32.334  21.436  24.092  1.00  0.00     0.062 A 
ATOM     15  C   UNL A   1      32.738  21.177  25.403  1.00  0.00     0.129 A 
ATOM     16  C   UNL A   1      33.238  19.922  25.742  1.00  0.00     0.047 A 
ATOM     17  C   UNL A   1      33.182  18.878  24.820  1.00  0.00     0.004 A 
ATOM     18  C   UNL A   1      32.160  20.355  23.215  1.00  0.00     0.016 A 
ATOM     19  C   UNL A   1      32.577  19.076  23.582  1.00  0.00     0.001 A 
BRANCH  15  20
ATOM     20  O   UNL A   1      32.667  22.117  26.401  1.00  0.00    -0.496 OA
ATOM     21  C   UNL A   1      33.477  21.739  27.524  1.00  0.00     0.278 C 
ENDBRANCH  15  20
ENDBRANCH  10  14
BRANCH  12  22
ATOM     22  C   UNL A   1      34.340  23.907  23.854  1.00  0.00     0.050 A 
ATOM     23  C   UNL A   1      35.225  23.260  22.996  1.00  0.00     0.027 A 
ATOM     24  C   UNL A   1      34.849  24.473  25.035  1.00  0.00     0.027 A 
ATOM     25  C   UNL A   1      36.542  23.004  23.401  1.00  0.00     0.002 A 
ATOM     26  C   UNL A   1      36.143  24.161  25.467  1.00  0.00     0.002 A 
ATOM     27  C   UNL A   1      36.978  23.395  24.664  1.00  0.00     0.000 A 
ENDBRANCH  12  22
ENDBRANCH   8   9
ENDBRANCH   6   8
ENDBRANCH   3   6
ENDBRANCH   1   2
BRANCH   1  28
ATOM     28  C   UNL A   1      34.116  29.868  27.266  1.00  0.00     0.042 C 
BRANCH  28  29
ATOM     29  C   UNL A   1      35.587  29.867  27.699  1.00  0.00     0.118 C 
BRANCH  29  30
ATOM     30  N   UNL A   1      35.858  29.877  29.154  1.00  0.00    -0.352 N 
ATOM     31  C   UNL A   1      36.950  29.358  29.854  1.00  0.00     0.251 C 
ATOM     32  H   UNL A   1      35.172  30.314  29.707  1.00  0.00     0.163 HD
ATOM     33  O   UNL A   1      37.137  29.518  31.058  1.00  0.00    -0.269 OA
BRANCH  31  34
ATOM     34  C   UNL A   1      38.032  28.793  29.084  1.00  0.00     0.039 A 
ATOM     35  C   UNL A   1      38.629  29.355  27.945  1.00  0.00     0.014 A 
ATOM     36  C   UNL A   1      38.614  27.803  29.831  1.00  0.00     0.014 A 
ATOM     37  C   UNL A   1      39.904  28.903  27.614  1.00  0.00     0.010 A 
ATOM     38  C   UNL A   1      39.952  27.835  29.777  1.00  0.00     0.010 A 
ATOM     39  C   UNL A   1      40.553  28.123  28.569  1.00  0.00    -0.014 A 
BRANCH  39  40
ATOM     40  C   UNL A   1      41.918  27.648  28.578  1.00  0.00     0.031 A 
ATOM     41  C   UNL A   1      42.095  26.445  27.733  1.00  0.00     0.074 A 
ATOM     42  C   UNL A   1      42.906  28.524  28.902  1.00  0.00     0.049 A 
ATOM     43  N   UNL A   1      42.029  25.215  28.120  1.00  0.00    -0.248 NA
ATOM     44  C   UNL A   1      42.014  26.592  26.263  1.00  0.00     0.031 C 
ATOM     45  C   UNL A   1      42.804  29.939  29.331  1.00  0.00     0.029 A 
ATOM     46  N   UNL A   1      44.243  28.372  28.791  1.00  0.00    -0.354 N 
ATOM     47  C   UNL A   1      42.306  24.474  26.977  1.00  0.00     0.074 A 
ATOM     48  C   UNL A   1      41.905  25.314  25.889  1.00  0.00     0.031 C 
ATOM     49  C   UNL A   1      44.010  30.547  29.248  1.00  0.00     0.029 A 
ATOM     50  C   UNL A   1      45.002  29.527  28.976  1.00  0.00     0.049 A 
ATOM     51  H   UNL A   1      44.656  27.500  28.592  1.00  0.00     0.167 HD
ATOM     52  C   UNL A   1      43.214  23.456  27.021  1.00  0.00     0.034 A 
ATOM     53  C   UNL A   1      46.359  29.613  28.967  1.00  0.00     0.034 A 
ATOM     54  C   UNL A   1      43.612  23.228  28.401  1.00  0.00     0.049 A 
ATOM     55  C   UNL A   1      46.832  28.226  29.226  1.00  0.00     0.074 A 
ATOM     56  C   UNL A   1      42.964  22.837  29.554  1.00  0.00     0.029 A 
ATOM     57  N   UNL A   1      44.758  23.886  28.802  1.00  0.00    -0.354 N 
ATOM     58  N   UNL A   1      46.558  27.572  30.327  1.00  0.00    -0.248 NA
ATOM     59  C   UNL A   1      47.147  27.388  28.079  1.00  0.00     0.031 C 
ATOM     60  C   UNL A   1      43.540  23.631  30.593  1.00  0.00     0.029 A 
ATOM     61  C   UNL A   1      44.594  24.387  30.071  1.00  0.00     0.049 A 
ATOM     62  H   UNL A   1      45.573  23.982  28.259  1.00  0.00     0.167 HD
ATOM     63  C   UNL A   1      46.245  26.282  29.919  1.00  0.00     0.074 A 
ATOM     64  C   UNL A   1      46.751  26.198  28.547  1.00  0.00     0.031 C 
ATOM     65  C   UNL A   1      45.333  25.528  30.608  1.00  0.00     0.034 A 
BRANCH  52  66
ATOM     66  C   UNL A   1      44.090  22.977  25.872  1.00  0.00     0.023 A 
ATOM     67  C   UNL A   1      43.966  21.618  25.514  1.00  0.00     0.031 A 
ATOM     68  C   UNL A   1      45.169  23.660  25.267  1.00  0.00     0.131 A 
ATOM     69  C   UNL A   1      44.923  20.982  24.704  1.00  0.00     0.055 A 
ATOM     70  C   UNL A   1      46.095  23.034  24.425  1.00  0.00     0.041 A 
ATOM     71  F   UNL A   1      45.446  24.946  25.495  1.00  0.00    -0.206 F 
ATOM     72  C   UNL A   1      45.994  21.682  24.162  1.00  0.00     0.022 A 
BRANCH  69  73
ATOM     73  S   UNL A   1      44.819  19.188  24.496  1.00  0.00     0.124 S 
ATOM     74  O   UNL A   1      45.746  18.719  25.519  1.00  0.00    -0.237 OA
ATOM     75  O   UNL A   1      43.403  18.940  24.742  1.00  0.00    -0.237 OA
ATOM     76  O   UNL A   1      45.256  18.983  23.117  1.00  0.00    -0.744 OA
ENDBRANCH  69  73
ENDBRANCH  52  66
BRANCH  53  77
ATOM     77  C   UNL A   1      47.207  30.682  28.361  1.00  0.00     0.023 A 
ATOM     78  C   UNL A   1      46.694  31.673  27.494  1.00  0.00     0.031 A 
ATOM     79  C   UNL A   1      48.513  30.894  28.859  1.00  0.00     0.131 A 
ATOM     80  C   UNL A   1      47.467  32.818  27.178  1.00  0.00     0.055 A 
ATOM     81  C   UNL A   1      49.265  32.033  28.554  1.00  0.00     0.041 A 
ATOM     82  F   UNL A   1      49.066  30.038  29.733  1.00  0.00    -0.206 F 
ATOM     83  C   UNL A   1      48.740  33.009  27.722  1.00  0.00     0.022 A 
BRANCH  80  84
ATOM     84  S   UNL A   1      46.789  34.133  26.106  1.00  0.00     0.124 S 
ATOM     85  O   UNL A   1      45.670  33.456  25.461  1.00  0.00    -0.237 OA
ATOM     86  O   UNL A   1      46.450  35.175  27.067  1.00  0.00    -0.237 OA
ATOM     87  O   UNL A   1      47.905  34.459  25.217  1.00  0.00    -0.744 OA
ENDBRANCH  80  84
ENDBRANCH  53  77
BRANCH  65  88
ATOM     88  C   UNL A   1      44.972  25.959  32.026  1.00  0.00     0.023 A 
ATOM     89  C   UNL A   1      43.812  26.668  32.427  1.00  0.00     0.031 A 
ATOM     90  C   UNL A   1      45.831  25.498  33.039  1.00  0.00     0.131 A 
ATOM     91  C   UNL A   1      43.554  26.876  33.803  1.00  0.00     0.055 A 
ATOM     92  C   UNL A   1      45.559  25.682  34.393  1.00  0.00     0.041 A 
ATOM     93  F   UNL A   1      46.937  24.805  32.724  1.00  0.00    -0.206 F 
ATOM     94  C   UNL A   1      44.419  26.374  34.780  1.00  0.00     0.022 A 
BRANCH  91  95
ATOM     95  S   UNL A   1      42.091  27.817  34.367  1.00  0.00     0.124 S 
ATOM     96  O   UNL A   1      42.659  28.831  35.248  1.00  0.00    -0.237 OA
ATOM     97  O   UNL A   1      41.522  28.305  33.114  1.00  0.00    -0.237 OA
ATOM     98  O   UNL A   1      41.277  26.809  35.049  1.00  0.00    -0.744 OA
ENDBRANCH  91  95
ENDBRANCH  65  88
ENDBRANCH  39  40
ENDBRANCH  31  34
ENDBRANCH  29  30
ENDBRANCH  28  29
ENDBRANCH   1  28
TORSDOF 18
ENDMDL
MODEL 3
REMARK VINA RESULT:     -12.4      1.303      2.327
REMARK SMILES COc1ccccc1-c1nnc(S[C@@H](C)C(=O)NCCCNC(=O)c2ccc(-c3c4nc(c(-c5cc(S(=O)(=O)[O-])ccc5F)c5ccc([nH]5)c(-c5cc(S(=O)(=O)[O-])ccc5F)c5nc(c(-c6cc(S(=O)(=O)[O-])ccc6F)c6ccc3[nH]6)C=C5)C=C4)cc2)n1-c1ccccc1
REMARK SMILES IDX 19 1 18 2 16 3 17 4 14 6 15 7 13 8 12 9 9 10 10 11 88 12
REMARK SMILES IDX 11 13 8 14 3 15 4 16 5 17 7 18 6 19 2 20 1 21 89 22 90 23
REMARK SMILES IDX 94 24 91 25 93 26 92 27 20 28 21 29 22 30 23 31 24 33 25 34
REMARK SMILES IDX 26 35 87 36 27 37 86 38 28 39 29 40 30 41 80 42 31 43 85 44
REMARK SMILES IDX 79 45 81 46 32 47 84 48 78 49 77 50 33 52 65 53 45 54 64 55
REMARK SMILES IDX 46 56 49 57 63 58 82 59 47 60 48 61 62 63 83 64 50 65 34 66
REMARK SMILES IDX 35 67 43 68 36 69 42 70 44 71 41 72 37 73 38 74 39 75 40 76
REMARK SMILES IDX 66 77 67 78 75 79 68 80 74 81 76 82 73 83 69 84 70 85 71 86
REMARK SMILES IDX 72 87 51 88 52 89 60 90 53 91 59 92 61 93 58 94 54 95 55 96
REMARK SMILES IDX 56 97 57 98
REMARK H PARENT 18 5 22 32 81 51 49 62
REMARK Flexibility Score: inf
ROOT
ATOM      1  C   UNL A   1      36.494  21.975  25.886  1.00  0.00     0.117 C 
ENDROOT
BRANCH   1   2
ATOM      2  N   UNL A   1      35.434  21.035  26.164  1.00  0.00    -0.355 N 
ATOM      3  C   UNL A   1      34.129  21.315  25.806  1.00  0.00     0.233 C 
ATOM      4  O   UNL A   1      33.625  20.621  24.917  1.00  0.00    -0.274 OA
ATOM      5  H   UNL A   1      35.643  20.183  26.613  1.00  0.00     0.163 HD
BRANCH   3   6
ATOM      6  C   UNL A   1      33.252  22.221  26.676  1.00  0.00     0.141 C 
ATOM      7  C   UNL A   1      33.684  22.443  28.124  1.00  0.00     0.030 C 
BRANCH   6   8
ATOM      8  S   UNL A   1      31.488  22.267  26.514  1.00  0.00    -0.073 SA
BRANCH   8   9
ATOM      9  C   UNL A   1      30.732  23.697  25.908  1.00  0.00     0.196 A 
ATOM     10  C   UNL A   1      30.364  25.751  25.222  1.00  0.00     0.173 A 
ATOM     11  N   UNL A   1      29.825  25.604  26.413  1.00  0.00    -0.129 NA
ATOM     12  N   UNL A   1      30.912  24.527  24.792  1.00  0.00    -0.270 N 
ATOM     13  N   UNL A   1      29.984  24.322  26.796  1.00  0.00    -0.122 NA
BRANCH  10  14
ATOM     14  C   UNL A   1      30.233  26.996  24.477  1.00  0.00     0.062 A 
ATOM     15  C   UNL A   1      31.135  28.050  24.632  1.00  0.00     0.129 A 
ATOM     16  C   UNL A   1      30.834  29.306  24.108  1.00  0.00     0.047 A 
ATOM     17  C   UNL A   1      29.717  29.470  23.291  1.00  0.00     0.004 A 
ATOM     18  C   UNL A   1      29.188  27.134  23.552  1.00  0.00     0.016 A 
ATOM     19  C   UNL A   1      28.934  28.369  22.955  1.00  0.00     0.001 A 
BRANCH  15  20
ATOM     20  O   UNL A   1      32.333  27.913  25.289  1.00  0.00    -0.496 OA
ATOM     21  C   UNL A   1      33.380  28.617  24.605  1.00  0.00     0.278 C 
ENDBRANCH  15  20
ENDBRANCH  10  14
BRANCH  12  22
ATOM     22  C   UNL A   1      31.607  24.263  23.564  1.00  0.00     0.050 A 
ATOM     23  C   UNL A   1      31.736  22.957  23.103  1.00  0.00     0.027 A 
ATOM     24  C   UNL A   1      32.259  25.289  22.858  1.00  0.00     0.027 A 
ATOM     25  C   UNL A   1      32.655  22.653  22.090  1.00  0.00     0.002 A 
ATOM     26  C   UNL A   1      33.224  24.978  21.893  1.00  0.00     0.002 A 
ATOM     27  C   UNL A   1      33.446  23.654  21.534  1.00  0.00     0.000 A 
ENDBRANCH  12  22
ENDBRANCH   8   9
ENDBRANCH   6   8
ENDBRANCH   3   6
ENDBRANCH   1   2
BRANCH   1  28
ATOM     28  C   UNL A   1      37.634  21.564  24.966  1.00  0.00     0.042 C 
BRANCH  28  29
ATOM     29  C   UNL A   1      38.946  21.467  25.754  1.00  0.00     0.118 C 
BRANCH  29  30
ATOM     30  N   UNL A   1      39.624  20.152  25.768  1.00  0.00    -0.352 N 
ATOM     31  C   UNL A   1      40.966  19.851  26.016  1.00  0.00     0.251 C 
ATOM     32  H   UNL A   1      39.048  19.378  25.575  1.00  0.00     0.163 HD
ATOM     33  O   UNL A   1      41.410  18.709  26.116  1.00  0.00    -0.269 OA
BRANCH  31  34
ATOM     34  C   UNL A   1      41.835  20.936  26.400  1.00  0.00     0.039 A 
ATOM     35  C   UNL A   1      42.491  21.828  25.536  1.00  0.00     0.014 A 
ATOM     36  C   UNL A   1      41.651  21.178  27.736  1.00  0.00     0.014 A 
ATOM     37  C   UNL A   1      42.912  23.038  26.080  1.00  0.00     0.010 A 
ATOM     38  C   UNL A   1      41.585  22.486  28.019  1.00  0.00     0.010 A 
ATOM     39  C   UNL A   1      42.437  23.344  27.355  1.00  0.00    -0.014 A 
BRANCH  39  40
ATOM     40  C   UNL A   1      42.571  24.573  28.101  1.00  0.00     0.031 A 
ATOM     41  C   UNL A   1      41.424  25.485  27.885  1.00  0.00     0.074 A 
ATOM     42  C   UNL A   1      43.375  24.580  29.198  1.00  0.00     0.049 A 
ATOM     43  N   UNL A   1      41.346  26.430  27.009  1.00  0.00    -0.248 NA
ATOM     44  C   UNL A   1      40.110  25.122  28.460  1.00  0.00     0.031 C 
ATOM     45  C   UNL A   1      44.228  23.500  29.744  1.00  0.00     0.029 A 
ATOM     46  N   UNL A   1      43.502  25.531  30.149  1.00  0.00    -0.354 N 
ATOM     47  C   UNL A   1      40.105  27.013  27.234  1.00  0.00     0.074 A 
ATOM     48  C   UNL A   1      39.309  25.972  27.812  1.00  0.00     0.031 C 
ATOM     49  C   UNL A   1      44.613  23.793  31.008  1.00  0.00     0.029 A 
ATOM     50  C   UNL A   1      44.226  25.161  31.282  1.00  0.00     0.049 A 
ATOM     51  H   UNL A   1      43.110  26.429  30.047  1.00  0.00     0.167 HD
ATOM     52  C   UNL A   1      39.989  28.370  27.328  1.00  0.00     0.034 A 
ATOM     53  C   UNL A   1      44.533  25.958  32.340  1.00  0.00     0.034 A 
ATOM     54  C   UNL A   1      41.260  28.984  26.978  1.00  0.00     0.049 A 
ATOM     55  C   UNL A   1      44.397  27.348  31.826  1.00  0.00     0.074 A 
ATOM     56  C   UNL A   1      42.047  29.027  25.845  1.00  0.00     0.029 A 
ATOM     57  N   UNL A   1      42.093  29.268  28.042  1.00  0.00    -0.354 N 
ATOM     58  N   UNL A   1      45.125  27.820  30.846  1.00  0.00    -0.248 NA
ATOM     59  C   UNL A   1      43.127  28.029  32.027  1.00  0.00     0.031 C 
ATOM     60  C   UNL A   1      43.391  28.931  26.321  1.00  0.00     0.029 A 
ATOM     61  C   UNL A   1      43.391  28.955  27.720  1.00  0.00     0.049 A 
ATOM     62  H   UNL A   1      41.800  29.639  28.905  1.00  0.00     0.167 HD
ATOM     63  C   UNL A   1      44.245  28.546  30.052  1.00  0.00     0.074 A 
ATOM     64  C   UNL A   1      43.067  28.744  30.898  1.00  0.00     0.031 C 
ATOM     65  C   UNL A   1      44.428  28.633  28.697  1.00  0.00     0.034 A 
BRANCH  52  66
ATOM     66  C   UNL A   1      38.957  29.135  28.146  1.00  0.00     0.023 A 
ATOM     67  C   UNL A   1      39.047  29.005  29.547  1.00  0.00     0.031 A 
ATOM     68  C   UNL A   1      37.789  29.775  27.676  1.00  0.00     0.131 A 
ATOM     69  C   UNL A   1      37.988  29.389  30.389  1.00  0.00     0.055 A 
ATOM     70  C   UNL A   1      36.755  30.197  28.521  1.00  0.00     0.041 A 
ATOM     71  F   UNL A   1      37.530  29.976  26.382  1.00  0.00    -0.206 F 
ATOM     72  C   UNL A   1      36.836  29.979  29.883  1.00  0.00     0.022 A 
BRANCH  69  73
ATOM     73  S   UNL A   1      38.087  28.964  32.145  1.00  0.00     0.124 S 
ATOM     74  O   UNL A   1      39.159  29.842  32.600  1.00  0.00    -0.237 OA
ATOM     75  O   UNL A   1      36.742  29.289  32.607  1.00  0.00    -0.237 OA
ATOM     76  O   UNL A   1      38.412  27.540  32.129  1.00  0.00    -0.744 OA
ENDBRANCH  69  73
ENDBRANCH  52  66
BRANCH  53  77
ATOM     77  C   UNL A   1      44.520  25.603  33.791  1.00  0.00     0.023 A 
ATOM     78  C   UNL A   1      43.489  26.001  34.672  1.00  0.00     0.031 A 
ATOM     79  C   UNL A   1      45.414  24.619  34.270  1.00  0.00     0.131 A 
ATOM     80  C   UNL A   1      43.373  25.407  35.954  1.00  0.00     0.055 A 
ATOM     81  C   UNL A   1      45.286  24.028  35.531  1.00  0.00     0.041 A 
ATOM     82  F   UNL A   1      46.392  24.135  33.488  1.00  0.00    -0.206 F 
ATOM     83  C   UNL A   1      44.256  24.410  36.375  1.00  0.00     0.022 A 
BRANCH  80  84
ATOM     84  S   UNL A   1      42.009  25.872  37.076  1.00  0.00     0.124 S 
ATOM     85  O   UNL A   1      42.722  26.215  38.301  1.00  0.00    -0.237 OA
ATOM     86  O   UNL A   1      41.379  26.975  36.361  1.00  0.00    -0.237 OA
ATOM     87  O   UNL A   1      41.201  24.654  37.156  1.00  0.00    -0.744 OA
ENDBRANCH  80  84
ENDBRANCH  53  77
BRANCH  65  88
ATOM     88  C   UNL A   1      45.799  28.269  28.135  1.00  0.00     0.023 A 
ATOM     89  C   UNL A   1      46.230  26.984  27.719  1.00  0.00     0.031 A 
ATOM     90  C   UNL A   1      46.668  29.349  27.904  1.00  0.00     0.131 A 
ATOM     91  C   UNL A   1      47.488  26.833  27.089  1.00  0.00     0.055 A 
ATOM     92  C   UNL A   1      47.895  29.199  27.261  1.00  0.00     0.041 A 
ATOM     93  F   UNL A   1      46.309  30.593  28.262  1.00  0.00    -0.206 F 
ATOM     94  C   UNL A   1      48.310  27.940  26.852  1.00  0.00     0.022 A 
BRANCH  91  95
ATOM     95  S   UNL A   1      48.104  25.192  26.569  1.00  0.00     0.124 S 
ATOM     96  O   UNL A   1      49.423  25.113  27.185  1.00  0.00    -0.237 OA
ATOM     97  O   UNL A   1      47.092  24.286  27.106  1.00  0.00    -0.237 OA
ATOM     98  O   UNL A   1      48.122  25.280  25.107  1.00  0.00    -0.744 OA
ENDBRANCH  91  95
ENDBRANCH  65  88
ENDBRANCH  39  40
ENDBRANCH  31  34
ENDBRANCH  29  30
ENDBRANCH  28  29
ENDBRANCH   1  28
TORSDOF 18
ENDMDL
