MODEL 1
REMARK VINA RESULT:     -13.2      0.000      0.000
REMARK SMILES O=C(NCCCNC(=O)C1CCN(c2nc(-c3ccc(F)cc3)cc(C(F)F)n2)CC1)c1ccc(-c2c3nc(c(-c4cc(S(=O)(=O)[O-])ccc4F)c4ccc([nH]4)c(-c4cc(S(=O)(=O)[O-])ccc4F)c4nc(c(-c5cc(S(=O)(=O)[O-])ccc5F)c5ccc2[nH]5)C=C4)C=C3)cc1
REMARK SMILES IDX 4 1 3 2 1 3 2 4 32 6 33 7 94 8 34 9 93 10 35 11 36 12 37 13
REMARK SMILES IDX 87 14 38 15 92 16 86 17 88 18 39 19 91 20 85 21 84 22 40 24
REMARK SMILES IDX 72 25 52 26 71 27 53 28 56 29 70 30 89 31 54 32 55 33 69 35
REMARK SMILES IDX 90 36 57 37 41 38 42 39 50 40 43 41 49 42 51 43 48 44 44 45
REMARK SMILES IDX 45 46 46 47 47 48 73 49 74 50 82 51 75 52 81 53 83 54 80 55
REMARK SMILES IDX 76 56 77 57 78 58 79 59 58 60 59 61 67 62 60 63 66 64 68 65
REMARK SMILES IDX 65 66 61 67 62 68 63 69 64 70 5 71 6 72 7 73 8 74 9 76 10 77
REMARK SMILES IDX 11 78 31 79 12 80 30 81 13 82 14 83 15 84 29 85 16 86 25 87
REMARK SMILES IDX 24 88 17 89 18 90 23 91 19 92 22 93 20 94 21 95 26 96 27 97
REMARK SMILES IDX 28 98
REMARK H PARENT 3 5 88 23 56 34 7 75
REMARK Flexibility Score: inf
ROOT
ATOM      1  C   UNL A   1      36.335  21.960  25.511  1.00  0.00     0.118 C 
ENDROOT
BRANCH   1   2
ATOM      2  N   UNL A   1      37.349  20.914  25.568  1.00  0.00    -0.352 N 
ATOM      3  O   UNL A   1      39.392  19.990  25.706  1.00  0.00    -0.269 OA
ATOM      4  C   UNL A   1      38.688  20.984  25.869  1.00  0.00     0.251 C 
ATOM      5  H   UNL A   1      37.021  20.010  25.357  1.00  0.00     0.163 HD
BRANCH   4   6
ATOM      6  C   UNL A   1      39.288  22.244  26.360  1.00  0.00     0.039 A 
ATOM      7  C   UNL A   1      38.816  23.485  25.931  1.00  0.00     0.014 A 
ATOM      8  C   UNL A   1      40.333  22.181  27.289  1.00  0.00     0.014 A 
ATOM      9  C   UNL A   1      39.487  24.647  26.300  1.00  0.00     0.010 A 
ATOM     10  C   UNL A   1      40.955  23.358  27.725  1.00  0.00     0.010 A 
ATOM     11  C   UNL A   1      40.566  24.599  27.198  1.00  0.00    -0.014 A 
BRANCH  11  12
ATOM     12  C   UNL A   1      41.266  25.860  27.564  1.00  0.00     0.031 A 
ATOM     13  C   UNL A   1      42.636  26.165  27.018  1.00  0.00     0.074 A 
ATOM     14  C   UNL A   1      40.631  26.764  28.337  1.00  0.00     0.049 A 
ATOM     15  N   UNL A   1      43.375  27.231  27.197  1.00  0.00    -0.248 NA
ATOM     16  C   UNL A   1      43.264  25.141  26.166  1.00  0.00     0.031 C 
ATOM     17  C   UNL A   1      39.299  26.585  28.919  1.00  0.00     0.029 A 
ATOM     18  N   UNL A   1      41.000  28.023  28.738  1.00  0.00    -0.354 N 
ATOM     19  C   UNL A   1      44.552  27.005  26.493  1.00  0.00     0.074 A 
ATOM     20  C   UNL A   1      44.446  25.686  25.908  1.00  0.00     0.031 C 
ATOM     21  C   UNL A   1      38.939  27.713  29.550  1.00  0.00     0.029 A 
ATOM     22  C   UNL A   1      40.034  28.673  29.471  1.00  0.00     0.049 A 
ATOM     23  H   UNL A   1      41.874  28.423  28.523  1.00  0.00     0.167 HD
ATOM     24  C   UNL A   1      45.617  27.828  26.337  1.00  0.00     0.034 A 
ATOM     25  C   UNL A   1      40.031  29.900  30.028  1.00  0.00     0.034 A 
ATOM     26  C   UNL A   1      45.705  29.151  26.898  1.00  0.00     0.049 A 
ATOM     27  C   UNL A   1      41.244  30.775  29.878  1.00  0.00     0.074 A 
ATOM     28  C   UNL A   1      46.726  30.077  26.762  1.00  0.00     0.029 A 
ATOM     29  N   UNL A   1      44.741  29.739  27.704  1.00  0.00    -0.354 N 
ATOM     30  N   UNL A   1      42.353  30.533  29.218  1.00  0.00    -0.248 NA
ATOM     31  C   UNL A   1      41.216  32.076  30.559  1.00  0.00     0.031 C 
ATOM     32  C   UNL A   1      46.404  31.201  27.529  1.00  0.00     0.029 A 
ATOM     33  C   UNL A   1      45.157  31.001  28.097  1.00  0.00     0.049 A 
ATOM     34  H   UNL A   1      43.886  29.321  27.959  1.00  0.00     0.167 HD
ATOM     35  C   UNL A   1      43.154  31.655  29.405  1.00  0.00     0.074 A 
ATOM     36  C   UNL A   1      42.398  32.579  30.225  1.00  0.00     0.031 C 
ATOM     37  C   UNL A   1      44.403  31.896  28.938  1.00  0.00     0.034 A 
BRANCH  24  38
ATOM     38  C   UNL A   1      46.791  27.318  25.544  1.00  0.00     0.023 A 
ATOM     39  C   UNL A   1      47.032  27.747  24.228  1.00  0.00     0.031 A 
ATOM     40  C   UNL A   1      47.701  26.421  26.129  1.00  0.00     0.131 A 
ATOM     41  C   UNL A   1      48.143  27.251  23.528  1.00  0.00     0.055 A 
ATOM     42  C   UNL A   1      48.834  25.975  25.447  1.00  0.00     0.041 A 
ATOM     43  F   UNL A   1      47.507  25.970  27.378  1.00  0.00    -0.206 F 
ATOM     44  C   UNL A   1      49.058  26.388  24.136  1.00  0.00     0.022 A 
BRANCH  41  45
ATOM     45  S   UNL A   1      48.347  27.707  21.785  1.00  0.00     0.124 S 
ATOM     46  O   UNL A   1      47.063  28.342  21.494  1.00  0.00    -0.237 OA
ATOM     47  O   UNL A   1      49.503  28.595  21.819  1.00  0.00    -0.237 OA
ATOM     48  O   UNL A   1      48.566  26.425  21.118  1.00  0.00    -0.744 OA
ENDBRANCH  41  45
ENDBRANCH  24  38
BRANCH  25  49
ATOM     49  C   UNL A   1      38.851  30.355  30.813  1.00  0.00     0.023 A 
ATOM     50  C   UNL A   1      37.906  31.233  30.261  1.00  0.00     0.031 A 
ATOM     51  C   UNL A   1      38.652  29.906  32.131  1.00  0.00     0.131 A 
ATOM     52  C   UNL A   1      36.811  31.650  31.033  1.00  0.00     0.055 A 
ATOM     53  C   UNL A   1      37.541  30.293  32.880  1.00  0.00     0.041 A 
ATOM     54  F   UNL A   1      39.526  29.060  32.699  1.00  0.00    -0.206 F 
ATOM     55  C   UNL A   1      36.615  31.176  32.333  1.00  0.00     0.022 A 
BRANCH  52  56
ATOM     56  S   UNL A   1      35.649  32.849  30.324  1.00  0.00     0.124 S 
ATOM     57  O   UNL A   1      35.925  34.037  31.125  1.00  0.00    -0.237 OA
ATOM     58  O   UNL A   1      36.077  32.901  28.930  1.00  0.00    -0.237 OA
ATOM     59  O   UNL A   1      34.344  32.233  30.548  1.00  0.00    -0.744 OA
ENDBRANCH  52  56
ENDBRANCH  25  49
BRANCH  37  60
ATOM     60  C   UNL A   1      45.032  33.212  29.300  1.00  0.00     0.023 A 
ATOM     61  C   UNL A   1      44.807  34.361  28.525  1.00  0.00     0.031 A 
ATOM     62  C   UNL A   1      45.818  33.328  30.459  1.00  0.00     0.131 A 
ATOM     63  C   UNL A   1      45.383  35.581  28.908  1.00  0.00     0.055 A 
ATOM     64  C   UNL A   1      46.357  34.551  30.856  1.00  0.00     0.041 A 
ATOM     65  F   UNL A   1      46.056  32.257  31.232  1.00  0.00    -0.206 F 
ATOM     66  C   UNL A   1      46.143  35.686  30.078  1.00  0.00     0.022 A 
BRANCH  63  67
ATOM     67  S   UNL A   1      45.136  37.036  27.855  1.00  0.00     0.124 S 
ATOM     68  O   UNL A   1      46.507  37.382  27.493  1.00  0.00    -0.237 OA
ATOM     69  O   UNL A   1      44.305  36.511  26.776  1.00  0.00    -0.237 OA
ATOM     70  O   UNL A   1      44.468  37.990  28.739  1.00  0.00    -0.744 OA
ENDBRANCH  63  67
ENDBRANCH  37  60
ENDBRANCH  11  12
ENDBRANCH   4   6
ENDBRANCH   1   2
BRANCH   1  71
ATOM     71  C   UNL A   1      35.202  21.751  26.515  1.00  0.00     0.042 C 
BRANCH  71  72
ATOM     72  C   UNL A   1      33.891  21.287  25.886  1.00  0.00     0.117 C 
BRANCH  72  73
ATOM     73  N   UNL A   1      32.739  21.700  26.667  1.00  0.00    -0.356 N 
ATOM     74  C   UNL A   1      31.946  22.803  26.527  1.00  0.00     0.223 C 
ATOM     75  H   UNL A   1      32.493  21.098  27.407  1.00  0.00     0.163 HD
ATOM     76  O   UNL A   1      31.106  23.030  27.395  1.00  0.00    -0.275 OA
BRANCH  74  77
ATOM     77  C   UNL A   1      32.076  23.647  25.267  1.00  0.00     0.082 C 
ATOM     78  C   UNL A   1      33.321  24.547  25.303  1.00  0.00     0.035 C 
ATOM     79  C   UNL A   1      30.773  24.442  25.066  1.00  0.00     0.035 C 
ATOM     80  C   UNL A   1      33.146  25.803  26.149  1.00  0.00     0.120 C 
ATOM     81  C   UNL A   1      30.681  25.663  25.994  1.00  0.00     0.120 C 
ATOM     82  N   UNL A   1      31.886  26.434  25.804  1.00  0.00    -0.341 N 
BRANCH  82  83
ATOM     83  C   UNL A   1      31.856  27.798  25.758  1.00  0.00     0.226 A 
ATOM     84  N   UNL A   1      31.124  28.349  24.782  1.00  0.00    -0.213 NA
ATOM     85  N   UNL A   1      32.499  28.521  26.682  1.00  0.00    -0.212 NA
ATOM     86  C   UNL A   1      31.028  29.686  24.727  1.00  0.00     0.076 A 
ATOM     87  C   UNL A   1      32.454  29.872  26.579  1.00  0.00     0.112 A 
ATOM     88  C   UNL A   1      31.712  30.504  25.598  1.00  0.00     0.059 A 
BRANCH  86  89
ATOM     89  C   UNL A   1      30.089  30.199  23.722  1.00  0.00     0.001 A 
ATOM     90  C   UNL A   1      29.989  29.633  22.440  1.00  0.00     0.013 A 
ATOM     91  C   UNL A   1      29.252  31.289  24.038  1.00  0.00     0.013 A 
ATOM     92  C   UNL A   1      29.088  30.148  21.503  1.00  0.00     0.040 A 
ATOM     93  C   UNL A   1      28.360  31.809  23.100  1.00  0.00     0.040 A 
ATOM     94  C   UNL A   1      28.287  31.233  21.840  1.00  0.00     0.123 A 
ATOM     95  F   UNL A   1      27.433  31.728  20.935  1.00  0.00    -0.207 F 
ENDBRANCH  86  89
BRANCH  87  96
ATOM     96  C   UNL A   1      33.256  30.694  27.564  1.00  0.00     0.391 C 
ATOM     97  F   UNL A   1      34.591  30.418  27.550  1.00  0.00    -0.203 F 
ATOM     98  F   UNL A   1      33.142  32.037  27.362  1.00  0.00    -0.203 F 
ENDBRANCH  87  96
ENDBRANCH  82  83
ENDBRANCH  74  77
ENDBRANCH  72  73
ENDBRANCH  71  72
ENDBRANCH   1  71
TORSDOF 16
ENDMDL
MODEL 2
REMARK VINA RESULT:     -13.2      2.488      8.228
REMARK SMILES O=C(NCCCNC(=O)C1CCN(c2nc(-c3ccc(F)cc3)cc(C(F)F)n2)CC1)c1ccc(-c2c3nc(c(-c4cc(S(=O)(=O)[O-])ccc4F)c4ccc([nH]4)c(-c4cc(S(=O)(=O)[O-])ccc4F)c4nc(c(-c5cc(S(=O)(=O)[O-])ccc5F)c5ccc2[nH]5)C=C4)C=C3)cc1
REMARK SMILES IDX 4 1 3 2 1 3 2 4 32 6 33 7 94 8 34 9 93 10 35 11 36 12 37 13
REMARK SMILES IDX 87 14 38 15 92 16 86 17 88 18 39 19 91 20 85 21 84 22 40 24
REMARK SMILES IDX 72 25 52 26 71 27 53 28 56 29 70 30 89 31 54 32 55 33 69 35
REMARK SMILES IDX 90 36 57 37 41 38 42 39 50 40 43 41 49 42 51 43 48 44 44 45
REMARK SMILES IDX 45 46 46 47 47 48 73 49 74 50 82 51 75 52 81 53 83 54 80 55
REMARK SMILES IDX 76 56 77 57 78 58 79 59 58 60 59 61 67 62 60 63 66 64 68 65
REMARK SMILES IDX 65 66 61 67 62 68 63 69 64 70 5 71 6 72 7 73 8 74 9 76 10 77
REMARK SMILES IDX 11 78 31 79 12 80 30 81 13 82 14 83 15 84 29 85 16 86 25 87
REMARK SMILES IDX 24 88 17 89 18 90 23 91 19 92 22 93 20 94 21 95 26 96 27 97
REMARK SMILES IDX 28 98
REMARK H PARENT 3 5 88 23 56 34 7 75
REMARK Flexibility Score: inf
ROOT
ATOM      1  C   UNL A   1      39.324  20.050  25.837  1.00  0.00     0.118 C 
ENDROOT
BRANCH   1   2
ATOM      2  N   UNL A   1      40.368  19.041  25.972  1.00  0.00    -0.352 N 
ATOM      3  O   UNL A   1      42.439  18.177  26.072  1.00  0.00    -0.269 OA
ATOM      4  C   UNL A   1      41.725  19.177  26.133  1.00  0.00     0.251 C 
ATOM      5  H   UNL A   1      40.047  18.110  25.943  1.00  0.00     0.163 HD
BRANCH   4   6
ATOM      6  C   UNL A   1      42.332  20.508  26.354  1.00  0.00     0.039 A 
ATOM      7  C   UNL A   1      42.438  21.049  27.636  1.00  0.00     0.014 A 
ATOM      8  C   UNL A   1      42.828  21.219  25.256  1.00  0.00     0.014 A 
ATOM      9  C   UNL A   1      42.885  22.358  27.800  1.00  0.00     0.010 A 
ATOM     10  C   UNL A   1      43.354  22.504  25.433  1.00  0.00     0.010 A 
ATOM     11  C   UNL A   1      43.345  23.102  26.703  1.00  0.00    -0.014 A 
BRANCH  11  12
ATOM     12  C   UNL A   1      43.807  24.501  26.913  1.00  0.00     0.031 A 
ATOM     13  C   UNL A   1      42.877  25.541  27.479  1.00  0.00     0.074 A 
ATOM     14  C   UNL A   1      45.093  24.814  26.657  1.00  0.00     0.049 A 
ATOM     15  N   UNL A   1      43.121  26.794  27.768  1.00  0.00    -0.248 NA
ATOM     16  C   UNL A   1      41.490  25.126  27.753  1.00  0.00     0.031 C 
ATOM     17  C   UNL A   1      46.092  23.889  26.113  1.00  0.00     0.029 A 
ATOM     18  N   UNL A   1      45.792  25.979  26.850  1.00  0.00    -0.354 N 
ATOM     19  C   UNL A   1      41.926  27.319  28.245  1.00  0.00     0.074 A 
ATOM     20  C   UNL A   1      40.945  26.258  28.178  1.00  0.00     0.031 C 
ATOM     21  C   UNL A   1      47.283  24.504  26.073  1.00  0.00     0.029 A 
ATOM     22  C   UNL A   1      47.126  25.880  26.529  1.00  0.00     0.049 A 
ATOM     23  H   UNL A   1      45.377  26.807  27.185  1.00  0.00     0.167 HD
ATOM     24  C   UNL A   1      41.674  28.567  28.709  1.00  0.00     0.034 A 
ATOM     25  C   UNL A   1      48.113  26.796  26.583  1.00  0.00     0.034 A 
ATOM     26  C   UNL A   1      42.662  29.611  28.800  1.00  0.00     0.049 A 
ATOM     27  C   UNL A   1      47.795  28.186  27.059  1.00  0.00     0.074 A 
ATOM     28  C   UNL A   1      42.512  30.896  29.294  1.00  0.00     0.029 A 
ATOM     29  N   UNL A   1      43.981  29.495  28.386  1.00  0.00    -0.354 N 
ATOM     30  N   UNL A   1      46.652  28.664  27.492  1.00  0.00    -0.248 NA
ATOM     31  C   UNL A   1      48.891  29.164  27.038  1.00  0.00     0.031 C 
ATOM     32  C   UNL A   1      43.725  31.573  29.130  1.00  0.00     0.029 A 
ATOM     33  C   UNL A   1      44.646  30.694  28.585  1.00  0.00     0.049 A 
ATOM     34  H   UNL A   1      44.385  28.681  28.007  1.00  0.00     0.167 HD
ATOM     35  C   UNL A   1      46.893  29.999  27.796  1.00  0.00     0.074 A 
ATOM     36  C   UNL A   1      48.291  30.249  27.512  1.00  0.00     0.031 C 
ATOM     37  C   UNL A   1      46.032  30.933  28.269  1.00  0.00     0.034 A 
BRANCH  24  38
ATOM     38  C   UNL A   1      40.267  28.888  29.138  1.00  0.00     0.023 A 
ATOM     39  C   UNL A   1      39.870  28.806  30.484  1.00  0.00     0.031 A 
ATOM     40  C   UNL A   1      39.322  29.320  28.191  1.00  0.00     0.131 A 
ATOM     41  C   UNL A   1      38.550  29.121  30.840  1.00  0.00     0.055 A 
ATOM     42  C   UNL A   1      38.027  29.685  28.560  1.00  0.00     0.041 A 
ATOM     43  F   UNL A   1      39.647  29.401  26.892  1.00  0.00    -0.206 F 
ATOM     44  C   UNL A   1      37.633  29.583  29.892  1.00  0.00     0.022 A 
BRANCH  41  45
ATOM     45  S   UNL A   1      38.027  28.865  32.557  1.00  0.00     0.124 S 
ATOM     46  O   UNL A   1      36.667  29.398  32.533  1.00  0.00    -0.237 OA
ATOM     47  O   UNL A   1      38.143  27.420  32.715  1.00  0.00    -0.237 OA
ATOM     48  O   UNL A   1      38.985  29.655  33.329  1.00  0.00    -0.744 OA
ENDBRANCH  41  45
ENDBRANCH  24  38
BRANCH  25  49
ATOM     49  C   UNL A   1      49.486  26.434  26.138  1.00  0.00     0.023 A 
ATOM     50  C   UNL A   1      49.999  26.896  24.917  1.00  0.00     0.031 A 
ATOM     51  C   UNL A   1      50.307  25.620  26.939  1.00  0.00     0.131 A 
ATOM     52  C   UNL A   1      51.294  26.525  24.523  1.00  0.00     0.055 A 
ATOM     53  C   UNL A   1      51.608  25.287  26.561  1.00  0.00     0.041 A 
ATOM     54  F   UNL A   1      49.862  25.159  28.119  1.00  0.00    -0.206 F 
ATOM     55  C   UNL A   1      52.106  25.736  25.342  1.00  0.00     0.022 A 
BRANCH  52  56
ATOM     56  S   UNL A   1      51.903  27.069  22.903  1.00  0.00     0.124 S 
ATOM     57  O   UNL A   1      52.335  28.433  23.192  1.00  0.00    -0.237 OA
ATOM     58  O   UNL A   1      52.963  26.103  22.634  1.00  0.00    -0.237 OA
ATOM     59  O   UNL A   1      50.729  26.955  22.041  1.00  0.00    -0.744 OA
ENDBRANCH  52  56
ENDBRANCH  25  49
BRANCH  37  60
ATOM     60  C   UNL A   1      46.577  32.313  28.511  1.00  0.00     0.023 A 
ATOM     61  C   UNL A   1      46.695  33.240  27.462  1.00  0.00     0.031 A 
ATOM     62  C   UNL A   1      46.929  32.720  29.808  1.00  0.00     0.131 A 
ATOM     63  C   UNL A   1      47.177  34.529  27.727  1.00  0.00     0.055 A 
ATOM     64  C   UNL A   1      47.373  34.015  30.073  1.00  0.00     0.041 A 
ATOM     65  F   UNL A   1      46.828  31.868  30.842  1.00  0.00    -0.206 F 
ATOM     66  C   UNL A   1      47.501  34.927  29.028  1.00  0.00     0.022 A 
BRANCH  63  67
ATOM     67  S   UNL A   1      47.387  35.687  26.347  1.00  0.00     0.124 S 
ATOM     68  O   UNL A   1      46.440  36.742  26.692  1.00  0.00    -0.237 OA
ATOM     69  O   UNL A   1      48.799  36.042  26.440  1.00  0.00    -0.237 OA
ATOM     70  O   UNL A   1      47.028  34.890  25.175  1.00  0.00    -0.744 OA
ENDBRANCH  63  67
ENDBRANCH  37  60
ENDBRANCH  11  12
ENDBRANCH   4   6
ENDBRANCH   1   2
BRANCH   1  71
ATOM     71  C   UNL A   1      38.114  19.558  25.043  1.00  0.00     0.042 C 
BRANCH  71  72
ATOM     72  C   UNL A   1      37.074  20.639  24.762  1.00  0.00     0.117 C 
BRANCH  72  73
ATOM     73  N   UNL A   1      35.791  20.327  25.367  1.00  0.00    -0.356 N 
ATOM     74  C   UNL A   1      34.580  20.932  25.192  1.00  0.00     0.223 C 
ATOM     75  H   UNL A   1      35.794  19.568  25.995  1.00  0.00     0.163 HD
ATOM     76  O   UNL A   1      33.648  20.591  25.919  1.00  0.00    -0.275 OA
BRANCH  74  77
ATOM     77  C   UNL A   1      34.413  21.931  24.056  1.00  0.00     0.082 C 
ATOM     78  C   UNL A   1      35.008  23.304  24.405  1.00  0.00     0.035 C 
ATOM     79  C   UNL A   1      32.922  22.008  23.678  1.00  0.00     0.035 C 
ATOM     80  C   UNL A   1      34.114  24.150  25.304  1.00  0.00     0.120 C 
ATOM     81  C   UNL A   1      32.107  22.850  24.670  1.00  0.00     0.120 C 
ATOM     82  N   UNL A   1      32.762  24.131  24.780  1.00  0.00    -0.341 N 
BRANCH  82  83
ATOM     83  C   UNL A   1      32.045  25.292  24.844  1.00  0.00     0.226 A 
ATOM     84  N   UNL A   1      32.596  26.299  25.531  1.00  0.00    -0.213 NA
ATOM     85  N   UNL A   1      30.875  25.401  24.203  1.00  0.00    -0.212 NA
ATOM     86  C   UNL A   1      31.948  27.473  25.580  1.00  0.00     0.076 A 
ATOM     87  C   UNL A   1      30.194  26.568  24.316  1.00  0.00     0.112 A 
ATOM     88  C   UNL A   1      30.709  27.649  25.007  1.00  0.00     0.059 A 
BRANCH  86  89
ATOM     89  C   UNL A   1      32.690  28.563  26.226  1.00  0.00     0.001 A 
ATOM     90  C   UNL A   1      32.086  29.795  26.531  1.00  0.00     0.013 A 
ATOM     91  C   UNL A   1      34.048  28.384  26.561  1.00  0.00     0.013 A 
ATOM     92  C   UNL A   1      32.822  30.815  27.142  1.00  0.00     0.040 A 
ATOM     93  C   UNL A   1      34.784  29.405  27.161  1.00  0.00     0.040 A 
ATOM     94  C   UNL A   1      34.163  30.612  27.446  1.00  0.00     0.123 A 
ATOM     95  F   UNL A   1      34.865  31.598  28.022  1.00  0.00    -0.207 F 
ENDBRANCH  86  89
BRANCH  87  96
ATOM     96  C   UNL A   1      28.829  26.666  23.672  1.00  0.00     0.391 C 
ATOM     97  F   UNL A   1      27.800  26.385  24.523  1.00  0.00    -0.203 F 
ATOM     98  F   UNL A   1      28.566  27.899  23.152  1.00  0.00    -0.203 F 
ENDBRANCH  87  96
ENDBRANCH  82  83
ENDBRANCH  74  77
ENDBRANCH  72  73
ENDBRANCH  71  72
ENDBRANCH   1  71
TORSDOF 16
ENDMDL
MODEL 3
REMARK VINA RESULT:     -13.1      5.311      8.628
REMARK SMILES O=C(NCCCNC(=O)C1CCN(c2nc(-c3ccc(F)cc3)cc(C(F)F)n2)CC1)c1ccc(-c2c3nc(c(-c4cc(S(=O)(=O)[O-])ccc4F)c4ccc([nH]4)c(-c4cc(S(=O)(=O)[O-])ccc4F)c4nc(c(-c5cc(S(=O)(=O)[O-])ccc5F)c5ccc2[nH]5)C=C4)C=C3)cc1
REMARK SMILES IDX 4 1 3 2 1 3 2 4 32 6 33 7 94 8 34 9 93 10 35 11 36 12 37 13
REMARK SMILES IDX 87 14 38 15 92 16 86 17 88 18 39 19 91 20 85 21 84 22 40 24
REMARK SMILES IDX 72 25 52 26 71 27 53 28 56 29 70 30 89 31 54 32 55 33 69 35
REMARK SMILES IDX 90 36 57 37 41 38 42 39 50 40 43 41 49 42 51 43 48 44 44 45
REMARK SMILES IDX 45 46 46 47 47 48 73 49 74 50 82 51 75 52 81 53 83 54 80 55
REMARK SMILES IDX 76 56 77 57 78 58 79 59 58 60 59 61 67 62 60 63 66 64 68 65
REMARK SMILES IDX 65 66 61 67 62 68 63 69 64 70 5 71 6 72 7 73 8 74 9 76 10 77
REMARK SMILES IDX 11 78 31 79 12 80 30 81 13 82 14 83 15 84 29 85 16 86 25 87
REMARK SMILES IDX 24 88 17 89 18 90 23 91 19 92 22 93 20 94 21 95 26 96 27 97
REMARK SMILES IDX 28 98
REMARK H PARENT 3 5 88 23 56 34 7 75
REMARK Flexibility Score: inf
ROOT
ATOM      1  C   UNL A   1      32.329  29.600  25.793  1.00  0.00     0.118 C 
ENDROOT
BRANCH   1   2
ATOM      2  N   UNL A   1      32.111  31.000  26.139  1.00  0.00    -0.352 N 
ATOM      3  O   UNL A   1      32.329  32.933  27.262  1.00  0.00    -0.269 OA
ATOM      4  C   UNL A   1      32.785  31.818  27.013  1.00  0.00     0.251 C 
ATOM      5  H   UNL A   1      31.359  31.427  25.669  1.00  0.00     0.163 HD
BRANCH   4   6
ATOM      6  C   UNL A   1      34.031  31.364  27.668  1.00  0.00     0.039 A 
ATOM      7  C   UNL A   1      34.243  30.016  27.962  1.00  0.00     0.014 A 
ATOM      8  C   UNL A   1      35.019  32.306  27.974  1.00  0.00     0.014 A 
ATOM      9  C   UNL A   1      35.360  29.636  28.701  1.00  0.00     0.010 A 
ATOM     10  C   UNL A   1      36.182  31.909  28.645  1.00  0.00     0.010 A 
ATOM     11  C   UNL A   1      36.340  30.576  29.055  1.00  0.00    -0.014 A 
BRANCH  11  12
ATOM     12  C   UNL A   1      37.516  30.136  29.854  1.00  0.00     0.031 A 
ATOM     13  C   UNL A   1      38.603  29.302  29.228  1.00  0.00     0.074 A 
ATOM     14  C   UNL A   1      37.636  30.552  31.131  1.00  0.00     0.049 A 
ATOM     15  N   UNL A   1      39.716  28.867  29.761  1.00  0.00    -0.248 NA
ATOM     16  C   UNL A   1      38.416  28.899  27.824  1.00  0.00     0.031 C 
ATOM     17  C   UNL A   1      36.652  31.369  31.846  1.00  0.00     0.029 A 
ATOM     18  N   UNL A   1      38.645  30.377  32.044  1.00  0.00    -0.354 N 
ATOM     19  C   UNL A   1      40.356  28.134  28.768  1.00  0.00     0.074 A 
ATOM     20  C   UNL A   1      39.492  28.154  27.608  1.00  0.00     0.031 C 
ATOM     21  C   UNL A   1      37.133  31.674  33.060  1.00  0.00     0.029 A 
ATOM     22  C   UNL A   1      38.428  31.027  33.237  1.00  0.00     0.049 A 
ATOM     23  H   UNL A   1      39.449  29.836  31.863  1.00  0.00     0.167 HD
ATOM     24  C   UNL A   1      41.559  27.512  28.817  1.00  0.00     0.034 A 
ATOM     25  C   UNL A   1      39.179  31.088  34.354  1.00  0.00     0.034 A 
ATOM     26  C   UNL A   1      42.427  27.518  29.966  1.00  0.00     0.049 A 
ATOM     27  C   UNL A   1      40.488  30.351  34.397  1.00  0.00     0.074 A 
ATOM     28  C   UNL A   1      43.683  26.951  30.097  1.00  0.00     0.029 A 
ATOM     29  N   UNL A   1      42.132  28.117  31.182  1.00  0.00    -0.354 N 
ATOM     30  N   UNL A   1      41.067  29.652  33.449  1.00  0.00    -0.248 NA
ATOM     31  C   UNL A   1      41.238  30.396  35.659  1.00  0.00     0.031 C 
ATOM     32  C   UNL A   1      44.124  27.160  31.408  1.00  0.00     0.029 A 
ATOM     33  C   UNL A   1      43.168  27.906  32.077  1.00  0.00     0.049 A 
ATOM     34  H   UNL A   1      41.307  28.618  31.379  1.00  0.00     0.167 HD
ATOM     35  C   UNL A   1      42.250  29.173  34.002  1.00  0.00     0.074 A 
ATOM     36  C   UNL A   1      42.311  29.675  35.359  1.00  0.00     0.031 C 
ATOM     37  C   UNL A   1      43.199  28.389  33.435  1.00  0.00     0.034 A 
BRANCH  24  38
ATOM     38  C   UNL A   1      42.007  26.749  27.598  1.00  0.00     0.023 A 
ATOM     39  C   UNL A   1      41.964  25.345  27.551  1.00  0.00     0.031 A 
ATOM     40  C   UNL A   1      42.445  27.440  26.455  1.00  0.00     0.131 A 
ATOM     41  C   UNL A   1      42.384  24.675  26.392  1.00  0.00     0.055 A 
ATOM     42  C   UNL A   1      42.808  26.769  25.286  1.00  0.00     0.041 A 
ATOM     43  F   UNL A   1      42.517  28.780  26.454  1.00  0.00    -0.206 F 
ATOM     44  C   UNL A   1      42.783  25.378  25.252  1.00  0.00     0.022 A 
BRANCH  41  45
ATOM     45  S   UNL A   1      42.458  22.864  26.413  1.00  0.00     0.124 S 
ATOM     46  O   UNL A   1      41.138  22.522  26.939  1.00  0.00    -0.237 OA
ATOM     47  O   UNL A   1      42.688  22.536  25.011  1.00  0.00    -0.237 OA
ATOM     48  O   UNL A   1      43.574  22.575  27.311  1.00  0.00    -0.744 OA
ENDBRANCH  41  45
ENDBRANCH  24  38
BRANCH  25  49
ATOM     49  C   UNL A   1      38.688  31.846  35.537  1.00  0.00     0.023 A 
ATOM     50  C   UNL A   1      38.095  31.189  36.626  1.00  0.00     0.031 A 
ATOM     51  C   UNL A   1      38.813  33.246  35.593  1.00  0.00     0.131 A 
ATOM     52  C   UNL A   1      37.633  31.936  37.720  1.00  0.00     0.055 A 
ATOM     53  C   UNL A   1      38.388  33.980  36.700  1.00  0.00     0.041 A 
ATOM     54  F   UNL A   1      39.380  33.917  34.578  1.00  0.00    -0.206 F 
ATOM     55  C   UNL A   1      37.788  33.324  37.771  1.00  0.00     0.022 A 
BRANCH  52  56
ATOM     56  S   UNL A   1      36.797  31.071  39.077  1.00  0.00     0.124 S 
ATOM     57  O   UNL A   1      36.652  29.727  38.527  1.00  0.00    -0.237 OA
ATOM     58  O   UNL A   1      37.755  31.217  40.169  1.00  0.00    -0.237 OA
ATOM     59  O   UNL A   1      35.552  31.816  39.242  1.00  0.00    -0.744 OA
ENDBRANCH  52  56
ENDBRANCH  25  49
BRANCH  37  60
ATOM     60  C   UNL A   1      44.388  28.026  34.280  1.00  0.00     0.023 A 
ATOM     61  C   UNL A   1      44.404  26.844  35.038  1.00  0.00     0.031 A 
ATOM     62  C   UNL A   1      45.532  28.841  34.283  1.00  0.00     0.131 A 
ATOM     63  C   UNL A   1      45.541  26.519  35.791  1.00  0.00     0.055 A 
ATOM     64  C   UNL A   1      46.674  28.494  35.004  1.00  0.00     0.041 A 
ATOM     65  F   UNL A   1      45.562  29.978  33.569  1.00  0.00    -0.206 F 
ATOM     66  C   UNL A   1      46.682  27.328  35.765  1.00  0.00     0.022 A 
BRANCH  63  67
ATOM     67  S   UNL A   1      45.514  25.024  36.817  1.00  0.00     0.124 S 
ATOM     68  O   UNL A   1      44.088  24.876  37.095  1.00  0.00    -0.237 OA
ATOM     69  O   UNL A   1      46.099  24.020  35.934  1.00  0.00    -0.237 OA
ATOM     70  O   UNL A   1      46.336  25.385  37.971  1.00  0.00    -0.744 OA
ENDBRANCH  63  67
ENDBRANCH  37  60
ENDBRANCH  11  12
ENDBRANCH   4   6
ENDBRANCH   1   2
BRANCH   1  71
ATOM     71  C   UNL A   1      32.172  29.321  24.298  1.00  0.00     0.042 C 
BRANCH  71  72
ATOM     72  C   UNL A   1      30.950  28.476  23.949  1.00  0.00     0.117 C 
BRANCH  72  73
ATOM     73  N   UNL A   1      31.175  27.661  22.768  1.00  0.00    -0.356 N 
ATOM     74  C   UNL A   1      31.498  26.338  22.676  1.00  0.00     0.223 C 
ATOM     75  H   UNL A   1      31.083  28.131  21.907  1.00  0.00     0.163 HD
ATOM     76  O   UNL A   1      31.784  25.884  21.569  1.00  0.00    -0.275 OA
BRANCH  74  77
ATOM     77  C   UNL A   1      31.404  25.469  23.921  1.00  0.00     0.082 C 
ATOM     78  C   UNL A   1      32.602  25.678  24.860  1.00  0.00     0.035 C 
ATOM     79  C   UNL A   1      31.236  24.000  23.490  1.00  0.00     0.035 C 
ATOM     80  C   UNL A   1      33.863  24.943  24.421  1.00  0.00     0.120 C 
ATOM     81  C   UNL A   1      32.557  23.368  23.029  1.00  0.00     0.120 C 
ATOM     82  N   UNL A   1      33.519  23.574  24.085  1.00  0.00    -0.341 N 
BRANCH  82  83
ATOM     83  C   UNL A   1      34.405  22.597  24.438  1.00  0.00     0.226 A 
ATOM     84  N   UNL A   1      33.912  21.361  24.571  1.00  0.00    -0.213 NA
ATOM     85  N   UNL A   1      35.704  22.884  24.592  1.00  0.00    -0.212 NA
ATOM     86  C   UNL A   1      34.756  20.361  24.871  1.00  0.00     0.076 A 
ATOM     87  C   UNL A   1      36.537  21.882  24.964  1.00  0.00     0.112 A 
ATOM     88  C   UNL A   1      36.093  20.581  25.113  1.00  0.00     0.059 A 
BRANCH  86  89
ATOM     89  C   UNL A   1      34.159  19.019  24.851  1.00  0.00     0.001 A 
ATOM     90  C   UNL A   1      32.888  18.762  25.392  1.00  0.00     0.013 A 
ATOM     91  C   UNL A   1      34.868  17.947  24.271  1.00  0.00     0.013 A 
ATOM     92  C   UNL A   1      32.349  17.473  25.361  1.00  0.00     0.040 A 
ATOM     93  C   UNL A   1      34.334  16.658  24.249  1.00  0.00     0.040 A 
ATOM     94  C   UNL A   1      33.080  16.433  24.795  1.00  0.00     0.123 A 
ATOM     95  F   UNL A   1      32.562  15.198  24.778  1.00  0.00    -0.207 F 
ENDBRANCH  86  89
BRANCH  87  96
ATOM     96  C   UNL A   1      37.988  22.218  25.231  1.00  0.00     0.391 C 
ATOM     97  F   UNL A   1      38.165  23.126  26.233  1.00  0.00    -0.203 F 
ATOM     98  F   UNL A   1      38.739  21.130  25.566  1.00  0.00    -0.203 F 
ENDBRANCH  87  96
ENDBRANCH  82  83
ENDBRANCH  74  77
ENDBRANCH  72  73
ENDBRANCH  71  72
ENDBRANCH   1  71
TORSDOF 16
ENDMDL
