MODEL 1
REMARK VINA RESULT:     -11.8      0.000      0.000
REMARK SMILES C[C@@H]1C[N@@H+](C[C@]2(C(=O)NCCCNC(=O)c3ccc(-c4c5nc(c(-c6cc(S(=O)(=O)[O-])ccc6F)c6ccc([nH]6)c(-c6cc(S(=O)(=O)[O-])ccc6F)c6nc(c(-c7cc(S(=O)(=O)[O-])ccc7F)c7ccc4[nH]7)C=C6)C=C5)cc3)CCOC2)C[C@@H]1C
REMARK SMILES IDX 11 1 10 2 9 3 7 4 8 5 6 7 79 8 82 9 80 10 81 11 5 12 4 13
REMARK SMILES IDX 1 14 2 15 3 16 84 17 83 18 85 19 12 21 13 22 14 23 15 25
REMARK SMILES IDX 16 26 17 27 78 28 18 29 77 30 19 31 20 32 21 33 71 34 22 35
REMARK SMILES IDX 76 36 70 37 72 38 23 39 75 40 69 41 68 42 24 44 56 45 36 46
REMARK SMILES IDX 55 47 37 48 40 49 54 50 73 51 38 52 39 53 53 55 74 56 41 57
REMARK SMILES IDX 25 58 26 59 34 60 27 61 33 62 35 63 32 64 28 65 29 66 30 67
REMARK SMILES IDX 31 68 57 69 58 70 66 71 59 72 65 73 67 74 64 75 60 76 61 77
REMARK SMILES IDX 62 78 63 79 42 80 43 81 51 82 44 83 50 84 52 85 49 86 45 87
REMARK SMILES IDX 46 88 47 89 48 90
REMARK H PARENT 9 6 4 20 13 24 72 43 40 54
REMARK Flexibility Score: inf
ROOT
ATOM      1  C   UNL A   1      36.497  20.699  24.992  1.00  0.00     0.042 C 
ENDROOT
BRANCH   1   2
ATOM      2  C   UNL A   1      35.234  21.325  25.552  1.00  0.00     0.117 C 
BRANCH   2   3
ATOM      3  N   UNL A   1      34.063  20.464  25.477  1.00  0.00    -0.355 N 
ATOM      4  C   UNL A   1      32.734  20.764  25.391  1.00  0.00     0.234 C 
ATOM      5  O   UNL A   1      31.973  19.828  25.134  1.00  0.00    -0.274 OA
ATOM      6  H   UNL A   1      34.264  19.501  25.491  1.00  0.00     0.163 HD
BRANCH   4   7
ATOM      7  C   UNL A   1      32.225  22.198  25.611  1.00  0.00     0.123 C 
ATOM      8  C   UNL A   1      30.695  22.204  25.750  1.00  0.00     0.054 C 
ATOM      9  C   UNL A   1      32.625  22.601  27.030  1.00  0.00     0.183 C 
ATOM     10  C   UNL A   1      30.401  23.241  26.806  1.00  0.00     0.161 C 
ATOM     11  O   UNL A   1      31.561  23.356  27.626  1.00  0.00    -0.380 OA
BRANCH   7  12
ATOM     12  C   UNL A   1      32.688  23.059  24.389  1.00  0.00     0.281 C 
BRANCH  12  13
ATOM     13  N   UNL A   1      32.723  24.509  24.367  1.00  0.00    -0.333 N 
ATOM     14  C   UNL A   1      31.340  27.321  22.375  1.00  0.00     0.014 C 
ATOM     15  C   UNL A   1      32.206  26.148  22.796  1.00  0.00     0.049 C 
ATOM     16  C   UNL A   1      31.597  25.293  23.897  1.00  0.00     0.265 C 
ATOM     17  C   UNL A   1      33.605  26.469  23.344  1.00  0.00     0.049 C 
ATOM     18  C   UNL A   1      33.979  25.187  24.106  1.00  0.00     0.265 C 
ATOM     19  C   UNL A   1      33.653  27.694  24.255  1.00  0.00     0.014 C 
ATOM     20  H   UNL A   1      32.589  24.493  25.377  1.00  0.00     0.348 HD
ENDBRANCH  12  13
ENDBRANCH   7  12
ENDBRANCH   4   7
ENDBRANCH   2   3
ENDBRANCH   1   2
BRANCH   1  21
ATOM     21  C   UNL A   1      37.783  21.417  25.365  1.00  0.00     0.118 C 
BRANCH  21  22
ATOM     22  N   UNL A   1      38.822  20.523  25.854  1.00  0.00    -0.352 N 
ATOM     23  C   UNL A   1      40.005  20.800  26.500  1.00  0.00     0.251 C 
ATOM     24  H   UNL A   1      38.652  19.567  25.697  1.00  0.00     0.163 HD
ATOM     25  O   UNL A   1      40.807  19.892  26.689  1.00  0.00    -0.269 OA
BRANCH  23  26
ATOM     26  C   UNL A   1      40.327  22.183  26.924  1.00  0.00     0.039 A 
ATOM     27  C   UNL A   1      41.186  22.372  28.011  1.00  0.00     0.014 A 
ATOM     28  C   UNL A   1      39.796  23.293  26.263  1.00  0.00     0.014 A 
ATOM     29  C   UNL A   1      41.569  23.664  28.375  1.00  0.00     0.010 A 
ATOM     30  C   UNL A   1      40.269  24.570  26.553  1.00  0.00     0.010 A 
ATOM     31  C   UNL A   1      41.154  24.774  27.620  1.00  0.00    -0.014 A 
BRANCH  31  32
ATOM     32  C   UNL A   1      41.621  26.149  27.948  1.00  0.00     0.031 A 
ATOM     33  C   UNL A   1      43.013  26.587  27.571  1.00  0.00     0.074 A 
ATOM     34  C   UNL A   1      40.803  26.992  28.611  1.00  0.00     0.049 A 
ATOM     35  N   UNL A   1      43.609  27.730  27.795  1.00  0.00    -0.248 NA
ATOM     36  C   UNL A   1      43.855  25.601  26.875  1.00  0.00     0.031 C 
ATOM     37  C   UNL A   1      39.448  26.671  29.069  1.00  0.00     0.029 A 
ATOM     38  N   UNL A   1      40.983  28.294  29.008  1.00  0.00    -0.354 N 
ATOM     39  C   UNL A   1      44.889  27.601  27.266  1.00  0.00     0.074 A 
ATOM     40  C   UNL A   1      45.010  26.241  26.791  1.00  0.00     0.031 C 
ATOM     41  C   UNL A   1      38.904  27.760  29.636  1.00  0.00     0.029 A 
ATOM     42  C   UNL A   1      39.884  28.840  29.635  1.00  0.00     0.049 A 
ATOM     43  H   UNL A   1      41.819  28.790  28.860  1.00  0.00     0.167 HD
ATOM     44  C   UNL A   1      45.860  28.540  27.147  1.00  0.00     0.034 A 
ATOM     45  C   UNL A   1      39.692  30.071  30.149  1.00  0.00     0.034 A 
ATOM     46  C   UNL A   1      45.727  29.896  27.619  1.00  0.00     0.049 A 
ATOM     47  C   UNL A   1      40.811  31.081  30.053  1.00  0.00     0.074 A 
ATOM     48  C   UNL A   1      46.641  30.932  27.535  1.00  0.00     0.029 A 
ATOM     49  N   UNL A   1      44.609  30.406  28.266  1.00  0.00    -0.354 N 
ATOM     50  N   UNL A   1      41.999  30.951  29.508  1.00  0.00    -0.248 NA
ATOM     51  C   UNL A   1      40.555  32.407  30.628  1.00  0.00     0.031 C 
ATOM     52  C   UNL A   1      46.103  32.046  28.188  1.00  0.00     0.029 A 
ATOM     53  C   UNL A   1      44.820  31.733  28.605  1.00  0.00     0.049 A 
ATOM     54  H   UNL A   1      43.786  29.900  28.455  1.00  0.00     0.167 HD
ATOM     55  C   UNL A   1      42.612  32.196  29.638  1.00  0.00     0.074 A 
ATOM     56  C   UNL A   1      41.654  33.062  30.289  1.00  0.00     0.031 C 
ATOM     57  C   UNL A   1      43.854  32.587  29.255  1.00  0.00     0.034 A 
BRANCH  44  58
ATOM     58  C   UNL A   1      47.151  28.123  26.481  1.00  0.00     0.023 A 
ATOM     59  C   UNL A   1      47.304  28.176  25.083  1.00  0.00     0.031 A 
ATOM     60  C   UNL A   1      48.235  27.654  27.242  1.00  0.00     0.131 A 
ATOM     61  C   UNL A   1      48.482  27.703  24.488  1.00  0.00     0.055 A 
ATOM     62  C   UNL A   1      49.438  27.265  26.648  1.00  0.00     0.041 A 
ATOM     63  F   UNL A   1      48.142  27.559  28.578  1.00  0.00    -0.206 F 
ATOM     64  C   UNL A   1      49.562  27.274  25.262  1.00  0.00     0.022 A 
BRANCH  61  65
ATOM     65  S   UNL A   1      48.527  27.524  22.684  1.00  0.00     0.124 S 
ATOM     66  O   UNL A   1      47.295  28.204  22.290  1.00  0.00    -0.237 OA
ATOM     67  O   UNL A   1      49.770  28.200  22.330  1.00  0.00    -0.237 OA
ATOM     68  O   UNL A   1      48.523  26.077  22.482  1.00  0.00    -0.744 OA
ENDBRANCH  61  65
ENDBRANCH  44  58
BRANCH  45  69
ATOM     69  C   UNL A   1      38.400  30.437  30.806  1.00  0.00     0.023 A 
ATOM     70  C   UNL A   1      37.392  31.100  30.088  1.00  0.00     0.031 A 
ATOM     71  C   UNL A   1      38.189  30.212  32.178  1.00  0.00     0.131 A 
ATOM     72  C   UNL A   1      36.255  31.583  30.757  1.00  0.00     0.055 A 
ATOM     73  C   UNL A   1      37.022  30.630  32.824  1.00  0.00     0.041 A 
ATOM     74  F   UNL A   1      39.116  29.582  32.915  1.00  0.00    -0.206 F 
ATOM     75  C   UNL A   1      36.057  31.339  32.116  1.00  0.00     0.022 A 
BRANCH  72  76
ATOM     76  S   UNL A   1      35.108  32.655  29.848  1.00  0.00     0.124 S 
ATOM     77  O   UNL A   1      34.561  31.732  28.860  1.00  0.00    -0.237 OA
ATOM     78  O   UNL A   1      34.195  33.085  30.902  1.00  0.00    -0.237 OA
ATOM     79  O   UNL A   1      35.977  33.702  29.312  1.00  0.00    -0.744 OA
ENDBRANCH  72  76
ENDBRANCH  45  69
BRANCH  57  80
ATOM     80  C   UNL A   1      44.215  34.037  29.483  1.00  0.00     0.023 A 
ATOM     81  C   UNL A   1      43.961  35.025  28.517  1.00  0.00     0.031 A 
ATOM     82  C   UNL A   1      44.852  34.427  30.674  1.00  0.00     0.131 A 
ATOM     83  C   UNL A   1      44.409  36.338  28.724  1.00  0.00     0.055 A 
ATOM     84  C   UNL A   1      45.230  35.751  30.908  1.00  0.00     0.041 A 
ATOM     85  F   UNL A   1      45.123  33.526  31.633  1.00  0.00    -0.206 F 
ATOM     86  C   UNL A   1      45.025  36.710  29.921  1.00  0.00     0.022 A 
BRANCH  83  87
ATOM     87  S   UNL A   1      44.287  37.524  27.358  1.00  0.00     0.124 S 
ATOM     88  O   UNL A   1      45.492  37.227  26.589  1.00  0.00    -0.237 OA
ATOM     89  O   UNL A   1      43.023  37.148  26.731  1.00  0.00    -0.237 OA
ATOM     90  O   UNL A   1      44.284  38.823  28.029  1.00  0.00    -0.744 OA
ENDBRANCH  83  87
ENDBRANCH  57  80
ENDBRANCH  31  32
ENDBRANCH  23  26
ENDBRANCH  21  22
ENDBRANCH   1  21
TORSDOF 15
ENDMDL
MODEL 2
REMARK VINA RESULT:     -11.7      5.345     10.732
REMARK SMILES C[C@@H]1C[N@@H+](C[C@]2(C(=O)NCCCNC(=O)c3ccc(-c4c5nc(c(-c6cc(S(=O)(=O)[O-])ccc6F)c6ccc([nH]6)c(-c6cc(S(=O)(=O)[O-])ccc6F)c6nc(c(-c7cc(S(=O)(=O)[O-])ccc7F)c7ccc4[nH]7)C=C6)C=C5)cc3)CCOC2)C[C@@H]1C
REMARK SMILES IDX 11 1 10 2 9 3 7 4 8 5 6 7 79 8 82 9 80 10 81 11 5 12 4 13
REMARK SMILES IDX 1 14 2 15 3 16 84 17 83 18 85 19 12 21 13 22 14 23 15 25
REMARK SMILES IDX 16 26 17 27 78 28 18 29 77 30 19 31 20 32 21 33 71 34 22 35
REMARK SMILES IDX 76 36 70 37 72 38 23 39 75 40 69 41 68 42 24 44 56 45 36 46
REMARK SMILES IDX 55 47 37 48 40 49 54 50 73 51 38 52 39 53 53 55 74 56 41 57
REMARK SMILES IDX 25 58 26 59 34 60 27 61 33 62 35 63 32 64 28 65 29 66 30 67
REMARK SMILES IDX 31 68 57 69 58 70 66 71 59 72 65 73 67 74 64 75 60 76 61 77
REMARK SMILES IDX 62 78 63 79 42 80 43 81 51 82 44 83 50 84 52 85 49 86 45 87
REMARK SMILES IDX 46 88 47 89 48 90
REMARK H PARENT 9 6 4 20 13 24 72 43 40 54
REMARK Flexibility Score: inf
ROOT
ATOM      1  C   UNL A   1      31.465  31.638  26.374  1.00  0.00     0.042 C 
ENDROOT
BRANCH   1   2
ATOM      2  C   UNL A   1      31.649  30.267  25.753  1.00  0.00     0.117 C 
BRANCH   2   3
ATOM      3  N   UNL A   1      30.977  30.102  24.473  1.00  0.00    -0.355 N 
ATOM      4  C   UNL A   1      30.664  28.979  23.763  1.00  0.00     0.234 C 
ATOM      5  O   UNL A   1      29.908  29.128  22.800  1.00  0.00    -0.274 OA
ATOM      6  H   UNL A   1      30.701  30.945  24.046  1.00  0.00     0.163 HD
BRANCH   4   7
ATOM      7  C   UNL A   1      31.237  27.606  24.150  1.00  0.00     0.123 C 
ATOM      8  C   UNL A   1      30.979  27.322  25.638  1.00  0.00     0.054 C 
ATOM      9  C   UNL A   1      30.331  26.550  23.516  1.00  0.00     0.183 C 
ATOM     10  C   UNL A   1      30.662  25.848  25.708  1.00  0.00     0.161 C 
ATOM     11  O   UNL A   1      30.162  25.459  24.432  1.00  0.00    -0.380 OA
BRANCH   7  12
ATOM     12  C   UNL A   1      32.768  27.623  23.832  1.00  0.00     0.281 C 
BRANCH  12  13
ATOM     13  N   UNL A   1      33.583  26.439  23.626  1.00  0.00    -0.333 N 
ATOM     14  C   UNL A   1      33.288  23.054  22.129  1.00  0.00     0.014 C 
ATOM     15  C   UNL A   1      33.153  24.212  23.101  1.00  0.00     0.049 C 
ATOM     16  C   UNL A   1      33.398  25.577  22.475  1.00  0.00     0.265 C 
ATOM     17  C   UNL A   1      34.089  24.219  24.319  1.00  0.00     0.049 C 
ATOM     18  C   UNL A   1      34.049  25.687  24.775  1.00  0.00     0.265 C 
ATOM     19  C   UNL A   1      35.516  23.768  24.013  1.00  0.00     0.014 C 
ATOM     20  H   UNL A   1      34.341  27.054  23.335  1.00  0.00     0.348 HD
ENDBRANCH  12  13
ENDBRANCH   7  12
ENDBRANCH   4   7
ENDBRANCH   2   3
ENDBRANCH   1   2
BRANCH   1  21
ATOM     21  C   UNL A   1      32.657  32.142  27.170  1.00  0.00     0.118 C 
BRANCH  21  22
ATOM     22  N   UNL A   1      32.553  33.545  27.541  1.00  0.00    -0.352 N 
ATOM     23  C   UNL A   1      33.288  34.289  28.435  1.00  0.00     0.251 C 
ATOM     24  H   UNL A   1      31.841  34.043  27.078  1.00  0.00     0.163 HD
ATOM     25  O   UNL A   1      32.926  35.430  28.701  1.00  0.00    -0.269 OA
BRANCH  23  26
ATOM     26  C   UNL A   1      34.478  33.707  29.101  1.00  0.00     0.039 A 
ATOM     27  C   UNL A   1      34.290  32.717  30.069  1.00  0.00     0.014 A 
ATOM     28  C   UNL A   1      35.771  34.124  28.781  1.00  0.00     0.014 A 
ATOM     29  C   UNL A   1      35.399  32.096  30.650  1.00  0.00     0.010 A 
ATOM     30  C   UNL A   1      36.871  33.426  29.273  1.00  0.00     0.010 A 
ATOM     31  C   UNL A   1      36.701  32.409  30.221  1.00  0.00    -0.014 A 
BRANCH  31  32
ATOM     32  C   UNL A   1      37.886  31.697  30.773  1.00  0.00     0.031 A 
ATOM     33  C   UNL A   1      38.376  32.005  32.164  1.00  0.00     0.074 A 
ATOM     34  C   UNL A   1      38.537  30.795  30.011  1.00  0.00     0.049 A 
ATOM     35  N   UNL A   1      39.403  31.513  32.807  1.00  0.00    -0.248 NA
ATOM     36  C   UNL A   1      37.629  33.022  32.922  1.00  0.00     0.031 C 
ATOM     37  C   UNL A   1      38.186  30.440  28.633  1.00  0.00     0.029 A 
ATOM     38  N   UNL A   1      39.625  30.003  30.286  1.00  0.00    -0.354 N 
ATOM     39  C   UNL A   1      39.423  32.154  34.041  1.00  0.00     0.074 A 
ATOM     40  C   UNL A   1      38.359  33.134  34.020  1.00  0.00     0.031 C 
ATOM     41  C   UNL A   1      39.007  29.468  28.204  1.00  0.00     0.029 A 
ATOM     42  C   UNL A   1      39.979  29.166  29.250  1.00  0.00     0.049 A 
ATOM     43  H   UNL A   1      40.107  30.031  31.142  1.00  0.00     0.167 HD
ATOM     44  C   UNL A   1      40.224  31.922  35.110  1.00  0.00     0.034 A 
ATOM     45  C   UNL A   1      40.973  28.261  29.156  1.00  0.00     0.034 A 
ATOM     46  C   UNL A   1      41.279  30.939  35.122  1.00  0.00     0.049 A 
ATOM     47  C   UNL A   1      41.886  28.061  30.342  1.00  0.00     0.074 A 
ATOM     48  C   UNL A   1      42.139  30.610  36.156  1.00  0.00     0.029 A 
ATOM     49  N   UNL A   1      41.620  30.126  34.049  1.00  0.00    -0.354 N 
ATOM     50  N   UNL A   1      41.859  28.648  31.517  1.00  0.00    -0.248 NA
ATOM     51  C   UNL A   1      42.954  27.065  30.193  1.00  0.00     0.031 C 
ATOM     52  C   UNL A   1      43.040  29.647  35.687  1.00  0.00     0.029 A 
ATOM     53  C   UNL A   1      42.691  29.313  34.390  1.00  0.00     0.049 A 
ATOM     54  H   UNL A   1      41.167  30.125  33.175  1.00  0.00     0.167 HD
ATOM     55  C   UNL A   1      42.880  28.057  32.259  1.00  0.00     0.074 A 
ATOM     56  C   UNL A   1      43.483  27.055  31.406  1.00  0.00     0.031 C 
ATOM     57  C   UNL A   1      43.283  28.317  33.528  1.00  0.00     0.034 A 
BRANCH  44  58
ATOM     58  C   UNL A   1      39.986  32.752  36.350  1.00  0.00     0.023 A 
ATOM     59  C   UNL A   1      39.087  32.334  37.349  1.00  0.00     0.031 A 
ATOM     60  C   UNL A   1      40.648  33.977  36.535  1.00  0.00     0.131 A 
ATOM     61  C   UNL A   1      38.822  33.165  38.447  1.00  0.00     0.055 A 
ATOM     62  C   UNL A   1      40.445  34.760  37.673  1.00  0.00     0.041 A 
ATOM     63  F   UNL A   1      41.501  34.440  35.607  1.00  0.00    -0.206 F 
ATOM     64  C   UNL A   1      39.516  34.363  38.631  1.00  0.00     0.022 A 
BRANCH  61  65
ATOM     65  S   UNL A   1      37.457  32.724  39.555  1.00  0.00     0.124 S 
ATOM     66  O   UNL A   1      36.317  32.742  38.639  1.00  0.00    -0.237 OA
ATOM     67  O   UNL A   1      37.859  31.412  40.047  1.00  0.00    -0.237 OA
ATOM     68  O   UNL A   1      37.463  33.795  40.550  1.00  0.00    -0.744 OA
ENDBRANCH  61  65
ENDBRANCH  44  58
BRANCH  45  69
ATOM     69  C   UNL A   1      41.175  27.467  27.907  1.00  0.00     0.023 A 
ATOM     70  C   UNL A   1      40.875  26.096  27.869  1.00  0.00     0.031 A 
ATOM     71  C   UNL A   1      41.753  28.043  26.761  1.00  0.00     0.131 A 
ATOM     72  C   UNL A   1      41.223  25.331  26.744  1.00  0.00     0.055 A 
ATOM     73  C   UNL A   1      42.031  27.292  25.617  1.00  0.00     0.041 A 
ATOM     74  F   UNL A   1      42.061  29.349  26.738  1.00  0.00    -0.206 F 
ATOM     75  C   UNL A   1      41.785  25.923  25.612  1.00  0.00     0.022 A 
BRANCH  72  76
ATOM     76  S   UNL A   1      41.057  23.527  26.841  1.00  0.00     0.124 S 
ATOM     77  O   UNL A   1      42.041  23.086  25.859  1.00  0.00    -0.237 OA
ATOM     78  O   UNL A   1      41.382  23.267  28.240  1.00  0.00    -0.237 OA
ATOM     79  O   UNL A   1      39.660  23.296  26.474  1.00  0.00    -0.744 OA
ENDBRANCH  72  76
ENDBRANCH  45  69
BRANCH  57  80
ATOM     80  C   UNL A   1      44.395  27.458  34.083  1.00  0.00     0.023 A 
ATOM     81  C   UNL A   1      44.144  26.204  34.664  1.00  0.00     0.031 A 
ATOM     82  C   UNL A   1      45.724  27.919  34.056  1.00  0.00     0.131 A 
ATOM     83  C   UNL A   1      45.192  25.488  35.263  1.00  0.00     0.055 A 
ATOM     84  C   UNL A   1      46.774  27.168  34.587  1.00  0.00     0.041 A 
ATOM     85  F   UNL A   1      46.025  29.111  33.515  1.00  0.00    -0.206 F 
ATOM     86  C   UNL A   1      46.507  25.954  35.211  1.00  0.00     0.022 A 
BRANCH  83  87
ATOM     87  S   UNL A   1      44.792  23.999  36.219  1.00  0.00     0.124 S 
ATOM     88  O   UNL A   1      45.988  23.186  36.029  1.00  0.00    -0.237 OA
ATOM     89  O   UNL A   1      44.593  24.536  37.562  1.00  0.00    -0.237 OA
ATOM     90  O   UNL A   1      43.584  23.489  35.571  1.00  0.00    -0.744 OA
ENDBRANCH  83  87
ENDBRANCH  57  80
ENDBRANCH  31  32
ENDBRANCH  23  26
ENDBRANCH  21  22
ENDBRANCH   1  21
TORSDOF 15
ENDMDL
MODEL 3
REMARK VINA RESULT:     -11.5      5.947      9.188
REMARK SMILES C[C@@H]1C[N@@H+](C[C@]2(C(=O)NCCCNC(=O)c3ccc(-c4c5nc(c(-c6cc(S(=O)(=O)[O-])ccc6F)c6ccc([nH]6)c(-c6cc(S(=O)(=O)[O-])ccc6F)c6nc(c(-c7cc(S(=O)(=O)[O-])ccc7F)c7ccc4[nH]7)C=C6)C=C5)cc3)CCOC2)C[C@@H]1C
REMARK SMILES IDX 11 1 10 2 9 3 7 4 8 5 6 7 79 8 82 9 80 10 81 11 5 12 4 13
REMARK SMILES IDX 1 14 2 15 3 16 84 17 83 18 85 19 12 21 13 22 14 23 15 25
REMARK SMILES IDX 16 26 17 27 78 28 18 29 77 30 19 31 20 32 21 33 71 34 22 35
REMARK SMILES IDX 76 36 70 37 72 38 23 39 75 40 69 41 68 42 24 44 56 45 36 46
REMARK SMILES IDX 55 47 37 48 40 49 54 50 73 51 38 52 39 53 53 55 74 56 41 57
REMARK SMILES IDX 25 58 26 59 34 60 27 61 33 62 35 63 32 64 28 65 29 66 30 67
REMARK SMILES IDX 31 68 57 69 58 70 66 71 59 72 65 73 67 74 64 75 60 76 61 77
REMARK SMILES IDX 62 78 63 79 42 80 43 81 51 82 44 83 50 84 52 85 49 86 45 87
REMARK SMILES IDX 46 88 47 89 48 90
REMARK H PARENT 9 6 4 20 13 24 72 43 40 54
REMARK Flexibility Score: inf
ROOT
ATOM      1  C   UNL A   1      31.597  31.787  26.678  1.00  0.00     0.042 C 
ENDROOT
BRANCH   1   2
ATOM      2  C   UNL A   1      31.864  30.461  25.992  1.00  0.00     0.117 C 
BRANCH   2   3
ATOM      3  N   UNL A   1      30.988  30.194  24.860  1.00  0.00    -0.355 N 
ATOM      4  C   UNL A   1      30.990  29.180  23.946  1.00  0.00     0.234 C 
ATOM      5  O   UNL A   1      30.001  29.096  23.214  1.00  0.00    -0.274 OA
ATOM      6  H   UNL A   1      30.273  30.857  24.733  1.00  0.00     0.163 HD
BRANCH   4   7
ATOM      7  C   UNL A   1      32.173  28.204  23.840  1.00  0.00     0.123 C 
ATOM      8  C   UNL A   1      32.033  27.333  22.583  1.00  0.00     0.054 C 
ATOM      9  C   UNL A   1      33.400  29.031  23.457  1.00  0.00     0.183 C 
ATOM     10  C   UNL A   1      33.438  27.177  22.053  1.00  0.00     0.161 C 
ATOM     11  O   UNL A   1      34.193  28.294  22.514  1.00  0.00    -0.380 OA
BRANCH   7  12
ATOM     12  C   UNL A   1      32.186  27.331  25.138  1.00  0.00     0.281 C 
BRANCH  12  13
ATOM     13  N   UNL A   1      32.211  25.880  25.158  1.00  0.00    -0.333 N 
ATOM     14  C   UNL A   1      30.412  23.064  26.776  1.00  0.00     0.014 C 
ATOM     15  C   UNL A   1      31.354  24.235  26.565  1.00  0.00     0.049 C 
ATOM     16  C   UNL A   1      31.006  25.099  25.362  1.00  0.00     0.265 C 
ATOM     17  C   UNL A   1      32.839  23.911  26.337  1.00  0.00     0.049 C 
ATOM     18  C   UNL A   1      33.376  25.195  25.686  1.00  0.00     0.265 C 
ATOM     19  C   UNL A   1      33.082  22.690  25.451  1.00  0.00     0.014 C 
ATOM     20  H   UNL A   1      32.303  25.903  24.143  1.00  0.00     0.348 HD
ENDBRANCH  12  13
ENDBRANCH   7  12
ENDBRANCH   4   7
ENDBRANCH   2   3
ENDBRANCH   1   2
BRANCH   1  21
ATOM     21  C   UNL A   1      32.828  32.462  27.258  1.00  0.00     0.118 C 
BRANCH  21  22
ATOM     22  N   UNL A   1      32.613  33.860  27.601  1.00  0.00    -0.352 N 
ATOM     23  C   UNL A   1      33.202  34.643  28.567  1.00  0.00     0.251 C 
ATOM     24  H   UNL A   1      31.937  34.321  27.053  1.00  0.00     0.163 HD
ATOM     25  O   UNL A   1      32.757  35.765  28.778  1.00  0.00    -0.269 OA
BRANCH  23  26
ATOM     26  C   UNL A   1      34.333  34.123  29.373  1.00  0.00     0.039 A 
ATOM     27  C   UNL A   1      34.054  33.369  30.516  1.00  0.00     0.014 A 
ATOM     28  C   UNL A   1      35.660  34.368  29.014  1.00  0.00     0.014 A 
ATOM     29  C   UNL A   1      35.102  32.800  31.244  1.00  0.00     0.010 A 
ATOM     30  C   UNL A   1      36.694  33.705  29.669  1.00  0.00     0.010 A 
ATOM     31  C   UNL A   1      36.430  32.920  30.800  1.00  0.00    -0.014 A 
BRANCH  31  32
ATOM     32  C   UNL A   1      37.547  32.250  31.519  1.00  0.00     0.031 A 
ATOM     33  C   UNL A   1      38.286  31.105  30.875  1.00  0.00     0.074 A 
ATOM     34  C   UNL A   1      37.878  32.653  32.764  1.00  0.00     0.049 A 
ATOM     35  N   UNL A   1      39.264  30.379  31.352  1.00  0.00    -0.248 NA
ATOM     36  C   UNL A   1      37.848  30.706  29.528  1.00  0.00     0.031 C 
ATOM     37  C   UNL A   1      37.210  33.722  33.512  1.00  0.00     0.029 A 
ATOM     38  N   UNL A   1      38.863  32.221  33.618  1.00  0.00    -0.354 N 
ATOM     39  C   UNL A   1      39.560  29.445  30.365  1.00  0.00     0.074 A 
ATOM     40  C   UNL A   1      38.598  29.639  29.303  1.00  0.00     0.031 C 
ATOM     41  C   UNL A   1      37.836  33.894  34.688  1.00  0.00     0.029 A 
ATOM     42  C   UNL A   1      38.913  32.917  34.805  1.00  0.00     0.049 A 
ATOM     43  H   UNL A   1      39.475  31.482  33.402  1.00  0.00     0.167 HD
ATOM     44  C   UNL A   1      40.565  28.535  30.326  1.00  0.00     0.034 A 
ATOM     45  C   UNL A   1      39.733  32.781  35.866  1.00  0.00     0.034 A 
ATOM     46  C   UNL A   1      41.522  28.352  31.389  1.00  0.00     0.049 A 
ATOM     47  C   UNL A   1      40.809  31.722  35.820  1.00  0.00     0.074 A 
ATOM     48  C   UNL A   1      42.589  27.473  31.447  1.00  0.00     0.029 A 
ATOM     49  N   UNL A   1      41.528  29.061  32.584  1.00  0.00    -0.354 N 
ATOM     50  N   UNL A   1      41.099  30.877  34.857  1.00  0.00    -0.248 NA
ATOM     51  C   UNL A   1      41.677  31.612  36.998  1.00  0.00     0.031 C 
ATOM     52  C   UNL A   1      43.198  27.603  32.699  1.00  0.00     0.029 A 
ATOM     53  C   UNL A   1      42.566  28.622  33.392  1.00  0.00     0.049 A 
ATOM     54  H   UNL A   1      40.890  29.772  32.822  1.00  0.00     0.167 HD
ATOM     55  C   UNL A   1      42.212  30.166  35.301  1.00  0.00     0.074 A 
ATOM     56  C   UNL A   1      42.551  30.700  36.603  1.00  0.00     0.031 C 
ATOM     57  C   UNL A   1      42.893  29.164  34.689  1.00  0.00     0.034 A 
BRANCH  44  58
ATOM     58  C   UNL A   1      40.671  27.670  29.092  1.00  0.00     0.023 A 
ATOM     59  C   UNL A   1      41.621  27.938  28.090  1.00  0.00     0.031 A 
ATOM     60  C   UNL A   1      39.810  26.575  28.903  1.00  0.00     0.131 A 
ATOM     61  C   UNL A   1      41.640  27.170  26.917  1.00  0.00     0.055 A 
ATOM     62  C   UNL A   1      39.891  25.761  27.772  1.00  0.00     0.041 A 
ATOM     63  F   UNL A   1      38.868  26.282  29.814  1.00  0.00    -0.206 F 
ATOM     64  C   UNL A   1      40.800  26.065  26.762  1.00  0.00     0.022 A 
BRANCH  61  65
ATOM     65  S   UNL A   1      42.680  27.723  25.538  1.00  0.00     0.124 S 
ATOM     66  O   UNL A   1      43.942  28.007  26.217  1.00  0.00    -0.237 OA
ATOM     67  O   UNL A   1      42.677  26.562  24.655  1.00  0.00    -0.237 OA
ATOM     68  O   UNL A   1      41.977  28.898  25.028  1.00  0.00    -0.744 OA
ENDBRANCH  61  65
ENDBRANCH  44  58
BRANCH  45  69
ATOM     69  C   UNL A   1      39.586  33.655  37.069  1.00  0.00     0.023 A 
ATOM     70  C   UNL A   1      40.418  34.771  37.252  1.00  0.00     0.031 A 
ATOM     71  C   UNL A   1      38.677  33.339  38.094  1.00  0.00     0.131 A 
ATOM     72  C   UNL A   1      40.379  35.485  38.461  1.00  0.00     0.055 A 
ATOM     73  C   UNL A   1      38.592  34.097  39.266  1.00  0.00     0.041 A 
ATOM     74  F   UNL A   1      37.855  32.284  37.976  1.00  0.00    -0.206 F 
ATOM     75  C   UNL A   1      39.462  35.164  39.462  1.00  0.00     0.022 A 
BRANCH  72  76
ATOM     76  S   UNL A   1      41.645  36.751  38.758  1.00  0.00     0.124 S 
ATOM     77  O   UNL A   1      40.836  37.876  39.214  1.00  0.00    -0.237 OA
ATOM     78  O   UNL A   1      42.483  36.110  39.766  1.00  0.00    -0.237 OA
ATOM     79  O   UNL A   1      42.268  36.919  37.446  1.00  0.00    -0.744 OA
ENDBRANCH  72  76
ENDBRANCH  45  69
BRANCH  57  80
ATOM     80  C   UNL A   1      44.108  28.625  35.407  1.00  0.00     0.023 A 
ATOM     81  C   UNL A   1      44.019  27.564  36.324  1.00  0.00     0.031 A 
ATOM     82  C   UNL A   1      45.371  29.206  35.191  1.00  0.00     0.131 A 
ATOM     83  C   UNL A   1      45.154  27.167  37.047  1.00  0.00     0.055 A 
ATOM     84  C   UNL A   1      46.512  28.757  35.859  1.00  0.00     0.041 A 
ATOM     85  F   UNL A   1      45.518  30.224  34.327  1.00  0.00    -0.206 F 
ATOM     86  C   UNL A   1      46.403  27.745  36.807  1.00  0.00     0.022 A 
BRANCH  83  87
ATOM     87  S   UNL A   1      44.950  25.972  38.396  1.00  0.00     0.124 S 
ATOM     88  O   UNL A   1      44.249  24.879  37.730  1.00  0.00    -0.237 OA
ATOM     89  O   UNL A   1      46.332  25.700  38.782  1.00  0.00    -0.237 OA
ATOM     90  O   UNL A   1      44.162  26.702  39.387  1.00  0.00    -0.744 OA
ENDBRANCH  83  87
ENDBRANCH  57  80
ENDBRANCH  31  32
ENDBRANCH  23  26
ENDBRANCH  21  22
ENDBRANCH   1  21
TORSDOF 15
ENDMDL
