MODEL 1
REMARK VINA RESULT:     -11.3      0.000      0.000
REMARK SMILES CCOC[C@@H](O)C[C@]1(C(=O)NCCCNC(=O)c2ccc(-c3c4nc(c(-c5cc(S(=O)(=O)[O-])ccc5F)c5ccc([nH]5)c(-c5cc(S(=O)(=O)[O-])ccc5F)c5nc(c(-c6cc(S(=O)(=O)[O-])ccc6F)c6ccc3[nH]6)C=C5)C=C4)cc2)CCc2ccccc21
REMARK SMILES IDX 12 1 11 2 9 3 10 4 8 6 81 7 88 8 82 9 83 10 87 11 84 12
REMARK SMILES IDX 86 13 85 14 7 15 5 16 4 17 3 18 2 19 1 20 6 21 13 23 14 24
REMARK SMILES IDX 15 25 16 26 17 28 18 29 19 30 80 31 20 32 79 33 21 34 22 35
REMARK SMILES IDX 23 36 73 37 24 38 78 39 72 40 74 41 25 42 77 43 71 44 70 45
REMARK SMILES IDX 26 47 58 48 38 49 57 50 39 51 42 52 56 53 75 54 40 55 41 56
REMARK SMILES IDX 55 58 76 59 43 60 27 61 28 62 36 63 29 64 35 65 37 66 34 67
REMARK SMILES IDX 30 68 31 69 32 70 33 71 59 72 60 73 68 74 61 75 67 76 69 77
REMARK SMILES IDX 66 78 62 79 63 80 64 81 65 82 44 83 45 84 53 85 46 86 52 87
REMARK SMILES IDX 54 88 51 89 47 90 48 91 49 92 50 93
REMARK H PARENT 11 5 6 22 15 27 74 46 42 57
REMARK Flexibility Score: inf
ROOT
ATOM      1  C   UNL A   1      33.466  28.541  24.842  1.00  0.00     0.117 C 
ENDROOT
BRANCH   1   2
ATOM      2  N   UNL A   1      33.740  28.202  23.457  1.00  0.00    -0.355 N 
ATOM      3  C   UNL A   1      33.456  27.113  22.694  1.00  0.00     0.230 C 
ATOM      4  O   UNL A   1      33.761  27.231  21.499  1.00  0.00    -0.274 OA
ATOM      5  H   UNL A   1      34.232  28.903  22.972  1.00  0.00     0.163 HD
BRANCH   3   6
ATOM      6  C   UNL A   1      32.820  25.792  23.236  1.00  0.00     0.077 C 
ATOM      7  C   UNL A   1      32.342  24.877  22.078  1.00  0.00     0.026 C 
ATOM      8  C   UNL A   1      33.840  24.935  23.949  1.00  0.00    -0.029 A 
ATOM      9  C   UNL A   1      33.180  23.585  22.077  1.00  0.00     0.037 C 
ATOM     10  C   UNL A   1      34.024  23.708  23.304  1.00  0.00    -0.044 A 
ATOM     11  C   UNL A   1      34.575  25.255  25.085  1.00  0.00     0.005 A 
ATOM     12  C   UNL A   1      34.945  22.785  23.774  1.00  0.00     0.004 A 
ATOM     13  C   UNL A   1      35.498  24.327  25.569  1.00  0.00     0.000 A 
ATOM     14  C   UNL A   1      35.683  23.101  24.916  1.00  0.00     0.000 A 
BRANCH   6  15
ATOM     15  C   UNL A   1      31.646  26.194  24.188  1.00  0.00     0.056 C 
BRANCH  15  16
ATOM     16  C   UNL A   1      30.636  25.154  24.711  1.00  0.00     0.141 C 
BRANCH  16  17
ATOM     17  C   UNL A   1      30.270  25.259  26.198  1.00  0.00     0.191 C 
BRANCH  17  18
ATOM     18  O   UNL A   1      30.572  24.083  26.962  1.00  0.00    -0.379 OA
BRANCH  18  19
ATOM     19  C   UNL A   1      31.906  23.591  26.893  1.00  0.00     0.157 C 
ATOM     20  C   UNL A   1      32.040  22.263  26.170  1.00  0.00     0.035 C 
ENDBRANCH  18  19
ENDBRANCH  17  18
ENDBRANCH  16  17
BRANCH  16  21
ATOM     21  O   UNL A   1      29.447  25.344  23.918  1.00  0.00    -0.391 OA
ATOM     22  H   UNL A   1      29.212  26.285  23.912  1.00  0.00     0.211 HD
ENDBRANCH  16  21
ENDBRANCH  15  16
ENDBRANCH   6  15
ENDBRANCH   3   6
ENDBRANCH   1   2
BRANCH   1  23
ATOM     23  C   UNL A   1      32.482  29.696  24.978  1.00  0.00     0.042 C 
BRANCH  23  24
ATOM     24  C   UNL A   1      32.236  30.105  26.425  1.00  0.00     0.118 C 
BRANCH  24  25
ATOM     25  N   UNL A   1      32.108  31.550  26.565  1.00  0.00    -0.352 N 
ATOM     26  C   UNL A   1      32.848  32.434  27.312  1.00  0.00     0.251 C 
ATOM     27  H   UNL A   1      31.378  31.956  26.044  1.00  0.00     0.163 HD
ATOM     28  O   UNL A   1      32.411  33.562  27.517  1.00  0.00    -0.269 OA
BRANCH  26  29
ATOM     29  C   UNL A   1      34.153  32.024  27.874  1.00  0.00     0.039 A 
ATOM     30  C   UNL A   1      35.189  32.959  27.946  1.00  0.00     0.014 A 
ATOM     31  C   UNL A   1      34.363  30.712  28.307  1.00  0.00     0.014 A 
ATOM     32  C   UNL A   1      36.408  32.599  28.525  1.00  0.00     0.010 A 
ATOM     33  C   UNL A   1      35.548  30.377  28.952  1.00  0.00     0.010 A 
ATOM     34  C   UNL A   1      36.581  31.319  29.073  1.00  0.00    -0.014 A 
BRANCH  34  35
ATOM     35  C   UNL A   1      37.820  30.939  29.798  1.00  0.00     0.031 A 
ATOM     36  C   UNL A   1      38.772  29.948  29.188  1.00  0.00     0.074 A 
ATOM     37  C   UNL A   1      38.032  31.413  31.041  1.00  0.00     0.049 A 
ATOM     38  N   UNL A   1      39.824  29.377  29.715  1.00  0.00    -0.248 NA
ATOM     39  C   UNL A   1      38.482  29.520  27.810  1.00  0.00     0.031 C 
ATOM     40  C   UNL A   1      37.161  32.358  31.744  1.00  0.00     0.029 A 
ATOM     41  N   UNL A   1      39.032  31.152  31.944  1.00  0.00    -0.354 N 
ATOM     42  C   UNL A   1      40.314  28.513  28.742  1.00  0.00     0.074 A 
ATOM     43  C   UNL A   1      39.410  28.596  27.614  1.00  0.00     0.031 C 
ATOM     44  C   UNL A   1      37.670  32.605  32.961  1.00  0.00     0.029 A 
ATOM     45  C   UNL A   1      38.868  31.794  33.150  1.00  0.00     0.049 A 
ATOM     46  H   UNL A   1      39.794  30.560  31.748  1.00  0.00     0.167 HD
ATOM     47  C   UNL A   1      41.426  27.738  28.783  1.00  0.00     0.034 A 
ATOM     48  C   UNL A   1      39.583  31.714  34.290  1.00  0.00     0.034 A 
ATOM     49  C   UNL A   1      42.318  27.679  29.916  1.00  0.00     0.049 A 
ATOM     50  C   UNL A   1      40.780  30.799  34.331  1.00  0.00     0.074 A 
ATOM     51  C   UNL A   1      43.509  26.985  30.040  1.00  0.00     0.029 A 
ATOM     52  N   UNL A   1      42.109  28.327  31.126  1.00  0.00    -0.354 N 
ATOM     53  N   UNL A   1      41.262  30.028  33.383  1.00  0.00    -0.248 NA
ATOM     54  C   UNL A   1      41.526  30.739  35.595  1.00  0.00     0.031 C 
ATOM     55  C   UNL A   1      43.979  27.152  31.347  1.00  0.00     0.029 A 
ATOM     56  C   UNL A   1      43.122  28.010  32.018  1.00  0.00     0.049 A 
ATOM     57  H   UNL A   1      41.351  28.924  31.323  1.00  0.00     0.167 HD
ATOM     58  C   UNL A   1      42.379  29.405  33.934  1.00  0.00     0.074 A 
ATOM     59  C   UNL A   1      42.510  29.906  35.287  1.00  0.00     0.031 C 
ATOM     60  C   UNL A   1      43.221  28.501  33.373  1.00  0.00     0.034 A 
BRANCH  47  61
ATOM     61  C   UNL A   1      41.719  26.875  27.579  1.00  0.00     0.023 A 
ATOM     62  C   UNL A   1      41.397  25.508  27.554  1.00  0.00     0.031 A 
ATOM     63  C   UNL A   1      42.347  27.423  26.446  1.00  0.00     0.131 A 
ATOM     64  C   UNL A   1      41.770  24.719  26.455  1.00  0.00     0.055 A 
ATOM     65  C   UNL A   1      42.642  26.650  25.321  1.00  0.00     0.041 A 
ATOM     66  F   UNL A   1      42.697  28.718  26.416  1.00  0.00    -0.206 F 
ATOM     67  C   UNL A   1      42.368  25.285  25.328  1.00  0.00     0.022 A 
BRANCH  64  68
ATOM     68  S   UNL A   1      41.590  22.918  26.582  1.00  0.00     0.124 S 
ATOM     69  O   UNL A   1      42.424  22.619  27.744  1.00  0.00    -0.237 OA
ATOM     70  O   UNL A   1      40.152  22.758  26.770  1.00  0.00    -0.237 OA
ATOM     71  O   UNL A   1      42.112  22.431  25.307  1.00  0.00    -0.744 OA
ENDBRANCH  64  68
ENDBRANCH  47  61
BRANCH  48  72
ATOM     72  C   UNL A   1      39.173  32.489  35.495  1.00  0.00     0.023 A 
ATOM     73  C   UNL A   1      39.635  33.799  35.703  1.00  0.00     0.031 A 
ATOM     74  C   UNL A   1      38.345  31.919  36.480  1.00  0.00     0.131 A 
ATOM     75  C   UNL A   1      39.300  34.480  36.884  1.00  0.00     0.055 A 
ATOM     76  C   UNL A   1      37.971  32.621  37.627  1.00  0.00     0.041 A 
ATOM     77  F   UNL A   1      37.874  30.670  36.331  1.00  0.00    -0.206 F 
ATOM     78  C   UNL A   1      38.461  33.905  37.840  1.00  0.00     0.022 A 
BRANCH  75  79
ATOM     79  S   UNL A   1      40.051  36.102  37.191  1.00  0.00     0.124 S 
ATOM     80  O   UNL A   1      41.403  35.731  37.594  1.00  0.00    -0.237 OA
ATOM     81  O   UNL A   1      39.924  36.746  35.888  1.00  0.00    -0.237 OA
ATOM     82  O   UNL A   1      39.216  36.667  38.248  1.00  0.00    -0.744 OA
ENDBRANCH  75  79
ENDBRANCH  48  72
BRANCH  60  83
ATOM     83  C   UNL A   1      44.365  28.012  34.225  1.00  0.00     0.023 A 
ATOM     84  C   UNL A   1      44.245  26.863  35.024  1.00  0.00     0.031 A 
ATOM     85  C   UNL A   1      45.589  28.704  34.236  1.00  0.00     0.131 A 
ATOM     86  C   UNL A   1      45.316  26.462  35.835  1.00  0.00     0.055 A 
ATOM     87  C   UNL A   1      46.672  28.267  35.000  1.00  0.00     0.041 A 
ATOM     88  F   UNL A   1      45.757  29.810  33.493  1.00  0.00    -0.206 F 
ATOM     89  C   UNL A   1      46.536  27.145  35.814  1.00  0.00     0.022 A 
BRANCH  86  90
ATOM     90  S   UNL A   1      45.074  25.071  36.974  1.00  0.00     0.124 S 
ATOM     91  O   UNL A   1      46.090  25.333  37.989  1.00  0.00    -0.237 OA
ATOM     92  O   UNL A   1      43.689  25.250  37.398  1.00  0.00    -0.237 OA
ATOM     93  O   UNL A   1      45.319  23.896  36.139  1.00  0.00    -0.744 OA
ENDBRANCH  86  90
ENDBRANCH  60  83
ENDBRANCH  34  35
ENDBRANCH  26  29
ENDBRANCH  24  25
ENDBRANCH  23  24
ENDBRANCH   1  23
TORSDOF 19
ENDMDL
MODEL 2
REMARK VINA RESULT:     -11.2      1.753      2.529
REMARK SMILES CCOC[C@@H](O)C[C@]1(C(=O)NCCCNC(=O)c2ccc(-c3c4nc(c(-c5cc(S(=O)(=O)[O-])ccc5F)c5ccc([nH]5)c(-c5cc(S(=O)(=O)[O-])ccc5F)c5nc(c(-c6cc(S(=O)(=O)[O-])ccc6F)c6ccc3[nH]6)C=C5)C=C4)cc2)CCc2ccccc21
REMARK SMILES IDX 12 1 11 2 9 3 10 4 8 6 81 7 88 8 82 9 83 10 87 11 84 12
REMARK SMILES IDX 86 13 85 14 7 15 5 16 4 17 3 18 2 19 1 20 6 21 13 23 14 24
REMARK SMILES IDX 15 25 16 26 17 28 18 29 19 30 80 31 20 32 79 33 21 34 22 35
REMARK SMILES IDX 23 36 73 37 24 38 78 39 72 40 74 41 25 42 77 43 71 44 70 45
REMARK SMILES IDX 26 47 58 48 38 49 57 50 39 51 42 52 56 53 75 54 40 55 41 56
REMARK SMILES IDX 55 58 76 59 43 60 27 61 28 62 36 63 29 64 35 65 37 66 34 67
REMARK SMILES IDX 30 68 31 69 32 70 33 71 59 72 60 73 68 74 61 75 67 76 69 77
REMARK SMILES IDX 66 78 62 79 63 80 64 81 65 82 44 83 45 84 53 85 46 86 52 87
REMARK SMILES IDX 54 88 51 89 47 90 48 91 49 92 50 93
REMARK H PARENT 11 5 6 22 15 27 74 46 42 57
REMARK Flexibility Score: inf
ROOT
ATOM      1  C   UNL A   1      31.212  27.325  26.640  1.00  0.00     0.117 C 
ENDROOT
BRANCH   1   2
ATOM      2  N   UNL A   1      30.765  27.557  25.279  1.00  0.00    -0.355 N 
ATOM      3  C   UNL A   1      31.033  26.941  24.096  1.00  0.00     0.230 C 
ATOM      4  O   UNL A   1      30.367  27.361  23.138  1.00  0.00    -0.274 OA
ATOM      5  H   UNL A   1      30.142  28.315  25.195  1.00  0.00     0.163 HD
BRANCH   3   6
ATOM      6  C   UNL A   1      32.096  25.812  23.905  1.00  0.00     0.077 C 
ATOM      7  C   UNL A   1      33.532  26.334  24.177  1.00  0.00     0.026 C 
ATOM      8  C   UNL A   1      31.932  24.715  24.930  1.00  0.00    -0.029 A 
ATOM      9  C   UNL A   1      34.101  25.622  25.417  1.00  0.00     0.037 C 
ATOM     10  C   UNL A   1      33.055  24.610  25.757  1.00  0.00    -0.044 A 
ATOM     11  C   UNL A   1      30.831  23.888  25.124  1.00  0.00     0.005 A 
ATOM     12  C   UNL A   1      33.097  23.688  26.791  1.00  0.00     0.004 A 
ATOM     13  C   UNL A   1      30.869  22.952  26.158  1.00  0.00     0.000 A 
ATOM     14  C   UNL A   1      31.995  22.855  26.988  1.00  0.00     0.000 A 
BRANCH   6  15
ATOM     15  C   UNL A   1      31.938  25.262  22.449  1.00  0.00     0.056 C 
BRANCH  15  16
ATOM     16  C   UNL A   1      33.107  24.583  21.710  1.00  0.00     0.141 C 
BRANCH  16  17
ATOM     17  C   UNL A   1      33.237  23.065  21.905  1.00  0.00     0.191 C 
BRANCH  17  18
ATOM     18  O   UNL A   1      33.920  22.685  23.108  1.00  0.00    -0.379 OA
BRANCH  18  19
ATOM     19  C   UNL A   1      35.299  23.026  23.204  1.00  0.00     0.157 C 
ATOM     20  C   UNL A   1      36.075  22.189  24.206  1.00  0.00     0.035 C 
ENDBRANCH  18  19
ENDBRANCH  17  18
ENDBRANCH  16  17
BRANCH  16  21
ATOM     21  O   UNL A   1      32.888  24.861  20.312  1.00  0.00    -0.391 OA
ATOM     22  H   UNL A   1      33.741  25.004  19.874  1.00  0.00     0.211 HD
ENDBRANCH  16  21
ENDBRANCH  15  16
ENDBRANCH   6  15
ENDBRANCH   3   6
ENDBRANCH   1   2
BRANCH   1  23
ATOM     23  C   UNL A   1      31.818  28.568  27.277  1.00  0.00     0.042 C 
BRANCH  23  24
ATOM     24  C   UNL A   1      32.732  29.340  26.332  1.00  0.00     0.118 C 
BRANCH  24  25
ATOM     25  N   UNL A   1      32.559  30.781  26.468  1.00  0.00    -0.352 N 
ATOM     26  C   UNL A   1      33.256  31.686  27.232  1.00  0.00     0.251 C 
ATOM     27  H   UNL A   1      31.831  31.166  25.928  1.00  0.00     0.163 HD
ATOM     28  O   UNL A   1      32.782  32.801  27.425  1.00  0.00    -0.269 OA
BRANCH  26  29
ATOM     29  C   UNL A   1      34.557  31.313  27.827  1.00  0.00     0.039 A 
ATOM     30  C   UNL A   1      35.550  32.287  27.960  1.00  0.00     0.014 A 
ATOM     31  C   UNL A   1      34.807  29.998  28.231  1.00  0.00     0.014 A 
ATOM     32  C   UNL A   1      36.763  31.960  28.570  1.00  0.00     0.010 A 
ATOM     33  C   UNL A   1      35.983  29.694  28.906  1.00  0.00     0.010 A 
ATOM     34  C   UNL A   1      36.971  30.673  29.089  1.00  0.00    -0.014 A 
BRANCH  34  35
ATOM     35  C   UNL A   1      38.201  30.323  29.845  1.00  0.00     0.031 A 
ATOM     36  C   UNL A   1      39.163  29.312  29.285  1.00  0.00     0.074 A 
ATOM     37  C   UNL A   1      38.393  30.843  31.073  1.00  0.00     0.049 A 
ATOM     38  N   UNL A   1      40.208  28.764  29.848  1.00  0.00    -0.248 NA
ATOM     39  C   UNL A   1      38.894  28.834  27.920  1.00  0.00     0.031 C 
ATOM     40  C   UNL A   1      37.510  31.810  31.728  1.00  0.00     0.029 A 
ATOM     41  N   UNL A   1      39.380  30.617  31.999  1.00  0.00    -0.354 N 
ATOM     42  C   UNL A   1      40.715  27.866  28.915  1.00  0.00     0.074 A 
ATOM     43  C   UNL A   1      39.827  27.906  27.772  1.00  0.00     0.031 C 
ATOM     44  C   UNL A   1      38.001  32.103  32.943  1.00  0.00     0.029 A 
ATOM     45  C   UNL A   1      39.197  31.302  33.179  1.00  0.00     0.049 A 
ATOM     46  H   UNL A   1      40.146  30.020  31.836  1.00  0.00     0.167 HD
ATOM     47  C   UNL A   1      41.828  27.097  29.000  1.00  0.00     0.034 A 
ATOM     48  C   UNL A   1      39.896  31.266  34.330  1.00  0.00     0.034 A 
ATOM     49  C   UNL A   1      42.703  27.081  30.147  1.00  0.00     0.049 A 
ATOM     50  C   UNL A   1      41.094  30.356  34.423  1.00  0.00     0.074 A 
ATOM     51  C   UNL A   1      43.894  26.395  30.314  1.00  0.00     0.029 A 
ATOM     52  N   UNL A   1      42.475  27.772  31.330  1.00  0.00    -0.354 N 
ATOM     53  N   UNL A   1      41.592  29.552  33.511  1.00  0.00    -0.248 NA
ATOM     54  C   UNL A   1      41.822  30.345  35.698  1.00  0.00     0.031 C 
ATOM     55  C   UNL A   1      44.344  26.611  31.620  1.00  0.00     0.029 A 
ATOM     56  C   UNL A   1      43.476  27.491  32.247  1.00  0.00     0.049 A 
ATOM     57  H   UNL A   1      41.713  28.374  31.494  1.00  0.00     0.167 HD
ATOM     58  C   UNL A   1      42.702  28.953  34.100  1.00  0.00     0.074 A 
ATOM     59  C   UNL A   1      42.812  29.504  35.435  1.00  0.00     0.031 C 
ATOM     60  C   UNL A   1      43.554  28.031  33.585  1.00  0.00     0.034 A 
BRANCH  47  61
ATOM     61  C   UNL A   1      42.140  26.191  27.832  1.00  0.00     0.023 A 
ATOM     62  C   UNL A   1      41.686  24.862  27.787  1.00  0.00     0.031 A 
ATOM     63  C   UNL A   1      42.919  26.656  26.758  1.00  0.00     0.131 A 
ATOM     64  C   UNL A   1      42.075  24.024  26.731  1.00  0.00     0.055 A 
ATOM     65  C   UNL A   1      43.235  25.841  25.669  1.00  0.00     0.041 A 
ATOM     66  F   UNL A   1      43.399  27.910  26.754  1.00  0.00    -0.206 F 
ATOM     67  C   UNL A   1      42.826  24.511  25.659  1.00  0.00     0.022 A 
BRANCH  64  68
ATOM     68  S   UNL A   1      41.704  22.252  26.851  1.00  0.00     0.124 S 
ATOM     69  O   UNL A   1      40.268  22.269  27.118  1.00  0.00    -0.237 OA
ATOM     70  O   UNL A   1      42.105  21.756  25.540  1.00  0.00    -0.237 OA
ATOM     71  O   UNL A   1      42.533  21.804  27.969  1.00  0.00    -0.744 OA
ENDBRANCH  64  68
ENDBRANCH  47  61
BRANCH  48  72
ATOM     72  C   UNL A   1      39.467  32.084  35.501  1.00  0.00     0.023 A 
ATOM     73  C   UNL A   1      38.710  31.517  36.538  1.00  0.00     0.031 A 
ATOM     74  C   UNL A   1      39.771  33.455  35.581  1.00  0.00     0.131 A 
ATOM     75  C   UNL A   1      38.248  32.325  37.589  1.00  0.00     0.055 A 
ATOM     76  C   UNL A   1      39.356  34.242  36.656  1.00  0.00     0.041 A 
ATOM     77  F   UNL A   1      40.494  34.048  34.616  1.00  0.00    -0.206 F 
ATOM     78  C   UNL A   1      38.577  33.679  37.663  1.00  0.00     0.022 A 
BRANCH  75  79
ATOM     79  S   UNL A   1      37.135  31.593  38.820  1.00  0.00     0.124 S 
ATOM     80  O   UNL A   1      36.935  30.253  38.279  1.00  0.00    -0.237 OA
ATOM     81  O   UNL A   1      37.933  31.679  40.039  1.00  0.00    -0.237 OA
ATOM     82  O   UNL A   1      35.964  32.465  38.781  1.00  0.00    -0.744 OA
ENDBRANCH  75  79
ENDBRANCH  48  72
BRANCH  60  83
ATOM     83  C   UNL A   1      44.686  27.577  34.471  1.00  0.00     0.023 A 
ATOM     84  C   UNL A   1      44.581  26.419  35.258  1.00  0.00     0.031 A 
ATOM     85  C   UNL A   1      45.884  28.311  34.524  1.00  0.00     0.131 A 
ATOM     86  C   UNL A   1      45.639  26.050  36.102  1.00  0.00     0.055 A 
ATOM     87  C   UNL A   1      46.957  27.907  35.321  1.00  0.00     0.041 A 
ATOM     88  F   UNL A   1      46.036  29.427  33.794  1.00  0.00    -0.206 F 
ATOM     89  C   UNL A   1      46.833  26.775  36.124  1.00  0.00     0.022 A 
BRANCH  86  90
ATOM     90  S   UNL A   1      45.409  24.644  37.225  1.00  0.00     0.124 S 
ATOM     91  O   UNL A   1      46.787  24.290  37.549  1.00  0.00    -0.237 OA
ATOM     92  O   UNL A   1      44.630  25.233  38.309  1.00  0.00    -0.237 OA
ATOM     93  O   UNL A   1      44.693  23.665  36.408  1.00  0.00    -0.744 OA
ENDBRANCH  86  90
ENDBRANCH  60  83
ENDBRANCH  34  35
ENDBRANCH  26  29
ENDBRANCH  24  25
ENDBRANCH  23  24
ENDBRANCH   1  23
TORSDOF 19
ENDMDL
MODEL 3
REMARK VINA RESULT:     -11.0      5.048      9.961
REMARK SMILES CCOC[C@@H](O)C[C@]1(C(=O)NCCCNC(=O)c2ccc(-c3c4nc(c(-c5cc(S(=O)(=O)[O-])ccc5F)c5ccc([nH]5)c(-c5cc(S(=O)(=O)[O-])ccc5F)c5nc(c(-c6cc(S(=O)(=O)[O-])ccc6F)c6ccc3[nH]6)C=C5)C=C4)cc2)CCc2ccccc21
REMARK SMILES IDX 12 1 11 2 9 3 10 4 8 6 81 7 88 8 82 9 83 10 87 11 84 12
REMARK SMILES IDX 86 13 85 14 7 15 5 16 4 17 3 18 2 19 1 20 6 21 13 23 14 24
REMARK SMILES IDX 15 25 16 26 17 28 18 29 19 30 80 31 20 32 79 33 21 34 22 35
REMARK SMILES IDX 23 36 73 37 24 38 78 39 72 40 74 41 25 42 77 43 71 44 70 45
REMARK SMILES IDX 26 47 58 48 38 49 57 50 39 51 42 52 56 53 75 54 40 55 41 56
REMARK SMILES IDX 55 58 76 59 43 60 27 61 28 62 36 63 29 64 35 65 37 66 34 67
REMARK SMILES IDX 30 68 31 69 32 70 33 71 59 72 60 73 68 74 61 75 67 76 69 77
REMARK SMILES IDX 66 78 62 79 63 80 64 81 65 82 44 83 45 84 53 85 46 86 52 87
REMARK SMILES IDX 54 88 51 89 47 90 48 91 49 92 50 93
REMARK H PARENT 11 5 6 22 15 27 74 46 42 57
REMARK Flexibility Score: inf
ROOT
ATOM      1  C   UNL A   1      35.046  24.085  24.464  1.00  0.00     0.117 C 
ENDROOT
BRANCH   1   2
ATOM      2  N   UNL A   1      33.928  24.182  23.544  1.00  0.00    -0.355 N 
ATOM      3  C   UNL A   1      32.822  24.973  23.506  1.00  0.00     0.230 C 
ATOM      4  O   UNL A   1      32.132  24.840  22.485  1.00  0.00    -0.274 OA
ATOM      5  H   UNL A   1      33.981  23.545  22.795  1.00  0.00     0.163 HD
BRANCH   3   6
ATOM      6  C   UNL A   1      32.404  25.966  24.637  1.00  0.00     0.077 C 
ATOM      7  C   UNL A   1      33.569  26.918  25.015  1.00  0.00     0.026 C 
ATOM      8  C   UNL A   1      31.324  26.915  24.173  1.00  0.00    -0.029 A 
ATOM      9  C   UNL A   1      33.183  28.361  24.642  1.00  0.00     0.037 C 
ATOM     10  C   UNL A   1      31.763  28.243  24.191  1.00  0.00    -0.044 A 
ATOM     11  C   UNL A   1      30.043  26.599  23.735  1.00  0.00     0.005 A 
ATOM     12  C   UNL A   1      30.939  29.273  23.767  1.00  0.00     0.004 A 
ATOM     13  C   UNL A   1      29.205  27.632  23.314  1.00  0.00     0.000 A 
ATOM     14  C   UNL A   1      29.651  28.961  23.328  1.00  0.00     0.000 A 
BRANCH   6  15
ATOM     15  C   UNL A   1      31.927  25.111  25.858  1.00  0.00     0.056 C 
BRANCH  15  16
ATOM     16  C   UNL A   1      30.929  23.949  25.691  1.00  0.00     0.141 C 
BRANCH  16  17
ATOM     17  C   UNL A   1      31.458  22.551  26.041  1.00  0.00     0.191 C 
BRANCH  17  18
ATOM     18  O   UNL A   1      32.136  21.893  24.962  1.00  0.00    -0.379 OA
BRANCH  18  19
ATOM     19  C   UNL A   1      32.244  20.475  25.034  1.00  0.00     0.157 C 
ATOM     20  C   UNL A   1      33.561  19.927  24.515  1.00  0.00     0.035 C 
ENDBRANCH  18  19
ENDBRANCH  17  18
ENDBRANCH  16  17
BRANCH  16  21
ATOM     21  O   UNL A   1      29.825  24.267  26.563  1.00  0.00    -0.391 OA
ATOM     22  H   UNL A   1      28.991  24.054  26.117  1.00  0.00     0.211 HD
ENDBRANCH  16  21
ENDBRANCH  15  16
ENDBRANCH   6  15
ENDBRANCH   3   6
ENDBRANCH   1   2
BRANCH   1  23
ATOM     23  C   UNL A   1      35.689  22.704  24.460  1.00  0.00     0.042 C 
BRANCH  23  24
ATOM     24  C   UNL A   1      36.131  22.246  25.844  1.00  0.00     0.118 C 
BRANCH  24  25
ATOM     25  N   UNL A   1      37.113  21.170  25.772  1.00  0.00    -0.352 N 
ATOM     26  C   UNL A   1      38.482  21.215  25.871  1.00  0.00     0.251 C 
ATOM     27  H   UNL A   1      36.735  20.271  25.630  1.00  0.00     0.163 HD
ATOM     28  O   UNL A   1      39.144  20.249  25.505  1.00  0.00    -0.269 OA
BRANCH  26  29
ATOM     29  C   UNL A   1      39.151  22.423  26.402  1.00  0.00     0.039 A 
ATOM     30  C   UNL A   1      40.216  22.275  27.294  1.00  0.00     0.014 A 
ATOM     31  C   UNL A   1      38.712  23.699  26.039  1.00  0.00     0.014 A 
ATOM     32  C   UNL A   1      40.891  23.406  27.759  1.00  0.00     0.010 A 
ATOM     33  C   UNL A   1      39.432  24.818  26.442  1.00  0.00     0.010 A 
ATOM     34  C   UNL A   1      40.533  24.683  27.301  1.00  0.00    -0.014 A 
BRANCH  34  35
ATOM     35  C   UNL A   1      41.300  25.896  27.684  1.00  0.00     0.031 A 
ATOM     36  C   UNL A   1      40.635  26.985  28.478  1.00  0.00     0.074 A 
ATOM     37  C   UNL A   1      42.559  26.052  27.231  1.00  0.00     0.049 A 
ATOM     38  N   UNL A   1      41.080  28.176  28.785  1.00  0.00    -0.248 NA
ATOM     39  C   UNL A   1      39.276  26.706  28.967  1.00  0.00     0.031 C 
ATOM     40  C   UNL A   1      43.295  25.074  26.427  1.00  0.00     0.029 A 
ATOM     41  N   UNL A   1      43.438  27.099  27.361  1.00  0.00    -0.354 N 
ATOM     42  C   UNL A   1      40.052  28.794  29.489  1.00  0.00     0.074 A 
ATOM     43  C   UNL A   1      38.943  27.864  29.514  1.00  0.00     0.031 C 
ATOM     44  C   UNL A   1      44.515  25.561  26.147  1.00  0.00     0.029 A 
ATOM     45  C   UNL A   1      44.628  26.908  26.698  1.00  0.00     0.049 A 
ATOM     46  H   UNL A   1      43.234  27.912  27.879  1.00  0.00     0.167 HD
ATOM     47  C   UNL A   1      40.046  30.017  30.075  1.00  0.00     0.034 A 
ATOM     48  C   UNL A   1      45.678  27.734  26.525  1.00  0.00     0.034 A 
ATOM     49  C   UNL A   1      41.168  30.923  30.044  1.00  0.00     0.049 A 
ATOM     50  C   UNL A   1      45.623  29.112  27.134  1.00  0.00     0.074 A 
ATOM     51  C   UNL A   1      41.298  32.156  30.662  1.00  0.00     0.029 A 
ATOM     52  N   UNL A   1      42.348  30.704  29.346  1.00  0.00    -0.354 N 
ATOM     53  N   UNL A   1      44.664  29.663  27.844  1.00  0.00    -0.248 NA
ATOM     54  C   UNL A   1      46.787  29.980  26.916  1.00  0.00     0.031 C 
ATOM     55  C   UNL A   1      42.523  32.711  30.276  1.00  0.00     0.029 A 
ATOM     56  C   UNL A   1      43.191  31.797  29.478  1.00  0.00     0.049 A 
ATOM     57  H   UNL A   1      42.556  29.891  28.832  1.00  0.00     0.167 HD
ATOM     58  C   UNL A   1      45.120  30.937  28.170  1.00  0.00     0.074 A 
ATOM     59  C   UNL A   1      46.445  31.064  27.598  1.00  0.00     0.031 C 
ATOM     60  C   UNL A   1      44.500  31.915  28.878  1.00  0.00     0.034 A 
BRANCH  47  61
ATOM     61  C   UNL A   1      38.777  30.451  30.770  1.00  0.00     0.023 A 
ATOM     62  C   UNL A   1      37.729  31.073  30.073  1.00  0.00     0.031 A 
ATOM     63  C   UNL A   1      38.622  30.256  32.155  1.00  0.00     0.131 A 
ATOM     64  C   UNL A   1      36.607  31.546  30.770  1.00  0.00     0.055 A 
ATOM     65  C   UNL A   1      37.467  30.656  32.830  1.00  0.00     0.041 A 
ATOM     66  F   UNL A   1      39.597  29.685  32.879  1.00  0.00    -0.206 F 
ATOM     67  C   UNL A   1      36.457  31.320  32.140  1.00  0.00     0.022 A 
BRANCH  64  68
ATOM     68  S   UNL A   1      35.413  32.587  29.884  1.00  0.00     0.124 S 
ATOM     69  O   UNL A   1      34.370  32.763  30.892  1.00  0.00    -0.237 OA
ATOM     70  O   UNL A   1      36.202  33.771  29.566  1.00  0.00    -0.237 OA
ATOM     71  O   UNL A   1      35.028  31.766  28.738  1.00  0.00    -0.744 OA
ENDBRANCH  64  68
ENDBRANCH  47  61
BRANCH  48  72
ATOM     72  C   UNL A   1      46.854  27.304  25.716  1.00  0.00     0.023 A 
ATOM     73  C   UNL A   1      47.036  27.770  24.405  1.00  0.00     0.031 A 
ATOM     74  C   UNL A   1      47.792  26.387  26.227  1.00  0.00     0.131 A 
ATOM     75  C   UNL A   1      48.106  27.288  23.634  1.00  0.00     0.055 A 
ATOM     76  C   UNL A   1      48.885  25.953  25.475  1.00  0.00     0.041 A 
ATOM     77  F   UNL A   1      47.666  25.911  27.476  1.00  0.00    -0.206 F 
ATOM     78  C   UNL A   1      49.039  26.394  24.164  1.00  0.00     0.022 A 
BRANCH  75  79
ATOM     79  S   UNL A   1      48.212  27.784  21.893  1.00  0.00     0.124 S 
ATOM     80  O   UNL A   1      48.513  26.515  21.240  1.00  0.00    -0.237 OA
ATOM     81  O   UNL A   1      46.881  28.331  21.652  1.00  0.00    -0.237 OA
ATOM     82  O   UNL A   1      49.297  28.764  21.885  1.00  0.00    -0.744 OA
ENDBRANCH  75  79
ENDBRANCH  48  72
BRANCH  60  83
ATOM     83  C   UNL A   1      45.263  33.199  29.082  1.00  0.00     0.023 A 
ATOM     84  C   UNL A   1      45.193  34.249  28.151  1.00  0.00     0.031 A 
ATOM     85  C   UNL A   1      46.068  33.375  30.222  1.00  0.00     0.131 A 
ATOM     86  C   UNL A   1      45.949  35.413  28.353  1.00  0.00     0.055 A 
ATOM     87  C   UNL A   1      46.772  34.558  30.448  1.00  0.00     0.041 A 
ATOM     88  F   UNL A   1      46.172  32.402  31.141  1.00  0.00    -0.206 F 
ATOM     89  C   UNL A   1      46.723  35.582  29.505  1.00  0.00     0.022 A 
BRANCH  86  90
ATOM     90  S   UNL A   1      45.963  36.680  27.056  1.00  0.00     0.124 S 
ATOM     91  O   UNL A   1      46.965  37.614  27.558  1.00  0.00    -0.237 OA
ATOM     92  O   UNL A   1      46.341  35.913  25.873  1.00  0.00    -0.237 OA
ATOM     93  O   UNL A   1      44.590  37.184  27.053  1.00  0.00    -0.744 OA
ENDBRANCH  86  90
ENDBRANCH  60  83
ENDBRANCH  34  35
ENDBRANCH  26  29
ENDBRANCH  24  25
ENDBRANCH  23  24
ENDBRANCH   1  23
TORSDOF 19
ENDMDL
