MODEL 1
REMARK VINA RESULT:     -13.8      0.000      0.000
REMARK SMILES Cc1c(C(=O)Nc2ccc(C(=O)Nc3ccccc3C(=O)NCCCNC(=O)c3ccc(-c4c5nc(c(-c6cc(S(=O)(=O)[O-])ccc6F)c6ccc([nH]6)c(-c6cc(S(=O)(=O)[O-])ccc6F)c6nc(c(-c7cc(S(=O)(=O)[O-])ccc7F)c7ccc4[nH]7)C=C6)C=C5)cc3)cc2)cccc1[N+](=O)[O-]
REMARK SMILES IDX 23 1 22 2 20 3 21 4 19 6 14 7 15 8 16 9 18 10 17 11 13 12
REMARK SMILES IDX 11 13 12 14 10 16 7 17 8 18 93 19 9 20 92 21 6 22 4 23 5 24
REMARK SMILES IDX 3 26 1 27 2 28 97 29 94 30 96 31 95 32 98 33 99 34 100 35
REMARK SMILES IDX 24 36 25 37 26 38 27 39 28 41 29 42 30 43 91 44 31 45 90 46
REMARK SMILES IDX 32 47 33 48 34 49 84 50 35 51 89 52 83 53 85 54 36 55 88 56
REMARK SMILES IDX 82 57 81 58 37 60 69 61 49 62 68 63 50 64 53 65 67 66 86 67
REMARK SMILES IDX 51 68 52 69 66 71 87 72 54 73 38 74 39 75 47 76 40 77 46 78
REMARK SMILES IDX 48 79 45 80 41 81 42 82 43 83 44 84 70 85 71 86 79 87 72 88
REMARK SMILES IDX 78 89 80 90 77 91 73 92 74 93 75 94 76 95 55 96 56 97 64 98
REMARK SMILES IDX 57 99 63 100 65 101 62 102 58 103 59 104 60 105 61 106
REMARK H PARENT 22 5 13 15 6 25 26 40 85 59 53 70
REMARK Flexibility Score: inf
ROOT
ATOM      1  C   UNL A   1      32.050  30.127  26.358  1.00  0.00     0.118 C 
ENDROOT
BRANCH   1   2
ATOM      2  N   UNL A   1      32.664  29.804  25.070  1.00  0.00    -0.352 N 
ATOM      3  C   UNL A   1      32.159  29.618  23.797  1.00  0.00     0.253 C 
ATOM      4  O   UNL A   1      32.922  29.355  22.869  1.00  0.00    -0.269 OA
ATOM      5  H   UNL A   1      33.642  29.698  25.120  1.00  0.00     0.163 HD
BRANCH   3   6
ATOM      6  C   UNL A   1      30.699  29.730  23.497  1.00  0.00     0.063 A 
ATOM      7  C   UNL A   1      29.998  28.815  22.675  1.00  0.00     0.054 A 
ATOM      8  C   UNL A   1      28.628  29.029  22.419  1.00  0.00     0.027 A 
ATOM      9  C   UNL A   1      27.941  30.098  22.989  1.00  0.00     0.002 A 
ATOM     10  C   UNL A   1      30.013  30.879  23.931  1.00  0.00     0.016 A 
ATOM     11  C   UNL A   1      28.640  31.036  23.732  1.00  0.00     0.001 A 
BRANCH   7  12
ATOM     12  N   UNL A   1      30.509  27.666  22.040  1.00  0.00    -0.321 N 
ATOM     13  C   UNL A   1      31.262  26.598  22.468  1.00  0.00     0.255 C 
ATOM     14  O   UNL A   1      31.736  25.849  21.608  1.00  0.00    -0.269 OA
ATOM     15  H   UNL A   1      30.278  27.618  21.085  1.00  0.00     0.170 HD
BRANCH  13  16
ATOM     16  C   UNL A   1      31.297  26.158  23.892  1.00  0.00     0.040 A 
ATOM     17  C   UNL A   1      31.651  24.858  26.366  1.00  0.00     0.041 A 
ATOM     18  C   UNL A   1      30.415  24.860  25.735  1.00  0.00     0.027 A 
ATOM     19  C   UNL A   1      32.667  25.665  25.848  1.00  0.00     0.027 A 
ATOM     20  C   UNL A   1      30.264  25.431  24.476  1.00  0.00     0.016 A 
ATOM     21  C   UNL A   1      32.489  26.311  24.615  1.00  0.00     0.016 A 
BRANCH  17  22
ATOM     22  N   UNL A   1      31.954  23.991  27.431  1.00  0.00    -0.322 N 
ATOM     23  C   UNL A   1      32.548  22.741  27.437  1.00  0.00     0.256 C 
ATOM     24  O   UNL A   1      32.632  22.103  28.487  1.00  0.00    -0.269 OA
ATOM     25  H   UNL A   1      31.700  24.330  28.320  1.00  0.00     0.170 HD
BRANCH  23  26
ATOM     26  C   UNL A   1      33.111  22.118  26.203  1.00  0.00     0.049 A 
ATOM     27  C   UNL A   1      35.405  23.197  26.457  1.00  0.00     0.053 C 
ATOM     28  C   UNL A   1      34.384  22.420  25.667  1.00  0.00     0.039 A 
ATOM     29  C   UNL A   1      34.641  21.978  24.350  1.00  0.00     0.273 A 
ATOM     30  C   UNL A   1      32.253  21.219  25.541  1.00  0.00     0.014 A 
ATOM     31  C   UNL A   1      33.768  21.104  23.677  1.00  0.00     0.086 A 
ATOM     32  C   UNL A   1      32.594  20.691  24.296  1.00  0.00     0.008 A 
BRANCH  29  33
ATOM     33  N   UNL A   1      35.780  22.488  23.579  1.00  0.00     0.063 N 
ATOM     34  O   UNL A   1      35.566  23.436  22.808  1.00  0.00    -0.258 OA
ATOM     35  O   UNL A   1      36.891  21.984  23.788  1.00  0.00    -0.258 OA
ENDBRANCH  29  33
ENDBRANCH  23  26
ENDBRANCH  17  22
ENDBRANCH  13  16
ENDBRANCH   7  12
ENDBRANCH   3   6
ENDBRANCH   1   2
BRANCH   1  36
ATOM     36  C   UNL A   1      32.910  30.979  27.279  1.00  0.00     0.042 C 
BRANCH  36  37
ATOM     37  C   UNL A   1      34.264  30.391  27.642  1.00  0.00     0.118 C 
BRANCH  37  38
ATOM     38  N   UNL A   1      35.009  31.271  28.548  1.00  0.00    -0.352 N 
ATOM     39  C   UNL A   1      36.194  31.054  29.232  1.00  0.00     0.251 C 
ATOM     40  H   UNL A   1      34.603  32.155  28.693  1.00  0.00     0.163 HD
ATOM     41  O   UNL A   1      36.669  31.877  29.991  1.00  0.00    -0.269 OA
BRANCH  39  42
ATOM     42  C   UNL A   1      36.966  29.841  28.888  1.00  0.00     0.039 A 
ATOM     43  C   UNL A   1      37.260  28.977  29.947  1.00  0.00     0.014 A 
ATOM     44  C   UNL A   1      37.622  29.741  27.666  1.00  0.00     0.014 A 
ATOM     45  C   UNL A   1      38.394  28.179  29.867  1.00  0.00     0.010 A 
ATOM     46  C   UNL A   1      38.796  29.012  27.619  1.00  0.00     0.010 A 
ATOM     47  C   UNL A   1      39.216  28.293  28.746  1.00  0.00    -0.014 A 
BRANCH  47  48
ATOM     48  C   UNL A   1      40.588  27.798  28.745  1.00  0.00     0.031 A 
ATOM     49  C   UNL A   1      40.877  26.416  28.329  1.00  0.00     0.074 A 
ATOM     50  C   UNL A   1      41.598  28.582  29.175  1.00  0.00     0.049 A 
ATOM     51  N   UNL A   1      41.832  25.697  28.813  1.00  0.00    -0.248 NA
ATOM     52  C   UNL A   1      40.061  25.716  27.347  1.00  0.00     0.031 C 
ATOM     53  C   UNL A   1      43.031  28.302  29.113  1.00  0.00     0.029 A 
ATOM     54  N   UNL A   1      41.495  29.685  30.020  1.00  0.00    -0.354 N 
ATOM     55  C   UNL A   1      41.945  24.578  28.026  1.00  0.00     0.074 A 
ATOM     56  C   UNL A   1      40.774  24.599  27.177  1.00  0.00     0.031 C 
ATOM     57  C   UNL A   1      43.649  29.005  30.074  1.00  0.00     0.029 A 
ATOM     58  C   UNL A   1      42.622  29.663  30.860  1.00  0.00     0.049 A 
ATOM     59  H   UNL A   1      40.771  30.352  30.027  1.00  0.00     0.167 HD
ATOM     60  C   UNL A   1      43.086  23.833  28.064  1.00  0.00     0.034 A 
ATOM     61  C   UNL A   1      42.491  29.596  32.216  1.00  0.00     0.034 A 
ATOM     62  C   UNL A   1      44.047  24.350  29.038  1.00  0.00     0.049 A 
ATOM     63  C   UNL A   1      43.174  28.390  32.828  1.00  0.00     0.074 A 
ATOM     64  C   UNL A   1      45.192  25.121  28.912  1.00  0.00     0.029 A 
ATOM     65  N   UNL A   1      43.741  24.329  30.395  1.00  0.00    -0.354 N 
ATOM     66  N   UNL A   1      43.556  27.337  32.156  1.00  0.00    -0.248 NA
ATOM     67  C   UNL A   1      43.458  28.273  34.252  1.00  0.00     0.031 C 
ATOM     68  C   UNL A   1      45.556  25.589  30.201  1.00  0.00     0.029 A 
ATOM     69  C   UNL A   1      44.648  25.085  31.116  1.00  0.00     0.049 A 
ATOM     70  H   UNL A   1      42.983  23.842  30.789  1.00  0.00     0.167 HD
ATOM     71  C   UNL A   1      44.103  26.411  33.015  1.00  0.00     0.074 A 
ATOM     72  C   UNL A   1      44.036  27.061  34.313  1.00  0.00     0.031 C 
ATOM     73  C   UNL A   1      44.548  25.192  32.569  1.00  0.00     0.034 A 
BRANCH  60  74
ATOM     74  C   UNL A   1      43.443  22.848  26.974  1.00  0.00     0.023 A 
ATOM     75  C   UNL A   1      42.880  21.555  26.988  1.00  0.00     0.031 A 
ATOM     76  C   UNL A   1      44.364  23.094  25.939  1.00  0.00     0.131 A 
ATOM     77  C   UNL A   1      43.325  20.552  26.106  1.00  0.00     0.055 A 
ATOM     78  C   UNL A   1      44.861  22.082  25.107  1.00  0.00     0.041 A 
ATOM     79  F   UNL A   1      44.790  24.337  25.666  1.00  0.00    -0.206 F 
ATOM     80  C   UNL A   1      44.354  20.795  25.201  1.00  0.00     0.022 A 
BRANCH  77  81
ATOM     81  S   UNL A   1      42.529  18.923  26.150  1.00  0.00     0.124 S 
ATOM     82  O   UNL A   1      43.350  18.149  25.226  1.00  0.00    -0.237 OA
ATOM     83  O   UNL A   1      42.634  18.569  27.561  1.00  0.00    -0.237 OA
ATOM     84  O   UNL A   1      41.170  19.197  25.684  1.00  0.00    -0.744 OA
ENDBRANCH  77  81
ENDBRANCH  60  74
BRANCH  61  85
ATOM     85  C   UNL A   1      41.246  30.248  32.723  1.00  0.00     0.023 A 
ATOM     86  C   UNL A   1      41.198  31.662  32.702  1.00  0.00     0.031 A 
ATOM     87  C   UNL A   1      40.035  29.557  32.846  1.00  0.00     0.131 A 
ATOM     88  C   UNL A   1      39.968  32.332  32.619  1.00  0.00     0.055 A 
ATOM     89  C   UNL A   1      38.809  30.236  32.846  1.00  0.00     0.041 A 
ATOM     90  F   UNL A   1      40.008  28.217  32.847  1.00  0.00    -0.206 F 
ATOM     91  C   UNL A   1      38.769  31.624  32.685  1.00  0.00     0.022 A 
BRANCH  88  92
ATOM     92  S   UNL A   1      39.975  34.091  32.149  1.00  0.00     0.124 S 
ATOM     93  O   UNL A   1      38.768  34.202  31.341  1.00  0.00    -0.237 OA
ATOM     94  O   UNL A   1      39.944  34.777  33.442  1.00  0.00    -0.237 OA
ATOM     95  O   UNL A   1      41.233  34.264  31.423  1.00  0.00    -0.744 OA
ENDBRANCH  88  92
ENDBRANCH  61  85
BRANCH  73  96
ATOM     96  C   UNL A   1      45.014  24.012  33.416  1.00  0.00     0.023 A 
ATOM     97  C   UNL A   1      46.329  23.833  33.870  1.00  0.00     0.031 A 
ATOM     98  C   UNL A   1      44.097  23.015  33.847  1.00  0.00     0.131 A 
ATOM     99  C   UNL A   1      46.703  22.710  34.639  1.00  0.00     0.055 A 
ATOM    100  C   UNL A   1      44.455  21.932  34.660  1.00  0.00     0.041 A 
ATOM    101  F   UNL A   1      42.799  23.049  33.512  1.00  0.00    -0.206 F 
ATOM    102  C   UNL A   1      45.770  21.767  35.053  1.00  0.00     0.022 A 
BRANCH  99 103
ATOM    103  S   UNL A   1      48.456  22.496  35.052  1.00  0.00     0.124 S 
ATOM    104  O   UNL A   1      48.402  22.286  36.496  1.00  0.00    -0.237 OA
ATOM    105  O   UNL A   1      48.822  21.328  34.257  1.00  0.00    -0.237 OA
ATOM    106  O   UNL A   1      49.068  23.752  34.628  1.00  0.00    -0.744 OA
ENDBRANCH  99 103
ENDBRANCH  73  96
ENDBRANCH  47  48
ENDBRANCH  39  42
ENDBRANCH  37  38
ENDBRANCH  36  37
ENDBRANCH   1  36
TORSDOF 18
ENDMDL
MODEL 2
REMARK VINA RESULT:     -12.6      2.449      2.879
REMARK SMILES Cc1c(C(=O)Nc2ccc(C(=O)Nc3ccccc3C(=O)NCCCNC(=O)c3ccc(-c4c5nc(c(-c6cc(S(=O)(=O)[O-])ccc6F)c6ccc([nH]6)c(-c6cc(S(=O)(=O)[O-])ccc6F)c6nc(c(-c7cc(S(=O)(=O)[O-])ccc7F)c7ccc4[nH]7)C=C6)C=C5)cc3)cc2)cccc1[N+](=O)[O-]
REMARK SMILES IDX 23 1 22 2 20 3 21 4 19 6 14 7 15 8 16 9 18 10 17 11 13 12
REMARK SMILES IDX 11 13 12 14 10 16 7 17 8 18 93 19 9 20 92 21 6 22 4 23 5 24
REMARK SMILES IDX 3 26 1 27 2 28 97 29 94 30 96 31 95 32 98 33 99 34 100 35
REMARK SMILES IDX 24 36 25 37 26 38 27 39 28 41 29 42 30 43 91 44 31 45 90 46
REMARK SMILES IDX 32 47 33 48 34 49 84 50 35 51 89 52 83 53 85 54 36 55 88 56
REMARK SMILES IDX 82 57 81 58 37 60 69 61 49 62 68 63 50 64 53 65 67 66 86 67
REMARK SMILES IDX 51 68 52 69 66 71 87 72 54 73 38 74 39 75 47 76 40 77 46 78
REMARK SMILES IDX 48 79 45 80 41 81 42 82 43 83 44 84 70 85 71 86 79 87 72 88
REMARK SMILES IDX 78 89 80 90 77 91 73 92 74 93 75 94 76 95 55 96 56 97 64 98
REMARK SMILES IDX 57 99 63 100 65 101 62 102 58 103 59 104 60 105 61 106
REMARK H PARENT 22 5 13 15 6 25 26 40 85 59 53 70
REMARK Flexibility Score: inf
ROOT
ATOM      1  C   UNL A   1      33.968  28.221  25.707  1.00  0.00     0.118 C 
ENDROOT
BRANCH   1   2
ATOM      2  N   UNL A   1      34.332  28.352  24.297  1.00  0.00    -0.352 N 
ATOM      3  C   UNL A   1      33.598  28.422  23.128  1.00  0.00     0.253 C 
ATOM      4  O   UNL A   1      34.175  28.542  22.050  1.00  0.00    -0.269 OA
ATOM      5  H   UNL A   1      35.305  28.402  24.149  1.00  0.00     0.163 HD
BRANCH   3   6
ATOM      6  C   UNL A   1      32.104  28.363  23.124  1.00  0.00     0.063 A 
ATOM      7  C   UNL A   1      31.356  27.568  22.223  1.00  0.00     0.054 A 
ATOM      8  C   UNL A   1      29.948  27.611  22.272  1.00  0.00     0.027 A 
ATOM      9  C   UNL A   1      29.277  28.387  23.214  1.00  0.00     0.002 A 
ATOM     10  C   UNL A   1      31.397  29.249  23.958  1.00  0.00     0.016 A 
ATOM     11  C   UNL A   1      30.004  29.222  24.047  1.00  0.00     0.001 A 
BRANCH   7  12
ATOM     12  N   UNL A   1      31.852  26.702  21.228  1.00  0.00    -0.321 N 
ATOM     13  C   UNL A   1      32.586  25.540  21.259  1.00  0.00     0.255 C 
ATOM     14  O   UNL A   1      33.051  25.127  20.192  1.00  0.00    -0.269 OA
ATOM     15  H   UNL A   1      31.623  26.992  20.316  1.00  0.00     0.170 HD
BRANCH  13  16
ATOM     16  C   UNL A   1      32.608  24.633  22.442  1.00  0.00     0.040 A 
ATOM     17  C   UNL A   1      32.486  22.509  24.288  1.00  0.00     0.041 A 
ATOM     18  C   UNL A   1      31.492  23.476  24.252  1.00  0.00     0.027 A 
ATOM     19  C   UNL A   1      33.638  22.706  23.525  1.00  0.00     0.027 A 
ATOM     20  C   UNL A   1      31.512  24.476  23.285  1.00  0.00     0.016 A 
ATOM     21  C   UNL A   1      33.698  23.764  22.604  1.00  0.00     0.016 A 
BRANCH  17  22
ATOM     22  N   UNL A   1      32.327  21.290  24.970  1.00  0.00    -0.322 N 
ATOM     23  C   UNL A   1      33.268  20.426  25.508  1.00  0.00     0.256 C 
ATOM     24  O   UNL A   1      32.914  19.348  25.985  1.00  0.00    -0.269 OA
ATOM     25  H   UNL A   1      31.392  21.002  25.085  1.00  0.00     0.170 HD
BRANCH  23  26
ATOM     26  C   UNL A   1      34.723  20.752  25.542  1.00  0.00     0.049 A 
ATOM     27  C   UNL A   1      34.447  22.764  27.081  1.00  0.00     0.053 C 
ATOM     28  C   UNL A   1      35.269  21.903  26.157  1.00  0.00     0.039 A 
ATOM     29  C   UNL A   1      36.611  22.216  25.845  1.00  0.00     0.273 A 
ATOM     30  C   UNL A   1      35.557  19.849  24.854  1.00  0.00     0.014 A 
ATOM     31  C   UNL A   1      37.434  21.326  25.132  1.00  0.00     0.086 A 
ATOM     32  C   UNL A   1      36.912  20.120  24.676  1.00  0.00     0.008 A 
BRANCH  29  33
ATOM     33  N   UNL A   1      37.184  23.528  26.161  1.00  0.00     0.063 N 
ATOM     34  O   UNL A   1      38.229  23.546  26.830  1.00  0.00    -0.258 OA
ATOM     35  O   UNL A   1      36.627  24.530  25.694  1.00  0.00    -0.258 OA
ENDBRANCH  29  33
ENDBRANCH  23  26
ENDBRANCH  17  22
ENDBRANCH  13  16
ENDBRANCH   7  12
ENDBRANCH   3   6
ENDBRANCH   1   2
BRANCH   1  36
ATOM     36  C   UNL A   1      33.998  29.520  26.498  1.00  0.00     0.042 C 
BRANCH  36  37
ATOM     37  C   UNL A   1      34.252  29.375  27.990  1.00  0.00     0.118 C 
BRANCH  37  38
ATOM     38  N   UNL A   1      34.847  30.590  28.556  1.00  0.00    -0.352 N 
ATOM     39  C   UNL A   1      36.139  30.833  28.994  1.00  0.00     0.251 C 
ATOM     40  H   UNL A   1      34.232  31.354  28.637  1.00  0.00     0.163 HD
ATOM     41  O   UNL A   1      36.472  31.895  29.486  1.00  0.00    -0.269 OA
BRANCH  39  42
ATOM     42  C   UNL A   1      37.161  29.808  28.697  1.00  0.00     0.039 A 
ATOM     43  C   UNL A   1      37.385  28.854  29.694  1.00  0.00     0.014 A 
ATOM     44  C   UNL A   1      38.054  29.981  27.646  1.00  0.00     0.014 A 
ATOM     45  C   UNL A   1      38.633  28.250  29.779  1.00  0.00     0.010 A 
ATOM     46  C   UNL A   1      39.323  29.447  27.777  1.00  0.00     0.010 A 
ATOM     47  C   UNL A   1      39.629  28.643  28.883  1.00  0.00    -0.014 A 
BRANCH  47  48
ATOM     48  C   UNL A   1      41.038  28.359  29.129  1.00  0.00     0.031 A 
ATOM     49  C   UNL A   1      41.680  27.192  28.503  1.00  0.00     0.074 A 
ATOM     50  C   UNL A   1      41.755  29.132  29.972  1.00  0.00     0.049 A 
ATOM     51  N   UNL A   1      42.630  26.508  29.046  1.00  0.00    -0.248 NA
ATOM     52  C   UNL A   1      41.253  26.673  27.212  1.00  0.00     0.031 C 
ATOM     53  C   UNL A   1      43.193  29.078  30.224  1.00  0.00     0.029 A 
ATOM     54  N   UNL A   1      41.253  29.945  30.986  1.00  0.00    -0.354 N 
ATOM     55  C   UNL A   1      43.130  25.665  28.084  1.00  0.00     0.074 A 
ATOM     56  C   UNL A   1      42.192  25.750  26.987  1.00  0.00     0.031 C 
ATOM     57  C   UNL A   1      43.435  29.578  31.445  1.00  0.00     0.029 A 
ATOM     58  C   UNL A   1      42.152  29.855  32.064  1.00  0.00     0.049 A 
ATOM     59  H   UNL A   1      40.427  30.480  30.954  1.00  0.00     0.167 HD
ATOM     60  C   UNL A   1      44.360  25.101  28.250  1.00  0.00     0.034 A 
ATOM     61  C   UNL A   1      41.744  29.412  33.287  1.00  0.00     0.034 A 
ATOM     62  C   UNL A   1      44.964  25.467  29.531  1.00  0.00     0.049 A 
ATOM     63  C   UNL A   1      42.503  28.193  33.769  1.00  0.00     0.074 A 
ATOM     64  C   UNL A   1      45.933  26.394  29.884  1.00  0.00     0.029 A 
ATOM     65  N   UNL A   1      44.381  25.044  30.721  1.00  0.00    -0.354 N 
ATOM     66  N   UNL A   1      43.223  27.419  33.002  1.00  0.00    -0.248 NA
ATOM     67  C   UNL A   1      42.488  27.740  35.155  1.00  0.00     0.031 C 
ATOM     68  C   UNL A   1      45.908  26.547  31.294  1.00  0.00     0.029 A 
ATOM     69  C   UNL A   1      44.940  25.698  31.804  1.00  0.00     0.049 A 
ATOM     70  H   UNL A   1      43.667  24.370  30.784  1.00  0.00     0.167 HD
ATOM     71  C   UNL A   1      43.743  26.382  33.743  1.00  0.00     0.074 A 
ATOM     72  C   UNL A   1      43.267  26.648  35.090  1.00  0.00     0.031 C 
ATOM     73  C   UNL A   1      44.507  25.399  33.166  1.00  0.00     0.034 A 
BRANCH  60  74
ATOM     74  C   UNL A   1      45.135  24.501  27.099  1.00  0.00     0.023 A 
ATOM     75  C   UNL A   1      46.087  25.283  26.413  1.00  0.00     0.031 A 
ATOM     76  C   UNL A   1      44.945  23.200  26.594  1.00  0.00     0.131 A 
ATOM     77  C   UNL A   1      46.692  24.829  25.227  1.00  0.00     0.055 A 
ATOM     78  C   UNL A   1      45.490  22.772  25.376  1.00  0.00     0.041 A 
ATOM     79  F   UNL A   1      44.255  22.279  27.282  1.00  0.00    -0.206 F 
ATOM     80  C   UNL A   1      46.355  23.596  24.674  1.00  0.00     0.022 A 
BRANCH  77  81
ATOM     81  S   UNL A   1      47.939  25.868  24.419  1.00  0.00     0.124 S 
ATOM     82  O   UNL A   1      48.095  25.219  23.122  1.00  0.00    -0.237 OA
ATOM     83  O   UNL A   1      47.292  27.175  24.414  1.00  0.00    -0.237 OA
ATOM     84  O   UNL A   1      49.098  25.758  25.305  1.00  0.00    -0.744 OA
ENDBRANCH  77  81
ENDBRANCH  60  74
BRANCH  61  85
ATOM     85  C   UNL A   1      40.315  29.728  33.586  1.00  0.00     0.023 A 
ATOM     86  C   UNL A   1      39.998  31.070  33.900  1.00  0.00     0.031 A 
ATOM     87  C   UNL A   1      39.266  28.883  33.207  1.00  0.00     0.131 A 
ATOM     88  C   UNL A   1      38.711  31.575  33.657  1.00  0.00     0.055 A 
ATOM     89  C   UNL A   1      37.963  29.372  33.044  1.00  0.00     0.041 A 
ATOM     90  F   UNL A   1      39.501  27.606  32.871  1.00  0.00    -0.206 F 
ATOM     91  C   UNL A   1      37.690  30.731  33.223  1.00  0.00     0.022 A 
BRANCH  88  92
ATOM     92  S   UNL A   1      38.480  33.380  33.652  1.00  0.00     0.124 S 
ATOM     93  O   UNL A   1      39.812  33.866  33.987  1.00  0.00    -0.237 OA
ATOM     94  O   UNL A   1      38.025  33.649  32.286  1.00  0.00    -0.237 OA
ATOM     95  O   UNL A   1      37.454  33.614  34.668  1.00  0.00    -0.744 OA
ENDBRANCH  88  92
ENDBRANCH  61  85
BRANCH  73  96
ATOM     96  C   UNL A   1      45.002  24.111  33.818  1.00  0.00     0.023 A 
ATOM     97  C   UNL A   1      46.342  23.851  34.139  1.00  0.00     0.031 A 
ATOM     98  C   UNL A   1      44.092  23.086  34.193  1.00  0.00     0.131 A 
ATOM     99  C   UNL A   1      46.741  22.632  34.728  1.00  0.00     0.055 A 
ATOM    100  C   UNL A   1      44.480  21.901  34.831  1.00  0.00     0.041 A 
ATOM    101  F   UNL A   1      42.774  23.187  33.969  1.00  0.00    -0.206 F 
ATOM    102  C   UNL A   1      45.816  21.662  35.093  1.00  0.00     0.022 A 
BRANCH  99 103
ATOM    103  S   UNL A   1      48.514  22.333  34.968  1.00  0.00     0.124 S 
ATOM    104  O   UNL A   1      48.720  21.110  34.197  1.00  0.00    -0.237 OA
ATOM    105  O   UNL A   1      49.113  23.541  34.410  1.00  0.00    -0.237 OA
ATOM    106  O   UNL A   1      48.648  22.186  36.415  1.00  0.00    -0.744 OA
ENDBRANCH  99 103
ENDBRANCH  73  96
ENDBRANCH  47  48
ENDBRANCH  39  42
ENDBRANCH  37  38
ENDBRANCH  36  37
ENDBRANCH   1  36
TORSDOF 18
ENDMDL
MODEL 3
REMARK VINA RESULT:     -12.3      2.073      3.412
REMARK SMILES Cc1c(C(=O)Nc2ccc(C(=O)Nc3ccccc3C(=O)NCCCNC(=O)c3ccc(-c4c5nc(c(-c6cc(S(=O)(=O)[O-])ccc6F)c6ccc([nH]6)c(-c6cc(S(=O)(=O)[O-])ccc6F)c6nc(c(-c7cc(S(=O)(=O)[O-])ccc7F)c7ccc4[nH]7)C=C6)C=C5)cc3)cc2)cccc1[N+](=O)[O-]
REMARK SMILES IDX 23 1 22 2 20 3 21 4 19 6 14 7 15 8 16 9 18 10 17 11 13 12
REMARK SMILES IDX 11 13 12 14 10 16 7 17 8 18 93 19 9 20 92 21 6 22 4 23 5 24
REMARK SMILES IDX 3 26 1 27 2 28 97 29 94 30 96 31 95 32 98 33 99 34 100 35
REMARK SMILES IDX 24 36 25 37 26 38 27 39 28 41 29 42 30 43 91 44 31 45 90 46
REMARK SMILES IDX 32 47 33 48 34 49 84 50 35 51 89 52 83 53 85 54 36 55 88 56
REMARK SMILES IDX 82 57 81 58 37 60 69 61 49 62 68 63 50 64 53 65 67 66 86 67
REMARK SMILES IDX 51 68 52 69 66 71 87 72 54 73 38 74 39 75 47 76 40 77 46 78
REMARK SMILES IDX 48 79 45 80 41 81 42 82 43 83 44 84 70 85 71 86 79 87 72 88
REMARK SMILES IDX 78 89 80 90 77 91 73 92 74 93 75 94 76 95 55 96 56 97 64 98
REMARK SMILES IDX 57 99 63 100 65 101 62 102 58 103 59 104 60 105 61 106
REMARK H PARENT 22 5 13 15 6 25 26 40 85 59 53 70
REMARK Flexibility Score: inf
ROOT
ATOM      1  C   UNL A   1      33.641  27.478  26.203  1.00  0.00     0.118 C 
ENDROOT
BRANCH   1   2
ATOM      2  N   UNL A   1      32.327  27.002  26.637  1.00  0.00    -0.352 N 
ATOM      3  C   UNL A   1      31.261  26.422  25.976  1.00  0.00     0.253 C 
ATOM      4  O   UNL A   1      30.253  26.104  26.604  1.00  0.00    -0.269 OA
ATOM      5  H   UNL A   1      32.171  27.118  27.602  1.00  0.00     0.163 HD
BRANCH   3   6
ATOM      6  C   UNL A   1      31.287  26.157  24.505  1.00  0.00     0.063 A 
ATOM      7  C   UNL A   1      31.106  24.872  23.940  1.00  0.00     0.054 A 
ATOM      8  C   UNL A   1      31.187  24.717  22.541  1.00  0.00     0.027 A 
ATOM      9  C   UNL A   1      31.402  25.807  21.701  1.00  0.00     0.002 A 
ATOM     10  C   UNL A   1      31.653  27.206  23.643  1.00  0.00     0.016 A 
ATOM     11  C   UNL A   1      31.654  27.052  22.255  1.00  0.00     0.001 A 
BRANCH   7  12
ATOM     12  N   UNL A   1      30.849  23.664  24.619  1.00  0.00    -0.321 N 
ATOM     13  C   UNL A   1      31.628  22.585  24.967  1.00  0.00     0.255 C 
ATOM     14  O   UNL A   1      31.053  21.572  25.377  1.00  0.00    -0.269 OA
ATOM     15  H   UNL A   1      29.913  23.574  24.905  1.00  0.00     0.170 HD
BRANCH  13  16
ATOM     16  C   UNL A   1      33.107  22.679  25.132  1.00  0.00     0.040 A 
ATOM     17  C   UNL A   1      35.791  23.429  25.535  1.00  0.00     0.041 A 
ATOM     18  C   UNL A   1      35.313  23.162  24.260  1.00  0.00     0.027 A 
ATOM     19  C   UNL A   1      34.974  23.140  26.630  1.00  0.00     0.027 A 
ATOM     20  C   UNL A   1      33.968  22.873  24.056  1.00  0.00     0.016 A 
ATOM     21  C   UNL A   1      33.636  22.768  26.427  1.00  0.00     0.016 A 
BRANCH  17  22
ATOM     22  N   UNL A   1      37.016  24.083  25.760  1.00  0.00    -0.322 N 
ATOM     23  C   UNL A   1      38.280  23.573  26.007  1.00  0.00     0.256 C 
ATOM     24  O   UNL A   1      39.210  24.334  26.275  1.00  0.00    -0.269 OA
ATOM     25  H   UNL A   1      36.966  25.066  25.738  1.00  0.00     0.170 HD
BRANCH  23  26
ATOM     26  C   UNL A   1      38.576  22.112  25.954  1.00  0.00     0.049 A 
ATOM     27  C   UNL A   1      40.633  22.265  27.450  1.00  0.00     0.053 C 
ATOM     28  C   UNL A   1      39.731  21.511  26.508  1.00  0.00     0.039 A 
ATOM     29  C   UNL A   1      40.006  20.182  26.116  1.00  0.00     0.273 A 
ATOM     30  C   UNL A   1      37.637  21.335  25.248  1.00  0.00     0.014 A 
ATOM     31  C   UNL A   1      39.080  19.416  25.385  1.00  0.00     0.086 A 
ATOM     32  C   UNL A   1      37.875  19.986  24.991  1.00  0.00     0.008 A 
BRANCH  29  33
ATOM     33  N   UNL A   1      41.314  19.566  26.365  1.00  0.00     0.063 N 
ATOM     34  O   UNL A   1      41.968  19.202  25.376  1.00  0.00    -0.258 OA
ATOM     35  O   UNL A   1      41.708  19.501  27.537  1.00  0.00    -0.258 OA
ENDBRANCH  29  33
ENDBRANCH  23  26
ENDBRANCH  17  22
ENDBRANCH  13  16
ENDBRANCH   7  12
ENDBRANCH   3   6
ENDBRANCH   1   2
BRANCH   1  36
ATOM     36  C   UNL A   1      33.929  28.936  26.523  1.00  0.00     0.042 C 
BRANCH  36  37
ATOM     37  C   UNL A   1      33.987  29.285  28.002  1.00  0.00     0.118 C 
BRANCH  37  38
ATOM     38  N   UNL A   1      34.601  30.598  28.223  1.00  0.00    -0.352 N 
ATOM     39  C   UNL A   1      35.918  30.937  28.487  1.00  0.00     0.251 C 
ATOM     40  H   UNL A   1      33.979  31.359  28.176  1.00  0.00     0.163 HD
ATOM     41  O   UNL A   1      36.268  32.084  28.692  1.00  0.00    -0.269 OA
BRANCH  39  42
ATOM     42  C   UNL A   1      36.934  29.872  28.351  1.00  0.00     0.039 A 
ATOM     43  C   UNL A   1      37.219  29.141  29.508  1.00  0.00     0.014 A 
ATOM     44  C   UNL A   1      37.768  29.826  27.240  1.00  0.00     0.014 A 
ATOM     45  C   UNL A   1      38.477  28.568  29.647  1.00  0.00     0.010 A 
ATOM     46  C   UNL A   1      39.047  29.328  27.409  1.00  0.00     0.010 A 
ATOM     47  C   UNL A   1      39.420  28.768  28.638  1.00  0.00    -0.014 A 
BRANCH  47  48
ATOM     48  C   UNL A   1      40.843  28.539  28.860  1.00  0.00     0.031 A 
ATOM     49  C   UNL A   1      41.525  27.415  28.200  1.00  0.00     0.074 A 
ATOM     50  C   UNL A   1      41.536  29.322  29.714  1.00  0.00     0.049 A 
ATOM     51  N   UNL A   1      42.510  26.760  28.715  1.00  0.00    -0.248 NA
ATOM     52  C   UNL A   1      41.104  26.908  26.902  1.00  0.00     0.031 C 
ATOM     53  C   UNL A   1      42.979  29.324  29.947  1.00  0.00     0.029 A 
ATOM     54  N   UNL A   1      41.014  30.089  30.752  1.00  0.00    -0.354 N 
ATOM     55  C   UNL A   1      43.034  25.962  27.728  1.00  0.00     0.074 A 
ATOM     56  C   UNL A   1      42.079  26.032  26.644  1.00  0.00     0.031 C 
ATOM     57  C   UNL A   1      43.214  29.806  31.177  1.00  0.00     0.029 A 
ATOM     58  C   UNL A   1      41.929  30.014  31.817  1.00  0.00     0.049 A 
ATOM     59  H   UNL A   1      40.165  30.590  30.742  1.00  0.00     0.167 HD
ATOM     60  C   UNL A   1      44.289  25.447  27.867  1.00  0.00     0.034 A 
ATOM     61  C   UNL A   1      41.556  29.526  33.034  1.00  0.00     0.034 A 
ATOM     62  C   UNL A   1      44.892  25.810  29.149  1.00  0.00     0.049 A 
ATOM     63  C   UNL A   1      42.372  28.329  33.478  1.00  0.00     0.074 A 
ATOM     64  C   UNL A   1      45.826  26.768  29.512  1.00  0.00     0.029 A 
ATOM     65  N   UNL A   1      44.343  25.335  30.335  1.00  0.00    -0.354 N 
ATOM     66  N   UNL A   1      43.115  27.605  32.685  1.00  0.00    -0.248 NA
ATOM     67  C   UNL A   1      42.394  27.845  34.853  1.00  0.00     0.031 C 
ATOM     68  C   UNL A   1      45.812  26.888  30.926  1.00  0.00     0.029 A 
ATOM     69  C   UNL A   1      44.888  25.987  31.427  1.00  0.00     0.049 A 
ATOM     70  H   UNL A   1      43.659  24.629  30.390  1.00  0.00     0.167 HD
ATOM     71  C   UNL A   1      43.687  26.574  33.395  1.00  0.00     0.074 A 
ATOM     72  C   UNL A   1      43.218  26.788  34.754  1.00  0.00     0.031 C 
ATOM     73  C   UNL A   1      44.485  25.639  32.787  1.00  0.00     0.034 A 
BRANCH  60  74
ATOM     74  C   UNL A   1      45.073  24.907  26.692  1.00  0.00     0.023 A 
ATOM     75  C   UNL A   1      44.877  23.575  26.274  1.00  0.00     0.031 A 
ATOM     76  C   UNL A   1      46.060  25.623  25.988  1.00  0.00     0.131 A 
ATOM     77  C   UNL A   1      45.713  22.978  25.312  1.00  0.00     0.055 A 
ATOM     78  C   UNL A   1      46.939  25.013  25.083  1.00  0.00     0.041 A 
ATOM     79  F   UNL A   1      46.184  26.952  26.119  1.00  0.00    -0.206 F 
ATOM     80  C   UNL A   1      46.781  23.676  24.754  1.00  0.00     0.022 A 
BRANCH  77  81
ATOM     81  S   UNL A   1      45.378  21.274  24.788  1.00  0.00     0.124 S 
ATOM     82  O   UNL A   1      44.617  20.745  25.915  1.00  0.00    -0.237 OA
ATOM     83  O   UNL A   1      44.641  21.474  23.546  1.00  0.00    -0.237 OA
ATOM     84  O   UNL A   1      46.714  20.701  24.626  1.00  0.00    -0.744 OA
ENDBRANCH  77  81
ENDBRANCH  60  74
BRANCH  61  85
ATOM     85  C   UNL A   1      40.118  29.773  33.356  1.00  0.00     0.023 A 
ATOM     86  C   UNL A   1      39.729  31.110  33.607  1.00  0.00     0.031 A 
ATOM     87  C   UNL A   1      39.113  28.848  33.055  1.00  0.00     0.131 A 
ATOM     88  C   UNL A   1      38.409  31.524  33.374  1.00  0.00     0.055 A 
ATOM     89  C   UNL A   1      37.779  29.250  32.904  1.00  0.00     0.041 A 
ATOM     90  F   UNL A   1      39.416  27.570  32.782  1.00  0.00    -0.206 F 
ATOM     91  C   UNL A   1      37.429  30.598  33.017  1.00  0.00     0.022 A 
BRANCH  88  92
ATOM     92  S   UNL A   1      38.069  33.309  33.278  1.00  0.00     0.124 S 
ATOM     93  O   UNL A   1      36.719  33.340  32.729  1.00  0.00    -0.237 OA
ATOM     94  O   UNL A   1      38.204  33.745  34.669  1.00  0.00    -0.237 OA
ATOM     95  O   UNL A   1      39.115  33.827  32.397  1.00  0.00    -0.744 OA
ENDBRANCH  88  92
ENDBRANCH  61  85
BRANCH  73  96
ATOM     96  C   UNL A   1      45.043  24.359  33.402  1.00  0.00     0.023 A 
ATOM     97  C   UNL A   1      46.307  24.253  34.000  1.00  0.00     0.031 A 
ATOM     98  C   UNL A   1      44.264  23.171  33.447  1.00  0.00     0.131 A 
ATOM     99  C   UNL A   1      46.774  23.036  34.539  1.00  0.00     0.055 A 
ATOM    100  C   UNL A   1      44.704  21.978  34.035  1.00  0.00     0.041 A 
ATOM    101  F   UNL A   1      43.027  23.110  32.932  1.00  0.00    -0.206 F 
ATOM    102  C   UNL A   1      45.974  21.900  34.577  1.00  0.00     0.022 A 
BRANCH  99 103
ATOM    103  S   UNL A   1      48.478  22.965  35.157  1.00  0.00     0.124 S 
ATOM    104  O   UNL A   1      49.234  23.467  34.013  1.00  0.00    -0.237 OA
ATOM    105  O   UNL A   1      48.426  23.850  36.316  1.00  0.00    -0.237 OA
ATOM    106  O   UNL A   1      48.678  21.551  35.463  1.00  0.00    -0.744 OA
ENDBRANCH  99 103
ENDBRANCH  73  96
ENDBRANCH  47  48
ENDBRANCH  39  42
ENDBRANCH  37  38
ENDBRANCH  36  37
ENDBRANCH   1  36
TORSDOF 18
ENDMDL
