MODEL 1
REMARK VINA RESULT:     -12.0      0.000      0.000
REMARK SMILES Cc1sc(C(=O)NCCCNC(=O)c2ccc(-c3c4nc(c(-c5cc(S(=O)(=O)[O-])ccc5F)c5ccc([nH]5)c(-c5cc(S(=O)(=O)[O-])ccc5F)c5nc(c(-c6cc(S(=O)(=O)[O-])ccc6F)c6ccc3[nH]6)C=C5)C=C4)cc2)cc1S(=O)(=O)N1C[C@@H](C)[C@H](C)C1
REMARK SMILES IDX 9 1 8 2 7 3 5 4 6 5 4 7 1 8 2 9 3 10 78 11 77 12 79 13 80 14
REMARK SMILES IDX 81 15 82 16 83 17 88 18 84 19 86 20 85 21 87 22 10 23 11 24
REMARK SMILES IDX 12 25 13 27 14 28 15 29 76 30 16 31 75 32 17 33 18 34 19 35
REMARK SMILES IDX 69 36 20 37 74 38 68 39 70 40 21 41 73 42 67 43 66 44 22 46
REMARK SMILES IDX 54 47 34 48 53 49 35 50 38 51 52 52 71 53 36 54 37 55 51 57
REMARK SMILES IDX 72 58 39 59 23 60 24 61 32 62 25 63 31 64 33 65 30 66 26 67
REMARK SMILES IDX 27 68 28 69 29 70 55 71 56 72 64 73 57 74 63 75 65 76 62 77
REMARK SMILES IDX 58 78 59 79 60 80 61 81 40 82 41 83 49 84 42 85 48 86 50 87
REMARK SMILES IDX 47 88 43 89 44 90 45 91 46 92
REMARK H PARENT 7 6 11 26 70 45 38 56
REMARK Flexibility Score: inf
ROOT
ATOM      1  C   UNL A   1      32.716  28.789  25.268  1.00  0.00     0.042 C 
ENDROOT
BRANCH   1   2
ATOM      2  C   UNL A   1      33.005  29.029  23.789  1.00  0.00     0.118 C 
BRANCH   2   3
ATOM      3  N   UNL A   1      31.776  29.061  23.024  1.00  0.00    -0.351 N 
ATOM      4  C   UNL A   1      30.933  28.068  22.599  1.00  0.00     0.261 C 
ATOM      5  O   UNL A   1      29.964  28.457  21.939  1.00  0.00    -0.268 OA
ATOM      6  H   UNL A   1      31.495  29.967  22.758  1.00  0.00     0.163 HD
BRANCH   4   7
ATOM      7  C   UNL A   1      31.152  26.674  22.954  1.00  0.00     0.093 A 
ATOM      8  C   UNL A   1      30.663  23.606  25.337  1.00  0.00     0.058 C 
ATOM      9  C   UNL A   1      31.076  24.549  24.273  1.00  0.00     0.022 A 
ATOM     10  S   UNL A   1      30.302  26.081  24.319  1.00  0.00    -0.134 S 
ATOM     11  C   UNL A   1      31.965  24.472  23.216  1.00  0.00     0.097 A 
ATOM     12  C   UNL A   1      31.917  25.664  22.411  1.00  0.00     0.047 A 
BRANCH  11  13
ATOM     13  S   UNL A   1      33.095  23.214  22.778  1.00  0.00     0.244 S 
ATOM     14  O   UNL A   1      32.245  22.047  22.671  1.00  0.00    -0.207 OA
ATOM     15  O   UNL A   1      33.752  23.781  21.621  1.00  0.00    -0.207 OA
BRANCH  13  16
ATOM     16  N   UNL A   1      34.254  22.901  23.919  1.00  0.00    -0.197 NA
ATOM     17  C   UNL A   1      34.441  21.576  24.503  1.00  0.00     0.106 C 
ATOM     18  C   UNL A   1      35.372  23.803  24.164  1.00  0.00     0.106 C 
ATOM     19  C   UNL A   1      35.812  21.638  25.190  1.00  0.00     0.005 C 
ATOM     20  C   UNL A   1      36.508  22.888  24.617  1.00  0.00     0.005 C 
ATOM     21  C   UNL A   1      36.620  20.365  24.945  1.00  0.00     0.009 C 
ATOM     22  C   UNL A   1      37.426  23.569  25.622  1.00  0.00     0.009 C 
ENDBRANCH  13  16
ENDBRANCH  11  13
ENDBRANCH   4   7
ENDBRANCH   2   3
ENDBRANCH   1   2
BRANCH   1  23
ATOM     23  C   UNL A   1      33.904  29.139  26.162  1.00  0.00     0.118 C 
BRANCH  23  24
ATOM     24  N   UNL A   1      33.785  30.485  26.705  1.00  0.00    -0.352 N 
ATOM     25  C   UNL A   1      34.458  31.081  27.738  1.00  0.00     0.251 C 
ATOM     26  H   UNL A   1      33.117  31.056  26.260  1.00  0.00     0.163 HD
ATOM     27  O   UNL A   1      33.994  32.100  28.243  1.00  0.00    -0.269 OA
BRANCH  25  28
ATOM     28  C   UNL A   1      35.728  30.510  28.229  1.00  0.00     0.039 A 
ATOM     29  C   UNL A   1      35.721  29.760  29.406  1.00  0.00     0.014 A 
ATOM     30  C   UNL A   1      36.934  30.770  27.569  1.00  0.00     0.014 A 
ATOM     31  C   UNL A   1      36.918  29.245  29.904  1.00  0.00     0.010 A 
ATOM     32  C   UNL A   1      38.112  30.183  28.018  1.00  0.00     0.010 A 
ATOM     33  C   UNL A   1      38.120  29.435  29.202  1.00  0.00    -0.014 A 
BRANCH  33  34
ATOM     34  C   UNL A   1      39.399  28.886  29.718  1.00  0.00     0.031 A 
ATOM     35  C   UNL A   1      40.068  29.525  30.906  1.00  0.00     0.074 A 
ATOM     36  C   UNL A   1      39.969  27.838  29.092  1.00  0.00     0.049 A 
ATOM     37  N   UNL A   1      41.203  29.220  31.480  1.00  0.00    -0.248 NA
ATOM     38  C   UNL A   1      39.385  30.682  31.507  1.00  0.00     0.031 C 
ATOM     39  C   UNL A   1      39.428  27.168  27.908  1.00  0.00     0.029 A 
ATOM     40  N   UNL A   1      41.124  27.152  29.362  1.00  0.00    -0.354 N 
ATOM     41  C   UNL A   1      41.375  30.150  32.500  1.00  0.00     0.074 A 
ATOM     42  C   UNL A   1      40.263  31.072  32.417  1.00  0.00     0.031 C 
ATOM     43  C   UNL A   1      40.231  26.145  27.576  1.00  0.00     0.029 A 
ATOM     44  C   UNL A   1      41.368  26.116  28.490  1.00  0.00     0.049 A 
ATOM     45  H   UNL A   1      41.724  27.380  30.109  1.00  0.00     0.167 HD
ATOM     46  C   UNL A   1      42.354  30.211  33.436  1.00  0.00     0.034 A 
ATOM     47  C   UNL A   1      42.396  25.247  28.431  1.00  0.00     0.034 A 
ATOM     48  C   UNL A   1      43.449  29.274  33.503  1.00  0.00     0.049 A 
ATOM     49  C   UNL A   1      43.483  25.348  29.470  1.00  0.00     0.074 A 
ATOM     50  C   UNL A   1      44.475  29.209  34.430  1.00  0.00     0.029 A 
ATOM     51  N   UNL A   1      43.666  28.237  32.602  1.00  0.00    -0.354 N 
ATOM     52  N   UNL A   1      43.608  26.203  30.460  1.00  0.00    -0.248 NA
ATOM     53  C   UNL A   1      44.561  24.355  29.394  1.00  0.00     0.031 C 
ATOM     54  C   UNL A   1      45.349  28.187  34.047  1.00  0.00     0.029 A 
ATOM     55  C   UNL A   1      44.824  27.550  32.934  1.00  0.00     0.049 A 
ATOM     56  H   UNL A   1      43.082  28.022  31.839  1.00  0.00     0.167 HD
ATOM     57  C   UNL A   1      44.758  25.825  31.145  1.00  0.00     0.074 A 
ATOM     58  C   UNL A   1      45.277  24.655  30.466  1.00  0.00     0.031 C 
ATOM     59  C   UNL A   1      45.333  26.389  32.240  1.00  0.00     0.034 A 
BRANCH  46  60
ATOM     60  C   UNL A   1      42.294  31.344  34.436  1.00  0.00     0.023 A 
ATOM     61  C   UNL A   1      41.332  31.377  35.462  1.00  0.00     0.031 A 
ATOM     62  C   UNL A   1      43.191  32.423  34.347  1.00  0.00     0.131 A 
ATOM     63  C   UNL A   1      41.238  32.497  36.302  1.00  0.00     0.055 A 
ATOM     64  C   UNL A   1      43.150  33.494  35.242  1.00  0.00     0.041 A 
ATOM     65  F   UNL A   1      44.117  32.465  33.375  1.00  0.00    -0.206 F 
ATOM     66  C   UNL A   1      42.158  33.543  36.217  1.00  0.00     0.022 A 
BRANCH  63  67
ATOM     67  S   UNL A   1      39.801  32.637  37.401  1.00  0.00     0.124 S 
ATOM     68  O   UNL A   1      39.072  31.409  37.091  1.00  0.00    -0.237 OA
ATOM     69  O   UNL A   1      40.417  32.700  38.720  1.00  0.00    -0.237 OA
ATOM     70  O   UNL A   1      39.150  33.867  36.957  1.00  0.00    -0.744 OA
ENDBRANCH  63  67
ENDBRANCH  46  60
BRANCH  47  71
ATOM     71  C   UNL A   1      42.450  24.211  27.360  1.00  0.00     0.023 A 
ATOM     72  C   UNL A   1      41.744  23.004  27.482  1.00  0.00     0.031 A 
ATOM     73  C   UNL A   1      43.245  24.394  26.215  1.00  0.00     0.131 A 
ATOM     74  C   UNL A   1      41.888  22.006  26.506  1.00  0.00     0.055 A 
ATOM     75  C   UNL A   1      43.337  23.423  25.216  1.00  0.00     0.041 A 
ATOM     76  F   UNL A   1      43.939  25.531  26.043  1.00  0.00    -0.206 F 
ATOM     77  C   UNL A   1      42.668  22.213  25.366  1.00  0.00     0.022 A 
BRANCH  74  78
ATOM     78  S   UNL A   1      41.119  20.389  26.798  1.00  0.00     0.124 S 
ATOM     79  O   UNL A   1      40.861  20.438  28.233  1.00  0.00    -0.237 OA
ATOM     80  O   UNL A   1      39.945  20.451  25.933  1.00  0.00    -0.237 OA
ATOM     81  O   UNL A   1      42.150  19.442  26.381  1.00  0.00    -0.744 OA
ENDBRANCH  74  78
ENDBRANCH  47  71
BRANCH  59  82
ATOM     82  C   UNL A   1      46.561  25.706  32.796  1.00  0.00     0.023 A 
ATOM     83  C   UNL A   1      47.839  25.915  32.250  1.00  0.00     0.031 A 
ATOM     84  C   UNL A   1      46.441  24.806  33.871  1.00  0.00     0.131 A 
ATOM     85  C   UNL A   1      48.933  25.178  32.731  1.00  0.00     0.055 A 
ATOM     86  C   UNL A   1      47.546  24.134  34.395  1.00  0.00     0.041 A 
ATOM     87  F   UNL A   1      45.245  24.565  34.430  1.00  0.00    -0.206 F 
ATOM     88  C   UNL A   1      48.797  24.304  33.813  1.00  0.00     0.022 A 
BRANCH  85  89
ATOM     89  S   UNL A   1      50.509  25.282  31.839  1.00  0.00     0.124 S 
ATOM     90  O   UNL A   1      50.889  23.877  31.731  1.00  0.00    -0.237 OA
ATOM     91  O   UNL A   1      50.120  25.934  30.594  1.00  0.00    -0.237 OA
ATOM     92  O   UNL A   1      51.351  26.086  32.724  1.00  0.00    -0.744 OA
ENDBRANCH  85  89
ENDBRANCH  59  82
ENDBRANCH  33  34
ENDBRANCH  25  28
ENDBRANCH  23  24
ENDBRANCH   1  23
TORSDOF 15
ENDMDL
MODEL 2
REMARK VINA RESULT:     -11.9      3.732      8.823
REMARK SMILES Cc1sc(C(=O)NCCCNC(=O)c2ccc(-c3c4nc(c(-c5cc(S(=O)(=O)[O-])ccc5F)c5ccc([nH]5)c(-c5cc(S(=O)(=O)[O-])ccc5F)c5nc(c(-c6cc(S(=O)(=O)[O-])ccc6F)c6ccc3[nH]6)C=C5)C=C4)cc2)cc1S(=O)(=O)N1C[C@@H](C)[C@H](C)C1
REMARK SMILES IDX 9 1 8 2 7 3 5 4 6 5 4 7 1 8 2 9 3 10 78 11 77 12 79 13 80 14
REMARK SMILES IDX 81 15 82 16 83 17 88 18 84 19 86 20 85 21 87 22 10 23 11 24
REMARK SMILES IDX 12 25 13 27 14 28 15 29 76 30 16 31 75 32 17 33 18 34 19 35
REMARK SMILES IDX 69 36 20 37 74 38 68 39 70 40 21 41 73 42 67 43 66 44 22 46
REMARK SMILES IDX 54 47 34 48 53 49 35 50 38 51 52 52 71 53 36 54 37 55 51 57
REMARK SMILES IDX 72 58 39 59 23 60 24 61 32 62 25 63 31 64 33 65 30 66 26 67
REMARK SMILES IDX 27 68 28 69 29 70 55 71 56 72 64 73 57 74 63 75 65 76 62 77
REMARK SMILES IDX 58 78 59 79 60 80 61 81 40 82 41 83 49 84 42 85 48 86 50 87
REMARK SMILES IDX 47 88 43 89 44 90 45 91 46 92
REMARK H PARENT 7 6 11 26 70 45 38 56
REMARK Flexibility Score: inf
ROOT
ATOM      1  C   UNL A   1      31.582  32.228  26.878  1.00  0.00     0.042 C 
ENDROOT
BRANCH   1   2
ATOM      2  C   UNL A   1      31.740  30.755  26.515  1.00  0.00     0.118 C 
BRANCH   2   3
ATOM      3  N   UNL A   1      31.127  30.471  25.235  1.00  0.00    -0.351 N 
ATOM      4  C   UNL A   1      31.033  29.320  24.497  1.00  0.00     0.261 C 
ATOM      5  O   UNL A   1      30.442  29.442  23.420  1.00  0.00    -0.268 OA
ATOM      6  H   UNL A   1      30.697  31.252  24.816  1.00  0.00     0.163 HD
BRANCH   4   7
ATOM      7  C   UNL A   1      31.551  28.052  24.988  1.00  0.00     0.093 A 
ATOM      8  C   UNL A   1      34.413  25.404  25.345  1.00  0.00     0.058 C 
ATOM      9  C   UNL A   1      33.135  26.151  25.361  1.00  0.00     0.022 A 
ATOM     10  S   UNL A   1      33.218  27.747  24.732  1.00  0.00    -0.134 S 
ATOM     11  C   UNL A   1      31.853  25.849  25.784  1.00  0.00     0.097 A 
ATOM     12  C   UNL A   1      30.984  26.989  25.658  1.00  0.00     0.047 A 
BRANCH  11  13
ATOM     13  S   UNL A   1      31.183  24.350  26.380  1.00  0.00     0.244 S 
ATOM     14  O   UNL A   1      32.001  24.077  27.543  1.00  0.00    -0.207 OA
ATOM     15  O   UNL A   1      29.777  24.670  26.502  1.00  0.00    -0.207 OA
BRANCH  13  16
ATOM     16  N   UNL A   1      31.325  23.070  25.340  1.00  0.00    -0.197 NA
ATOM     17  C   UNL A   1      31.118  23.202  23.901  1.00  0.00     0.106 C 
ATOM     18  C   UNL A   1      31.991  21.829  25.716  1.00  0.00     0.106 C 
ATOM     19  C   UNL A   1      31.709  21.920  23.298  1.00  0.00     0.005 C 
ATOM     20  C   UNL A   1      32.579  21.300  24.409  1.00  0.00     0.005 C 
ATOM     21  C   UNL A   1      32.512  22.213  22.032  1.00  0.00     0.009 C 
ATOM     22  C   UNL A   1      32.604  19.779  24.365  1.00  0.00     0.009 C 
ENDBRANCH  13  16
ENDBRANCH  11  13
ENDBRANCH   4   7
ENDBRANCH   2   3
ENDBRANCH   1   2
BRANCH   1  23
ATOM     23  C   UNL A   1      32.923  32.939  27.047  1.00  0.00     0.118 C 
BRANCH  23  24
ATOM     24  N   UNL A   1      32.758  34.254  27.651  1.00  0.00    -0.352 N 
ATOM     25  C   UNL A   1      33.249  34.750  28.829  1.00  0.00     0.251 C 
ATOM     26  H   UNL A   1      32.206  34.884  27.131  1.00  0.00     0.163 HD
ATOM     27  O   UNL A   1      32.739  35.760  29.309  1.00  0.00    -0.269 OA
BRANCH  25  28
ATOM     28  C   UNL A   1      34.382  34.087  29.503  1.00  0.00     0.039 A 
ATOM     29  C   UNL A   1      34.117  33.171  30.523  1.00  0.00     0.014 A 
ATOM     30  C   UNL A   1      35.702  34.415  29.180  1.00  0.00     0.014 A 
ATOM     31  C   UNL A   1      35.177  32.563  31.197  1.00  0.00     0.010 A 
ATOM     32  C   UNL A   1      36.756  33.744  29.790  1.00  0.00     0.010 A 
ATOM     33  C   UNL A   1      36.505  32.829  30.821  1.00  0.00    -0.014 A 
BRANCH  33  34
ATOM     34  C   UNL A   1      37.640  32.183  31.525  1.00  0.00     0.031 A 
ATOM     35  C   UNL A   1      38.389  31.054  30.869  1.00  0.00     0.074 A 
ATOM     36  C   UNL A   1      37.966  32.591  32.767  1.00  0.00     0.049 A 
ATOM     37  N   UNL A   1      39.379  30.336  31.333  1.00  0.00    -0.248 NA
ATOM     38  C   UNL A   1      37.943  30.659  29.523  1.00  0.00     0.031 C 
ATOM     39  C   UNL A   1      37.281  33.647  33.515  1.00  0.00     0.029 A 
ATOM     40  N   UNL A   1      38.954  32.170  33.619  1.00  0.00    -0.354 N 
ATOM     41  C   UNL A   1      39.667  29.401  30.344  1.00  0.00     0.074 A 
ATOM     42  C   UNL A   1      38.699  29.598  29.288  1.00  0.00     0.031 C 
ATOM     43  C   UNL A   1      37.892  33.817  34.697  1.00  0.00     0.029 A 
ATOM     44  C   UNL A   1      38.979  32.851  34.815  1.00  0.00     0.049 A 
ATOM     45  H   UNL A   1      39.586  31.449  33.397  1.00  0.00     0.167 HD
ATOM     46  C   UNL A   1      40.665  28.484  30.310  1.00  0.00     0.034 A 
ATOM     47  C   UNL A   1      39.783  32.705  35.886  1.00  0.00     0.034 A 
ATOM     48  C   UNL A   1      41.625  28.313  31.373  1.00  0.00     0.049 A 
ATOM     49  C   UNL A   1      40.872  31.663  35.832  1.00  0.00     0.074 A 
ATOM     50  C   UNL A   1      42.703  27.447  31.432  1.00  0.00     0.029 A 
ATOM     51  N   UNL A   1      41.619  29.018  32.572  1.00  0.00    -0.354 N 
ATOM     52  N   UNL A   1      41.164  30.819  34.870  1.00  0.00    -0.248 NA
ATOM     53  C   UNL A   1      41.750  31.569  37.004  1.00  0.00     0.031 C 
ATOM     54  C   UNL A   1      43.300  27.575  32.690  1.00  0.00     0.029 A 
ATOM     55  C   UNL A   1      42.655  28.585  33.386  1.00  0.00     0.049 A 
ATOM     56  H   UNL A   1      40.973  29.722  32.808  1.00  0.00     0.167 HD
ATOM     57  C   UNL A   1      42.284  30.118  35.307  1.00  0.00     0.074 A 
ATOM     58  C   UNL A   1      42.623  30.655  36.609  1.00  0.00     0.031 C 
ATOM     59  C   UNL A   1      42.974  29.124  34.688  1.00  0.00     0.034 A 
BRANCH  46  60
ATOM     60  C   UNL A   1      40.743  27.583  29.097  1.00  0.00     0.023 A 
ATOM     61  C   UNL A   1      41.684  27.797  28.074  1.00  0.00     0.031 A 
ATOM     62  C   UNL A   1      39.845  26.512  28.945  1.00  0.00     0.131 A 
ATOM     63  C   UNL A   1      41.653  27.008  26.914  1.00  0.00     0.055 A 
ATOM     64  C   UNL A   1      39.877  25.673  27.828  1.00  0.00     0.041 A 
ATOM     65  F   UNL A   1      38.906  26.269  29.874  1.00  0.00    -0.206 F 
ATOM     66  C   UNL A   1      40.775  25.930  26.797  1.00  0.00     0.022 A 
BRANCH  63  67
ATOM     67  S   UNL A   1      42.671  27.510  25.498  1.00  0.00     0.124 S 
ATOM     68  O   UNL A   1      42.598  26.325  24.648  1.00  0.00    -0.237 OA
ATOM     69  O   UNL A   1      41.972  28.692  25.010  1.00  0.00    -0.237 OA
ATOM     70  O   UNL A   1      43.983  27.762  26.092  1.00  0.00    -0.744 OA
ENDBRANCH  63  67
ENDBRANCH  46  60
BRANCH  47  71
ATOM     71  C   UNL A   1      39.595  33.558  37.095  1.00  0.00     0.023 A 
ATOM     72  C   UNL A   1      38.905  33.079  38.220  1.00  0.00     0.031 A 
ATOM     73  C   UNL A   1      40.065  34.883  37.127  1.00  0.00     0.131 A 
ATOM     74  C   UNL A   1      38.657  33.933  39.305  1.00  0.00     0.055 A 
ATOM     75  C   UNL A   1      39.870  35.709  38.235  1.00  0.00     0.041 A 
ATOM     76  F   UNL A   1      40.735  35.391  36.080  1.00  0.00    -0.206 F 
ATOM     77  C   UNL A   1      39.148  35.241  39.327  1.00  0.00     0.022 A 
BRANCH  74  78
ATOM     78  S   UNL A   1      37.594  33.340  40.651  1.00  0.00     0.124 S 
ATOM     79  O   UNL A   1      37.395  34.558  41.429  1.00  0.00    -0.237 OA
ATOM     80  O   UNL A   1      36.430  32.846  39.924  1.00  0.00    -0.237 OA
ATOM     81  O   UNL A   1      38.407  32.312  41.297  1.00  0.00    -0.744 OA
ENDBRANCH  74  78
ENDBRANCH  47  71
BRANCH  59  82
ATOM     82  C   UNL A   1      44.199  28.597  35.399  1.00  0.00     0.023 A 
ATOM     83  C   UNL A   1      44.125  27.539  36.321  1.00  0.00     0.031 A 
ATOM     84  C   UNL A   1      45.455  29.188  35.171  1.00  0.00     0.131 A 
ATOM     85  C   UNL A   1      45.270  27.154  37.036  1.00  0.00     0.055 A 
ATOM     86  C   UNL A   1      46.605  28.749  35.829  1.00  0.00     0.041 A 
ATOM     87  F   UNL A   1      45.586  30.205  34.305  1.00  0.00    -0.206 F 
ATOM     88  C   UNL A   1      46.513  27.739  36.780  1.00  0.00     0.022 A 
BRANCH  85  89
ATOM     89  S   UNL A   1      45.087  25.966  38.394  1.00  0.00     0.124 S 
ATOM     90  O   UNL A   1      44.518  26.798  39.449  1.00  0.00    -0.237 OA
ATOM     91  O   UNL A   1      44.192  24.968  37.818  1.00  0.00    -0.237 OA
ATOM     92  O   UNL A   1      46.454  25.507  38.634  1.00  0.00    -0.744 OA
ENDBRANCH  85  89
ENDBRANCH  59  82
ENDBRANCH  33  34
ENDBRANCH  25  28
ENDBRANCH  23  24
ENDBRANCH   1  23
TORSDOF 15
ENDMDL
MODEL 3
REMARK VINA RESULT:     -11.8      3.654      8.854
REMARK SMILES Cc1sc(C(=O)NCCCNC(=O)c2ccc(-c3c4nc(c(-c5cc(S(=O)(=O)[O-])ccc5F)c5ccc([nH]5)c(-c5cc(S(=O)(=O)[O-])ccc5F)c5nc(c(-c6cc(S(=O)(=O)[O-])ccc6F)c6ccc3[nH]6)C=C5)C=C4)cc2)cc1S(=O)(=O)N1C[C@@H](C)[C@H](C)C1
REMARK SMILES IDX 9 1 8 2 7 3 5 4 6 5 4 7 1 8 2 9 3 10 78 11 77 12 79 13 80 14
REMARK SMILES IDX 81 15 82 16 83 17 88 18 84 19 86 20 85 21 87 22 10 23 11 24
REMARK SMILES IDX 12 25 13 27 14 28 15 29 76 30 16 31 75 32 17 33 18 34 19 35
REMARK SMILES IDX 69 36 20 37 74 38 68 39 70 40 21 41 73 42 67 43 66 44 22 46
REMARK SMILES IDX 54 47 34 48 53 49 35 50 38 51 52 52 71 53 36 54 37 55 51 57
REMARK SMILES IDX 72 58 39 59 23 60 24 61 32 62 25 63 31 64 33 65 30 66 26 67
REMARK SMILES IDX 27 68 28 69 29 70 55 71 56 72 64 73 57 74 63 75 65 76 62 77
REMARK SMILES IDX 58 78 59 79 60 80 61 81 40 82 41 83 49 84 42 85 48 86 50 87
REMARK SMILES IDX 47 88 43 89 44 90 45 91 46 92
REMARK H PARENT 7 6 11 26 70 45 38 56
REMARK Flexibility Score: inf
ROOT
ATOM      1  C   UNL A   1      31.306  32.112  26.502  1.00  0.00     0.042 C 
ENDROOT
BRANCH   1   2
ATOM      2  C   UNL A   1      31.412  30.789  25.750  1.00  0.00     0.118 C 
BRANCH   2   3
ATOM      3  N   UNL A   1      30.483  30.752  24.640  1.00  0.00    -0.351 N 
ATOM      4  C   UNL A   1      30.211  29.790  23.702  1.00  0.00     0.261 C 
ATOM      5  O   UNL A   1      29.353  30.104  22.871  1.00  0.00    -0.268 OA
ATOM      6  H   UNL A   1      29.947  31.572  24.540  1.00  0.00     0.163 HD
BRANCH   4   7
ATOM      7  C   UNL A   1      30.858  28.487  23.733  1.00  0.00     0.093 A 
ATOM      8  C   UNL A   1      33.585  25.962  22.501  1.00  0.00     0.058 C 
ATOM      9  C   UNL A   1      32.428  26.631  23.137  1.00  0.00     0.022 A 
ATOM     10  S   UNL A   1      32.286  28.310  22.803  1.00  0.00    -0.134 S 
ATOM     11  C   UNL A   1      31.409  26.202  23.968  1.00  0.00     0.097 A 
ATOM     12  C   UNL A   1      30.579  27.303  24.382  1.00  0.00     0.047 A 
BRANCH  11  13
ATOM     13  S   UNL A   1      30.999  24.595  24.517  1.00  0.00     0.244 S 
ATOM     14  O   UNL A   1      30.240  24.856  25.722  1.00  0.00    -0.207 OA
ATOM     15  O   UNL A   1      30.381  24.019  23.343  1.00  0.00    -0.207 OA
BRANCH  13  16
ATOM     16  N   UNL A   1      32.299  23.653  24.923  1.00  0.00    -0.197 NA
ATOM     17  C   UNL A   1      33.068  23.864  26.145  1.00  0.00     0.106 C 
ATOM     18  C   UNL A   1      32.554  22.364  24.294  1.00  0.00     0.106 C 
ATOM     19  C   UNL A   1      33.897  22.583  26.315  1.00  0.00     0.005 C 
ATOM     20  C   UNL A   1      33.253  21.543  25.378  1.00  0.00     0.005 C 
ATOM     21  C   UNL A   1      33.917  22.115  27.769  1.00  0.00     0.009 C 
ATOM     22  C   UNL A   1      34.262  20.564  24.794  1.00  0.00     0.009 C 
ENDBRANCH  13  16
ENDBRANCH  11  13
ENDBRANCH   4   7
ENDBRANCH   2   3
ENDBRANCH   1   2
BRANCH   1  23
ATOM     23  C   UNL A   1      32.615  32.508  27.181  1.00  0.00     0.118 C 
BRANCH  23  24
ATOM     24  N   UNL A   1      32.617  33.915  27.557  1.00  0.00    -0.352 N 
ATOM     25  C   UNL A   1      33.251  34.550  28.591  1.00  0.00     0.251 C 
ATOM     26  H   UNL A   1      32.078  34.502  26.977  1.00  0.00     0.163 HD
ATOM     27  O   UNL A   1      32.874  35.670  28.924  1.00  0.00    -0.269 OA
BRANCH  25  28
ATOM     28  C   UNL A   1      34.379  33.899  29.287  1.00  0.00     0.039 A 
ATOM     29  C   UNL A   1      34.106  32.944  30.269  1.00  0.00     0.014 A 
ATOM     30  C   UNL A   1      35.700  34.275  29.021  1.00  0.00     0.014 A 
ATOM     31  C   UNL A   1      35.158  32.347  30.962  1.00  0.00     0.010 A 
ATOM     32  C   UNL A   1      36.750  33.615  29.650  1.00  0.00     0.010 A 
ATOM     33  C   UNL A   1      36.490  32.662  30.643  1.00  0.00    -0.014 A 
BRANCH  33  34
ATOM     34  C   UNL A   1      37.618  32.027  31.369  1.00  0.00     0.031 A 
ATOM     35  C   UNL A   1      38.401  30.918  30.720  1.00  0.00     0.074 A 
ATOM     36  C   UNL A   1      37.907  32.428  32.622  1.00  0.00     0.049 A 
ATOM     37  N   UNL A   1      39.391  30.211  31.202  1.00  0.00    -0.248 NA
ATOM     38  C   UNL A   1      37.995  30.528  29.360  1.00  0.00     0.031 C 
ATOM     39  C   UNL A   1      37.187  33.466  33.363  1.00  0.00     0.029 A 
ATOM     40  N   UNL A   1      38.881  32.015  33.494  1.00  0.00    -0.354 N 
ATOM     41  C   UNL A   1      39.719  29.291  30.212  1.00  0.00     0.074 A 
ATOM     42  C   UNL A   1      38.773  29.482  29.134  1.00  0.00     0.031 C 
ATOM     43  C   UNL A   1      37.766  33.634  34.561  1.00  0.00     0.029 A 
ATOM     44  C   UNL A   1      38.866  32.684  34.696  1.00  0.00     0.049 A 
ATOM     45  H   UNL A   1      39.530  31.306  33.280  1.00  0.00     0.167 HD
ATOM     46  C   UNL A   1      40.732  28.390  30.193  1.00  0.00     0.034 A 
ATOM     47  C   UNL A   1      39.645  32.541  35.786  1.00  0.00     0.034 A 
ATOM     48  C   UNL A   1      41.669  28.224  31.278  1.00  0.00     0.049 A 
ATOM     49  C   UNL A   1      40.752  31.518  35.749  1.00  0.00     0.074 A 
ATOM     50  C   UNL A   1      42.759  27.376  31.355  1.00  0.00     0.029 A 
ATOM     51  N   UNL A   1      41.622  28.917  32.483  1.00  0.00    -0.354 N 
ATOM     52  N   UNL A   1      41.081  30.687  34.786  1.00  0.00    -0.248 NA
ATOM     53  C   UNL A   1      41.603  31.426  36.941  1.00  0.00     0.031 C 
ATOM     54  C   UNL A   1      43.323  27.500  32.629  1.00  0.00     0.029 A 
ATOM     55  C   UNL A   1      42.645  28.493  33.318  1.00  0.00     0.049 A 
ATOM     56  H   UNL A   1      40.959  29.609  32.710  1.00  0.00     0.167 HD
ATOM     57  C   UNL A   1      42.202  30.001  35.244  1.00  0.00     0.074 A 
ATOM     58  C   UNL A   1      42.500  30.530  36.559  1.00  0.00     0.031 C 
ATOM     59  C   UNL A   1      42.923  29.025  34.632  1.00  0.00     0.034 A 
BRANCH  46  60
ATOM     60  C   UNL A   1      40.855  27.503  28.974  1.00  0.00     0.023 A 
ATOM     61  C   UNL A   1      41.812  27.747  27.973  1.00  0.00     0.031 A 
ATOM     62  C   UNL A   1      39.983  26.415  28.794  1.00  0.00     0.131 A 
ATOM     63  C   UNL A   1      41.822  26.968  26.806  1.00  0.00     0.055 A 
ATOM     64  C   UNL A   1      40.056  25.587  27.670  1.00  0.00     0.041 A 
ATOM     65  F   UNL A   1      39.030  26.143  29.701  1.00  0.00    -0.206 F 
ATOM     66  C   UNL A   1      40.969  25.873  26.660  1.00  0.00     0.022 A 
BRANCH  63  67
ATOM     67  S   UNL A   1      42.858  27.505  25.416  1.00  0.00     0.124 S 
ATOM     68  O   UNL A   1      42.954  26.278  24.629  1.00  0.00    -0.237 OA
ATOM     69  O   UNL A   1      42.068  28.581  24.831  1.00  0.00    -0.237 OA
ATOM     70  O   UNL A   1      44.102  27.922  26.059  1.00  0.00    -0.744 OA
ENDBRANCH  63  67
ENDBRANCH  46  60
BRANCH  47  71
ATOM     71  C   UNL A   1      39.414  33.379  36.998  1.00  0.00     0.023 A 
ATOM     72  C   UNL A   1      40.126  34.572  37.201  1.00  0.00     0.031 A 
ATOM     73  C   UNL A   1      38.506  32.977  37.993  1.00  0.00     0.131 A 
ATOM     74  C   UNL A   1      39.959  35.292  38.394  1.00  0.00     0.055 A 
ATOM     75  C   UNL A   1      38.299  33.729  39.151  1.00  0.00     0.041 A 
ATOM     76  F   UNL A   1      37.795  31.847  37.849  1.00  0.00    -0.206 F 
ATOM     77  C   UNL A   1      39.040  34.887  39.364  1.00  0.00     0.022 A 
BRANCH  74  78
ATOM     78  S   UNL A   1      41.039  36.716  38.706  1.00  0.00     0.124 S 
ATOM     79  O   UNL A   1      40.068  37.774  38.959  1.00  0.00    -0.237 OA
ATOM     80  O   UNL A   1      41.811  36.265  39.859  1.00  0.00    -0.237 OA
ATOM     81  O   UNL A   1      41.796  36.846  37.463  1.00  0.00    -0.744 OA
ENDBRANCH  74  78
ENDBRANCH  47  71
BRANCH  59  82
ATOM     82  C   UNL A   1      44.139  28.510  35.368  1.00  0.00     0.023 A 
ATOM     83  C   UNL A   1      44.049  27.489  36.329  1.00  0.00     0.031 A 
ATOM     84  C   UNL A   1      45.403  29.076  35.123  1.00  0.00     0.131 A 
ATOM     85  C   UNL A   1      45.186  27.118  37.063  1.00  0.00     0.055 A 
ATOM     86  C   UNL A   1      46.545  28.649  35.802  1.00  0.00     0.041 A 
ATOM     87  F   UNL A   1      45.550  30.058  34.219  1.00  0.00    -0.206 F 
ATOM     88  C   UNL A   1      46.437  27.677  36.791  1.00  0.00     0.022 A 
BRANCH  85  89
ATOM     89  S   UNL A   1      44.983  25.985  38.465  1.00  0.00     0.124 S 
ATOM     90  O   UNL A   1      46.283  26.081  39.122  1.00  0.00    -0.237 OA
ATOM     91  O   UNL A   1      43.861  26.577  39.185  1.00  0.00    -0.237 OA
ATOM     92  O   UNL A   1      44.703  24.699  37.829  1.00  0.00    -0.744 OA
ENDBRANCH  85  89
ENDBRANCH  59  82
ENDBRANCH  33  34
ENDBRANCH  25  28
ENDBRANCH  23  24
ENDBRANCH   1  23
TORSDOF 15
ENDMDL
