MODEL 1
REMARK VINA RESULT:     -13.7      0.000      0.000
REMARK SMILES O=C(NCCCNC(=O)c1ccc(-c2c3nc(c(-c4cc(S(=O)(=O)[O-])ccc4F)c4ccc([nH]4)c(-c4cc(S(=O)(=O)[O-])ccc4F)c4nc(c(-c5cc(S(=O)(=O)[O-])ccc5F)c5ccc2[nH]5)C=C4)C=C3)cc1)C1=Cc2c(ccc(Cl)c2Oc2ccccc2)O[C@H]1C(F)(F)F
REMARK SMILES IDX 5 1 4 2 3 3 1 4 2 5 73 7 74 8 90 9 75 10 89 11 76 12 81 13
REMARK SMILES IDX 77 14 79 15 78 16 80 17 91 18 92 19 93 20 94 21 82 22 83 23
REMARK SMILES IDX 84 24 88 25 85 26 87 27 86 28 6 29 7 30 8 31 9 33 10 34
REMARK SMILES IDX 11 35 72 36 12 37 71 38 13 39 14 40 15 41 65 42 16 43 70 44
REMARK SMILES IDX 64 45 66 46 17 47 69 48 63 49 62 50 18 52 50 53 30 54 49 55
REMARK SMILES IDX 31 56 34 57 48 58 67 59 32 60 33 61 47 63 68 64 35 65 19 66
REMARK SMILES IDX 20 67 28 68 21 69 27 70 29 71 26 72 22 73 23 74 24 75 25 76
REMARK SMILES IDX 51 77 52 78 60 79 53 80 59 81 61 82 58 83 54 84 55 85 56 86
REMARK SMILES IDX 57 87 36 88 37 89 45 90 38 91 44 92 46 93 43 94 39 95 40 96
REMARK SMILES IDX 41 97 42 98
REMARK H PARENT 3 6 7 32 66 51 34 62
REMARK Flexibility Score: inf
ROOT
ATOM      1  C   UNL A   1      31.454  28.014  26.907  1.00  0.00     0.042 C 
ENDROOT
BRANCH   1   2
ATOM      2  C   UNL A   1      31.082  26.774  26.108  1.00  0.00     0.118 C 
BRANCH   2   3
ATOM      3  N   UNL A   1      31.239  25.548  26.876  1.00  0.00    -0.352 N 
ATOM      4  O   UNL A   1      31.596  23.389  27.355  1.00  0.00    -0.270 OA
ATOM      5  C   UNL A   1      31.639  24.294  26.532  1.00  0.00     0.251 C 
ATOM      6  H   UNL A   1      31.010  25.645  27.829  1.00  0.00     0.163 HD
BRANCH   5   7
ATOM      7  C   UNL A   1      32.064  23.984  25.156  1.00  0.00     0.067 C 
ATOM      8  C   UNL A   1      32.382  22.743  24.775  1.00  0.00     0.029 C 
ATOM      9  C   UNL A   1      32.372  25.135  24.257  1.00  0.00     0.314 C 
ATOM     10  C   UNL A   1      33.822  22.666  24.417  1.00  0.00     0.061 A 
ATOM     11  O   UNL A   1      33.702  25.012  23.668  1.00  0.00    -0.475 OA
ATOM     12  C   UNL A   1      34.408  23.854  23.919  1.00  0.00     0.131 A 
ATOM     13  C   UNL A   1      34.631  21.547  24.739  1.00  0.00     0.156 A 
ATOM     14  C   UNL A   1      35.785  23.938  23.740  1.00  0.00     0.049 A 
ATOM     15  C   UNL A   1      36.024  21.675  24.579  1.00  0.00     0.084 A 
ATOM     16  C   UNL A   1      36.592  22.858  24.088  1.00  0.00     0.028 A 
ATOM     17  Cl  UNL A   1      37.102  20.405  25.045  1.00  0.00    -0.080 Cl
BRANCH   9  18
ATOM     18  C   UNL A   1      31.304  25.294  23.162  1.00  0.00     0.429 C 
ATOM     19  F   UNL A   1      31.105  26.587  22.811  1.00  0.00    -0.167 F 
ATOM     20  F   UNL A   1      31.653  24.631  22.034  1.00  0.00    -0.167 F 
ATOM     21  F   UNL A   1      30.101  24.808  23.557  1.00  0.00    -0.167 F 
ENDBRANCH   9  18
BRANCH  13  22
ATOM     22  O   UNL A   1      34.221  20.353  25.328  1.00  0.00    -0.455 OA
BRANCH  22  23
ATOM     23  C   UNL A   1      33.797  19.315  24.540  1.00  0.00     0.127 A 
ATOM     24  C   UNL A   1      32.620  19.461  23.801  1.00  0.00     0.047 A 
ATOM     25  C   UNL A   1      34.548  18.141  24.462  1.00  0.00     0.047 A 
ATOM     26  C   UNL A   1      32.266  18.479  22.876  1.00  0.00     0.004 A 
ATOM     27  C   UNL A   1      34.183  17.158  23.541  1.00  0.00     0.004 A 
ATOM     28  C   UNL A   1      33.058  17.339  22.733  1.00  0.00     0.000 A 
ENDBRANCH  22  23
ENDBRANCH  13  22
ENDBRANCH   5   7
ENDBRANCH   2   3
ENDBRANCH   1   2
BRANCH   1  29
ATOM     29  C   UNL A   1      32.244  29.024  26.087  1.00  0.00     0.118 C 
BRANCH  29  30
ATOM     30  N   UNL A   1      31.884  30.417  26.313  1.00  0.00    -0.352 N 
ATOM     31  C   UNL A   1      32.596  31.421  26.936  1.00  0.00     0.251 C 
ATOM     32  H   UNL A   1      31.000  30.681  25.970  1.00  0.00     0.163 HD
ATOM     33  O   UNL A   1      32.086  32.535  27.035  1.00  0.00    -0.269 OA
BRANCH  31  34
ATOM     34  C   UNL A   1      33.929  31.160  27.538  1.00  0.00     0.039 A 
ATOM     35  C   UNL A   1      34.705  32.246  27.958  1.00  0.00     0.014 A 
ATOM     36  C   UNL A   1      34.415  29.866  27.715  1.00  0.00     0.014 A 
ATOM     37  C   UNL A   1      35.911  32.027  28.633  1.00  0.00     0.010 A 
ATOM     38  C   UNL A   1      35.544  29.648  28.498  1.00  0.00     0.010 A 
ATOM     39  C   UNL A   1      36.318  30.724  28.956  1.00  0.00    -0.014 A 
BRANCH  39  40
ATOM     40  C   UNL A   1      37.562  30.445  29.727  1.00  0.00     0.031 A 
ATOM     41  C   UNL A   1      38.646  29.597  29.109  1.00  0.00     0.074 A 
ATOM     42  C   UNL A   1      37.679  30.862  31.004  1.00  0.00     0.049 A 
ATOM     43  N   UNL A   1      39.718  29.082  29.657  1.00  0.00    -0.248 NA
ATOM     44  C   UNL A   1      38.458  29.221  27.700  1.00  0.00     0.031 C 
ATOM     45  C   UNL A   1      36.674  31.626  31.746  1.00  0.00     0.029 A 
ATOM     46  N   UNL A   1      38.694  30.690  31.910  1.00  0.00    -0.354 N 
ATOM     47  C   UNL A   1      40.292  28.276  28.678  1.00  0.00     0.074 A 
ATOM     48  C   UNL A   1      39.409  28.316  27.533  1.00  0.00     0.031 C 
ATOM     49  C   UNL A   1      37.138  31.889  32.979  1.00  0.00     0.029 A 
ATOM     50  C   UNL A   1      38.454  31.278  33.131  1.00  0.00     0.049 A 
ATOM     51  H   UNL A   1      39.519  30.193  31.706  1.00  0.00     0.167 HD
ATOM     52  C   UNL A   1      41.463  27.589  28.717  1.00  0.00     0.034 A 
ATOM     53  C   UNL A   1      39.210  31.320  34.245  1.00  0.00     0.034 A 
ATOM     54  C   UNL A   1      42.366  27.621  29.842  1.00  0.00     0.049 A 
ATOM     55  C   UNL A   1      40.556  30.642  34.232  1.00  0.00     0.074 A 
ATOM     56  C   UNL A   1      43.607  27.024  29.977  1.00  0.00     0.029 A 
ATOM     57  N   UNL A   1      42.129  28.312  31.025  1.00  0.00    -0.354 N 
ATOM     58  N   UNL A   1      41.101  29.906  33.289  1.00  0.00    -0.248 NA
ATOM     59  C   UNL A   1      41.395  30.818  35.422  1.00  0.00     0.031 C 
ATOM     60  C   UNL A   1      44.105  27.327  31.250  1.00  0.00     0.029 A 
ATOM     61  C   UNL A   1      43.201  28.158  31.890  1.00  0.00     0.049 A 
ATOM     62  H   UNL A   1      41.318  28.835  31.219  1.00  0.00     0.167 HD
ATOM     63  C   UNL A   1      42.360  29.555  33.766  1.00  0.00     0.074 A 
ATOM     64  C   UNL A   1      42.498  30.177  35.068  1.00  0.00     0.031 C 
ATOM     65  C   UNL A   1      43.316  28.786  33.185  1.00  0.00     0.034 A 
BRANCH  52  66
ATOM     66  C   UNL A   1      41.809  26.745  27.510  1.00  0.00     0.023 A 
ATOM     67  C   UNL A   1      41.529  25.368  27.467  1.00  0.00     0.031 A 
ATOM     68  C   UNL A   1      42.494  27.306  26.418  1.00  0.00     0.131 A 
ATOM     69  C   UNL A   1      42.031  24.581  26.419  1.00  0.00     0.055 A 
ATOM     70  C   UNL A   1      42.902  26.534  25.326  1.00  0.00     0.041 A 
ATOM     71  F   UNL A   1      42.806  28.612  26.403  1.00  0.00    -0.206 F 
ATOM     72  C   UNL A   1      42.692  25.158  25.334  1.00  0.00     0.022 A 
BRANCH  69  73
ATOM     73  S   UNL A   1      41.968  22.776  26.592  1.00  0.00     0.124 S 
ATOM     74  O   UNL A   1      42.985  22.546  27.616  1.00  0.00    -0.237 OA
ATOM     75  O   UNL A   1      40.588  22.545  26.999  1.00  0.00    -0.237 OA
ATOM     76  O   UNL A   1      42.317  22.291  25.259  1.00  0.00    -0.744 OA
ENDBRANCH  69  73
ENDBRANCH  52  66
BRANCH  53  77
ATOM     77  C   UNL A   1      38.735  32.046  35.454  1.00  0.00     0.023 A 
ATOM     78  C   UNL A   1      38.217  31.346  36.556  1.00  0.00     0.031 A 
ATOM     79  C   UNL A   1      38.765  33.450  35.519  1.00  0.00     0.131 A 
ATOM     80  C   UNL A   1      37.706  32.049  37.657  1.00  0.00     0.055 A 
ATOM     81  C   UNL A   1      38.295  34.145  36.636  1.00  0.00     0.041 A 
ATOM     82  F   UNL A   1      39.266  34.166  34.500  1.00  0.00    -0.206 F 
ATOM     83  C   UNL A   1      37.751  33.445  37.708  1.00  0.00     0.022 A 
BRANCH  80  84
ATOM     84  S   UNL A   1      36.921  31.113  38.996  1.00  0.00     0.124 S 
ATOM     85  O   UNL A   1      37.908  31.235  40.064  1.00  0.00    -0.237 OA
ATOM     86  O   UNL A   1      35.675  31.846  39.187  1.00  0.00    -0.237 OA
ATOM     87  O   UNL A   1      36.773  29.772  38.432  1.00  0.00    -0.744 OA
ENDBRANCH  80  84
ENDBRANCH  53  77
BRANCH  65  88
ATOM     88  C   UNL A   1      44.609  28.627  33.943  1.00  0.00     0.023 A 
ATOM     89  C   UNL A   1      44.798  27.582  34.865  1.00  0.00     0.031 A 
ATOM     90  C   UNL A   1      45.648  29.556  33.769  1.00  0.00     0.131 A 
ATOM     91  C   UNL A   1      45.974  27.530  35.626  1.00  0.00     0.055 A 
ATOM     92  C   UNL A   1      46.839  29.466  34.489  1.00  0.00     0.041 A 
ATOM     93  F   UNL A   1      45.517  30.572  32.902  1.00  0.00    -0.206 F 
ATOM     94  C   UNL A   1      47.000  28.458  35.436  1.00  0.00     0.022 A 
BRANCH  91  95
ATOM     95  S   UNL A   1      46.097  26.297  36.951  1.00  0.00     0.124 S 
ATOM     96  O   UNL A   1      47.016  25.320  36.374  1.00  0.00    -0.237 OA
ATOM     97  O   UNL A   1      46.622  27.086  38.061  1.00  0.00    -0.237 OA
ATOM     98  O   UNL A   1      44.722  25.831  37.116  1.00  0.00    -0.744 OA
ENDBRANCH  91  95
ENDBRANCH  65  88
ENDBRANCH  39  40
ENDBRANCH  31  34
ENDBRANCH  29  30
ENDBRANCH   1  29
TORSDOF 16
ENDMDL
MODEL 2
REMARK VINA RESULT:     -13.6      1.613      7.431
REMARK SMILES O=C(NCCCNC(=O)c1ccc(-c2c3nc(c(-c4cc(S(=O)(=O)[O-])ccc4F)c4ccc([nH]4)c(-c4cc(S(=O)(=O)[O-])ccc4F)c4nc(c(-c5cc(S(=O)(=O)[O-])ccc5F)c5ccc2[nH]5)C=C4)C=C3)cc1)C1=Cc2c(ccc(Cl)c2Oc2ccccc2)O[C@H]1C(F)(F)F
REMARK SMILES IDX 5 1 4 2 3 3 1 4 2 5 73 7 74 8 90 9 75 10 89 11 76 12 81 13
REMARK SMILES IDX 77 14 79 15 78 16 80 17 91 18 92 19 93 20 94 21 82 22 83 23
REMARK SMILES IDX 84 24 88 25 85 26 87 27 86 28 6 29 7 30 8 31 9 33 10 34
REMARK SMILES IDX 11 35 72 36 12 37 71 38 13 39 14 40 15 41 65 42 16 43 70 44
REMARK SMILES IDX 64 45 66 46 17 47 69 48 63 49 62 50 18 52 50 53 30 54 49 55
REMARK SMILES IDX 31 56 34 57 48 58 67 59 32 60 33 61 47 63 68 64 35 65 19 66
REMARK SMILES IDX 20 67 28 68 21 69 27 70 29 71 26 72 22 73 23 74 24 75 25 76
REMARK SMILES IDX 51 77 52 78 60 79 53 80 59 81 61 82 58 83 54 84 55 85 56 86
REMARK SMILES IDX 57 87 36 88 37 89 45 90 38 91 44 92 46 93 43 94 39 95 40 96
REMARK SMILES IDX 41 97 42 98
REMARK H PARENT 3 6 7 32 66 51 34 62
REMARK Flexibility Score: inf
ROOT
ATOM      1  C   UNL A   1      31.738  28.301  26.914  1.00  0.00     0.042 C 
ENDROOT
BRANCH   1   2
ATOM      2  C   UNL A   1      31.283  27.114  26.079  1.00  0.00     0.118 C 
BRANCH   2   3
ATOM      3  N   UNL A   1      31.274  25.871  26.836  1.00  0.00    -0.352 N 
ATOM      4  O   UNL A   1      31.346  23.680  27.296  1.00  0.00    -0.270 OA
ATOM      5  C   UNL A   1      31.512  24.578  26.482  1.00  0.00     0.251 C 
ATOM      6  H   UNL A   1      31.052  25.988  27.788  1.00  0.00     0.163 HD
BRANCH   5   7
ATOM      7  C   UNL A   1      31.904  24.229  25.106  1.00  0.00     0.067 C 
ATOM      8  C   UNL A   1      32.178  22.971  24.746  1.00  0.00     0.029 C 
ATOM      9  C   UNL A   1      32.232  25.351  24.179  1.00  0.00     0.314 C 
ATOM     10  C   UNL A   1      33.609  22.842  24.366  1.00  0.00     0.061 A 
ATOM     11  O   UNL A   1      33.548  25.176  23.572  1.00  0.00    -0.475 OA
ATOM     12  C   UNL A   1      34.222  24.002  23.835  1.00  0.00     0.131 A 
ATOM     13  C   UNL A   1      34.388  21.706  24.698  1.00  0.00     0.156 A 
ATOM     14  C   UNL A   1      35.597  24.041  23.632  1.00  0.00     0.049 A 
ATOM     15  C   UNL A   1      35.781  21.788  24.513  1.00  0.00     0.084 A 
ATOM     16  C   UNL A   1      36.377  22.943  23.990  1.00  0.00     0.028 A 
ATOM     17  Cl  UNL A   1      36.828  20.495  24.988  1.00  0.00    -0.080 Cl
BRANCH   9  18
ATOM     18  C   UNL A   1      31.152  25.522  23.099  1.00  0.00     0.429 C 
ATOM     19  F   UNL A   1      30.955  26.817  22.755  1.00  0.00    -0.167 F 
ATOM     20  F   UNL A   1      31.482  24.861  21.964  1.00  0.00    -0.167 F 
ATOM     21  F   UNL A   1      29.950  25.042  23.507  1.00  0.00    -0.167 F 
ENDBRANCH   9  18
BRANCH  13  22
ATOM     22  O   UNL A   1      33.952  20.537  25.317  1.00  0.00    -0.455 OA
BRANCH  22  23
ATOM     23  C   UNL A   1      33.631  19.443  24.558  1.00  0.00     0.127 A 
ATOM     24  C   UNL A   1      32.524  19.508  23.706  1.00  0.00     0.047 A 
ATOM     25  C   UNL A   1      34.417  18.291  24.619  1.00  0.00     0.047 A 
ATOM     26  C   UNL A   1      32.284  18.464  22.814  1.00  0.00     0.004 A 
ATOM     27  C   UNL A   1      34.165  17.245  23.730  1.00  0.00     0.004 A 
ATOM     28  C   UNL A   1      33.116  17.343  22.813  1.00  0.00     0.000 A 
ENDBRANCH  22  23
ENDBRANCH  13  22
ENDBRANCH   5   7
ENDBRANCH   2   3
ENDBRANCH   1   2
BRANCH   1  29
ATOM     29  C   UNL A   1      32.630  29.257  26.135  1.00  0.00     0.118 C 
BRANCH  29  30
ATOM     30  N   UNL A   1      32.452  30.667  26.456  1.00  0.00    -0.352 N 
ATOM     31  C   UNL A   1      33.273  31.521  27.161  1.00  0.00     0.251 C 
ATOM     32  H   UNL A   1      31.618  31.069  26.120  1.00  0.00     0.163 HD
ATOM     33  O   UNL A   1      32.912  32.684  27.332  1.00  0.00    -0.269 OA
BRANCH  31  34
ATOM     34  C   UNL A   1      34.545  31.044  27.762  1.00  0.00     0.039 A 
ATOM     35  C   UNL A   1      35.544  31.978  28.060  1.00  0.00     0.014 A 
ATOM     36  C   UNL A   1      34.760  29.699  28.058  1.00  0.00     0.014 A 
ATOM     37  C   UNL A   1      36.703  31.575  28.733  1.00  0.00     0.010 A 
ATOM     38  C   UNL A   1      35.848  29.324  28.839  1.00  0.00     0.010 A 
ATOM     39  C   UNL A   1      36.843  30.251  29.176  1.00  0.00    -0.014 A 
BRANCH  39  40
ATOM     40  C   UNL A   1      38.031  29.792  29.949  1.00  0.00     0.031 A 
ATOM     41  C   UNL A   1      38.251  30.305  31.351  1.00  0.00     0.074 A 
ATOM     42  C   UNL A   1      38.957  29.003  29.368  1.00  0.00     0.049 A 
ATOM     43  N   UNL A   1      39.296  30.184  32.129  1.00  0.00    -0.248 NA
ATOM     44  C   UNL A   1      37.173  31.125  31.923  1.00  0.00     0.031 C 
ATOM     45  C   UNL A   1      38.903  28.496  27.995  1.00  0.00     0.029 A 
ATOM     46  N   UNL A   1      40.135  28.497  29.858  1.00  0.00    -0.354 N 
ATOM     47  C   UNL A   1      39.023  30.963  33.251  1.00  0.00     0.074 A 
ATOM     48  C   UNL A   1      37.749  31.605  33.013  1.00  0.00     0.031 C 
ATOM     49  C   UNL A   1      39.977  27.722  27.766  1.00  0.00     0.029 A 
ATOM     50  C   UNL A   1      40.817  27.710  28.959  1.00  0.00     0.049 A 
ATOM     51  H   UNL A   1      40.460  28.678  30.769  1.00  0.00     0.167 HD
ATOM     52  C   UNL A   1      39.752  31.107  34.388  1.00  0.00     0.034 A 
ATOM     53  C   UNL A   1      41.987  27.054  29.084  1.00  0.00     0.034 A 
ATOM     54  C   UNL A   1      40.985  30.400  34.636  1.00  0.00     0.049 A 
ATOM     55  C   UNL A   1      42.728  27.139  30.393  1.00  0.00     0.074 A 
ATOM     56  C   UNL A   1      41.779  30.410  35.769  1.00  0.00     0.029 A 
ATOM     57  N   UNL A   1      41.593  29.534  33.735  1.00  0.00    -0.354 N 
ATOM     58  N   UNL A   1      42.445  27.856  31.458  1.00  0.00    -0.248 NA
ATOM     59  C   UNL A   1      43.931  26.311  30.525  1.00  0.00     0.031 C 
ATOM     60  C   UNL A   1      42.881  29.576  35.542  1.00  0.00     0.029 A 
ATOM     61  C   UNL A   1      42.748  29.002  34.289  1.00  0.00     0.049 A 
ATOM     62  H   UNL A   1      41.253  29.327  32.835  1.00  0.00     0.167 HD
ATOM     63  C   UNL A   1      43.424  27.541  32.395  1.00  0.00     0.074 A 
ATOM     64  C   UNL A   1      44.288  26.557  31.776  1.00  0.00     0.031 C 
ATOM     65  C   UNL A   1      43.597  28.024  33.652  1.00  0.00     0.034 A 
BRANCH  52  66
ATOM     66  C   UNL A   1      39.227  32.073  35.427  1.00  0.00     0.023 A 
ATOM     67  C   UNL A   1      39.704  33.392  35.517  1.00  0.00     0.031 A 
ATOM     68  C   UNL A   1      38.291  31.650  36.388  1.00  0.00     0.131 A 
ATOM     69  C   UNL A   1      39.338  34.199  36.605  1.00  0.00     0.055 A 
ATOM     70  C   UNL A   1      37.852  32.495  37.412  1.00  0.00     0.041 A 
ATOM     71  F   UNL A   1      37.808  30.398  36.368  1.00  0.00    -0.206 F 
ATOM     72  C   UNL A   1      38.394  33.770  37.538  1.00  0.00     0.022 A 
BRANCH  69  73
ATOM     73  S   UNL A   1      40.256  35.741  36.880  1.00  0.00     0.124 S 
ATOM     74  O   UNL A   1      39.654  36.619  35.879  1.00  0.00    -0.237 OA
ATOM     75  O   UNL A   1      39.946  36.050  38.270  1.00  0.00    -0.237 OA
ATOM     76  O   UNL A   1      41.643  35.366  36.616  1.00  0.00    -0.744 OA
ENDBRANCH  69  73
ENDBRANCH  52  66
BRANCH  53  77
ATOM     77  C   UNL A   1      42.521  26.239  27.958  1.00  0.00     0.023 A 
ATOM     78  C   UNL A   1      42.072  24.925  27.747  1.00  0.00     0.031 A 
ATOM     79  C   UNL A   1      43.507  26.747  27.094  1.00  0.00     0.131 A 
ATOM     80  C   UNL A   1      42.638  24.146  26.727  1.00  0.00     0.055 A 
ATOM     81  C   UNL A   1      44.036  25.983  26.052  1.00  0.00     0.041 A 
ATOM     82  F   UNL A   1      43.958  28.002  27.244  1.00  0.00    -0.206 F 
ATOM     83  C   UNL A   1      43.611  24.670  25.872  1.00  0.00     0.022 A 
BRANCH  80  84
ATOM     84  S   UNL A   1      42.129  22.413  26.576  1.00  0.00     0.124 S 
ATOM     85  O   UNL A   1      40.678  22.533  26.496  1.00  0.00    -0.237 OA
ATOM     86  O   UNL A   1      42.808  22.005  25.350  1.00  0.00    -0.237 OA
ATOM     87  O   UNL A   1      42.639  21.800  27.801  1.00  0.00    -0.744 OA
ENDBRANCH  80  84
ENDBRANCH  53  77
BRANCH  65  88
ATOM     88  C   UNL A   1      44.739  27.445  34.447  1.00  0.00     0.023 A 
ATOM     89  C   UNL A   1      44.601  26.249  35.172  1.00  0.00     0.031 A 
ATOM     90  C   UNL A   1      45.969  28.121  34.509  1.00  0.00     0.131 A 
ATOM     91  C   UNL A   1      45.654  25.800  35.982  1.00  0.00     0.055 A 
ATOM     92  C   UNL A   1      47.033  27.639  35.271  1.00  0.00     0.041 A 
ATOM     93  F   UNL A   1      46.153  29.267  33.834  1.00  0.00    -0.206 F 
ATOM     94  C   UNL A   1      46.872  26.481  36.028  1.00  0.00     0.022 A 
BRANCH  91  95
ATOM     95  S   UNL A   1      45.368  24.373  37.066  1.00  0.00     0.124 S 
ATOM     96  O   UNL A   1      44.752  23.415  36.152  1.00  0.00    -0.237 OA
ATOM     97  O   UNL A   1      46.719  24.049  37.513  1.00  0.00    -0.237 OA
ATOM     98  O   UNL A   1      44.482  24.900  38.101  1.00  0.00    -0.744 OA
ENDBRANCH  91  95
ENDBRANCH  65  88
ENDBRANCH  39  40
ENDBRANCH  31  34
ENDBRANCH  29  30
ENDBRANCH   1  29
TORSDOF 16
ENDMDL
MODEL 3
REMARK VINA RESULT:     -13.5      5.165      7.812
REMARK SMILES O=C(NCCCNC(=O)c1ccc(-c2c3nc(c(-c4cc(S(=O)(=O)[O-])ccc4F)c4ccc([nH]4)c(-c4cc(S(=O)(=O)[O-])ccc4F)c4nc(c(-c5cc(S(=O)(=O)[O-])ccc5F)c5ccc2[nH]5)C=C4)C=C3)cc1)C1=Cc2c(ccc(Cl)c2Oc2ccccc2)O[C@H]1C(F)(F)F
REMARK SMILES IDX 5 1 4 2 3 3 1 4 2 5 73 7 74 8 90 9 75 10 89 11 76 12 81 13
REMARK SMILES IDX 77 14 79 15 78 16 80 17 91 18 92 19 93 20 94 21 82 22 83 23
REMARK SMILES IDX 84 24 88 25 85 26 87 27 86 28 6 29 7 30 8 31 9 33 10 34
REMARK SMILES IDX 11 35 72 36 12 37 71 38 13 39 14 40 15 41 65 42 16 43 70 44
REMARK SMILES IDX 64 45 66 46 17 47 69 48 63 49 62 50 18 52 50 53 30 54 49 55
REMARK SMILES IDX 31 56 34 57 48 58 67 59 32 60 33 61 47 63 68 64 35 65 19 66
REMARK SMILES IDX 20 67 28 68 21 69 27 70 29 71 26 72 22 73 23 74 24 75 25 76
REMARK SMILES IDX 51 77 52 78 60 79 53 80 59 81 61 82 58 83 54 84 55 85 56 86
REMARK SMILES IDX 57 87 36 88 37 89 45 90 38 91 44 92 46 93 43 94 39 95 40 96
REMARK SMILES IDX 41 97 42 98
REMARK H PARENT 3 6 7 32 66 51 34 62
REMARK Flexibility Score: inf
ROOT
ATOM      1  C   UNL A   1      36.168  22.933  24.556  1.00  0.00     0.042 C 
ENDROOT
BRANCH   1   2
ATOM      2  C   UNL A   1      35.135  24.043  24.679  1.00  0.00     0.118 C 
BRANCH   2   3
ATOM      3  N   UNL A   1      34.720  24.564  23.386  1.00  0.00    -0.352 N 
ATOM      4  O   UNL A   1      33.406  25.342  21.747  1.00  0.00    -0.270 OA
ATOM      5  C   UNL A   1      33.532  25.046  22.928  1.00  0.00     0.251 C 
ATOM      6  H   UNL A   1      35.437  24.567  22.710  1.00  0.00     0.163 HD
BRANCH   5   7
ATOM      7  C   UNL A   1      32.365  25.157  23.819  1.00  0.00     0.067 C 
ATOM      8  C   UNL A   1      31.503  26.176  23.734  1.00  0.00     0.029 C 
ATOM      9  C   UNL A   1      32.304  24.234  24.989  1.00  0.00     0.314 C 
ATOM     10  C   UNL A   1      31.557  27.003  24.967  1.00  0.00     0.061 A 
ATOM     11  O   UNL A   1      32.117  24.965  26.239  1.00  0.00    -0.475 OA
ATOM     12  C   UNL A   1      31.917  26.328  26.158  1.00  0.00     0.131 A 
ATOM     13  C   UNL A   1      31.463  28.417  24.944  1.00  0.00     0.156 A 
ATOM     14  C   UNL A   1      32.183  27.044  27.320  1.00  0.00     0.049 A 
ATOM     15  C   UNL A   1      31.771  29.115  26.127  1.00  0.00     0.084 A 
ATOM     16  C   UNL A   1      32.130  28.436  27.298  1.00  0.00     0.028 A 
ATOM     17  Cl  UNL A   1      31.790  30.845  26.170  1.00  0.00    -0.080 Cl
BRANCH   9  18
ATOM     18  C   UNL A   1      31.206  23.172  24.810  1.00  0.00     0.429 C 
ATOM     19  F   UNL A   1      30.538  23.302  23.640  1.00  0.00    -0.167 F 
ATOM     20  F   UNL A   1      31.724  21.921  24.829  1.00  0.00    -0.167 F 
ATOM     21  F   UNL A   1      30.277  23.237  25.797  1.00  0.00    -0.167 F 
ENDBRANCH   9  18
BRANCH  13  22
ATOM     22  O   UNL A   1      31.222  29.227  23.837  1.00  0.00    -0.455 OA
BRANCH  22  23
ATOM     23  C   UNL A   1      29.936  29.570  23.510  1.00  0.00     0.127 A 
ATOM     24  C   UNL A   1      29.086  28.592  22.985  1.00  0.00     0.047 A 
ATOM     25  C   UNL A   1      29.480  30.871  23.726  1.00  0.00     0.047 A 
ATOM     26  C   UNL A   1      27.735  28.886  22.801  1.00  0.00     0.004 A 
ATOM     27  C   UNL A   1      28.129  31.161  23.531  1.00  0.00     0.004 A 
ATOM     28  C   UNL A   1      27.254  30.164  23.093  1.00  0.00     0.000 A 
ENDBRANCH  22  23
ENDBRANCH  13  22
ENDBRANCH   5   7
ENDBRANCH   2   3
ENDBRANCH   1   2
BRANCH   1  29
ATOM     29  C   UNL A   1      36.624  22.405  25.909  1.00  0.00     0.118 C 
BRANCH  29  30
ATOM     30  N   UNL A   1      37.790  21.532  25.869  1.00  0.00    -0.352 N 
ATOM     31  C   UNL A   1      39.091  21.782  26.249  1.00  0.00     0.251 C 
ATOM     32  H   UNL A   1      37.622  20.628  25.517  1.00  0.00     0.163 HD
ATOM     33  O   UNL A   1      39.931  20.895  26.108  1.00  0.00    -0.269 OA
BRANCH  31  34
ATOM     34  C   UNL A   1      39.501  23.115  26.760  1.00  0.00     0.039 A 
ATOM     35  C   UNL A   1      40.438  23.182  27.798  1.00  0.00     0.014 A 
ATOM     36  C   UNL A   1      38.996  24.297  26.222  1.00  0.00     0.014 A 
ATOM     37  C   UNL A   1      40.930  24.422  28.220  1.00  0.00     0.010 A 
ATOM     38  C   UNL A   1      39.579  25.516  26.550  1.00  0.00     0.010 A 
ATOM     39  C   UNL A   1      40.543  25.600  27.564  1.00  0.00    -0.014 A 
BRANCH  39  40
ATOM     40  C   UNL A   1      41.086  26.936  27.939  1.00  0.00     0.031 A 
ATOM     41  C   UNL A   1      42.517  27.279  27.601  1.00  0.00     0.074 A 
ATOM     42  C   UNL A   1      40.341  27.795  28.664  1.00  0.00     0.049 A 
ATOM     43  N   UNL A   1      43.244  28.297  27.987  1.00  0.00    -0.248 NA
ATOM     44  C   UNL A   1      43.244  26.305  26.774  1.00  0.00     0.031 C 
ATOM     45  C   UNL A   1      38.970  27.557  29.120  1.00  0.00     0.029 A 
ATOM     46  N   UNL A   1      40.639  29.041  29.155  1.00  0.00    -0.354 N 
ATOM     47  C   UNL A   1      44.526  28.050  27.500  1.00  0.00     0.074 A 
ATOM     48  C   UNL A   1      44.485  26.755  26.857  1.00  0.00     0.031 C 
ATOM     49  C   UNL A   1      38.533  28.636  29.790  1.00  0.00     0.029 A 
ATOM     50  C   UNL A   1      39.603  29.625  29.848  1.00  0.00     0.049 A 
ATOM     51  H   UNL A   1      41.510  29.478  29.022  1.00  0.00     0.167 HD
ATOM     52  C   UNL A   1      45.627  28.843  27.556  1.00  0.00     0.034 A 
ATOM     53  C   UNL A   1      39.528  30.823  30.460  1.00  0.00     0.034 A 
ATOM     54  C   UNL A   1      45.626  30.163  28.137  1.00  0.00     0.049 A 
ATOM     55  C   UNL A   1      40.727  31.734  30.418  1.00  0.00     0.074 A 
ATOM     56  C   UNL A   1      46.655  31.086  28.197  1.00  0.00     0.029 A 
ATOM     57  N   UNL A   1      44.526  30.758  28.744  1.00  0.00    -0.354 N 
ATOM     58  N   UNL A   1      41.924  31.502  29.929  1.00  0.00    -0.248 NA
ATOM     59  C   UNL A   1      40.558  33.075  30.989  1.00  0.00     0.031 C 
ATOM     60  C   UNL A   1      46.188  32.225  28.866  1.00  0.00     0.029 A 
ATOM     61  C   UNL A   1      44.852  32.035  29.175  1.00  0.00     0.049 A 
ATOM     62  H   UNL A   1      43.644  30.335  28.851  1.00  0.00     0.167 HD
ATOM     63  C   UNL A   1      42.642  32.680  30.112  1.00  0.00     0.074 A 
ATOM     64  C   UNL A   1      41.735  33.623  30.735  1.00  0.00     0.031 C 
ATOM     65  C   UNL A   1      43.932  32.958  29.797  1.00  0.00     0.034 A 
BRANCH  52  66
ATOM     66  C   UNL A   1      46.910  28.284  26.982  1.00  0.00     0.023 A 
ATOM     67  C   UNL A   1      47.178  28.317  25.602  1.00  0.00     0.031 A 
ATOM     68  C   UNL A   1      47.847  27.645  27.814  1.00  0.00     0.131 A 
ATOM     69  C   UNL A   1      48.283  27.624  25.085  1.00  0.00     0.055 A 
ATOM     70  C   UNL A   1      49.001  27.044  27.302  1.00  0.00     0.041 A 
ATOM     71  F   UNL A   1      47.644  27.565  29.139  1.00  0.00    -0.206 F 
ATOM     72  C   UNL A   1      49.212  27.012  25.927  1.00  0.00     0.022 A 
BRANCH  69  73
ATOM     73  S   UNL A   1      48.382  27.381  23.289  1.00  0.00     0.124 S 
ATOM     74  O   UNL A   1      49.695  27.950  22.991  1.00  0.00    -0.237 OA
ATOM     75  O   UNL A   1      48.268  25.933  23.159  1.00  0.00    -0.237 OA
ATOM     76  O   UNL A   1      47.249  28.147  22.777  1.00  0.00    -0.744 OA
ENDBRANCH  69  73
ENDBRANCH  52  66
BRANCH  53  77
ATOM     77  C   UNL A   1      38.273  31.247  31.140  1.00  0.00     0.023 A 
ATOM     78  C   UNL A   1      37.241  31.869  30.419  1.00  0.00     0.031 A 
ATOM     79  C   UNL A   1      38.095  31.064  32.522  1.00  0.00     0.131 A 
ATOM     80  C   UNL A   1      36.096  32.328  31.087  1.00  0.00     0.055 A 
ATOM     81  C   UNL A   1      36.935  31.483  33.177  1.00  0.00     0.041 A 
ATOM     82  F   UNL A   1      39.045  30.460  33.254  1.00  0.00    -0.206 F 
ATOM     83  C   UNL A   1      35.932  32.131  32.460  1.00  0.00     0.022 A 
BRANCH  80  84
ATOM     84  S   UNL A   1      34.850  33.247  30.143  1.00  0.00     0.124 S 
ATOM     85  O   UNL A   1      33.976  33.738  31.202  1.00  0.00    -0.237 OA
ATOM     86  O   UNL A   1      35.664  34.251  29.466  1.00  0.00    -0.237 OA
ATOM     87  O   UNL A   1      34.266  32.230  29.271  1.00  0.00    -0.744 OA
ENDBRANCH  80  84
ENDBRANCH  53  77
BRANCH  65  88
ATOM     88  C   UNL A   1      44.410  34.359  30.082  1.00  0.00     0.023 A 
ATOM     89  C   UNL A   1      44.273  35.390  29.137  1.00  0.00     0.031 A 
ATOM     90  C   UNL A   1      45.047  34.653  31.300  1.00  0.00     0.131 A 
ATOM     91  C   UNL A   1      44.824  36.653  29.399  1.00  0.00     0.055 A 
ATOM     92  C   UNL A   1      45.543  35.926  31.578  1.00  0.00     0.041 A 
ATOM     93  F   UNL A   1      45.204  33.704  32.236  1.00  0.00    -0.206 F 
ATOM     94  C   UNL A   1      45.449  36.931  30.617  1.00  0.00     0.022 A 
BRANCH  91  95
ATOM     95  S   UNL A   1      44.815  37.896  28.078  1.00  0.00     0.124 S 
ATOM     96  O   UNL A   1      46.237  38.193  27.929  1.00  0.00    -0.237 OA
ATOM     97  O   UNL A   1      44.197  37.169  26.973  1.00  0.00    -0.237 OA
ATOM     98  O   UNL A   1      44.010  38.981  28.633  1.00  0.00    -0.744 OA
ENDBRANCH  91  95
ENDBRANCH  65  88
ENDBRANCH  39  40
ENDBRANCH  31  34
ENDBRANCH  29  30
ENDBRANCH   1  29
TORSDOF 16
ENDMDL
