MODEL 1
REMARK VINA RESULT:     -13.0      0.000      0.000
REMARK SMILES C[C@H](NC(=O)c1cccc(NC(=O)c2ccccc2C(=O)NCCCNC(=O)c2ccc(-c3c4nc(c(-c5cc(S(=O)(=O)[O-])ccc5F)c5ccc([nH]5)c(-c5cc(S(=O)(=O)[O-])ccc5F)c5nc(c(-c6cc(S(=O)(=O)[O-])ccc6F)c6ccc3[nH]6)C=C5)C=C4)cc2)c1)c1ccccc1
REMARK SMILES IDX 23 1 22 2 20 3 21 4 19 6 14 7 15 8 16 9 18 10 17 11 12 12
REMARK SMILES IDX 11 13 13 15 10 16 6 17 7 18 92 19 8 20 9 21 4 22 3 23 5 25
REMARK SMILES IDX 2 26 1 27 93 28 94 29 98 30 95 31 97 32 96 33 24 34 25 35
REMARK SMILES IDX 26 36 27 37 28 39 29 40 30 41 91 42 31 43 90 44 32 45 33 46
REMARK SMILES IDX 34 47 84 48 35 49 89 50 83 51 85 52 36 53 88 54 82 55 81 56
REMARK SMILES IDX 37 58 69 59 49 60 68 61 50 62 53 63 67 64 86 65 51 66 52 67
REMARK SMILES IDX 66 69 87 70 54 71 38 72 39 73 47 74 40 75 46 76 48 77 45 78
REMARK SMILES IDX 41 79 42 80 43 81 44 82 70 83 71 84 79 85 72 86 78 87 80 88
REMARK SMILES IDX 77 89 73 90 74 91 75 92 76 93 55 94 56 95 64 96 57 97 63 98
REMARK SMILES IDX 65 99 62 100 58 101 59 102 60 103 61 104
REMARK H PARENT 22 5 11 14 3 24 26 38 85 57 53 68
REMARK Flexibility Score: inf
ROOT
ATOM      1  C   UNL A   1      32.506  29.239  24.519  1.00  0.00     0.118 C 
ENDROOT
BRANCH   1   2
ATOM      2  N   UNL A   1      31.763  29.403  23.288  1.00  0.00    -0.352 N 
ATOM      3  C   UNL A   1      30.856  28.566  22.695  1.00  0.00     0.252 C 
ATOM      4  O   UNL A   1      30.351  28.906  21.625  1.00  0.00    -0.269 OA
ATOM      5  H   UNL A   1      31.937  30.242  22.802  1.00  0.00     0.163 HD
BRANCH   3   6
ATOM      6  C   UNL A   1      30.534  27.224  23.239  1.00  0.00     0.052 A 
ATOM      7  C   UNL A   1      31.122  26.006  22.866  1.00  0.00     0.052 A 
ATOM      8  C   UNL A   1      30.634  24.808  23.426  1.00  0.00     0.014 A 
ATOM      9  C   UNL A   1      29.649  24.822  24.413  1.00  0.00     0.001 A 
ATOM     10  C   UNL A   1      29.572  27.225  24.269  1.00  0.00     0.014 A 
ATOM     11  C   UNL A   1      29.136  26.035  24.855  1.00  0.00     0.001 A 
BRANCH   7  12
ATOM     12  C   UNL A   1      32.207  25.826  21.880  1.00  0.00     0.256 C 
ATOM     13  N   UNL A   1      33.493  25.465  22.201  1.00  0.00    -0.322 N 
ATOM     14  H   UNL A   1      34.125  25.540  21.449  1.00  0.00     0.170 HD
ATOM     15  O   UNL A   1      31.939  26.070  20.701  1.00  0.00    -0.269 OA
BRANCH  13  16
ATOM     16  C   UNL A   1      34.083  25.011  23.389  1.00  0.00     0.042 A 
ATOM     17  C   UNL A   1      35.474  23.331  24.442  1.00  0.00     0.041 A 
ATOM     18  C   UNL A   1      35.494  24.078  25.622  1.00  0.00     0.014 A 
ATOM     19  C   UNL A   1      34.720  23.764  23.347  1.00  0.00     0.040 A 
ATOM     20  C   UNL A   1      34.778  25.270  25.695  1.00  0.00     0.003 A 
ATOM     21  C   UNL A   1      34.069  25.730  24.584  1.00  0.00     0.026 A 
BRANCH  17  22
ATOM     22  C   UNL A   1      36.141  22.022  24.444  1.00  0.00     0.251 C 
ATOM     23  N   UNL A   1      35.478  20.842  24.616  1.00  0.00    -0.346 N 
ATOM     24  H   UNL A   1      36.103  20.083  24.677  1.00  0.00     0.164 HD
ATOM     25  O   UNL A   1      37.359  22.010  24.266  1.00  0.00    -0.269 OA
BRANCH  23  26
ATOM     26  C   UNL A   1      34.088  20.402  24.736  1.00  0.00     0.109 C 
ATOM     27  C   UNL A   1      33.805  18.927  24.982  1.00  0.00     0.036 C 
BRANCH  26  28
ATOM     28  C   UNL A   1      33.346  21.245  25.761  1.00  0.00    -0.026 A 
ATOM     29  C   UNL A   1      33.843  21.359  27.071  1.00  0.00     0.006 A 
ATOM     30  C   UNL A   1      32.196  21.972  25.414  1.00  0.00     0.006 A 
ATOM     31  C   UNL A   1      33.225  22.203  27.996  1.00  0.00     0.000 A 
ATOM     32  C   UNL A   1      31.585  22.821  26.338  1.00  0.00     0.000 A 
ATOM     33  C   UNL A   1      32.102  22.940  27.627  1.00  0.00     0.000 A 
ENDBRANCH  26  28
ENDBRANCH  23  26
ENDBRANCH  17  22
ENDBRANCH  13  16
ENDBRANCH   7  12
ENDBRANCH   3   6
ENDBRANCH   1   2
BRANCH   1  34
ATOM     34  C   UNL A   1      31.907  29.964  25.709  1.00  0.00     0.042 C 
BRANCH  34  35
ATOM     35  C   UNL A   1      32.852  30.205  26.877  1.00  0.00     0.118 C 
BRANCH  35  36
ATOM     36  N   UNL A   1      32.927  31.584  27.345  1.00  0.00    -0.352 N 
ATOM     37  C   UNL A   1      33.992  32.296  27.856  1.00  0.00     0.251 C 
ATOM     38  H   UNL A   1      32.082  32.088  27.285  1.00  0.00     0.163 HD
ATOM     39  O   UNL A   1      33.852  33.476  28.144  1.00  0.00    -0.269 OA
BRANCH  37  40
ATOM     40  C   UNL A   1      35.269  31.598  28.121  1.00  0.00     0.039 A 
ATOM     41  C   UNL A   1      36.435  32.356  28.248  1.00  0.00     0.014 A 
ATOM     42  C   UNL A   1      35.293  30.225  28.362  1.00  0.00     0.014 A 
ATOM     43  C   UNL A   1      37.595  31.757  28.748  1.00  0.00     0.010 A 
ATOM     44  C   UNL A   1      36.406  29.663  28.974  1.00  0.00     0.010 A 
ATOM     45  C   UNL A   1      37.567  30.423  29.185  1.00  0.00    -0.014 A 
BRANCH  45  46
ATOM     46  C   UNL A   1      38.731  29.798  29.871  1.00  0.00     0.031 A 
ATOM     47  C   UNL A   1      39.124  30.264  31.247  1.00  0.00     0.074 A 
ATOM     48  C   UNL A   1      39.490  28.891  29.221  1.00  0.00     0.049 A 
ATOM     49  N   UNL A   1      40.175  29.955  31.961  1.00  0.00    -0.248 NA
ATOM     50  C   UNL A   1      38.242  31.259  31.877  1.00  0.00     0.031 C 
ATOM     51  C   UNL A   1      39.261  28.411  27.855  1.00  0.00     0.029 A 
ATOM     52  N   UNL A   1      40.617  28.215  29.619  1.00  0.00    -0.354 N 
ATOM     53  C   UNL A   1      40.099  30.744  33.105  1.00  0.00     0.074 A 
ATOM     54  C   UNL A   1      38.945  31.602  32.943  1.00  0.00     0.031 C 
ATOM     55  C   UNL A   1      40.188  27.491  27.547  1.00  0.00     0.029 A 
ATOM     56  C   UNL A   1      41.107  27.346  28.670  1.00  0.00     0.049 A 
ATOM     57  H   UNL A   1      41.036  28.341  30.500  1.00  0.00     0.167 HD
ATOM     58  C   UNL A   1      40.895  30.731  34.204  1.00  0.00     0.034 A 
ATOM     59  C   UNL A   1      42.175  26.524  28.705  1.00  0.00     0.034 A 
ATOM     60  C   UNL A   1      42.013  29.835  34.364  1.00  0.00     0.049 A 
ATOM     61  C   UNL A   1      43.023  26.492  29.950  1.00  0.00     0.074 A 
ATOM     62  C   UNL A   1      42.849  29.681  35.456  1.00  0.00     0.029 A 
ATOM     63  N   UNL A   1      42.446  28.930  33.402  1.00  0.00    -0.354 N 
ATOM     64  N   UNL A   1      42.909  27.209  31.046  1.00  0.00    -0.248 NA
ATOM     65  C   UNL A   1      44.135  25.533  29.970  1.00  0.00     0.031 C 
ATOM     66  C   UNL A   1      43.814  28.719  35.137  1.00  0.00     0.029 A 
ATOM     67  C   UNL A   1      43.544  28.226  33.870  1.00  0.00     0.049 A 
ATOM     68  H   UNL A   1      42.033  28.808  32.516  1.00  0.00     0.167 HD
ATOM     69  C   UNL A   1      43.916  26.762  31.895  1.00  0.00     0.074 A 
ATOM     70  C   UNL A   1      44.619  25.709  31.191  1.00  0.00     0.031 C 
ATOM     71  C   UNL A   1      44.230  27.182  33.148  1.00  0.00     0.034 A 
BRANCH  58  72
ATOM     72  C   UNL A   1      40.575  31.724  35.297  1.00  0.00     0.023 A 
ATOM     73  C   UNL A   1      39.541  31.490  36.221  1.00  0.00     0.031 A 
ATOM     74  C   UNL A   1      41.262  32.948  35.378  1.00  0.00     0.131 A 
ATOM     75  C   UNL A   1      39.149  32.506  37.107  1.00  0.00     0.055 A 
ATOM     76  C   UNL A   1      40.933  33.916  36.329  1.00  0.00     0.041 A 
ATOM     77  F   UNL A   1      42.248  33.237  34.514  1.00  0.00    -0.206 F 
ATOM     78  C   UNL A   1      39.855  33.707  37.186  1.00  0.00     0.022 A 
BRANCH  75  79
ATOM     79  S   UNL A   1      37.594  32.299  38.017  1.00  0.00     0.124 S 
ATOM     80  O   UNL A   1      37.401  30.853  37.943  1.00  0.00    -0.237 OA
ATOM     81  O   UNL A   1      37.925  32.832  39.334  1.00  0.00    -0.237 OA
ATOM     82  O   UNL A   1      36.637  33.089  37.246  1.00  0.00    -0.744 OA
ENDBRANCH  75  79
ENDBRANCH  58  72
BRANCH  59  83
ATOM     83  C   UNL A   1      42.498  25.652  27.540  1.00  0.00     0.023 A 
ATOM     84  C   UNL A   1      42.015  24.335  27.473  1.00  0.00     0.031 A 
ATOM     85  C   UNL A   1      43.317  26.108  26.493  1.00  0.00     0.131 A 
ATOM     86  C   UNL A   1      42.389  23.504  26.405  1.00  0.00     0.055 A 
ATOM     87  C   UNL A   1      43.651  25.292  25.410  1.00  0.00     0.041 A 
ATOM     88  F   UNL A   1      43.797  27.361  26.503  1.00  0.00    -0.206 F 
ATOM     89  C   UNL A   1      43.195  23.978  25.368  1.00  0.00     0.022 A 
BRANCH  86  90
ATOM     90  S   UNL A   1      41.860  21.769  26.428  1.00  0.00     0.124 S 
ATOM     91  O   UNL A   1      42.693  21.191  25.379  1.00  0.00    -0.237 OA
ATOM     92  O   UNL A   1      42.181  21.373  27.795  1.00  0.00    -0.237 OA
ATOM     93  O   UNL A   1      40.433  21.845  26.122  1.00  0.00    -0.744 OA
ENDBRANCH  86  90
ENDBRANCH  59  83
BRANCH  71  94
ATOM     94  C   UNL A   1      45.352  26.457  33.847  1.00  0.00     0.023 A 
ATOM     95  C   UNL A   1      45.111  25.343  34.670  1.00  0.00     0.031 A 
ATOM     96  C   UNL A   1      46.678  26.895  33.691  1.00  0.00     0.131 A 
ATOM     97  C   UNL A   1      46.179  24.734  35.346  1.00  0.00     0.055 A 
ATOM     98  C   UNL A   1      47.742  26.251  34.323  1.00  0.00     0.041 A 
ATOM     99  F   UNL A   1      46.960  27.954  32.915  1.00  0.00    -0.206 F 
ATOM    100  C   UNL A   1      47.494  25.171  35.166  1.00  0.00     0.022 A 
BRANCH  97 101
ATOM    101  S   UNL A   1      45.816  23.407  36.529  1.00  0.00     0.124 S 
ATOM    102  O   UNL A   1      47.144  23.090  37.045  1.00  0.00    -0.237 OA
ATOM    103  O   UNL A   1      44.908  24.063  37.464  1.00  0.00    -0.237 OA
ATOM    104  O   UNL A   1      45.207  22.367  35.700  1.00  0.00    -0.744 OA
ENDBRANCH  97 101
ENDBRANCH  71  94
ENDBRANCH  45  46
ENDBRANCH  37  40
ENDBRANCH  35  36
ENDBRANCH  34  35
ENDBRANCH   1  34
TORSDOF 18
ENDMDL
MODEL 2
REMARK VINA RESULT:     -12.5      1.124      7.325
REMARK SMILES C[C@H](NC(=O)c1cccc(NC(=O)c2ccccc2C(=O)NCCCNC(=O)c2ccc(-c3c4nc(c(-c5cc(S(=O)(=O)[O-])ccc5F)c5ccc([nH]5)c(-c5cc(S(=O)(=O)[O-])ccc5F)c5nc(c(-c6cc(S(=O)(=O)[O-])ccc6F)c6ccc3[nH]6)C=C5)C=C4)cc2)c1)c1ccccc1
REMARK SMILES IDX 23 1 22 2 20 3 21 4 19 6 14 7 15 8 16 9 18 10 17 11 12 12
REMARK SMILES IDX 11 13 13 15 10 16 6 17 7 18 92 19 8 20 9 21 4 22 3 23 5 25
REMARK SMILES IDX 2 26 1 27 93 28 94 29 98 30 95 31 97 32 96 33 24 34 25 35
REMARK SMILES IDX 26 36 27 37 28 39 29 40 30 41 91 42 31 43 90 44 32 45 33 46
REMARK SMILES IDX 34 47 84 48 35 49 89 50 83 51 85 52 36 53 88 54 82 55 81 56
REMARK SMILES IDX 37 58 69 59 49 60 68 61 50 62 53 63 67 64 86 65 51 66 52 67
REMARK SMILES IDX 66 69 87 70 54 71 38 72 39 73 47 74 40 75 46 76 48 77 45 78
REMARK SMILES IDX 41 79 42 80 43 81 44 82 70 83 71 84 79 85 72 86 78 87 80 88
REMARK SMILES IDX 77 89 73 90 74 91 75 92 76 93 55 94 56 95 64 96 57 97 63 98
REMARK SMILES IDX 65 99 62 100 58 101 59 102 60 103 61 104
REMARK H PARENT 22 5 11 14 3 24 26 38 85 57 53 68
REMARK Flexibility Score: inf
ROOT
ATOM      1  C   UNL A   1      32.574  29.213  24.635  1.00  0.00     0.118 C 
ENDROOT
BRANCH   1   2
ATOM      2  N   UNL A   1      31.934  29.520  23.373  1.00  0.00    -0.352 N 
ATOM      3  C   UNL A   1      31.111  28.747  22.599  1.00  0.00     0.252 C 
ATOM      4  O   UNL A   1      30.687  29.214  21.541  1.00  0.00    -0.269 OA
ATOM      5  H   UNL A   1      32.119  30.420  23.018  1.00  0.00     0.163 HD
BRANCH   3   6
ATOM      6  C   UNL A   1      30.790  27.338  22.933  1.00  0.00     0.052 A 
ATOM      7  C   UNL A   1      31.587  26.213  22.673  1.00  0.00     0.052 A 
ATOM      8  C   UNL A   1      31.089  24.932  22.984  1.00  0.00     0.014 A 
ATOM      9  C   UNL A   1      29.865  24.772  23.632  1.00  0.00     0.001 A 
ATOM     10  C   UNL A   1      29.576  27.163  23.630  1.00  0.00     0.014 A 
ATOM     11  C   UNL A   1      29.120  25.891  23.980  1.00  0.00     0.001 A 
BRANCH   7  12
ATOM     12  C   UNL A   1      32.923  26.217  22.044  1.00  0.00     0.256 C 
ATOM     13  N   UNL A   1      34.060  25.721  22.637  1.00  0.00    -0.322 N 
ATOM     14  H   UNL A   1      34.887  25.940  22.151  1.00  0.00     0.170 HD
ATOM     15  O   UNL A   1      33.020  26.751  20.937  1.00  0.00    -0.269 OA
BRANCH  13  16
ATOM     16  C   UNL A   1      34.272  24.965  23.798  1.00  0.00     0.042 A 
ATOM     17  C   UNL A   1      35.246  22.966  24.758  1.00  0.00     0.041 A 
ATOM     18  C   UNL A   1      34.956  23.434  26.042  1.00  0.00     0.014 A 
ATOM     19  C   UNL A   1      34.850  23.698  23.636  1.00  0.00     0.040 A 
ATOM     20  C   UNL A   1      34.293  24.649  26.200  1.00  0.00     0.003 A 
ATOM     21  C   UNL A   1      33.945  25.405  25.080  1.00  0.00     0.026 A 
BRANCH  17  22
ATOM     22  C   UNL A   1      35.837  21.627  24.631  1.00  0.00     0.251 C 
ATOM     23  N   UNL A   1      35.122  20.474  24.769  1.00  0.00    -0.346 N 
ATOM     24  H   UNL A   1      35.705  19.681  24.739  1.00  0.00     0.164 HD
ATOM     25  O   UNL A   1      37.039  21.565  24.372  1.00  0.00    -0.269 OA
BRANCH  23  26
ATOM     26  C   UNL A   1      33.720  20.099  24.951  1.00  0.00     0.109 C 
ATOM     27  C   UNL A   1      32.662  20.776  24.092  1.00  0.00     0.036 C 
BRANCH  26  28
ATOM     28  C   UNL A   1      33.556  18.588  24.873  1.00  0.00    -0.026 A 
ATOM     29  C   UNL A   1      34.397  17.831  24.041  1.00  0.00     0.006 A 
ATOM     30  C   UNL A   1      32.612  17.914  25.666  1.00  0.00     0.006 A 
ATOM     31  C   UNL A   1      34.321  16.437  24.029  1.00  0.00     0.000 A 
ATOM     32  C   UNL A   1      32.543  16.520  25.658  1.00  0.00     0.000 A 
ATOM     33  C   UNL A   1      33.400  15.781  24.844  1.00  0.00     0.000 A 
ENDBRANCH  26  28
ENDBRANCH  23  26
ENDBRANCH  17  22
ENDBRANCH  13  16
ENDBRANCH   7  12
ENDBRANCH   3   6
ENDBRANCH   1   2
BRANCH   1  34
ATOM     34  C   UNL A   1      31.710  29.480  25.852  1.00  0.00     0.042 C 
BRANCH  34  35
ATOM     35  C   UNL A   1      32.443  30.007  27.077  1.00  0.00     0.118 C 
BRANCH  35  36
ATOM     36  N   UNL A   1      32.410  31.455  27.250  1.00  0.00    -0.352 N 
ATOM     37  C   UNL A   1      33.423  32.340  27.556  1.00  0.00     0.251 C 
ATOM     38  H   UNL A   1      31.523  31.865  27.128  1.00  0.00     0.163 HD
ATOM     39  O   UNL A   1      33.188  33.538  27.603  1.00  0.00    -0.269 OA
BRANCH  37  40
ATOM     40  C   UNL A   1      34.763  31.815  27.899  1.00  0.00     0.039 A 
ATOM     41  C   UNL A   1      35.829  32.713  28.004  1.00  0.00     0.014 A 
ATOM     42  C   UNL A   1      34.939  30.474  28.233  1.00  0.00     0.014 A 
ATOM     43  C   UNL A   1      37.033  32.288  28.571  1.00  0.00     0.010 A 
ATOM     44  C   UNL A   1      36.089  30.088  28.909  1.00  0.00     0.010 A 
ATOM     45  C   UNL A   1      37.146  30.991  29.097  1.00  0.00    -0.014 A 
BRANCH  45  46
ATOM     46  C   UNL A   1      38.352  30.554  29.852  1.00  0.00     0.031 A 
ATOM     47  C   UNL A   1      39.290  29.547  29.242  1.00  0.00     0.074 A 
ATOM     48  C   UNL A   1      38.550  30.983  31.116  1.00  0.00     0.049 A 
ATOM     49  N   UNL A   1      40.314  28.934  29.776  1.00  0.00    -0.248 NA
ATOM     50  C   UNL A   1      38.996  29.132  27.861  1.00  0.00     0.031 C 
ATOM     51  C   UNL A   1      37.673  31.900  31.850  1.00  0.00     0.029 A 
ATOM     52  N   UNL A   1      39.547  30.695  32.015  1.00  0.00    -0.354 N 
ATOM     53  C   UNL A   1      40.761  28.036  28.811  1.00  0.00     0.074 A 
ATOM     54  C   UNL A   1      39.842  28.130  27.697  1.00  0.00     0.031 C 
ATOM     55  C   UNL A   1      38.193  32.133  33.066  1.00  0.00     0.029 A 
ATOM     56  C   UNL A   1      39.413  31.348  33.220  1.00  0.00     0.049 A 
ATOM     57  H   UNL A   1      40.288  30.080  31.817  1.00  0.00     0.167 HD
ATOM     58  C   UNL A   1      41.854  27.233  28.835  1.00  0.00     0.034 A 
ATOM     59  C   UNL A   1      40.187  31.317  34.323  1.00  0.00     0.034 A 
ATOM     60  C   UNL A   1      42.783  27.189  29.937  1.00  0.00     0.049 A 
ATOM     61  C   UNL A   1      41.421  30.452  34.316  1.00  0.00     0.074 A 
ATOM     62  C   UNL A   1      43.960  26.470  30.048  1.00  0.00     0.029 A 
ATOM     63  N   UNL A   1      42.642  27.906  31.120  1.00  0.00    -0.354 N 
ATOM     64  N   UNL A   1      41.859  29.646  33.376  1.00  0.00    -0.248 NA
ATOM     65  C   UNL A   1      42.273  30.503  35.512  1.00  0.00     0.031 C 
ATOM     66  C   UNL A   1      44.505  26.714  31.314  1.00  0.00     0.029 A 
ATOM     67  C   UNL A   1      43.702  27.635  31.970  1.00  0.00     0.049 A 
ATOM     68  H   UNL A   1      41.897  28.516  31.324  1.00  0.00     0.167 HD
ATOM     69  C   UNL A   1      43.053  29.118  33.857  1.00  0.00     0.074 A 
ATOM     70  C   UNL A   1      43.272  29.706  35.163  1.00  0.00     0.031 C 
ATOM     71  C   UNL A   1      43.897  28.231  33.270  1.00  0.00     0.034 A 
BRANCH  58  72
ATOM     72  C   UNL A   1      42.082  26.344  27.636  1.00  0.00     0.023 A 
ATOM     73  C   UNL A   1      41.696  24.991  27.641  1.00  0.00     0.031 A 
ATOM     74  C   UNL A   1      42.753  26.828  26.500  1.00  0.00     0.131 A 
ATOM     75  C   UNL A   1      42.082  24.146  26.589  1.00  0.00     0.055 A 
ATOM     76  C   UNL A   1      43.047  26.005  25.410  1.00  0.00     0.041 A 
ATOM     77  F   UNL A   1      43.162  28.106  26.440  1.00  0.00    -0.206 F 
ATOM     78  C   UNL A   1      42.731  24.650  25.461  1.00  0.00     0.022 A 
BRANCH  75  79
ATOM     79  S   UNL A   1      41.885  22.357  26.806  1.00  0.00     0.124 S 
ATOM     80  O   UNL A   1      40.724  22.085  25.960  1.00  0.00    -0.237 OA
ATOM     81  O   UNL A   1      43.160  21.838  26.325  1.00  0.00    -0.237 OA
ATOM     82  O   UNL A   1      41.650  22.209  28.240  1.00  0.00    -0.744 OA
ENDBRANCH  75  79
ENDBRANCH  58  72
BRANCH  59  83
ATOM     83  C   UNL A   1      39.839  32.138  35.518  1.00  0.00     0.023 A 
ATOM     84  C   UNL A   1      38.966  31.642  36.500  1.00  0.00     0.031 A 
ATOM     85  C   UNL A   1      40.346  33.438  35.682  1.00  0.00     0.131 A 
ATOM     86  C   UNL A   1      38.591  32.457  37.580  1.00  0.00     0.055 A 
ATOM     87  C   UNL A   1      40.006  34.228  36.781  1.00  0.00     0.041 A 
ATOM     88  F   UNL A   1      41.193  33.956  34.777  1.00  0.00    -0.206 F 
ATOM     89  C   UNL A   1      39.114  33.742  37.733  1.00  0.00     0.022 A 
BRANCH  86  90
ATOM     90  S   UNL A   1      37.354  31.833  38.750  1.00  0.00     0.124 S 
ATOM     91  O   UNL A   1      37.075  30.507  38.209  1.00  0.00    -0.237 OA
ATOM     92  O   UNL A   1      38.084  31.871  40.012  1.00  0.00    -0.237 OA
ATOM     93  O   UNL A   1      36.261  32.796  38.635  1.00  0.00    -0.744 OA
ENDBRANCH  86  90
ENDBRANCH  59  83
BRANCH  71  94
ATOM     94  C   UNL A   1      45.157  27.890  34.023  1.00  0.00     0.023 A 
ATOM     95  C   UNL A   1      45.209  26.816  34.929  1.00  0.00     0.031 A 
ATOM     96  C   UNL A   1      46.321  28.655  33.832  1.00  0.00     0.131 A 
ATOM     97  C   UNL A   1      46.387  26.569  35.650  1.00  0.00     0.055 A 
ATOM     98  C   UNL A   1      47.505  28.372  34.512  1.00  0.00     0.041 A 
ATOM     99  F   UNL A   1      46.323  29.691  32.977  1.00  0.00    -0.206 F 
ATOM    100  C   UNL A   1      47.539  27.330  35.436  1.00  0.00     0.022 A 
BRANCH  97 101
ATOM    101  S   UNL A   1      46.370  25.286  36.931  1.00  0.00     0.124 S 
ATOM    102  O   UNL A   1      47.478  24.430  36.518  1.00  0.00    -0.237 OA
ATOM    103  O   UNL A   1      46.583  26.059  38.150  1.00  0.00    -0.237 OA
ATOM    104  O   UNL A   1      45.042  24.689  36.801  1.00  0.00    -0.744 OA
ENDBRANCH  97 101
ENDBRANCH  71  94
ENDBRANCH  45  46
ENDBRANCH  37  40
ENDBRANCH  35  36
ENDBRANCH  34  35
ENDBRANCH   1  34
TORSDOF 18
ENDMDL
MODEL 3
REMARK VINA RESULT:     -12.4      2.305      2.990
REMARK SMILES C[C@H](NC(=O)c1cccc(NC(=O)c2ccccc2C(=O)NCCCNC(=O)c2ccc(-c3c4nc(c(-c5cc(S(=O)(=O)[O-])ccc5F)c5ccc([nH]5)c(-c5cc(S(=O)(=O)[O-])ccc5F)c5nc(c(-c6cc(S(=O)(=O)[O-])ccc6F)c6ccc3[nH]6)C=C5)C=C4)cc2)c1)c1ccccc1
REMARK SMILES IDX 23 1 22 2 20 3 21 4 19 6 14 7 15 8 16 9 18 10 17 11 12 12
REMARK SMILES IDX 11 13 13 15 10 16 6 17 7 18 92 19 8 20 9 21 4 22 3 23 5 25
REMARK SMILES IDX 2 26 1 27 93 28 94 29 98 30 95 31 97 32 96 33 24 34 25 35
REMARK SMILES IDX 26 36 27 37 28 39 29 40 30 41 91 42 31 43 90 44 32 45 33 46
REMARK SMILES IDX 34 47 84 48 35 49 89 50 83 51 85 52 36 53 88 54 82 55 81 56
REMARK SMILES IDX 37 58 69 59 49 60 68 61 50 62 53 63 67 64 86 65 51 66 52 67
REMARK SMILES IDX 66 69 87 70 54 71 38 72 39 73 47 74 40 75 46 76 48 77 45 78
REMARK SMILES IDX 41 79 42 80 43 81 44 82 70 83 71 84 79 85 72 86 78 87 80 88
REMARK SMILES IDX 77 89 73 90 74 91 75 92 76 93 55 94 56 95 64 96 57 97 63 98
REMARK SMILES IDX 65 99 62 100 58 101 59 102 60 103 61 104
REMARK H PARENT 22 5 11 14 3 24 26 38 85 57 53 68
REMARK Flexibility Score: inf
ROOT
ATOM      1  C   UNL A   1      33.586  28.025  26.274  1.00  0.00     0.118 C 
ENDROOT
BRANCH   1   2
ATOM      2  N   UNL A   1      34.280  28.446  25.076  1.00  0.00    -0.352 N 
ATOM      3  C   UNL A   1      33.809  28.599  23.799  1.00  0.00     0.252 C 
ATOM      4  O   UNL A   1      34.593  28.959  22.921  1.00  0.00    -0.269 OA
ATOM      5  H   UNL A   1      35.235  28.654  25.197  1.00  0.00     0.163 HD
BRANCH   3   6
ATOM      6  C   UNL A   1      32.420  28.252  23.414  1.00  0.00     0.052 A 
ATOM      7  C   UNL A   1      32.003  27.101  22.729  1.00  0.00     0.052 A 
ATOM      8  C   UNL A   1      30.647  26.970  22.367  1.00  0.00     0.014 A 
ATOM      9  C   UNL A   1      29.701  27.915  22.762  1.00  0.00     0.001 A 
ATOM     10  C   UNL A   1      31.445  29.175  23.845  1.00  0.00     0.014 A 
ATOM     11  C   UNL A   1      30.096  29.005  23.526  1.00  0.00     0.001 A 
BRANCH   7  12
ATOM     12  C   UNL A   1      32.867  25.987  22.288  1.00  0.00     0.256 C 
ATOM     13  N   UNL A   1      33.065  24.830  23.003  1.00  0.00    -0.322 N 
ATOM     14  H   UNL A   1      33.785  24.262  22.645  1.00  0.00     0.170 HD
ATOM     15  O   UNL A   1      33.486  26.142  21.233  1.00  0.00    -0.269 OA
BRANCH  13  16
ATOM     16  C   UNL A   1      32.442  24.300  24.141  1.00  0.00     0.042 A 
ATOM     17  C   UNL A   1      32.699  22.978  26.155  1.00  0.00     0.041 A 
ATOM     18  C   UNL A   1      31.411  23.335  26.561  1.00  0.00     0.014 A 
ATOM     19  C   UNL A   1      33.192  23.408  24.920  1.00  0.00     0.040 A 
ATOM     20  C   UNL A   1      30.628  24.143  25.739  1.00  0.00     0.003 A 
ATOM     21  C   UNL A   1      31.141  24.616  24.531  1.00  0.00     0.026 A 
BRANCH  17  22
ATOM     22  C   UNL A   1      33.446  22.029  26.991  1.00  0.00     0.251 C 
ATOM     23  N   UNL A   1      34.324  21.114  26.487  1.00  0.00    -0.346 N 
ATOM     24  H   UNL A   1      34.657  20.509  27.189  1.00  0.00     0.164 HD
ATOM     25  O   UNL A   1      33.266  22.087  28.207  1.00  0.00    -0.269 OA
BRANCH  23  26
ATOM     26  C   UNL A   1      34.902  20.790  25.183  1.00  0.00     0.109 C 
ATOM     27  C   UNL A   1      36.414  20.661  25.063  1.00  0.00     0.036 C 
BRANCH  26  28
ATOM     28  C   UNL A   1      34.233  19.559  24.592  1.00  0.00    -0.026 A 
ATOM     29  C   UNL A   1      32.943  19.654  24.042  1.00  0.00     0.006 A 
ATOM     30  C   UNL A   1      34.902  18.325  24.525  1.00  0.00     0.006 A 
ATOM     31  C   UNL A   1      32.354  18.556  23.413  1.00  0.00     0.000 A 
ATOM     32  C   UNL A   1      34.313  17.231  23.889  1.00  0.00     0.000 A 
ATOM     33  C   UNL A   1      33.042  17.347  23.328  1.00  0.00     0.000 A 
ENDBRANCH  26  28
ENDBRANCH  23  26
ENDBRANCH  17  22
ENDBRANCH  13  16
ENDBRANCH   7  12
ENDBRANCH   3   6
ENDBRANCH   1   2
BRANCH   1  34
ATOM     34  C   UNL A   1      33.141  29.164  27.169  1.00  0.00     0.042 C 
BRANCH  34  35
ATOM     35  C   UNL A   1      33.665  30.542  26.790  1.00  0.00     0.118 C 
BRANCH  35  36
ATOM     36  N   UNL A   1      33.653  31.532  27.861  1.00  0.00    -0.352 N 
ATOM     37  C   UNL A   1      34.610  31.834  28.808  1.00  0.00     0.251 C 
ATOM     38  H   UNL A   1      32.830  32.071  27.916  1.00  0.00     0.163 HD
ATOM     39  O   UNL A   1      34.417  32.749  29.595  1.00  0.00    -0.269 OA
BRANCH  37  40
ATOM     40  C   UNL A   1      35.822  30.992  28.905  1.00  0.00     0.039 A 
ATOM     41  C   UNL A   1      37.031  31.497  28.419  1.00  0.00     0.014 A 
ATOM     42  C   UNL A   1      35.790  29.772  29.577  1.00  0.00     0.014 A 
ATOM     43  C   UNL A   1      38.225  30.839  28.727  1.00  0.00     0.010 A 
ATOM     44  C   UNL A   1      36.983  29.190  29.987  1.00  0.00     0.010 A 
ATOM     45  C   UNL A   1      38.216  29.721  29.577  1.00  0.00    -0.014 A 
BRANCH  45  46
ATOM     46  C   UNL A   1      39.476  29.092  30.058  1.00  0.00     0.031 A 
ATOM     47  C   UNL A   1      40.176  29.654  31.266  1.00  0.00     0.074 A 
ATOM     48  C   UNL A   1      40.040  28.088  29.355  1.00  0.00     0.049 A 
ATOM     49  N   UNL A   1      41.344  29.348  31.768  1.00  0.00    -0.248 NA
ATOM     50  C   UNL A   1      39.491  30.751  31.967  1.00  0.00     0.031 C 
ATOM     51  C   UNL A   1      39.502  27.504  28.124  1.00  0.00     0.029 A 
ATOM     52  N   UNL A   1      41.200  27.385  29.570  1.00  0.00    -0.354 N 
ATOM     53  C   UNL A   1      41.549  30.238  32.818  1.00  0.00     0.074 A 
ATOM     54  C   UNL A   1      40.421  31.145  32.821  1.00  0.00     0.031 C 
ATOM     55  C   UNL A   1      40.304  26.506  27.718  1.00  0.00     0.029 A 
ATOM     56  C   UNL A   1      41.438  26.407  28.630  1.00  0.00     0.049 A 
ATOM     57  H   UNL A   1      41.805  27.563  30.325  1.00  0.00     0.167 HD
ATOM     58  C   UNL A   1      42.563  30.275  33.718  1.00  0.00     0.034 A 
ATOM     59  C   UNL A   1      42.456  25.530  28.518  1.00  0.00     0.034 A 
ATOM     60  C   UNL A   1      43.653  29.332  33.726  1.00  0.00     0.049 A 
ATOM     61  C   UNL A   1      43.552  25.558  29.551  1.00  0.00     0.074 A 
ATOM     62  C   UNL A   1      44.700  29.226  34.625  1.00  0.00     0.029 A 
ATOM     63  N   UNL A   1      43.832  28.322  32.788  1.00  0.00    -0.354 N 
ATOM     64  N   UNL A   1      43.706  26.375  30.570  1.00  0.00    -0.248 NA
ATOM     65  C   UNL A   1      44.603  24.540  29.430  1.00  0.00     0.031 C 
ATOM     66  C   UNL A   1      45.535  28.184  34.206  1.00  0.00     0.029 A 
ATOM     67  C   UNL A   1      44.977  27.599  33.080  1.00  0.00     0.049 A 
ATOM     68  H   UNL A   1      43.233  28.147  32.027  1.00  0.00     0.167 HD
ATOM     69  C   UNL A   1      44.855  25.946  31.226  1.00  0.00     0.074 A 
ATOM     70  C   UNL A   1      45.347  24.795  30.497  1.00  0.00     0.031 C 
ATOM     71  C   UNL A   1      45.450  26.455  32.336  1.00  0.00     0.034 A 
BRANCH  58  72
ATOM     72  C   UNL A   1      42.527  31.378  34.750  1.00  0.00     0.023 A 
ATOM     73  C   UNL A   1      43.104  32.636  34.501  1.00  0.00     0.031 A 
ATOM     74  C   UNL A   1      41.973  31.152  36.023  1.00  0.00     0.131 A 
ATOM     75  C   UNL A   1      43.217  33.575  35.538  1.00  0.00     0.055 A 
ATOM     76  C   UNL A   1      41.999  32.128  37.021  1.00  0.00     0.041 A 
ATOM     77  F   UNL A   1      41.423  29.967  36.328  1.00  0.00    -0.206 F 
ATOM     78  C   UNL A   1      42.644  33.341  36.789  1.00  0.00     0.022 A 
BRANCH  75  79
ATOM     79  S   UNL A   1      44.280  35.020  35.278  1.00  0.00     0.124 S 
ATOM     80  O   UNL A   1      43.586  35.702  34.187  1.00  0.00    -0.237 OA
ATOM     81  O   UNL A   1      44.236  35.684  36.576  1.00  0.00    -0.237 OA
ATOM     82  O   UNL A   1      45.570  34.437  34.918  1.00  0.00    -0.744 OA
ENDBRANCH  75  79
ENDBRANCH  58  72
BRANCH  59  83
ATOM     83  C   UNL A   1      42.484  24.540  27.404  1.00  0.00     0.023 A 
ATOM     84  C   UNL A   1      41.766  23.336  27.493  1.00  0.00     0.031 A 
ATOM     85  C   UNL A   1      43.250  24.766  26.248  1.00  0.00     0.131 A 
ATOM     86  C   UNL A   1      41.864  22.384  26.467  1.00  0.00     0.055 A 
ATOM     87  C   UNL A   1      43.309  23.835  25.208  1.00  0.00     0.041 A 
ATOM     88  F   UNL A   1      43.947  25.905  26.107  1.00  0.00    -0.206 F 
ATOM     89  C   UNL A   1      42.621  22.630  25.320  1.00  0.00     0.022 A 
BRANCH  86  90
ATOM     90  S   UNL A   1      41.036  20.785  26.684  1.00  0.00     0.124 S 
ATOM     91  O   UNL A   1      42.036  19.859  26.164  1.00  0.00    -0.237 OA
ATOM     92  O   UNL A   1      40.818  20.751  28.126  1.00  0.00    -0.237 OA
ATOM     93  O   UNL A   1      39.825  20.916  25.876  1.00  0.00    -0.744 OA
ENDBRANCH  86  90
ENDBRANCH  59  83
BRANCH  71  94
ATOM     94  C   UNL A   1      46.667  25.731  32.849  1.00  0.00     0.023 A 
ATOM     95  C   UNL A   1      46.564  24.681  33.778  1.00  0.00     0.031 A 
ATOM     96  C   UNL A   1      47.948  26.103  32.405  1.00  0.00     0.131 A 
ATOM     97  C   UNL A   1      47.728  24.071  34.271  1.00  0.00     0.055 A 
ATOM     98  C   UNL A   1      49.098  25.457  32.859  1.00  0.00     0.041 A 
ATOM     99  F   UNL A   1      48.099  27.100  31.519  1.00  0.00    -0.206 F 
ATOM    100  C   UNL A   1      48.992  24.443  33.807  1.00  0.00     0.022 A 
BRANCH  97 101
ATOM    101  S   UNL A   1      47.571  22.836  35.590  1.00  0.00     0.124 S 
ATOM    102  O   UNL A   1      48.865  22.939  36.258  1.00  0.00    -0.237 OA
ATOM    103  O   UNL A   1      46.423  23.329  36.344  1.00  0.00    -0.237 OA
ATOM    104  O   UNL A   1      47.344  21.587  34.865  1.00  0.00    -0.744 OA
ENDBRANCH  97 101
ENDBRANCH  71  94
ENDBRANCH  45  46
ENDBRANCH  37  40
ENDBRANCH  35  36
ENDBRANCH  34  35
ENDBRANCH   1  34
TORSDOF 18
ENDMDL
