MODEL 1
REMARK VINA RESULT:     -10.5      0.000      0.000
REMARK SMILES Cc1cc(/C=C2\C(=O)N(Cc3ccco3)C(=O)[NH+]=C2NCCCNC(=O)c2ccc(-c3c4nc(c(-c5cc(S(=O)(=O)[O-])ccc5F)c5ccc([nH]5)c(-c5cc(S(=O)(=O)[O-])ccc5F)c5nc(c(-c6cc(S(=O)(=O)[O-])ccc6F)c6ccc3[nH]6)C=C5)C=C4)cc2)c(C)n1-c1ccc(Cl)c(C(=O)[O-])c1
REMARK SMILES IDX 22 1 21 2 20 3 5 4 6 5 7 6 19 7 8 8 9 9 18 10 16 11 17 14
REMARK SMILES IDX 4 15 1 16 2 17 3 18 92 19 90 20 91 21 93 22 94 23 102 24
REMARK SMILES IDX 95 25 98 26 96 27 97 28 99 29 100 30 101 31 10 32 11 33
REMARK SMILES IDX 12 34 15 35 13 36 14 37 23 38 24 39 25 40 26 42 27 43 28 44
REMARK SMILES IDX 89 45 29 46 88 47 30 48 31 49 32 50 82 51 33 52 87 53 81 54
REMARK SMILES IDX 83 55 34 56 86 57 80 58 79 59 35 61 67 62 47 63 66 64 48 65
REMARK SMILES IDX 51 66 65 67 84 68 49 69 50 70 64 72 85 73 52 74 36 75 37 76
REMARK SMILES IDX 45 77 38 78 44 79 46 80 43 81 39 82 40 83 41 84 42 85 68 86
REMARK SMILES IDX 69 87 77 88 70 89 76 90 78 91 75 92 71 93 72 94 73 95 74 96
REMARK SMILES IDX 53 97 54 98 62 99 55 100 61 101 63 102 60 103 56 104 57 105
REMARK SMILES IDX 58 106 59 107
REMARK H PARENT 18 12 20 13 24 41 83 60 51 71
REMARK Flexibility Score: inf
ROOT
ATOM      1  C   UNL A   1      40.097  22.401  27.408  1.00  0.00     0.059 C 
ENDROOT
BRANCH   1   2
ATOM      2  C   UNL A   1      39.421  23.625  26.764  1.00  0.00     0.195 C 
BRANCH   2   3
ATOM      3  N   UNL A   1      40.383  24.476  26.118  1.00  0.00    -0.305 N 
ATOM      4  C   UNL A   1      39.465  26.778  28.155  1.00  0.00     0.032 C 
ATOM      5  C   UNL A   1      40.642  26.657  27.507  1.00  0.00     0.129 C 
ATOM      6  C   UNL A   1      41.811  27.537  27.746  1.00  0.00     0.323 C 
ATOM      7  C   UNL A   1      40.854  25.743  26.344  1.00  0.00     0.236 C 
ATOM      8  O   UNL A   1      42.261  27.747  28.865  1.00  0.00    -0.250 OA
ATOM      9  N   UNL A   1      42.297  28.070  26.570  1.00  0.00    -0.182 N 
ATOM     10  N   UNL A   1      41.634  26.142  25.372  1.00  0.00    -0.210 N 
ATOM     11  C   UNL A   1      42.173  27.399  25.371  1.00  0.00     0.444 C 
ATOM     12  H   UNL A   1      41.834  25.528  24.629  1.00  0.00     0.270 HD
ATOM     13  H   UNL A   1      40.799  24.051  25.334  1.00  0.00     0.256 HD
ATOM     14  O   UNL A   1      42.556  27.909  24.315  1.00  0.00    -0.212 OA
BRANCH   4  15
ATOM     15  C   UNL A   1      39.008  27.691  29.180  1.00  0.00    -0.003 A 
ATOM     16  C   UNL A   1      37.842  28.421  32.655  1.00  0.00     0.065 C 
ATOM     17  C   UNL A   1      38.287  28.386  31.232  1.00  0.00     0.020 A 
ATOM     18  C   UNL A   1      38.728  27.289  30.513  1.00  0.00     0.031 A 
ATOM     19  N   UNL A   1      38.240  29.462  30.363  1.00  0.00    -0.318 N 
ATOM     20  C   UNL A   1      38.669  29.038  29.102  1.00  0.00     0.027 A 
ATOM     21  C   UNL A   1      38.802  29.999  27.973  1.00  0.00     0.065 C 
BRANCH  19  22
ATOM     22  C   UNL A   1      37.867  30.799  30.682  1.00  0.00     0.046 A 
ATOM     23  C   UNL A   1      38.803  31.649  31.276  1.00  0.00     0.028 A 
ATOM     24  C   UNL A   1      36.530  31.197  30.559  1.00  0.00     0.038 A 
ATOM     25  C   UNL A   1      38.384  32.850  31.841  1.00  0.00     0.023 A 
ATOM     26  C   UNL A   1      36.102  32.422  31.115  1.00  0.00     0.018 A 
ATOM     27  C   UNL A   1      37.038  33.233  31.782  1.00  0.00     0.050 A 
ATOM     28  Cl  UNL A   1      36.643  34.706  32.599  1.00  0.00    -0.084 Cl
BRANCH  26  29
ATOM     29  C   UNL A   1      34.664  32.807  31.022  1.00  0.00     0.073 C 
ATOM     30  O   UNL A   1      34.052  33.226  30.060  1.00  0.00    -0.545 OA
ATOM     31  O   UNL A   1      34.015  32.633  32.191  1.00  0.00    -0.545 OA
ENDBRANCH  26  29
ENDBRANCH  19  22
ENDBRANCH   4  15
BRANCH   9  32
ATOM     32  C   UNL A   1      42.920  29.382  26.565  1.00  0.00     0.285 C 
BRANCH  32  33
ATOM     33  C   UNL A   1      44.365  29.329  26.872  1.00  0.00     0.138 A 
ATOM     34  C   UNL A   1      45.094  29.378  28.041  1.00  0.00     0.049 A 
ATOM     35  O   UNL A   1      45.194  29.096  25.814  1.00  0.00    -0.466 OA
ATOM     36  C   UNL A   1      46.445  29.175  27.673  1.00  0.00     0.042 A 
ATOM     37  C   UNL A   1      46.453  29.013  26.307  1.00  0.00     0.195 A 
ENDBRANCH  32  33
ENDBRANCH   9  32
ENDBRANCH   2   3
ENDBRANCH   1   2
BRANCH   1  38
ATOM     38  C   UNL A   1      41.547  22.580  27.919  1.00  0.00     0.119 C 
BRANCH  38  39
ATOM     39  N   UNL A   1      42.573  22.263  26.950  1.00  0.00    -0.352 N 
ATOM     40  C   UNL A   1      43.911  22.628  26.939  1.00  0.00     0.251 C 
ATOM     41  H   UNL A   1      42.280  21.711  26.189  1.00  0.00     0.163 HD
ATOM     42  O   UNL A   1      44.574  22.256  25.973  1.00  0.00    -0.269 OA
BRANCH  40  43
ATOM     43  C   UNL A   1      44.537  23.537  27.971  1.00  0.00     0.039 A 
ATOM     44  C   UNL A   1      44.061  23.448  29.270  1.00  0.00     0.014 A 
ATOM     45  C   UNL A   1      45.358  24.647  27.689  1.00  0.00     0.014 A 
ATOM     46  C   UNL A   1      44.441  24.408  30.255  1.00  0.00     0.010 A 
ATOM     47  C   UNL A   1      45.667  25.679  28.684  1.00  0.00     0.010 A 
ATOM     48  C   UNL A   1      45.198  25.613  30.010  1.00  0.00    -0.014 A 
BRANCH  48  49
ATOM     49  C   UNL A   1      44.935  26.833  31.050  1.00  0.00     0.031 A 
ATOM     50  C   UNL A   1      46.304  27.080  31.596  1.00  0.00     0.074 A 
ATOM     51  C   UNL A   1      43.952  27.617  31.662  1.00  0.00     0.049 A 
ATOM     52  N   UNL A   1      46.980  26.098  32.125  1.00  0.00    -0.248 NA
ATOM     53  C   UNL A   1      47.116  28.234  31.201  1.00  0.00     0.031 C 
ATOM     54  C   UNL A   1      42.488  27.495  31.556  1.00  0.00     0.029 A 
ATOM     55  N   UNL A   1      44.026  28.749  32.550  1.00  0.00    -0.354 N 
ATOM     56  C   UNL A   1      48.217  26.604  32.428  1.00  0.00     0.074 A 
ATOM     57  C   UNL A   1      48.315  27.813  31.619  1.00  0.00     0.031 C 
ATOM     58  C   UNL A   1      41.842  28.530  32.176  1.00  0.00     0.029 A 
ATOM     59  C   UNL A   1      42.785  29.442  32.827  1.00  0.00     0.049 A 
ATOM     60  H   UNL A   1      44.878  29.037  32.949  1.00  0.00     0.167 HD
ATOM     61  C   UNL A   1      48.638  26.417  33.713  1.00  0.00     0.034 A 
ATOM     62  C   UNL A   1      42.506  30.597  33.569  1.00  0.00     0.034 A 
ATOM     63  C   UNL A   1      48.467  27.609  34.502  1.00  0.00     0.049 A 
ATOM     64  C   UNL A   1      43.562  30.716  34.575  1.00  0.00     0.074 A 
ATOM     65  C   UNL A   1      48.755  28.939  34.274  1.00  0.00     0.029 A 
ATOM     66  N   UNL A   1      47.492  27.577  35.478  1.00  0.00    -0.354 N 
ATOM     67  N   UNL A   1      43.576  29.971  35.634  1.00  0.00    -0.248 NA
ATOM     68  C   UNL A   1      44.605  31.733  34.504  1.00  0.00     0.031 C 
ATOM     69  C   UNL A   1      47.605  29.632  34.718  1.00  0.00     0.029 A 
ATOM     70  C   UNL A   1      46.842  28.793  35.523  1.00  0.00     0.049 A 
ATOM     71  H   UNL A   1      47.291  26.804  36.054  1.00  0.00     0.167 HD
ATOM     72  C   UNL A   1      44.872  30.045  36.034  1.00  0.00     0.074 A 
ATOM     73  C   UNL A   1      45.352  31.318  35.529  1.00  0.00     0.031 C 
ATOM     74  C   UNL A   1      45.536  28.867  36.157  1.00  0.00     0.034 A 
BRANCH  61  75
ATOM     75  C   UNL A   1      48.416  25.021  34.232  1.00  0.00     0.023 A 
ATOM     76  C   UNL A   1      47.125  24.629  34.609  1.00  0.00     0.031 A 
ATOM     77  C   UNL A   1      49.474  24.117  34.472  1.00  0.00     0.131 A 
ATOM     78  C   UNL A   1      46.934  23.398  35.260  1.00  0.00     0.055 A 
ATOM     79  C   UNL A   1      49.291  22.928  35.173  1.00  0.00     0.041 A 
ATOM     80  F   UNL A   1      50.712  24.378  34.020  1.00  0.00    -0.206 F 
ATOM     81  C   UNL A   1      48.013  22.567  35.583  1.00  0.00     0.022 A 
BRANCH  78  82
ATOM     82  S   UNL A   1      45.243  22.874  35.648  1.00  0.00     0.124 S 
ATOM     83  O   UNL A   1      45.186  23.023  37.098  1.00  0.00    -0.237 OA
ATOM     84  O   UNL A   1      44.442  23.831  34.887  1.00  0.00    -0.237 OA
ATOM     85  O   UNL A   1      45.182  21.498  35.160  1.00  0.00    -0.744 OA
ENDBRANCH  78  82
ENDBRANCH  61  75
BRANCH  62  86
ATOM     86  C   UNL A   1      41.425  31.686  33.849  1.00  0.00     0.023 A 
ATOM     87  C   UNL A   1      40.343  31.477  34.800  1.00  0.00     0.031 A 
ATOM     88  C   UNL A   1      41.638  33.027  33.511  1.00  0.00     0.131 A 
ATOM     89  C   UNL A   1      39.604  32.546  35.386  1.00  0.00     0.055 A 
ATOM     90  C   UNL A   1      40.887  34.086  34.083  1.00  0.00     0.041 A 
ATOM     91  F   UNL A   1      42.649  33.368  32.700  1.00  0.00    -0.206 F 
ATOM     92  C   UNL A   1      39.889  33.856  35.030  1.00  0.00     0.022 A 
BRANCH  89  93
ATOM     93  S   UNL A   1      38.406  32.279  36.769  1.00  0.00     0.124 S 
ATOM     94  O   UNL A   1      39.261  32.283  37.949  1.00  0.00    -0.237 OA
ATOM     95  O   UNL A   1      37.486  33.402  36.625  1.00  0.00    -0.237 OA
ATOM     96  O   UNL A   1      37.810  30.977  36.456  1.00  0.00    -0.744 OA
ENDBRANCH  89  93
ENDBRANCH  62  86
BRANCH  74  97
ATOM     97  C   UNL A   1      44.770  27.689  36.774  1.00  0.00     0.023 A 
ATOM     98  C   UNL A   1      43.605  27.065  36.245  1.00  0.00     0.031 A 
ATOM     99  C   UNL A   1      45.198  27.221  38.027  1.00  0.00     0.131 A 
ATOM    100  C   UNL A   1      42.909  26.074  36.969  1.00  0.00     0.055 A 
ATOM    101  C   UNL A   1      44.539  26.204  38.723  1.00  0.00     0.041 A 
ATOM    102  F   UNL A   1      46.278  27.760  38.616  1.00  0.00    -0.206 F 
ATOM    103  C   UNL A   1      43.380  25.638  38.205  1.00  0.00     0.022 A 
BRANCH 100 104
ATOM    104  S   UNL A   1      41.325  25.408  36.349  1.00  0.00     0.124 S 
ATOM    105  O   UNL A   1      40.423  25.563  37.485  1.00  0.00    -0.237 OA
ATOM    106  O   UNL A   1      41.047  26.258  35.195  1.00  0.00    -0.237 OA
ATOM    107  O   UNL A   1      41.646  24.018  36.019  1.00  0.00    -0.744 OA
ENDBRANCH 100 104
ENDBRANCH  74  97
ENDBRANCH  48  49
ENDBRANCH  40  43
ENDBRANCH  38  39
ENDBRANCH   1  38
TORSDOF 17
ENDMDL
MODEL 2
REMARK VINA RESULT:     -10.5      4.712      9.664
REMARK SMILES Cc1cc(/C=C2\C(=O)N(Cc3ccco3)C(=O)[NH+]=C2NCCCNC(=O)c2ccc(-c3c4nc(c(-c5cc(S(=O)(=O)[O-])ccc5F)c5ccc([nH]5)c(-c5cc(S(=O)(=O)[O-])ccc5F)c5nc(c(-c6cc(S(=O)(=O)[O-])ccc6F)c6ccc3[nH]6)C=C5)C=C4)cc2)c(C)n1-c1ccc(Cl)c(C(=O)[O-])c1
REMARK SMILES IDX 22 1 21 2 20 3 5 4 6 5 7 6 19 7 8 8 9 9 18 10 16 11 17 14
REMARK SMILES IDX 4 15 1 16 2 17 3 18 92 19 90 20 91 21 93 22 94 23 102 24
REMARK SMILES IDX 95 25 98 26 96 27 97 28 99 29 100 30 101 31 10 32 11 33
REMARK SMILES IDX 12 34 15 35 13 36 14 37 23 38 24 39 25 40 26 42 27 43 28 44
REMARK SMILES IDX 89 45 29 46 88 47 30 48 31 49 32 50 82 51 33 52 87 53 81 54
REMARK SMILES IDX 83 55 34 56 86 57 80 58 79 59 35 61 67 62 47 63 66 64 48 65
REMARK SMILES IDX 51 66 65 67 84 68 49 69 50 70 64 72 85 73 52 74 36 75 37 76
REMARK SMILES IDX 45 77 38 78 44 79 46 80 43 81 39 82 40 83 41 84 42 85 68 86
REMARK SMILES IDX 69 87 77 88 70 89 76 90 78 91 75 92 71 93 72 94 73 95 74 96
REMARK SMILES IDX 53 97 54 98 62 99 55 100 61 101 63 102 60 103 56 104 57 105
REMARK SMILES IDX 58 106 59 107
REMARK H PARENT 18 12 20 13 24 41 83 60 51 71
REMARK Flexibility Score: inf
ROOT
ATOM      1  C   UNL A   1      43.580  23.146  24.844  1.00  0.00     0.059 C 
ENDROOT
BRANCH   1   2
ATOM      2  C   UNL A   1      44.752  24.132  24.690  1.00  0.00     0.195 C 
BRANCH   2   3
ATOM      3  N   UNL A   1      44.616  25.252  25.580  1.00  0.00    -0.305 N 
ATOM      4  C   UNL A   1      47.494  26.214  24.541  1.00  0.00     0.032 C 
ATOM      5  C   UNL A   1      46.507  26.962  25.074  1.00  0.00     0.129 C 
ATOM      6  C   UNL A   1      46.539  28.442  25.147  1.00  0.00     0.323 C 
ATOM      7  C   UNL A   1      45.346  26.386  25.820  1.00  0.00     0.236 C 
ATOM      8  O   UNL A   1      46.769  29.145  24.171  1.00  0.00    -0.250 OA
ATOM      9  N   UNL A   1      46.288  28.896  26.425  1.00  0.00    -0.182 N 
ATOM     10  N   UNL A   1      44.883  27.043  26.854  1.00  0.00    -0.210 N 
ATOM     11  C   UNL A   1      45.496  28.181  27.300  1.00  0.00     0.444 C 
ATOM     12  H   UNL A   1      44.080  26.711  27.318  1.00  0.00     0.270 HD
ATOM     13  H   UNL A   1      43.813  25.192  26.146  1.00  0.00     0.256 HD
ATOM     14  O   UNL A   1      45.326  28.563  28.460  1.00  0.00    -0.212 OA
BRANCH   4  15
ATOM     15  C   UNL A   1      48.758  26.563  23.930  1.00  0.00    -0.003 A 
ATOM     16  C   UNL A   1      52.452  27.109  24.091  1.00  0.00     0.065 C 
ATOM     17  C   UNL A   1      51.004  26.946  23.774  1.00  0.00     0.020 A 
ATOM     18  C   UNL A   1      49.995  26.533  24.627  1.00  0.00     0.031 A 
ATOM     19  N   UNL A   1      50.417  27.280  22.567  1.00  0.00    -0.318 N 
ATOM     20  C   UNL A   1      49.040  27.059  22.660  1.00  0.00     0.027 A 
ATOM     21  C   UNL A   1      48.148  27.255  21.485  1.00  0.00     0.065 C 
BRANCH  19  22
ATOM     22  C   UNL A   1      51.084  27.732  21.391  1.00  0.00     0.046 A 
ATOM     23  C   UNL A   1      51.081  29.094  21.081  1.00  0.00     0.028 A 
ATOM     24  C   UNL A   1      51.583  26.800  20.473  1.00  0.00     0.038 A 
ATOM     25  C   UNL A   1      51.478  29.515  19.815  1.00  0.00     0.023 A 
ATOM     26  C   UNL A   1      52.004  27.222  19.193  1.00  0.00     0.018 A 
ATOM     27  C   UNL A   1      51.921  28.587  18.863  1.00  0.00     0.050 A 
ATOM     28  Cl  UNL A   1      52.300  29.238  17.306  1.00  0.00    -0.084 Cl
BRANCH  26  29
ATOM     29  C   UNL A   1      52.483  26.211  18.207  1.00  0.00     0.073 C 
ATOM     30  O   UNL A   1      53.290  25.317  18.370  1.00  0.00    -0.545 OA
ATOM     31  O   UNL A   1      51.897  26.358  17.002  1.00  0.00    -0.545 OA
ENDBRANCH  26  29
ENDBRANCH  19  22
ENDBRANCH   4  15
BRANCH   9  32
ATOM     32  C   UNL A   1      46.891  30.131  26.892  1.00  0.00     0.285 C 
BRANCH  32  33
ATOM     33  C   UNL A   1      46.081  31.324  26.563  1.00  0.00     0.138 A 
ATOM     34  C   UNL A   1      44.751  31.519  26.262  1.00  0.00     0.049 A 
ATOM     35  O   UNL A   1      46.722  32.525  26.647  1.00  0.00    -0.466 OA
ATOM     36  C   UNL A   1      44.573  32.918  26.143  1.00  0.00     0.042 A 
ATOM     37  C   UNL A   1      45.803  33.484  26.383  1.00  0.00     0.195 A 
ENDBRANCH  32  33
ENDBRANCH   9  32
ENDBRANCH   2   3
ENDBRANCH   1   2
BRANCH   1  38
ATOM     38  C   UNL A   1      42.850  23.121  26.209  1.00  0.00     0.119 C 
BRANCH  38  39
ATOM     39  N   UNL A   1      41.451  22.763  26.141  1.00  0.00    -0.352 N 
ATOM     40  C   UNL A   1      40.356  23.393  26.712  1.00  0.00     0.251 C 
ATOM     41  H   UNL A   1      41.246  21.956  25.614  1.00  0.00     0.163 HD
ATOM     42  O   UNL A   1      39.261  22.863  26.531  1.00  0.00    -0.269 OA
BRANCH  40  43
ATOM     43  C   UNL A   1      40.465  24.595  27.620  1.00  0.00     0.039 A 
ATOM     44  C   UNL A   1      39.349  24.930  28.370  1.00  0.00     0.014 A 
ATOM     45  C   UNL A   1      41.489  25.561  27.574  1.00  0.00     0.014 A 
ATOM     46  C   UNL A   1      39.291  26.163  29.086  1.00  0.00     0.010 A 
ATOM     47  C   UNL A   1      41.382  26.865  28.238  1.00  0.00     0.010 A 
ATOM     48  C   UNL A   1      40.261  27.230  29.006  1.00  0.00    -0.014 A 
BRANCH  48  49
ATOM     49  C   UNL A   1      39.694  28.720  29.323  1.00  0.00     0.031 A 
ATOM     50  C   UNL A   1      40.955  29.505  29.489  1.00  0.00     0.074 A 
ATOM     51  C   UNL A   1      38.543  29.470  29.584  1.00  0.00     0.049 A 
ATOM     52  N   UNL A   1      41.858  29.112  30.344  1.00  0.00    -0.248 NA
ATOM     53  C   UNL A   1      41.447  30.435  28.469  1.00  0.00     0.031 C 
ATOM     54  C   UNL A   1      37.159  28.994  29.745  1.00  0.00     0.029 A 
ATOM     55  N   UNL A   1      38.326  30.882  29.770  1.00  0.00    -0.354 N 
ATOM     56  C   UNL A   1      42.925  29.958  30.191  1.00  0.00     0.074 A 
ATOM     57  C   UNL A   1      42.713  30.564  28.882  1.00  0.00     0.031 C 
ATOM     58  C   UNL A   1      36.270  30.030  29.844  1.00  0.00     0.029 A 
ATOM     59  C   UNL A   1      36.949  31.327  29.824  1.00  0.00     0.049 A 
ATOM     60  H   UNL A   1      39.077  31.512  29.858  1.00  0.00     0.167 HD
ATOM     61  C   UNL A   1      43.378  30.557  31.330  1.00  0.00     0.034 A 
ATOM     62  C   UNL A   1      36.385  32.606  29.919  1.00  0.00     0.034 A 
ATOM     63  C   UNL A   1      42.909  31.914  31.434  1.00  0.00     0.049 A 
ATOM     64  C   UNL A   1      37.374  33.454  30.585  1.00  0.00     0.074 A 
ATOM     65  C   UNL A   1      42.849  32.962  30.537  1.00  0.00     0.029 A 
ATOM     66  N   UNL A   1      41.972  32.178  32.413  1.00  0.00    -0.354 N 
ATOM     67  N   UNL A   1      37.576  33.386  31.862  1.00  0.00    -0.248 NA
ATOM     68  C   UNL A   1      38.124  34.487  29.881  1.00  0.00     0.031 C 
ATOM     69  C   UNL A   1      41.560  33.513  30.722  1.00  0.00     0.029 A 
ATOM     70  C   UNL A   1      41.034  33.066  31.930  1.00  0.00     0.049 A 
ATOM     71  H   UNL A   1      41.975  31.791  33.318  1.00  0.00     0.167 HD
ATOM     72  C   UNL A   1      38.811  33.936  31.999  1.00  0.00     0.074 A 
ATOM     73  C   UNL A   1      38.951  34.836  30.869  1.00  0.00     0.031 C 
ATOM     74  C   UNL A   1      39.752  33.170  32.606  1.00  0.00     0.034 A 
BRANCH  61  75
ATOM     75  C   UNL A   1      43.518  29.620  32.500  1.00  0.00     0.023 A 
ATOM     76  C   UNL A   1      43.003  30.000  33.746  1.00  0.00     0.031 A 
ATOM     77  C   UNL A   1      44.254  28.416  32.432  1.00  0.00     0.131 A 
ATOM     78  C   UNL A   1      43.283  29.221  34.882  1.00  0.00     0.055 A 
ATOM     79  C   UNL A   1      44.581  27.681  33.568  1.00  0.00     0.041 A 
ATOM     80  F   UNL A   1      44.664  27.931  31.248  1.00  0.00    -0.206 F 
ATOM     81  C   UNL A   1      44.104  28.089  34.807  1.00  0.00     0.022 A 
BRANCH  78  82
ATOM     82  S   UNL A   1      42.523  29.683  36.461  1.00  0.00     0.124 S 
ATOM     83  O   UNL A   1      42.037  31.034  36.199  1.00  0.00    -0.237 OA
ATOM     84  O   UNL A   1      41.488  28.663  36.616  1.00  0.00    -0.237 OA
ATOM     85  O   UNL A   1      43.622  29.592  37.419  1.00  0.00    -0.744 OA
ENDBRANCH  78  82
ENDBRANCH  61  75
BRANCH  62  86
ATOM     86  C   UNL A   1      35.062  33.416  29.757  1.00  0.00     0.023 A 
ATOM     87  C   UNL A   1      34.534  34.259  30.820  1.00  0.00     0.031 A 
ATOM     88  C   UNL A   1      34.523  33.684  28.494  1.00  0.00     0.131 A 
ATOM     89  C   UNL A   1      33.597  35.308  30.588  1.00  0.00     0.055 A 
ATOM     90  C   UNL A   1      33.576  34.717  28.271  1.00  0.00     0.041 A 
ATOM     91  F   UNL A   1      34.973  33.030  27.414  1.00  0.00    -0.206 F 
ATOM     92  C   UNL A   1      33.128  35.541  29.304  1.00  0.00     0.022 A 
BRANCH  89  93
ATOM     93  S   UNL A   1      33.126  36.521  31.901  1.00  0.00     0.124 S 
ATOM     94  O   UNL A   1      34.267  36.484  32.807  1.00  0.00    -0.237 OA
ATOM     95  O   UNL A   1      32.927  37.756  31.150  1.00  0.00    -0.237 OA
ATOM     96  O   UNL A   1      31.893  35.958  32.458  1.00  0.00    -0.744 OA
ENDBRANCH  89  93
ENDBRANCH  62  86
BRANCH  74  97
ATOM     97  C   UNL A   1      39.310  32.344  33.822  1.00  0.00     0.023 A 
ATOM     98  C   UNL A   1      39.033  32.840  35.127  1.00  0.00     0.031 A 
ATOM     99  C   UNL A   1      39.249  30.950  33.673  1.00  0.00     0.131 A 
ATOM    100  C   UNL A   1      38.763  31.968  36.203  1.00  0.00     0.055 A 
ATOM    101  C   UNL A   1      38.931  30.087  34.725  1.00  0.00     0.041 A 
ATOM    102  F   UNL A   1      39.512  30.385  32.483  1.00  0.00    -0.206 F 
ATOM    103  C   UNL A   1      38.704  30.592  36.001  1.00  0.00     0.022 A 
BRANCH 100 104
ATOM    104  S   UNL A   1      38.577  32.614  37.902  1.00  0.00     0.124 S 
ATOM    105  O   UNL A   1      37.727  31.622  38.551  1.00  0.00    -0.237 OA
ATOM    106  O   UNL A   1      39.956  32.678  38.377  1.00  0.00    -0.237 OA
ATOM    107  O   UNL A   1      37.939  33.917  37.703  1.00  0.00    -0.744 OA
ENDBRANCH 100 104
ENDBRANCH  74  97
ENDBRANCH  48  49
ENDBRANCH  40  43
ENDBRANCH  38  39
ENDBRANCH   1  38
TORSDOF 17
ENDMDL
MODEL 3
REMARK VINA RESULT:     -10.2      3.238      7.980
REMARK SMILES Cc1cc(/C=C2\C(=O)N(Cc3ccco3)C(=O)[NH+]=C2NCCCNC(=O)c2ccc(-c3c4nc(c(-c5cc(S(=O)(=O)[O-])ccc5F)c5ccc([nH]5)c(-c5cc(S(=O)(=O)[O-])ccc5F)c5nc(c(-c6cc(S(=O)(=O)[O-])ccc6F)c6ccc3[nH]6)C=C5)C=C4)cc2)c(C)n1-c1ccc(Cl)c(C(=O)[O-])c1
REMARK SMILES IDX 22 1 21 2 20 3 5 4 6 5 7 6 19 7 8 8 9 9 18 10 16 11 17 14
REMARK SMILES IDX 4 15 1 16 2 17 3 18 92 19 90 20 91 21 93 22 94 23 102 24
REMARK SMILES IDX 95 25 98 26 96 27 97 28 99 29 100 30 101 31 10 32 11 33
REMARK SMILES IDX 12 34 15 35 13 36 14 37 23 38 24 39 25 40 26 42 27 43 28 44
REMARK SMILES IDX 89 45 29 46 88 47 30 48 31 49 32 50 82 51 33 52 87 53 81 54
REMARK SMILES IDX 83 55 34 56 86 57 80 58 79 59 35 61 67 62 47 63 66 64 48 65
REMARK SMILES IDX 51 66 65 67 84 68 49 69 50 70 64 72 85 73 52 74 36 75 37 76
REMARK SMILES IDX 45 77 38 78 44 79 46 80 43 81 39 82 40 83 41 84 42 85 68 86
REMARK SMILES IDX 69 87 77 88 70 89 76 90 78 91 75 92 71 93 72 94 73 95 74 96
REMARK SMILES IDX 53 97 54 98 62 99 55 100 61 101 63 102 60 103 56 104 57 105
REMARK SMILES IDX 58 106 59 107
REMARK H PARENT 18 12 20 13 24 41 83 60 51 71
REMARK Flexibility Score: inf
ROOT
ATOM      1  C   UNL A   1      42.405  26.224  25.452  1.00  0.00     0.059 C 
ENDROOT
BRANCH   1   2
ATOM      2  C   UNL A   1      43.257  27.489  25.659  1.00  0.00     0.195 C 
BRANCH   2   3
ATOM      3  N   UNL A   1      44.452  27.454  24.861  1.00  0.00    -0.305 N 
ATOM      4  C   UNL A   1      46.051  26.876  27.582  1.00  0.00     0.032 C 
ATOM      5  C   UNL A   1      46.410  26.563  26.320  1.00  0.00     0.129 C 
ATOM      6  C   UNL A   1      47.596  25.741  25.977  1.00  0.00     0.323 C 
ATOM      7  C   UNL A   1      45.767  27.155  25.107  1.00  0.00     0.236 C 
ATOM      8  O   UNL A   1      47.809  24.647  26.485  1.00  0.00    -0.250 OA
ATOM      9  N   UNL A   1      48.399  26.366  25.046  1.00  0.00    -0.182 N 
ATOM     10  N   UNL A   1      46.519  27.417  24.069  1.00  0.00    -0.210 N 
ATOM     11  C   UNL A   1      47.874  27.239  24.115  1.00  0.00     0.444 C 
ATOM     12  H   UNL A   1      46.102  27.748  23.240  1.00  0.00     0.270 HD
ATOM     13  H   UNL A   1      44.289  27.699  23.922  1.00  0.00     0.256 HD
ATOM     14  O   UNL A   1      48.606  27.840  23.324  1.00  0.00    -0.212 OA
BRANCH   4  15
ATOM     15  C   UNL A   1      46.628  26.548  28.867  1.00  0.00    -0.003 A 
ATOM     16  C   UNL A   1      49.483  25.426  31.003  1.00  0.00     0.065 C 
ATOM     17  C   UNL A   1      48.215  25.897  30.375  1.00  0.00     0.020 A 
ATOM     18  C   UNL A   1      47.986  26.170  29.037  1.00  0.00     0.031 A 
ATOM     19  N   UNL A   1      47.012  26.051  31.042  1.00  0.00    -0.318 N 
ATOM     20  C   UNL A   1      46.035  26.439  30.121  1.00  0.00     0.027 A 
ATOM     21  C   UNL A   1      44.649  26.758  30.560  1.00  0.00     0.065 C 
BRANCH  19  22
ATOM     22  C   UNL A   1      46.788  25.896  32.440  1.00  0.00     0.046 A 
ATOM     23  C   UNL A   1      47.362  26.804  33.333  1.00  0.00     0.028 A 
ATOM     24  C   UNL A   1      46.144  24.748  32.918  1.00  0.00     0.038 A 
ATOM     25  C   UNL A   1      47.386  26.514  34.694  1.00  0.00     0.023 A 
ATOM     26  C   UNL A   1      46.149  24.456  34.300  1.00  0.00     0.018 A 
ATOM     27  C   UNL A   1      46.802  25.337  35.181  1.00  0.00     0.050 A 
ATOM     28  Cl  UNL A   1      46.981  25.062  36.879  1.00  0.00    -0.084 Cl
BRANCH  26  29
ATOM     29  C   UNL A   1      45.506  23.202  34.788  1.00  0.00     0.073 C 
ATOM     30  O   UNL A   1      44.335  23.002  35.043  1.00  0.00    -0.545 OA
ATOM     31  O   UNL A   1      46.393  22.198  34.932  1.00  0.00    -0.545 OA
ENDBRANCH  26  29
ENDBRANCH  19  22
ENDBRANCH   4  15
BRANCH   9  32
ATOM     32  C   UNL A   1      49.833  26.144  25.052  1.00  0.00     0.285 C 
BRANCH  32  33
ATOM     33  C   UNL A   1      50.488  26.664  26.271  1.00  0.00     0.138 A 
ATOM     34  C   UNL A   1      51.428  26.153  27.140  1.00  0.00     0.049 A 
ATOM     35  O   UNL A   1      50.199  27.955  26.601  1.00  0.00    -0.466 OA
ATOM     36  C   UNL A   1      51.720  27.188  28.060  1.00  0.00     0.042 A 
ATOM     37  C   UNL A   1      50.943  28.262  27.691  1.00  0.00     0.195 A 
ENDBRANCH  32  33
ENDBRANCH   9  32
ENDBRANCH   2   3
ENDBRANCH   1   2
BRANCH   1  38
ATOM     38  C   UNL A   1      43.131  24.860  25.543  1.00  0.00     0.119 C 
BRANCH  38  39
ATOM     39  N   UNL A   1      42.270  23.736  25.841  1.00  0.00    -0.352 N 
ATOM     40  C   UNL A   1      41.296  23.614  26.820  1.00  0.00     0.251 C 
ATOM     41  H   UNL A   1      42.394  22.945  25.268  1.00  0.00     0.163 HD
ATOM     42  O   UNL A   1      40.720  22.529  26.890  1.00  0.00    -0.269 OA
BRANCH  40  43
ATOM     43  C   UNL A   1      41.008  24.682  27.849  1.00  0.00     0.039 A 
ATOM     44  C   UNL A   1      39.688  25.071  28.011  1.00  0.00     0.014 A 
ATOM     45  C   UNL A   1      41.973  25.507  28.459  1.00  0.00     0.014 A 
ATOM     46  C   UNL A   1      39.353  26.212  28.799  1.00  0.00     0.010 A 
ATOM     47  C   UNL A   1      41.625  26.730  29.190  1.00  0.00     0.010 A 
ATOM     48  C   UNL A   1      40.293  27.148  29.370  1.00  0.00    -0.014 A 
BRANCH  48  49
ATOM     49  C   UNL A   1      39.729  28.652  29.611  1.00  0.00     0.031 A 
ATOM     50  C   UNL A   1      40.988  29.457  29.645  1.00  0.00     0.074 A 
ATOM     51  C   UNL A   1      38.586  29.411  29.884  1.00  0.00     0.049 A 
ATOM     52  N   UNL A   1      41.943  29.134  30.472  1.00  0.00    -0.248 NA
ATOM     53  C   UNL A   1      41.408  30.313  28.533  1.00  0.00     0.031 C 
ATOM     54  C   UNL A   1      37.219  28.938  30.160  1.00  0.00     0.029 A 
ATOM     55  N   UNL A   1      38.363  30.831  29.980  1.00  0.00    -0.354 N 
ATOM     56  C   UNL A   1      42.990  29.974  30.195  1.00  0.00     0.074 A 
ATOM     57  C   UNL A   1      42.695  30.481  28.860  1.00  0.00     0.031 C 
ATOM     58  C   UNL A   1      36.325  29.972  30.236  1.00  0.00     0.029 A 
ATOM     59  C   UNL A   1      36.987  31.270  30.082  1.00  0.00     0.049 A 
ATOM     60  H   UNL A   1      39.111  31.472  29.977  1.00  0.00     0.167 HD
ATOM     61  C   UNL A   1      43.501  30.658  31.259  1.00  0.00     0.034 A 
ATOM     62  C   UNL A   1      36.415  32.548  30.118  1.00  0.00     0.034 A 
ATOM     63  C   UNL A   1      43.023  32.016  31.292  1.00  0.00     0.049 A 
ATOM     64  C   UNL A   1      37.432  33.450  30.660  1.00  0.00     0.074 A 
ATOM     65  C   UNL A   1      42.900  32.994  30.326  1.00  0.00     0.029 A 
ATOM     66  N   UNL A   1      42.143  32.344  32.302  1.00  0.00    -0.354 N 
ATOM     67  N   UNL A   1      37.708  33.476  31.925  1.00  0.00    -0.248 NA
ATOM     68  C   UNL A   1      38.127  34.434  29.841  1.00  0.00     0.031 C 
ATOM     69  C   UNL A   1      41.617  33.549  30.546  1.00  0.00     0.029 A 
ATOM     70  C   UNL A   1      41.168  33.187  31.812  1.00  0.00     0.049 A 
ATOM     71  H   UNL A   1      42.202  32.024  33.232  1.00  0.00     0.167 HD
ATOM     72  C   UNL A   1      38.942  34.044  31.949  1.00  0.00     0.074 A 
ATOM     73  C   UNL A   1      39.006  34.860  30.750  1.00  0.00     0.031 C 
ATOM     74  C   UNL A   1      39.926  33.331  32.553  1.00  0.00     0.034 A 
BRANCH  61  75
ATOM     75  C   UNL A   1      43.720  29.810  32.484  1.00  0.00     0.023 A 
ATOM     76  C   UNL A   1      42.666  29.025  32.969  1.00  0.00     0.031 A 
ATOM     77  C   UNL A   1      44.909  29.857  33.245  1.00  0.00     0.131 A 
ATOM     78  C   UNL A   1      42.797  28.372  34.206  1.00  0.00     0.055 A 
ATOM     79  C   UNL A   1      45.012  29.261  34.499  1.00  0.00     0.041 A 
ATOM     80  F   UNL A   1      45.998  30.486  32.773  1.00  0.00    -0.206 F 
ATOM     81  C   UNL A   1      43.946  28.520  34.993  1.00  0.00     0.022 A 
BRANCH  78  82
ATOM     82  S   UNL A   1      41.457  27.286  34.761  1.00  0.00     0.124 S 
ATOM     83  O   UNL A   1      40.438  27.485  33.736  1.00  0.00    -0.237 OA
ATOM     84  O   UNL A   1      42.101  25.974  34.760  1.00  0.00    -0.237 OA
ATOM     85  O   UNL A   1      41.114  27.800  36.086  1.00  0.00    -0.744 OA
ENDBRANCH  78  82
ENDBRANCH  61  75
BRANCH  62  86
ATOM     86  C   UNL A   1      35.076  33.334  29.975  1.00  0.00     0.023 A 
ATOM     87  C   UNL A   1      34.611  34.265  30.993  1.00  0.00     0.031 A 
ATOM     88  C   UNL A   1      34.450  33.487  28.733  1.00  0.00     0.131 A 
ATOM     89  C   UNL A   1      33.650  35.286  30.734  1.00  0.00     0.055 A 
ATOM     90  C   UNL A   1      33.480  34.492  28.485  1.00  0.00     0.041 A 
ATOM     91  F   UNL A   1      34.833  32.742  27.687  1.00  0.00    -0.206 F 
ATOM     92  C   UNL A   1      33.093  35.402  29.469  1.00  0.00     0.022 A 
BRANCH  89  93
ATOM     93  S   UNL A   1      33.256  36.608  31.964  1.00  0.00     0.124 S 
ATOM     94  O   UNL A   1      32.048  36.107  32.609  1.00  0.00    -0.237 OA
ATOM     95  O   UNL A   1      34.461  36.661  32.784  1.00  0.00    -0.237 OA
ATOM     96  O   UNL A   1      33.048  37.797  31.133  1.00  0.00    -0.744 OA
ENDBRANCH  89  93
ENDBRANCH  62  86
BRANCH  74  97
ATOM     97  C   UNL A   1      39.565  32.593  33.850  1.00  0.00     0.023 A 
ATOM     98  C   UNL A   1      39.415  33.173  35.141  1.00  0.00     0.031 A 
ATOM     99  C   UNL A   1      39.450  31.195  33.791  1.00  0.00     0.131 A 
ATOM    100  C   UNL A   1      39.213  32.375  36.287  1.00  0.00     0.055 A 
ATOM    101  C   UNL A   1      39.197  30.406  34.917  1.00  0.00     0.041 A 
ATOM    102  F   UNL A   1      39.593  30.554  32.620  1.00  0.00    -0.206 F 
ATOM    103  C   UNL A   1      39.095  30.992  36.174  1.00  0.00     0.022 A 
BRANCH 100 104
ATOM    104  S   UNL A   1      39.191  33.125  37.953  1.00  0.00     0.124 S 
ATOM    105  O   UNL A   1      38.072  32.459  38.610  1.00  0.00    -0.237 OA
ATOM    106  O   UNL A   1      40.517  32.800  38.470  1.00  0.00    -0.237 OA
ATOM    107  O   UNL A   1      38.972  34.547  37.684  1.00  0.00    -0.744 OA
ENDBRANCH 100 104
ENDBRANCH  74  97
ENDBRANCH  48  49
ENDBRANCH  40  43
ENDBRANCH  38  39
ENDBRANCH   1  38
TORSDOF 17
ENDMDL
