MODEL 1
REMARK VINA RESULT:     -12.7      0.000      0.000
REMARK SMILES Cc1c(CC(=O)NCCCNC(=O)c2ccc(-c3c4nc(c(-c5cc(S(=O)(=O)[O-])ccc5F)c5ccc([nH]5)c(-c5cc(S(=O)(=O)[O-])ccc5F)c5nc(c(-c6cc(S(=O)(=O)[O-])ccc6F)c6ccc3[nH]6)C=C5)C=C4)cc2)c2ccccc2n1C(=O)c1ccc(Cl)cc1
REMARK SMILES IDX 9 1 8 2 7 3 5 4 6 5 4 7 3 8 1 9 2 10 83 11 77 12 82 13 78 14
REMARK SMILES IDX 81 15 79 16 80 17 84 18 85 19 86 20 87 21 92 22 88 23 91 24
REMARK SMILES IDX 89 25 90 26 10 27 11 28 12 29 13 31 14 32 15 33 76 34 16 35
REMARK SMILES IDX 75 36 17 37 18 38 19 39 69 40 20 41 74 42 68 43 70 44 21 45
REMARK SMILES IDX 73 46 67 47 66 48 22 50 54 51 34 52 53 53 35 54 38 55 52 56
REMARK SMILES IDX 71 57 36 58 37 59 51 61 72 62 39 63 23 64 24 65 32 66 25 67
REMARK SMILES IDX 31 68 33 69 30 70 26 71 27 72 28 73 29 74 55 75 56 76 64 77
REMARK SMILES IDX 57 78 63 79 65 80 62 81 58 82 59 83 60 84 61 85 40 86 41 87
REMARK SMILES IDX 49 88 42 89 48 90 50 91 47 92 43 93 44 94 45 95 46 96
REMARK H PARENT 7 6 11 30 70 49 38 60
REMARK Flexibility Score: inf
ROOT
ATOM      1  C   UNL A   1      33.417  29.757  27.475  1.00  0.00     0.042 C 
ENDROOT
BRANCH   1   2
ATOM      2  C   UNL A   1      34.089  28.520  26.873  1.00  0.00     0.117 C 
BRANCH   2   3
ATOM      3  N   UNL A   1      33.720  28.294  25.485  1.00  0.00    -0.356 N 
ATOM      4  C   UNL A   1      33.224  27.168  24.893  1.00  0.00     0.224 C 
ATOM      5  O   UNL A   1      32.955  27.213  23.690  1.00  0.00    -0.275 OA
ATOM      6  H   UNL A   1      33.847  29.064  24.885  1.00  0.00     0.163 HD
BRANCH   4   7
ATOM      7  C   UNL A   1      32.965  25.914  25.714  1.00  0.00     0.138 C 
BRANCH   7   8
ATOM      8  C   UNL A   1      33.340  24.650  25.000  1.00  0.00    -0.010 A 
ATOM      9  C   UNL A   1      31.112  24.194  23.771  1.00  0.00     0.065 C 
ATOM     10  C   UNL A   1      32.518  23.882  24.187  1.00  0.00     0.028 A 
ATOM     11  N   UNL A   1      33.200  22.705  23.842  1.00  0.00    -0.280 N 
ATOM     12  C   UNL A   1      34.628  24.050  24.979  1.00  0.00     0.004 A 
ATOM     13  C   UNL A   1      34.552  22.899  24.185  1.00  0.00     0.056 A 
ATOM     14  C   UNL A   1      35.867  24.415  25.554  1.00  0.00     0.010 A 
ATOM     15  C   UNL A   1      35.723  22.162  23.906  1.00  0.00     0.027 A 
ATOM     16  C   UNL A   1      37.005  23.641  25.329  1.00  0.00     0.001 A 
ATOM     17  C   UNL A   1      36.932  22.532  24.503  1.00  0.00     0.002 A 
BRANCH  11  18
ATOM     18  C   UNL A   1      32.617  21.537  23.268  1.00  0.00     0.262 C 
ATOM     19  O   UNL A   1      32.095  21.631  22.154  1.00  0.00    -0.268 OA
BRANCH  18  20
ATOM     20  C   UNL A   1      32.575  20.208  23.899  1.00  0.00     0.040 A 
ATOM     21  C   UNL A   1      32.645  20.073  25.290  1.00  0.00     0.015 A 
ATOM     22  C   UNL A   1      32.516  19.081  23.073  1.00  0.00     0.015 A 
ATOM     23  C   UNL A   1      32.766  18.797  25.847  1.00  0.00     0.021 A 
ATOM     24  C   UNL A   1      32.625  17.809  23.636  1.00  0.00     0.021 A 
ATOM     25  C   UNL A   1      32.778  17.673  25.016  1.00  0.00     0.041 A 
ATOM     26  Cl  UNL A   1      33.034  16.114  25.698  1.00  0.00    -0.084 Cl
ENDBRANCH  18  20
ENDBRANCH  11  18
ENDBRANCH   7   8
ENDBRANCH   4   7
ENDBRANCH   2   3
ENDBRANCH   1   2
BRANCH   1  27
ATOM     27  C   UNL A   1      34.307  31.000  27.489  1.00  0.00     0.118 C 
BRANCH  27  28
ATOM     28  N   UNL A   1      34.359  31.674  28.773  1.00  0.00    -0.352 N 
ATOM     29  C   UNL A   1      35.287  31.832  29.764  1.00  0.00     0.251 C 
ATOM     30  H   UNL A   1      33.513  32.132  28.983  1.00  0.00     0.163 HD
ATOM     31  O   UNL A   1      34.959  32.608  30.667  1.00  0.00    -0.269 OA
BRANCH  29  32
ATOM     32  C   UNL A   1      36.586  31.115  29.871  1.00  0.00     0.039 A 
ATOM     33  C   UNL A   1      37.849  31.696  29.775  1.00  0.00     0.014 A 
ATOM     34  C   UNL A   1      36.501  29.712  30.004  1.00  0.00     0.014 A 
ATOM     35  C   UNL A   1      38.984  30.888  29.705  1.00  0.00     0.010 A 
ATOM     36  C   UNL A   1      37.632  28.903  29.946  1.00  0.00     0.010 A 
ATOM     37  C   UNL A   1      38.872  29.491  29.741  1.00  0.00    -0.014 A 
BRANCH  37  38
ATOM     38  C   UNL A   1      40.102  28.704  29.656  1.00  0.00     0.031 A 
ATOM     39  C   UNL A   1      40.764  28.489  30.968  1.00  0.00     0.074 A 
ATOM     40  C   UNL A   1      40.598  28.152  28.527  1.00  0.00     0.049 A 
ATOM     41  N   UNL A   1      41.827  29.072  31.414  1.00  0.00    -0.248 NA
ATOM     42  C   UNL A   1      40.073  27.659  31.965  1.00  0.00     0.031 C 
ATOM     43  C   UNL A   1      39.914  27.980  27.243  1.00  0.00     0.029 A 
ATOM     44  N   UNL A   1      41.807  27.548  28.311  1.00  0.00    -0.354 N 
ATOM     45  C   UNL A   1      42.081  28.491  32.656  1.00  0.00     0.074 A 
ATOM     46  C   UNL A   1      40.876  27.793  33.022  1.00  0.00     0.031 C 
ATOM     47  C   UNL A   1      40.616  27.117  26.471  1.00  0.00     0.029 A 
ATOM     48  C   UNL A   1      41.881  26.828  27.125  1.00  0.00     0.049 A 
ATOM     49  H   UNL A   1      42.560  27.617  28.942  1.00  0.00     0.167 HD
ATOM     50  C   UNL A   1      43.352  28.414  33.144  1.00  0.00     0.034 A 
ATOM     51  C   UNL A   1      42.901  26.040  26.705  1.00  0.00     0.034 A 
ATOM     52  C   UNL A   1      44.251  29.215  32.359  1.00  0.00     0.049 A 
ATOM     53  C   UNL A   1      44.135  26.445  27.409  1.00  0.00     0.074 A 
ATOM     54  C   UNL A   1      44.644  30.531  32.303  1.00  0.00     0.029 A 
ATOM     55  N   UNL A   1      44.644  28.615  31.193  1.00  0.00    -0.354 N 
ATOM     56  N   UNL A   1      44.736  27.584  27.215  1.00  0.00    -0.248 NA
ATOM     57  C   UNL A   1      44.558  25.700  28.592  1.00  0.00     0.031 C 
ATOM     58  C   UNL A   1      45.185  30.731  30.999  1.00  0.00     0.029 A 
ATOM     59  C   UNL A   1      45.148  29.524  30.304  1.00  0.00     0.049 A 
ATOM     60  H   UNL A   1      44.572  27.649  31.017  1.00  0.00     0.167 HD
ATOM     61  C   UNL A   1      45.253  27.895  28.453  1.00  0.00     0.074 A 
ATOM     62  C   UNL A   1      45.288  26.641  29.194  1.00  0.00     0.031 C 
ATOM     63  C   UNL A   1      45.282  29.179  28.903  1.00  0.00     0.034 A 
BRANCH  50  64
ATOM     64  C   UNL A   1      43.880  27.292  34.015  1.00  0.00     0.023 A 
ATOM     65  C   UNL A   1      43.987  27.390  35.413  1.00  0.00     0.031 A 
ATOM     66  C   UNL A   1      44.059  25.997  33.479  1.00  0.00     0.131 A 
ATOM     67  C   UNL A   1      44.263  26.273  36.214  1.00  0.00     0.055 A 
ATOM     68  C   UNL A   1      44.269  24.868  34.283  1.00  0.00     0.041 A 
ATOM     69  F   UNL A   1      43.983  25.777  32.157  1.00  0.00    -0.206 F 
ATOM     70  C   UNL A   1      44.371  25.001  35.661  1.00  0.00     0.022 A 
BRANCH  67  71
ATOM     71  S   UNL A   1      44.470  26.463  38.006  1.00  0.00     0.124 S 
ATOM     72  O   UNL A   1      43.089  26.533  38.466  1.00  0.00    -0.237 OA
ATOM     73  O   UNL A   1      45.190  25.239  38.348  1.00  0.00    -0.237 OA
ATOM     74  O   UNL A   1      45.249  27.691  38.130  1.00  0.00    -0.744 OA
ENDBRANCH  67  71
ENDBRANCH  50  64
BRANCH  51  75
ATOM     75  C   UNL A   1      42.815  24.716  26.047  1.00  0.00     0.023 A 
ATOM     76  C   UNL A   1      41.959  23.742  26.589  1.00  0.00     0.031 A 
ATOM     77  C   UNL A   1      43.812  24.282  25.152  1.00  0.00     0.131 A 
ATOM     78  C   UNL A   1      42.160  22.386  26.300  1.00  0.00     0.055 A 
ATOM     79  C   UNL A   1      43.994  22.929  24.845  1.00  0.00     0.041 A 
ATOM     80  F   UNL A   1      44.682  25.158  24.626  1.00  0.00    -0.206 F 
ATOM     81  C   UNL A   1      43.178  21.970  25.438  1.00  0.00     0.022 A 
BRANCH  78  82
ATOM     82  S   UNL A   1      41.178  21.112  27.139  1.00  0.00     0.124 S 
ATOM     83  O   UNL A   1      40.625  21.850  28.272  1.00  0.00    -0.237 OA
ATOM     84  O   UNL A   1      40.222  20.747  26.099  1.00  0.00    -0.237 OA
ATOM     85  O   UNL A   1      42.165  20.095  27.486  1.00  0.00    -0.744 OA
ENDBRANCH  78  82
ENDBRANCH  51  75
BRANCH  63  86
ATOM     86  C   UNL A   1      45.297  30.299  27.906  1.00  0.00     0.023 A 
ATOM     87  C   UNL A   1      46.555  30.852  27.624  1.00  0.00     0.031 A 
ATOM     88  C   UNL A   1      44.163  30.931  27.369  1.00  0.00     0.131 A 
ATOM     89  C   UNL A   1      46.662  32.038  26.898  1.00  0.00     0.055 A 
ATOM     90  C   UNL A   1      44.278  32.078  26.574  1.00  0.00     0.041 A 
ATOM     91  F   UNL A   1      42.923  30.508  27.654  1.00  0.00    -0.206 F 
ATOM     92  C   UNL A   1      45.530  32.649  26.354  1.00  0.00     0.022 A 
BRANCH  89  93
ATOM     93  S   UNL A   1      48.257  32.887  26.794  1.00  0.00     0.124 S 
ATOM     94  O   UNL A   1      48.014  33.881  25.753  1.00  0.00    -0.237 OA
ATOM     95  O   UNL A   1      48.417  33.420  28.145  1.00  0.00    -0.237 OA
ATOM     96  O   UNL A   1      49.198  31.828  26.437  1.00  0.00    -0.744 OA
ENDBRANCH  89  93
ENDBRANCH  63  86
ENDBRANCH  37  38
ENDBRANCH  29  32
ENDBRANCH  27  28
ENDBRANCH   1  27
TORSDOF 16
ENDMDL
MODEL 2
REMARK VINA RESULT:     -12.7      1.800      2.236
REMARK SMILES Cc1c(CC(=O)NCCCNC(=O)c2ccc(-c3c4nc(c(-c5cc(S(=O)(=O)[O-])ccc5F)c5ccc([nH]5)c(-c5cc(S(=O)(=O)[O-])ccc5F)c5nc(c(-c6cc(S(=O)(=O)[O-])ccc6F)c6ccc3[nH]6)C=C5)C=C4)cc2)c2ccccc2n1C(=O)c1ccc(Cl)cc1
REMARK SMILES IDX 9 1 8 2 7 3 5 4 6 5 4 7 3 8 1 9 2 10 83 11 77 12 82 13 78 14
REMARK SMILES IDX 81 15 79 16 80 17 84 18 85 19 86 20 87 21 92 22 88 23 91 24
REMARK SMILES IDX 89 25 90 26 10 27 11 28 12 29 13 31 14 32 15 33 76 34 16 35
REMARK SMILES IDX 75 36 17 37 18 38 19 39 69 40 20 41 74 42 68 43 70 44 21 45
REMARK SMILES IDX 73 46 67 47 66 48 22 50 54 51 34 52 53 53 35 54 38 55 52 56
REMARK SMILES IDX 71 57 36 58 37 59 51 61 72 62 39 63 23 64 24 65 32 66 25 67
REMARK SMILES IDX 31 68 33 69 30 70 26 71 27 72 28 73 29 74 55 75 56 76 64 77
REMARK SMILES IDX 57 78 63 79 65 80 62 81 58 82 59 83 60 84 61 85 40 86 41 87
REMARK SMILES IDX 49 88 42 89 48 90 50 91 47 92 43 93 44 94 45 95 46 96
REMARK H PARENT 7 6 11 30 70 49 38 60
REMARK Flexibility Score: inf
ROOT
ATOM      1  C   UNL A   1      32.047  29.734  27.244  1.00  0.00     0.042 C 
ENDROOT
BRANCH   1   2
ATOM      2  C   UNL A   1      31.976  28.235  26.938  1.00  0.00     0.117 C 
BRANCH   2   3
ATOM      3  N   UNL A   1      32.350  27.919  25.569  1.00  0.00    -0.356 N 
ATOM      4  C   UNL A   1      32.697  26.717  25.022  1.00  0.00     0.224 C 
ATOM      5  O   UNL A   1      32.955  26.679  23.816  1.00  0.00    -0.275 OA
ATOM      6  H   UNL A   1      32.356  28.682  24.947  1.00  0.00     0.163 HD
BRANCH   4   7
ATOM      7  C   UNL A   1      32.709  25.456  25.873  1.00  0.00     0.138 C 
BRANCH   7   8
ATOM      8  C   UNL A   1      33.142  24.235  25.118  1.00  0.00    -0.010 A 
ATOM      9  C   UNL A   1      30.904  23.649  23.964  1.00  0.00     0.065 C 
ATOM     10  C   UNL A   1      32.343  23.428  24.319  1.00  0.00     0.028 A 
ATOM     11  N   UNL A   1      33.091  22.308  23.922  1.00  0.00    -0.280 N 
ATOM     12  C   UNL A   1      34.467  23.727  25.033  1.00  0.00     0.004 A 
ATOM     13  C   UNL A   1      34.439  22.589  24.218  1.00  0.00     0.056 A 
ATOM     14  C   UNL A   1      35.699  24.166  25.568  1.00  0.00     0.010 A 
ATOM     15  C   UNL A   1      35.646  21.941  23.878  1.00  0.00     0.027 A 
ATOM     16  C   UNL A   1      36.878  23.478  25.283  1.00  0.00     0.001 A 
ATOM     17  C   UNL A   1      36.849  22.383  24.437  1.00  0.00     0.002 A 
BRANCH  11  18
ATOM     18  C   UNL A   1      32.567  21.114  23.345  1.00  0.00     0.262 C 
ATOM     19  O   UNL A   1      31.879  21.210  22.326  1.00  0.00    -0.268 OA
BRANCH  18  20
ATOM     20  C   UNL A   1      32.772  19.754  23.869  1.00  0.00     0.040 A 
ATOM     21  C   UNL A   1      32.841  18.656  23.005  1.00  0.00     0.015 A 
ATOM     22  C   UNL A   1      32.844  19.579  25.255  1.00  0.00     0.015 A 
ATOM     23  C   UNL A   1      32.873  17.366  23.540  1.00  0.00     0.021 A 
ATOM     24  C   UNL A   1      32.889  18.288  25.784  1.00  0.00     0.021 A 
ATOM     25  C   UNL A   1      32.874  17.188  24.926  1.00  0.00     0.041 A 
ATOM     26  Cl  UNL A   1      32.806  15.597  25.580  1.00  0.00    -0.084 Cl
ENDBRANCH  18  20
ENDBRANCH  11  18
ENDBRANCH   7   8
ENDBRANCH   4   7
ENDBRANCH   2   3
ENDBRANCH   1   2
BRANCH   1  27
ATOM     27  C   UNL A   1      33.379  30.381  26.859  1.00  0.00     0.118 C 
BRANCH  27  28
ATOM     28  N   UNL A   1      33.812  31.424  27.770  1.00  0.00    -0.352 N 
ATOM     29  C   UNL A   1      34.970  31.738  28.426  1.00  0.00     0.251 C 
ATOM     30  H   UNL A   1      33.092  32.066  27.966  1.00  0.00     0.163 HD
ATOM     31  O   UNL A   1      34.953  32.814  29.030  1.00  0.00    -0.269 OA
BRANCH  29  32
ATOM     32  C   UNL A   1      36.184  30.882  28.521  1.00  0.00     0.039 A 
ATOM     33  C   UNL A   1      36.215  29.494  28.402  1.00  0.00     0.014 A 
ATOM     34  C   UNL A   1      37.383  31.555  28.836  1.00  0.00     0.014 A 
ATOM     35  C   UNL A   1      37.386  28.796  28.697  1.00  0.00     0.010 A 
ATOM     36  C   UNL A   1      38.557  30.863  29.120  1.00  0.00     0.010 A 
ATOM     37  C   UNL A   1      38.542  29.476  29.103  1.00  0.00    -0.014 A 
BRANCH  37  38
ATOM     38  C   UNL A   1      39.734  28.682  29.404  1.00  0.00     0.031 A 
ATOM     39  C   UNL A   1      40.133  28.723  30.833  1.00  0.00     0.074 A 
ATOM     40  C   UNL A   1      40.405  27.918  28.516  1.00  0.00     0.049 A 
ATOM     41  N   UNL A   1      41.119  29.376  31.353  1.00  0.00    -0.248 NA
ATOM     42  C   UNL A   1      39.236  28.108  31.821  1.00  0.00     0.031 C 
ATOM     43  C   UNL A   1      39.963  27.502  27.181  1.00  0.00     0.029 A 
ATOM     44  N   UNL A   1      41.607  27.277  28.650  1.00  0.00    -0.354 N 
ATOM     45  C   UNL A   1      41.115  29.048  32.708  1.00  0.00     0.074 A 
ATOM     46  C   UNL A   1      39.835  28.441  32.966  1.00  0.00     0.031 C 
ATOM     47  C   UNL A   1      40.759  26.501  26.735  1.00  0.00     0.029 A 
ATOM     48  C   UNL A   1      41.869  26.339  27.659  1.00  0.00     0.049 A 
ATOM     49  H   UNL A   1      42.233  27.464  29.387  1.00  0.00     0.167 HD
ATOM     50  C   UNL A   1      42.271  29.061  33.433  1.00  0.00     0.034 A 
ATOM     51  C   UNL A   1      42.914  25.479  27.597  1.00  0.00     0.034 A 
ATOM     52  C   UNL A   1      43.331  29.689  32.693  1.00  0.00     0.049 A 
ATOM     53  C   UNL A   1      44.013  26.007  28.431  1.00  0.00     0.074 A 
ATOM     54  C   UNL A   1      43.783  30.967  32.463  1.00  0.00     0.029 A 
ATOM     55  N   UNL A   1      43.907  28.871  31.759  1.00  0.00    -0.354 N 
ATOM     56  N   UNL A   1      44.687  27.084  28.140  1.00  0.00    -0.248 NA
ATOM     57  C   UNL A   1      44.180  25.505  29.792  1.00  0.00     0.031 C 
ATOM     58  C   UNL A   1      44.562  30.906  31.271  1.00  0.00     0.029 A 
ATOM     59  C   UNL A   1      44.604  29.587  30.824  1.00  0.00     0.049 A 
ATOM     60  H   UNL A   1      43.829  27.890  31.760  1.00  0.00     0.167 HD
ATOM     61  C   UNL A   1      44.979  27.627  29.372  1.00  0.00     0.074 A 
ATOM     62  C   UNL A   1      44.825  26.542  30.331  1.00  0.00     0.031 C 
ATOM     63  C   UNL A   1      44.979  28.974  29.566  1.00  0.00     0.034 A 
BRANCH  50  64
ATOM     64  C   UNL A   1      42.582  28.128  34.585  1.00  0.00     0.023 A 
ATOM     65  C   UNL A   1      42.732  26.738  34.431  1.00  0.00     0.031 A 
ATOM     66  C   UNL A   1      42.981  28.649  35.836  1.00  0.00     0.131 A 
ATOM     67  C   UNL A   1      43.236  25.930  35.459  1.00  0.00     0.055 A 
ATOM     68  C   UNL A   1      43.547  27.852  36.841  1.00  0.00     0.041 A 
ATOM     69  F   UNL A   1      42.883  29.960  36.105  1.00  0.00    -0.206 F 
ATOM     70  C   UNL A   1      43.679  26.483  36.656  1.00  0.00     0.022 A 
BRANCH  67  71
ATOM     71  S   UNL A   1      43.337  24.132  35.240  1.00  0.00     0.124 S 
ATOM     72  O   UNL A   1      43.972  24.020  33.933  1.00  0.00    -0.237 OA
ATOM     73  O   UNL A   1      44.163  23.745  36.381  1.00  0.00    -0.237 OA
ATOM     74  O   UNL A   1      41.944  23.701  35.314  1.00  0.00    -0.744 OA
ENDBRANCH  67  71
ENDBRANCH  50  64
BRANCH  51  75
ATOM     75  C   UNL A   1      42.896  24.053  27.199  1.00  0.00     0.023 A 
ATOM     76  C   UNL A   1      43.935  23.561  26.388  1.00  0.00     0.031 A 
ATOM     77  C   UNL A   1      41.717  23.288  27.283  1.00  0.00     0.131 A 
ATOM     78  C   UNL A   1      43.749  22.394  25.636  1.00  0.00     0.055 A 
ATOM     79  C   UNL A   1      41.546  22.108  26.550  1.00  0.00     0.041 A 
ATOM     80  F   UNL A   1      40.678  23.719  28.014  1.00  0.00    -0.206 F 
ATOM     81  C   UNL A   1      42.558  21.667  25.703  1.00  0.00     0.022 A 
BRANCH  78  82
ATOM     82  S   UNL A   1      45.012  21.856  24.449  1.00  0.00     0.124 S 
ATOM     83  O   UNL A   1      45.035  22.968  23.502  1.00  0.00    -0.237 OA
ATOM     84  O   UNL A   1      46.187  21.736  25.305  1.00  0.00    -0.237 OA
ATOM     85  O   UNL A   1      44.473  20.607  23.922  1.00  0.00    -0.744 OA
ENDBRANCH  78  82
ENDBRANCH  51  75
BRANCH  63  86
ATOM     86  C   UNL A   1      45.223  29.878  28.395  1.00  0.00     0.023 A 
ATOM     87  C   UNL A   1      46.563  30.225  28.157  1.00  0.00     0.031 A 
ATOM     88  C   UNL A   1      44.231  30.522  27.636  1.00  0.00     0.131 A 
ATOM     89  C   UNL A   1      46.884  31.234  27.249  1.00  0.00     0.055 A 
ATOM     90  C   UNL A   1      44.561  31.478  26.669  1.00  0.00     0.041 A 
ATOM     91  F   UNL A   1      42.927  30.300  27.856  1.00  0.00    -0.206 F 
ATOM     92  C   UNL A   1      45.891  31.854  26.488  1.00  0.00     0.022 A 
BRANCH  89  93
ATOM     93  S   UNL A   1      48.579  31.864  27.169  1.00  0.00     0.124 S 
ATOM     94  O   UNL A   1      49.299  30.744  26.571  1.00  0.00    -0.237 OA
ATOM     95  O   UNL A   1      48.434  33.044  26.319  1.00  0.00    -0.237 OA
ATOM     96  O   UNL A   1      48.915  32.150  28.562  1.00  0.00    -0.744 OA
ENDBRANCH  89  93
ENDBRANCH  63  86
ENDBRANCH  37  38
ENDBRANCH  29  32
ENDBRANCH  27  28
ENDBRANCH   1  27
TORSDOF 16
ENDMDL
MODEL 3
REMARK VINA RESULT:     -12.6      3.375      9.073
REMARK SMILES Cc1c(CC(=O)NCCCNC(=O)c2ccc(-c3c4nc(c(-c5cc(S(=O)(=O)[O-])ccc5F)c5ccc([nH]5)c(-c5cc(S(=O)(=O)[O-])ccc5F)c5nc(c(-c6cc(S(=O)(=O)[O-])ccc6F)c6ccc3[nH]6)C=C5)C=C4)cc2)c2ccccc2n1C(=O)c1ccc(Cl)cc1
REMARK SMILES IDX 9 1 8 2 7 3 5 4 6 5 4 7 3 8 1 9 2 10 83 11 77 12 82 13 78 14
REMARK SMILES IDX 81 15 79 16 80 17 84 18 85 19 86 20 87 21 92 22 88 23 91 24
REMARK SMILES IDX 89 25 90 26 10 27 11 28 12 29 13 31 14 32 15 33 76 34 16 35
REMARK SMILES IDX 75 36 17 37 18 38 19 39 69 40 20 41 74 42 68 43 70 44 21 45
REMARK SMILES IDX 73 46 67 47 66 48 22 50 54 51 34 52 53 53 35 54 38 55 52 56
REMARK SMILES IDX 71 57 36 58 37 59 51 61 72 62 39 63 23 64 24 65 32 66 25 67
REMARK SMILES IDX 31 68 33 69 30 70 26 71 27 72 28 73 29 74 55 75 56 76 64 77
REMARK SMILES IDX 57 78 63 79 65 80 62 81 58 82 59 83 60 84 61 85 40 86 41 87
REMARK SMILES IDX 49 88 42 89 48 90 50 91 47 92 43 93 44 94 45 95 46 96
REMARK H PARENT 7 6 11 30 70 49 38 60
REMARK Flexibility Score: inf
ROOT
ATOM      1  C   UNL A   1      37.016  21.919  24.215  1.00  0.00     0.042 C 
ENDROOT
BRANCH   1   2
ATOM      2  C   UNL A   1      35.514  21.623  24.259  1.00  0.00     0.117 C 
BRANCH   2   3
ATOM      3  N   UNL A   1      35.019  21.411  25.610  1.00  0.00    -0.356 N 
ATOM      4  C   UNL A   1      33.732  21.328  26.057  1.00  0.00     0.224 C 
ATOM      5  O   UNL A   1      33.545  21.116  27.258  1.00  0.00    -0.275 OA
ATOM      6  H   UNL A   1      35.712  21.313  26.302  1.00  0.00     0.163 HD
BRANCH   4   7
ATOM      7  C   UNL A   1      32.567  21.444  25.085  1.00  0.00     0.138 C 
BRANCH   7   8
ATOM      8  C   UNL A   1      32.238  22.861  24.719  1.00  0.00    -0.010 A 
ATOM      9  C   UNL A   1      31.496  23.724  27.040  1.00  0.00     0.065 C 
ATOM     10  C   UNL A   1      31.734  23.840  25.565  1.00  0.00     0.028 A 
ATOM     11  N   UNL A   1      31.420  24.974  24.801  1.00  0.00    -0.280 N 
ATOM     12  C   UNL A   1      32.450  23.470  23.453  1.00  0.00     0.004 A 
ATOM     13  C   UNL A   1      32.025  24.801  23.541  1.00  0.00     0.056 A 
ATOM     14  C   UNL A   1      32.999  22.997  22.239  1.00  0.00     0.010 A 
ATOM     15  C   UNL A   1      32.221  25.673  22.448  1.00  0.00     0.027 A 
ATOM     16  C   UNL A   1      33.123  23.848  21.141  1.00  0.00     0.001 A 
ATOM     17  C   UNL A   1      32.746  25.175  21.252  1.00  0.00     0.002 A 
BRANCH  11  18
ATOM     18  C   UNL A   1      30.624  26.077  25.229  1.00  0.00     0.262 C 
ATOM     19  O   UNL A   1      29.397  25.971  25.167  1.00  0.00    -0.268 OA
BRANCH  18  20
ATOM     20  C   UNL A   1      31.143  27.355  25.742  1.00  0.00     0.040 A 
ATOM     21  C   UNL A   1      31.318  28.451  24.889  1.00  0.00     0.015 A 
ATOM     22  C   UNL A   1      31.505  27.434  27.090  1.00  0.00     0.015 A 
ATOM     23  C   UNL A   1      31.961  29.594  25.369  1.00  0.00     0.021 A 
ATOM     24  C   UNL A   1      32.137  28.583  27.567  1.00  0.00     0.021 A 
ATOM     25  C   UNL A   1      32.389  29.646  26.699  1.00  0.00     0.041 A 
ATOM     26  Cl  UNL A   1      33.275  31.012  27.256  1.00  0.00    -0.084 Cl
ENDBRANCH  18  20
ENDBRANCH  11  18
ENDBRANCH   7   8
ENDBRANCH   4   7
ENDBRANCH   2   3
ENDBRANCH   1   2
BRANCH   1  27
ATOM     27  C   UNL A   1      37.539  22.650  25.452  1.00  0.00     0.118 C 
BRANCH  27  28
ATOM     28  N   UNL A   1      38.641  21.977  26.114  1.00  0.00    -0.352 N 
ATOM     29  C   UNL A   1      39.658  22.344  26.951  1.00  0.00     0.251 C 
ATOM     30  H   UNL A   1      38.663  21.015  25.906  1.00  0.00     0.163 HD
ATOM     31  O   UNL A   1      40.331  21.409  27.395  1.00  0.00    -0.269 OA
BRANCH  29  32
ATOM     32  C   UNL A   1      40.044  23.737  27.303  1.00  0.00     0.039 A 
ATOM     33  C   UNL A   1      41.165  24.112  28.041  1.00  0.00     0.014 A 
ATOM     34  C   UNL A   1      39.136  24.742  26.905  1.00  0.00     0.014 A 
ATOM     35  C   UNL A   1      41.312  25.433  28.461  1.00  0.00     0.010 A 
ATOM     36  C   UNL A   1      39.286  26.065  27.312  1.00  0.00     0.010 A 
ATOM     37  C   UNL A   1      40.348  26.399  28.138  1.00  0.00    -0.014 A 
BRANCH  37  38
ATOM     38  C   UNL A   1      40.563  27.765  28.617  1.00  0.00     0.031 A 
ATOM     39  C   UNL A   1      41.783  28.406  28.064  1.00  0.00     0.074 A 
ATOM     40  C   UNL A   1      39.729  28.444  29.434  1.00  0.00     0.049 A 
ATOM     41  N   UNL A   1      42.904  28.611  28.672  1.00  0.00    -0.248 NA
ATOM     42  C   UNL A   1      41.821  28.697  26.624  1.00  0.00     0.031 C 
ATOM     43  C   UNL A   1      38.350  28.099  29.789  1.00  0.00     0.029 A 
ATOM     44  N   UNL A   1      39.914  29.646  30.064  1.00  0.00    -0.354 N 
ATOM     45  C   UNL A   1      43.709  29.290  27.758  1.00  0.00     0.074 A 
ATOM     46  C   UNL A   1      43.073  29.134  26.475  1.00  0.00     0.031 C 
ATOM     47  C   UNL A   1      37.752  29.169  30.365  1.00  0.00     0.029 A 
ATOM     48  C   UNL A   1      38.752  30.200  30.588  1.00  0.00     0.049 A 
ATOM     49  H   UNL A   1      40.794  30.080  30.139  1.00  0.00     0.167 HD
ATOM     50  C   UNL A   1      44.679  30.149  28.185  1.00  0.00     0.034 A 
ATOM     51  C   UNL A   1      38.610  31.421  31.157  1.00  0.00     0.034 A 
ATOM     52  C   UNL A   1      44.892  30.016  29.601  1.00  0.00     0.049 A 
ATOM     53  C   UNL A   1      39.932  31.885  31.624  1.00  0.00     0.074 A 
ATOM     54  C   UNL A   1      45.619  29.207  30.442  1.00  0.00     0.029 A 
ATOM     55  N   UNL A   1      43.958  30.670  30.359  1.00  0.00    -0.354 N 
ATOM     56  N   UNL A   1      40.583  31.335  32.609  1.00  0.00    -0.248 NA
ATOM     57  C   UNL A   1      40.706  32.794  30.784  1.00  0.00     0.031 C 
ATOM     58  C   UNL A   1      45.003  29.308  31.723  1.00  0.00     0.029 A 
ATOM     59  C   UNL A   1      43.942  30.207  31.646  1.00  0.00     0.049 A 
ATOM     60  H   UNL A   1      43.372  31.383  30.019  1.00  0.00     0.167 HD
ATOM     61  C   UNL A   1      41.904  31.466  32.240  1.00  0.00     0.074 A 
ATOM     62  C   UNL A   1      41.932  32.521  31.236  1.00  0.00     0.031 C 
ATOM     63  C   UNL A   1      42.812  30.489  32.509  1.00  0.00     0.034 A 
BRANCH  50  64
ATOM     64  C   UNL A   1      45.110  31.404  27.455  1.00  0.00     0.023 A 
ATOM     65  C   UNL A   1      44.305  32.553  27.362  1.00  0.00     0.031 A 
ATOM     66  C   UNL A   1      46.451  31.564  27.042  1.00  0.00     0.131 A 
ATOM     67  C   UNL A   1      44.806  33.770  26.879  1.00  0.00     0.055 A 
ATOM     68  C   UNL A   1      46.971  32.797  26.622  1.00  0.00     0.041 A 
ATOM     69  F   UNL A   1      47.316  30.538  27.081  1.00  0.00    -0.206 F 
ATOM     70  C   UNL A   1      46.148  33.911  26.540  1.00  0.00     0.022 A 
BRANCH  67  71
ATOM     71  S   UNL A   1      43.709  35.204  26.703  1.00  0.00     0.124 S 
ATOM     72  O   UNL A   1      42.921  35.136  27.928  1.00  0.00    -0.237 OA
ATOM     73  O   UNL A   1      44.671  36.301  26.629  1.00  0.00    -0.237 OA
ATOM     74  O   UNL A   1      42.989  34.931  25.463  1.00  0.00    -0.744 OA
ENDBRANCH  67  71
ENDBRANCH  50  64
BRANCH  51  75
ATOM     75  C   UNL A   1      37.500  32.385  30.976  1.00  0.00     0.023 A 
ATOM     76  C   UNL A   1      36.793  32.828  32.108  1.00  0.00     0.031 A 
ATOM     77  C   UNL A   1      36.900  32.576  29.717  1.00  0.00     0.131 A 
ATOM     78  C   UNL A   1      35.504  33.360  31.971  1.00  0.00     0.055 A 
ATOM     79  C   UNL A   1      35.623  33.132  29.582  1.00  0.00     0.041 A 
ATOM     80  F   UNL A   1      37.508  32.146  28.601  1.00  0.00    -0.206 F 
ATOM     81  C   UNL A   1      34.909  33.508  30.716  1.00  0.00     0.022 A 
BRANCH  78  82
ATOM     82  S   UNL A   1      34.515  33.761  33.438  1.00  0.00     0.124 S 
ATOM     83  O   UNL A   1      33.270  33.044  33.172  1.00  0.00    -0.237 OA
ATOM     84  O   UNL A   1      35.341  33.210  34.507  1.00  0.00    -0.237 OA
ATOM     85  O   UNL A   1      34.413  35.216  33.392  1.00  0.00    -0.744 OA
ENDBRANCH  78  82
ENDBRANCH  51  75
BRANCH  63  86
ATOM     86  C   UNL A   1      42.560  29.557  33.656  1.00  0.00     0.023 A 
ATOM     87  C   UNL A   1      43.237  29.855  34.848  1.00  0.00     0.031 A 
ATOM     88  C   UNL A   1      41.847  28.347  33.586  1.00  0.00     0.131 A 
ATOM     89  C   UNL A   1      43.262  28.937  35.898  1.00  0.00     0.055 A 
ATOM     90  C   UNL A   1      41.808  27.463  34.671  1.00  0.00     0.041 A 
ATOM     91  F   UNL A   1      41.238  27.957  32.458  1.00  0.00    -0.206 F 
ATOM     92  C   UNL A   1      42.536  27.746  35.826  1.00  0.00     0.022 A 
BRANCH  89  93
ATOM     93  S   UNL A   1      44.371  29.209  37.303  1.00  0.00     0.124 S 
ATOM     94  O   UNL A   1      45.653  29.446  36.646  1.00  0.00    -0.237 OA
ATOM     95  O   UNL A   1      43.773  30.373  37.953  1.00  0.00    -0.237 OA
ATOM     96  O   UNL A   1      44.282  27.967  38.068  1.00  0.00    -0.744 OA
ENDBRANCH  89  93
ENDBRANCH  63  86
ENDBRANCH  37  38
ENDBRANCH  29  32
ENDBRANCH  27  28
ENDBRANCH   1  27
TORSDOF 16
ENDMDL
