MODEL 1
REMARK VINA RESULT:     -12.6      0.000      0.000
REMARK SMILES O=C(NCCCNC(=O)c1cc(-c2cc(Cl)ccc2Cl)cc([N+](=O)[O-])c1)c1ccc(-c2c3nc(c(-c4cc(S(=O)(=O)[O-])ccc4F)c4ccc([nH]4)c(-c4cc(S(=O)(=O)[O-])ccc4F)c4nc(c(-c5cc(S(=O)(=O)[O-])ccc5F)c5ccc2[nH]5)C=C4)C=C3)cc1
REMARK SMILES IDX 4 1 3 2 1 3 2 4 27 6 28 7 89 8 29 9 88 10 30 11 31 12 32 13
REMARK SMILES IDX 82 14 33 15 87 16 81 17 83 18 34 19 86 20 80 21 79 22 35 24
REMARK SMILES IDX 67 25 47 26 66 27 48 28 51 29 65 30 84 31 49 32 50 33 64 35
REMARK SMILES IDX 85 36 52 37 36 38 37 39 45 40 38 41 44 42 46 43 43 44 39 45
REMARK SMILES IDX 40 46 41 47 42 48 68 49 69 50 77 51 70 52 76 53 78 54 75 55
REMARK SMILES IDX 71 56 72 57 73 58 74 59 53 60 54 61 62 62 55 63 61 64 63 65
REMARK SMILES IDX 60 66 56 67 57 68 58 69 59 70 5 71 6 72 7 73 8 74 9 76 10 77
REMARK SMILES IDX 11 78 26 79 12 80 22 81 21 82 13 83 14 84 19 85 15 86 18 87
REMARK SMILES IDX 20 88 16 89 17 90 23 91 24 92 25 93
REMARK H PARENT 3 5 83 23 51 34 7 75
REMARK Flexibility Score: inf
ROOT
ATOM      1  C   UNL A   1      33.328  29.082  25.211  1.00  0.00     0.118 C 
ENDROOT
BRANCH   1   2
ATOM      2  N   UNL A   1      32.785  30.330  25.734  1.00  0.00    -0.352 N 
ATOM      3  O   UNL A   1      32.464  32.011  27.194  1.00  0.00    -0.269 OA
ATOM      4  C   UNL A   1      33.171  31.076  26.822  1.00  0.00     0.251 C 
ATOM      5  H   UNL A   1      32.024  30.695  25.230  1.00  0.00     0.163 HD
BRANCH   4   6
ATOM      6  C   UNL A   1      34.415  30.750  27.553  1.00  0.00     0.039 A 
ATOM      7  C   UNL A   1      34.643  29.460  28.034  1.00  0.00     0.014 A 
ATOM      8  C   UNL A   1      35.381  31.744  27.741  1.00  0.00     0.014 A 
ATOM      9  C   UNL A   1      35.742  29.207  28.844  1.00  0.00     0.010 A 
ATOM     10  C   UNL A   1      36.543  31.457  28.467  1.00  0.00     0.010 A 
ATOM     11  C   UNL A   1      36.717  30.194  29.053  1.00  0.00    -0.014 A 
BRANCH  11  12
ATOM     12  C   UNL A   1      37.935  29.851  29.832  1.00  0.00     0.031 A 
ATOM     13  C   UNL A   1      38.111  30.318  31.250  1.00  0.00     0.074 A 
ATOM     14  C   UNL A   1      38.871  29.073  29.251  1.00  0.00     0.049 A 
ATOM     15  N   UNL A   1      39.105  30.096  32.073  1.00  0.00    -0.248 NA
ATOM     16  C   UNL A   1      37.039  31.150  31.815  1.00  0.00     0.031 C 
ATOM     17  C   UNL A   1      38.806  28.567  27.875  1.00  0.00     0.029 A 
ATOM     18  N   UNL A   1      40.040  28.551  29.738  1.00  0.00    -0.354 N 
ATOM     19  C   UNL A   1      38.790  30.774  33.247  1.00  0.00     0.074 A 
ATOM     20  C   UNL A   1      37.526  31.441  33.013  1.00  0.00     0.031 C 
ATOM     21  C   UNL A   1      39.858  27.768  27.650  1.00  0.00     0.029 A 
ATOM     22  C   UNL A   1      40.711  27.764  28.832  1.00  0.00     0.049 A 
ATOM     23  H   UNL A   1      40.370  28.724  30.650  1.00  0.00     0.167 HD
ATOM     24  C   UNL A   1      39.490  30.827  34.408  1.00  0.00     0.034 A 
ATOM     25  C   UNL A   1      41.893  27.127  28.928  1.00  0.00     0.034 A 
ATOM     26  C   UNL A   1      40.747  30.149  34.620  1.00  0.00     0.049 A 
ATOM     27  C   UNL A   1      42.663  27.229  30.214  1.00  0.00     0.074 A 
ATOM     28  C   UNL A   1      41.525  30.109  35.766  1.00  0.00     0.029 A 
ATOM     29  N   UNL A   1      41.419  29.396  33.663  1.00  0.00    -0.354 N 
ATOM     30  N   UNL A   1      42.344  27.867  31.317  1.00  0.00    -0.248 NA
ATOM     31  C   UNL A   1      43.949  26.526  30.269  1.00  0.00     0.031 C 
ATOM     32  C   UNL A   1      42.692  29.390  35.482  1.00  0.00     0.029 A 
ATOM     33  C   UNL A   1      42.613  28.918  34.183  1.00  0.00     0.049 A 
ATOM     34  H   UNL A   1      41.095  29.228  32.749  1.00  0.00     0.167 HD
ATOM     35  C   UNL A   1      43.389  27.631  32.203  1.00  0.00     0.074 A 
ATOM     36  C   UNL A   1      44.333  26.773  31.514  1.00  0.00     0.031 C 
ATOM     37  C   UNL A   1      43.555  28.084  33.472  1.00  0.00     0.034 A 
BRANCH  24  38
ATOM     38  C   UNL A   1      38.930  31.684  35.519  1.00  0.00     0.023 A 
ATOM     39  C   UNL A   1      38.365  31.124  36.679  1.00  0.00     0.031 A 
ATOM     40  C   UNL A   1      38.944  33.087  35.407  1.00  0.00     0.131 A 
ATOM     41  C   UNL A   1      37.778  31.956  37.646  1.00  0.00     0.055 A 
ATOM     42  C   UNL A   1      38.427  33.912  36.408  1.00  0.00     0.041 A 
ATOM     43  F   UNL A   1      39.453  33.680  34.316  1.00  0.00    -0.206 F 
ATOM     44  C   UNL A   1      37.826  33.347  37.529  1.00  0.00     0.022 A 
BRANCH  41  45
ATOM     45  S   UNL A   1      36.833  31.191  38.992  1.00  0.00     0.124 S 
ATOM     46  O   UNL A   1      36.660  29.828  38.495  1.00  0.00    -0.237 OA
ATOM     47  O   UNL A   1      37.729  31.344  40.133  1.00  0.00    -0.237 OA
ATOM     48  O   UNL A   1      35.609  31.986  39.048  1.00  0.00    -0.744 OA
ENDBRANCH  41  45
ENDBRANCH  24  38
BRANCH  25  49
ATOM     49  C   UNL A   1      42.432  26.375  27.761  1.00  0.00     0.023 A 
ATOM     50  C   UNL A   1      42.297  24.981  27.668  1.00  0.00     0.031 A 
ATOM     51  C   UNL A   1      43.106  27.044  26.722  1.00  0.00     0.131 A 
ATOM     52  C   UNL A   1      42.856  24.297  26.577  1.00  0.00     0.055 A 
ATOM     53  C   UNL A   1      43.614  26.366  25.615  1.00  0.00     0.041 A 
ATOM     54  F   UNL A   1      43.256  28.379  26.760  1.00  0.00    -0.206 F 
ATOM     55  C   UNL A   1      43.499  24.981  25.543  1.00  0.00     0.022 A 
BRANCH  52  56
ATOM     56  S   UNL A   1      42.788  22.486  26.562  1.00  0.00     0.124 S 
ATOM     57  O   UNL A   1      44.188  22.137  26.353  1.00  0.00    -0.237 OA
ATOM     58  O   UNL A   1      42.244  22.192  27.885  1.00  0.00    -0.237 OA
ATOM     59  O   UNL A   1      41.896  22.189  25.443  1.00  0.00    -0.744 OA
ENDBRANCH  52  56
ENDBRANCH  25  49
BRANCH  37  60
ATOM     60  C   UNL A   1      44.797  27.624  34.193  1.00  0.00     0.023 A 
ATOM     61  C   UNL A   1      44.809  26.441  34.953  1.00  0.00     0.031 A 
ATOM     62  C   UNL A   1      45.969  28.396  34.145  1.00  0.00     0.131 A 
ATOM     63  C   UNL A   1      45.955  26.094  35.684  1.00  0.00     0.055 A 
ATOM     64  C   UNL A   1      47.125  28.016  34.830  1.00  0.00     0.041 A 
ATOM     65  F   UNL A   1      46.009  29.536  33.438  1.00  0.00    -0.206 F 
ATOM     66  C   UNL A   1      47.118  26.867  35.615  1.00  0.00     0.022 A 
BRANCH  63  67
ATOM     67  S   UNL A   1      45.877  24.669  36.803  1.00  0.00     0.124 S 
ATOM     68  O   UNL A   1      47.269  24.529  37.215  1.00  0.00    -0.237 OA
ATOM     69  O   UNL A   1      44.950  25.132  37.832  1.00  0.00    -0.237 OA
ATOM     70  O   UNL A   1      45.369  23.594  35.953  1.00  0.00    -0.744 OA
ENDBRANCH  63  67
ENDBRANCH  37  60
ENDBRANCH  11  12
ENDBRANCH   4   6
ENDBRANCH   1   2
BRANCH   1  71
ATOM     71  C   UNL A   1      33.346  29.035  23.691  1.00  0.00     0.042 C 
BRANCH  71  72
ATOM     72  C   UNL A   1      32.078  28.477  23.066  1.00  0.00     0.118 C 
BRANCH  72  73
ATOM     73  N   UNL A   1      32.350  27.480  22.038  1.00  0.00    -0.352 N 
ATOM     74  C   UNL A   1      32.799  26.191  22.135  1.00  0.00     0.251 C 
ATOM     75  H   UNL A   1      32.183  27.786  21.117  1.00  0.00     0.163 HD
ATOM     76  O   UNL A   1      33.120  25.581  21.116  1.00  0.00    -0.269 OA
BRANCH  74  77
ATOM     77  C   UNL A   1      32.904  25.508  23.443  1.00  0.00     0.047 A 
ATOM     78  C   UNL A   1      34.120  24.899  23.780  1.00  0.00     0.023 A 
ATOM     79  C   UNL A   1      31.798  25.367  24.283  1.00  0.00     0.099 A 
ATOM     80  C   UNL A   1      34.264  24.185  24.982  1.00  0.00    -0.009 A 
ATOM     81  C   UNL A   1      31.955  24.730  25.516  1.00  0.00     0.270 A 
ATOM     82  C   UNL A   1      33.181  24.155  25.876  1.00  0.00     0.094 A 
BRANCH  80  83
ATOM     83  C   UNL A   1      35.493  23.418  25.252  1.00  0.00     0.002 A 
ATOM     84  C   UNL A   1      36.638  24.076  25.740  1.00  0.00     0.030 A 
ATOM     85  C   UNL A   1      35.586  22.032  24.995  1.00  0.00     0.048 A 
ATOM     86  C   UNL A   1      37.824  23.371  25.963  1.00  0.00     0.041 A 
ATOM     87  C   UNL A   1      36.775  21.332  25.228  1.00  0.00     0.023 A 
ATOM     88  Cl  UNL A   1      34.263  21.124  24.337  1.00  0.00    -0.084 Cl
ATOM     89  Cl  UNL A   1      39.217  24.197  26.542  1.00  0.00    -0.084 Cl
ATOM     90  C   UNL A   1      37.896  22.003  25.711  1.00  0.00     0.022 A 
ENDBRANCH  80  83
BRANCH  81  91
ATOM     91  N   UNL A   1      30.808  24.636  26.427  1.00  0.00     0.062 N 
ATOM     92  O   UNL A   1      29.916  25.490  26.323  1.00  0.00    -0.258 OA
ATOM     93  O   UNL A   1      30.804  23.710  27.250  1.00  0.00    -0.258 OA
ENDBRANCH  81  91
ENDBRANCH  74  77
ENDBRANCH  72  73
ENDBRANCH  71  72
ENDBRANCH   1  71
TORSDOF 15
ENDMDL
MODEL 2
REMARK VINA RESULT:     -12.5      5.124     10.288
REMARK SMILES O=C(NCCCNC(=O)c1cc(-c2cc(Cl)ccc2Cl)cc([N+](=O)[O-])c1)c1ccc(-c2c3nc(c(-c4cc(S(=O)(=O)[O-])ccc4F)c4ccc([nH]4)c(-c4cc(S(=O)(=O)[O-])ccc4F)c4nc(c(-c5cc(S(=O)(=O)[O-])ccc5F)c5ccc2[nH]5)C=C4)C=C3)cc1
REMARK SMILES IDX 4 1 3 2 1 3 2 4 27 6 28 7 89 8 29 9 88 10 30 11 31 12 32 13
REMARK SMILES IDX 82 14 33 15 87 16 81 17 83 18 34 19 86 20 80 21 79 22 35 24
REMARK SMILES IDX 67 25 47 26 66 27 48 28 51 29 65 30 84 31 49 32 50 33 64 35
REMARK SMILES IDX 85 36 52 37 36 38 37 39 45 40 38 41 44 42 46 43 43 44 39 45
REMARK SMILES IDX 40 46 41 47 42 48 68 49 69 50 77 51 70 52 76 53 78 54 75 55
REMARK SMILES IDX 71 56 72 57 73 58 74 59 53 60 54 61 62 62 55 63 61 64 63 65
REMARK SMILES IDX 60 66 56 67 57 68 58 69 59 70 5 71 6 72 7 73 8 74 9 76 10 77
REMARK SMILES IDX 11 78 26 79 12 80 22 81 21 82 13 83 14 84 19 85 15 86 18 87
REMARK SMILES IDX 20 88 16 89 17 90 23 91 24 92 25 93
REMARK H PARENT 3 5 83 23 51 34 7 75
REMARK Flexibility Score: inf
ROOT
ATOM      1  C   UNL A   1      35.873  22.329  26.202  1.00  0.00     0.118 C 
ENDROOT
BRANCH   1   2
ATOM      2  N   UNL A   1      36.858  21.297  25.899  1.00  0.00    -0.352 N 
ATOM      3  O   UNL A   1      38.862  20.421  25.376  1.00  0.00    -0.269 OA
ATOM      4  C   UNL A   1      38.227  21.377  25.819  1.00  0.00     0.251 C 
ATOM      5  H   UNL A   1      36.483  20.404  25.726  1.00  0.00     0.163 HD
BRANCH   4   6
ATOM      6  C   UNL A   1      38.934  22.605  26.244  1.00  0.00     0.039 A 
ATOM      7  C   UNL A   1      38.514  23.859  25.801  1.00  0.00     0.014 A 
ATOM      8  C   UNL A   1      40.021  22.503  27.119  1.00  0.00     0.014 A 
ATOM      9  C   UNL A   1      39.276  24.985  26.087  1.00  0.00     0.010 A 
ATOM     10  C   UNL A   1      40.723  23.654  27.494  1.00  0.00     0.010 A 
ATOM     11  C   UNL A   1      40.376  24.902  26.954  1.00  0.00    -0.014 A 
BRANCH  11  12
ATOM     12  C   UNL A   1      41.096  26.146  27.326  1.00  0.00     0.031 A 
ATOM     13  C   UNL A   1      42.470  26.442  26.791  1.00  0.00     0.074 A 
ATOM     14  C   UNL A   1      40.474  27.034  28.130  1.00  0.00     0.049 A 
ATOM     15  N   UNL A   1      43.230  27.486  27.005  1.00  0.00    -0.248 NA
ATOM     16  C   UNL A   1      43.073  25.431  25.910  1.00  0.00     0.031 C 
ATOM     17  C   UNL A   1      39.142  26.846  28.713  1.00  0.00     0.029 A 
ATOM     18  N   UNL A   1      40.858  28.270  28.577  1.00  0.00    -0.354 N 
ATOM     19  C   UNL A   1      44.409  27.253  26.302  1.00  0.00     0.074 A 
ATOM     20  C   UNL A   1      44.271  25.951  25.683  1.00  0.00     0.031 C 
ATOM     21  C   UNL A   1      38.800  27.948  29.394  1.00  0.00     0.029 A 
ATOM     22  C   UNL A   1      39.914  28.888  29.363  1.00  0.00     0.049 A 
ATOM     23  H   UNL A   1      41.727  28.678  28.357  1.00  0.00     0.167 HD
ATOM     24  C   UNL A   1      45.496  28.055  26.184  1.00  0.00     0.034 A 
ATOM     25  C   UNL A   1      39.945  30.069  30.008  1.00  0.00     0.034 A 
ATOM     26  C   UNL A   1      45.610  29.353  26.808  1.00  0.00     0.049 A 
ATOM     27  C   UNL A   1      41.176  30.923  29.887  1.00  0.00     0.074 A 
ATOM     28  C   UNL A   1      46.653  30.261  26.729  1.00  0.00     0.029 A 
ATOM     29  N   UNL A   1      44.651  29.927  27.634  1.00  0.00    -0.354 N 
ATOM     30  N   UNL A   1      42.277  30.690  29.210  1.00  0.00    -0.248 NA
ATOM     31  C   UNL A   1      41.168  32.196  30.614  1.00  0.00     0.031 C 
ATOM     32  C   UNL A   1      46.353  31.351  27.555  1.00  0.00     0.029 A 
ATOM     33  C   UNL A   1      45.092  31.160  28.095  1.00  0.00     0.049 A 
ATOM     34  H   UNL A   1      43.784  29.519  27.860  1.00  0.00     0.167 HD
ATOM     35  C   UNL A   1      43.090  31.797  29.421  1.00  0.00     0.074 A 
ATOM     36  C   UNL A   1      42.342  32.706  30.268  1.00  0.00     0.031 C 
ATOM     37  C   UNL A   1      44.343  32.042  28.959  1.00  0.00     0.034 A 
BRANCH  24  38
ATOM     38  C   UNL A   1      46.667  27.527  25.387  1.00  0.00     0.023 A 
ATOM     39  C   UNL A   1      46.941  27.975  24.082  1.00  0.00     0.031 A 
ATOM     40  C   UNL A   1      47.510  26.544  25.934  1.00  0.00     0.131 A 
ATOM     41  C   UNL A   1      47.986  27.395  23.346  1.00  0.00     0.055 A 
ATOM     42  C   UNL A   1      48.595  26.023  25.224  1.00  0.00     0.041 A 
ATOM     43  F   UNL A   1      47.288  26.062  27.167  1.00  0.00    -0.206 F 
ATOM     44  C   UNL A   1      48.829  26.438  23.916  1.00  0.00     0.022 A 
BRANCH  41  45
ATOM     45  S   UNL A   1      48.145  27.810  21.587  1.00  0.00     0.124 S 
ATOM     46  O   UNL A   1      49.115  28.902  21.626  1.00  0.00    -0.237 OA
ATOM     47  O   UNL A   1      48.617  26.557  21.009  1.00  0.00    -0.237 OA
ATOM     48  O   UNL A   1      46.791  28.203  21.204  1.00  0.00    -0.744 OA
ENDBRANCH  41  45
ENDBRANCH  24  38
BRANCH  25  49
ATOM     49  C   UNL A   1      38.793  30.488  30.854  1.00  0.00     0.023 A 
ATOM     50  C   UNL A   1      37.886  31.464  30.416  1.00  0.00     0.031 A 
ATOM     51  C   UNL A   1      38.591  29.921  32.127  1.00  0.00     0.131 A 
ATOM     52  C   UNL A   1      36.837  31.869  31.256  1.00  0.00     0.055 A 
ATOM     53  C   UNL A   1      37.518  30.289  32.936  1.00  0.00     0.041 A 
ATOM     54  F   UNL A   1      39.429  28.978  32.590  1.00  0.00    -0.206 F 
ATOM     55  C   UNL A   1      36.638  31.278  32.506  1.00  0.00     0.022 A 
BRANCH  52  56
ATOM     56  S   UNL A   1      35.770  33.232  30.718  1.00  0.00     0.124 S 
ATOM     57  O   UNL A   1      36.035  34.239  31.739  1.00  0.00    -0.237 OA
ATOM     58  O   UNL A   1      36.294  33.517  29.385  1.00  0.00    -0.237 OA
ATOM     59  O   UNL A   1      34.432  32.648  30.748  1.00  0.00    -0.744 OA
ENDBRANCH  52  56
ENDBRANCH  25  49
BRANCH  37  60
ATOM     60  C   UNL A   1      44.957  33.363  29.346  1.00  0.00     0.023 A 
ATOM     61  C   UNL A   1      44.818  34.503  28.536  1.00  0.00     0.031 A 
ATOM     62  C   UNL A   1      45.716  33.473  30.524  1.00  0.00     0.131 A 
ATOM     63  C   UNL A   1      45.481  35.690  28.882  1.00  0.00     0.055 A 
ATOM     64  C   UNL A   1      46.326  34.672  30.893  1.00  0.00     0.041 A 
ATOM     65  F   UNL A   1      45.882  32.413  31.331  1.00  0.00    -0.206 F 
ATOM     66  C   UNL A   1      46.222  35.786  30.064  1.00  0.00     0.022 A 
BRANCH  63  67
ATOM     67  S   UNL A   1      45.440  37.082  27.721  1.00  0.00     0.124 S 
ATOM     68  O   UNL A   1      46.262  38.073  28.405  1.00  0.00    -0.237 OA
ATOM     69  O   UNL A   1      46.018  36.497  26.514  1.00  0.00    -0.237 OA
ATOM     70  O   UNL A   1      44.018  37.410  27.629  1.00  0.00    -0.744 OA
ENDBRANCH  63  67
ENDBRANCH  37  60
ENDBRANCH  11  12
ENDBRANCH   4   6
ENDBRANCH   1   2
BRANCH   1  71
ATOM     71  C   UNL A   1      34.501  21.762  26.530  1.00  0.00     0.042 C 
BRANCH  71  72
ATOM     72  C   UNL A   1      33.760  22.506  27.628  1.00  0.00     0.118 C 
BRANCH  72  73
ATOM     73  N   UNL A   1      32.324  22.578  27.389  1.00  0.00    -0.352 N 
ATOM     74  C   UNL A   1      31.581  23.463  26.657  1.00  0.00     0.251 C 
ATOM     75  H   UNL A   1      31.800  21.870  27.829  1.00  0.00     0.163 HD
ATOM     76  O   UNL A   1      30.353  23.433  26.731  1.00  0.00    -0.269 OA
BRANCH  74  77
ATOM     77  C   UNL A   1      32.221  24.460  25.770  1.00  0.00     0.047 A 
ATOM     78  C   UNL A   1      32.423  25.756  26.262  1.00  0.00     0.023 A 
ATOM     79  C   UNL A   1      32.521  24.166  24.439  1.00  0.00     0.099 A 
ATOM     80  C   UNL A   1      32.972  26.762  25.449  1.00  0.00    -0.009 A 
ATOM     81  C   UNL A   1      33.143  25.135  23.649  1.00  0.00     0.270 A 
ATOM     82  C   UNL A   1      33.384  26.421  24.150  1.00  0.00     0.094 A 
BRANCH  80  83
ATOM     83  C   UNL A   1      33.032  28.156  25.924  1.00  0.00     0.002 A 
ATOM     84  C   UNL A   1      34.087  28.567  26.762  1.00  0.00     0.030 A 
ATOM     85  C   UNL A   1      32.034  29.103  25.604  1.00  0.00     0.048 A 
ATOM     86  C   UNL A   1      34.137  29.874  27.255  1.00  0.00     0.041 A 
ATOM     87  C   UNL A   1      32.096  30.412  26.096  1.00  0.00     0.023 A 
ATOM     88  Cl  UNL A   1      30.657  28.700  24.631  1.00  0.00    -0.084 Cl
ATOM     89  Cl  UNL A   1      35.424  30.351  28.292  1.00  0.00    -0.084 Cl
ATOM     90  C   UNL A   1      33.148  30.797  26.923  1.00  0.00     0.022 A 
ENDBRANCH  80  83
BRANCH  81  91
ATOM     91  N   UNL A   1      33.514  24.806  22.268  1.00  0.00     0.062 N 
ATOM     92  O   UNL A   1      33.653  25.742  21.468  1.00  0.00    -0.258 OA
ATOM     93  O   UNL A   1      33.662  23.609  21.984  1.00  0.00    -0.258 OA
ENDBRANCH  81  91
ENDBRANCH  74  77
ENDBRANCH  72  73
ENDBRANCH  71  72
ENDBRANCH   1  71
TORSDOF 15
ENDMDL
MODEL 3
REMARK VINA RESULT:     -12.5      1.475      1.759
REMARK SMILES O=C(NCCCNC(=O)c1cc(-c2cc(Cl)ccc2Cl)cc([N+](=O)[O-])c1)c1ccc(-c2c3nc(c(-c4cc(S(=O)(=O)[O-])ccc4F)c4ccc([nH]4)c(-c4cc(S(=O)(=O)[O-])ccc4F)c4nc(c(-c5cc(S(=O)(=O)[O-])ccc5F)c5ccc2[nH]5)C=C4)C=C3)cc1
REMARK SMILES IDX 4 1 3 2 1 3 2 4 27 6 28 7 89 8 29 9 88 10 30 11 31 12 32 13
REMARK SMILES IDX 82 14 33 15 87 16 81 17 83 18 34 19 86 20 80 21 79 22 35 24
REMARK SMILES IDX 67 25 47 26 66 27 48 28 51 29 65 30 84 31 49 32 50 33 64 35
REMARK SMILES IDX 85 36 52 37 36 38 37 39 45 40 38 41 44 42 46 43 43 44 39 45
REMARK SMILES IDX 40 46 41 47 42 48 68 49 69 50 77 51 70 52 76 53 78 54 75 55
REMARK SMILES IDX 71 56 72 57 73 58 74 59 53 60 54 61 62 62 55 63 61 64 63 65
REMARK SMILES IDX 60 66 56 67 57 68 58 69 59 70 5 71 6 72 7 73 8 74 9 76 10 77
REMARK SMILES IDX 11 78 26 79 12 80 22 81 21 82 13 83 14 84 19 85 15 86 18 87
REMARK SMILES IDX 20 88 16 89 17 90 23 91 24 92 25 93
REMARK H PARENT 3 5 83 23 51 34 7 75
REMARK Flexibility Score: inf
ROOT
ATOM      1  C   UNL A   1      33.451  28.972  25.233  1.00  0.00     0.118 C 
ENDROOT
BRANCH   1   2
ATOM      2  N   UNL A   1      32.873  30.195  25.775  1.00  0.00    -0.352 N 
ATOM      3  O   UNL A   1      32.526  31.860  27.248  1.00  0.00    -0.269 OA
ATOM      4  C   UNL A   1      33.260  30.955  26.853  1.00  0.00     0.251 C 
ATOM      5  H   UNL A   1      32.083  30.530  25.294  1.00  0.00     0.163 HD
BRANCH   4   6
ATOM      6  C   UNL A   1      34.537  30.679  27.546  1.00  0.00     0.039 A 
ATOM      7  C   UNL A   1      34.812  29.410  28.057  1.00  0.00     0.014 A 
ATOM      8  C   UNL A   1      35.486  31.699  27.668  1.00  0.00     0.014 A 
ATOM      9  C   UNL A   1      35.946  29.207  28.832  1.00  0.00     0.010 A 
ATOM     10  C   UNL A   1      36.680  31.461  28.358  1.00  0.00     0.010 A 
ATOM     11  C   UNL A   1      36.905  30.221  28.975  1.00  0.00    -0.014 A 
BRANCH  11  12
ATOM     12  C   UNL A   1      38.159  29.929  29.717  1.00  0.00     0.031 A 
ATOM     13  C   UNL A   1      38.382  30.456  31.108  1.00  0.00     0.074 A 
ATOM     14  C   UNL A   1      39.085  29.143  29.131  1.00  0.00     0.049 A 
ATOM     15  N   UNL A   1      39.411  30.284  31.899  1.00  0.00    -0.248 NA
ATOM     16  C   UNL A   1      37.319  31.294  31.681  1.00  0.00     0.031 C 
ATOM     17  C   UNL A   1      38.974  28.581  27.781  1.00  0.00     0.029 A 
ATOM     18  N   UNL A   1      40.281  28.660  29.592  1.00  0.00    -0.354 N 
ATOM     19  C   UNL A   1      39.130  31.004  33.056  1.00  0.00     0.074 A 
ATOM     20  C   UNL A   1      37.847  31.641  32.847  1.00  0.00     0.031 C 
ATOM     21  C   UNL A   1      40.030  27.790  27.545  1.00  0.00     0.029 A 
ATOM     22  C   UNL A   1      40.929  27.848  28.692  1.00  0.00     0.049 A 
ATOM     23  H   UNL A   1      40.643  28.875  30.482  1.00  0.00     0.167 HD
ATOM     24  C   UNL A   1      39.874  31.115  34.185  1.00  0.00     0.034 A 
ATOM     25  C   UNL A   1      42.125  27.234  28.766  1.00  0.00     0.034 A 
ATOM     26  C   UNL A   1      41.151  30.466  34.374  1.00  0.00     0.049 A 
ATOM     27  C   UNL A   1      42.943  27.400  30.015  1.00  0.00     0.074 A 
ATOM     28  C   UNL A   1      41.973  30.486  35.488  1.00  0.00     0.029 A 
ATOM     29  N   UNL A   1      41.798  29.686  33.422  1.00  0.00    -0.354 N 
ATOM     30  N   UNL A   1      42.657  28.078  31.103  1.00  0.00    -0.248 NA
ATOM     31  C   UNL A   1      44.242  26.721  30.047  1.00  0.00     0.031 C 
ATOM     32  C   UNL A   1      43.141  29.774  35.187  1.00  0.00     0.029 A 
ATOM     33  C   UNL A   1      43.020  29.248  33.912  1.00  0.00     0.049 A 
ATOM     34  H   UNL A   1      41.441  29.476  32.529  1.00  0.00     0.167 HD
ATOM     35  C   UNL A   1      43.739  27.895  31.956  1.00  0.00     0.074 A 
ATOM     36  C   UNL A   1      44.670  27.024  31.264  1.00  0.00     0.031 C 
ATOM     37  C   UNL A   1      43.947  28.401  33.198  1.00  0.00     0.034 A 
BRANCH  24  38
ATOM     38  C   UNL A   1      39.344  32.008  35.283  1.00  0.00     0.023 A 
ATOM     39  C   UNL A   1      39.732  33.355  35.398  1.00  0.00     0.031 A 
ATOM     40  C   UNL A   1      38.451  31.497  36.242  1.00  0.00     0.131 A 
ATOM     41  C   UNL A   1      39.283  34.124  36.484  1.00  0.00     0.055 A 
ATOM     42  C   UNL A   1      37.949  32.289  37.278  1.00  0.00     0.041 A 
ATOM     43  F   UNL A   1      38.060  30.214  36.196  1.00  0.00    -0.206 F 
ATOM     44  C   UNL A   1      38.375  33.606  37.411  1.00  0.00     0.022 A 
BRANCH  41  45
ATOM     45  S   UNL A   1      40.006  35.767  36.743  1.00  0.00     0.124 S 
ATOM     46  O   UNL A   1      41.421  35.445  36.911  1.00  0.00    -0.237 OA
ATOM     47  O   UNL A   1      39.653  36.464  35.511  1.00  0.00    -0.237 OA
ATOM     48  O   UNL A   1      39.337  36.251  37.948  1.00  0.00    -0.744 OA
ENDBRANCH  41  45
ENDBRANCH  24  38
BRANCH  25  49
ATOM     49  C   UNL A   1      42.631  26.443  27.609  1.00  0.00     0.023 A 
ATOM     50  C   UNL A   1      42.506  25.046  27.573  1.00  0.00     0.031 A 
ATOM     51  C   UNL A   1      43.262  27.079  26.524  1.00  0.00     0.131 A 
ATOM     52  C   UNL A   1      43.033  24.327  26.489  1.00  0.00     0.055 A 
ATOM     53  C   UNL A   1      43.738  26.365  25.426  1.00  0.00     0.041 A 
ATOM     54  F   UNL A   1      43.401  28.416  26.508  1.00  0.00    -0.206 F 
ATOM     55  C   UNL A   1      43.634  24.978  25.409  1.00  0.00     0.022 A 
BRANCH  52  56
ATOM     56  S   UNL A   1      42.982  22.516  26.542  1.00  0.00     0.124 S 
ATOM     57  O   UNL A   1      42.368  22.272  27.841  1.00  0.00    -0.237 OA
ATOM     58  O   UNL A   1      42.160  22.203  25.376  1.00  0.00    -0.237 OA
ATOM     59  O   UNL A   1      44.387  22.133  26.432  1.00  0.00    -0.744 OA
ENDBRANCH  52  56
ENDBRANCH  25  49
BRANCH  37  60
ATOM     60  C   UNL A   1      45.224  27.990  33.887  1.00  0.00     0.023 A 
ATOM     61  C   UNL A   1      45.282  26.852  34.709  1.00  0.00     0.031 A 
ATOM     62  C   UNL A   1      46.386  28.767  33.744  1.00  0.00     0.131 A 
ATOM     63  C   UNL A   1      46.462  26.554  35.406  1.00  0.00     0.055 A 
ATOM     64  C   UNL A   1      47.574  28.434  34.396  1.00  0.00     0.041 A 
ATOM     65  F   UNL A   1      46.383  29.866  32.974  1.00  0.00    -0.206 F 
ATOM     66  C   UNL A   1      47.614  27.330  35.243  1.00  0.00     0.022 A 
BRANCH  63  67
ATOM     67  S   UNL A   1      46.447  25.193  36.603  1.00  0.00     0.124 S 
ATOM     68  O   UNL A   1      45.064  24.735  36.526  1.00  0.00    -0.237 OA
ATOM     69  O   UNL A   1      47.450  24.284  36.056  1.00  0.00    -0.237 OA
ATOM     70  O   UNL A   1      46.818  25.838  37.861  1.00  0.00    -0.744 OA
ENDBRANCH  63  67
ENDBRANCH  37  60
ENDBRANCH  11  12
ENDBRANCH   4   6
ENDBRANCH   1   2
BRANCH   1  71
ATOM     71  C   UNL A   1      33.526  28.975  23.714  1.00  0.00     0.042 C 
BRANCH  71  72
ATOM     72  C   UNL A   1      32.260  28.498  23.022  1.00  0.00     0.118 C 
BRANCH  72  73
ATOM     73  N   UNL A   1      32.520  27.482  22.010  1.00  0.00    -0.352 N 
ATOM     74  C   UNL A   1      32.964  26.193  22.126  1.00  0.00     0.251 C 
ATOM     75  H   UNL A   1      32.348  27.773  21.085  1.00  0.00     0.163 HD
ATOM     76  O   UNL A   1      33.275  25.564  21.116  1.00  0.00    -0.269 OA
BRANCH  74  77
ATOM     77  C   UNL A   1      33.074  25.533  23.446  1.00  0.00     0.047 A 
ATOM     78  C   UNL A   1      34.272  24.878  23.764  1.00  0.00     0.023 A 
ATOM     79  C   UNL A   1      31.987  25.457  24.317  1.00  0.00     0.099 A 
ATOM     80  C   UNL A   1      34.418  24.183  24.976  1.00  0.00    -0.009 A 
ATOM     81  C   UNL A   1      32.149  24.839  25.559  1.00  0.00     0.270 A 
ATOM     82  C   UNL A   1      33.359  24.218  25.899  1.00  0.00     0.094 A 
BRANCH  80  83
ATOM     83  C   UNL A   1      35.620  23.369  25.230  1.00  0.00     0.002 A 
ATOM     84  C   UNL A   1      36.786  23.976  25.733  1.00  0.00     0.030 A 
ATOM     85  C   UNL A   1      35.665  21.986  24.944  1.00  0.00     0.048 A 
ATOM     86  C   UNL A   1      37.947  23.226  25.940  1.00  0.00     0.041 A 
ATOM     87  C   UNL A   1      36.830  21.241  25.162  1.00  0.00     0.023 A 
ATOM     88  Cl  UNL A   1      34.313  21.138  24.266  1.00  0.00    -0.084 Cl
ATOM     89  Cl  UNL A   1      39.367  23.991  26.538  1.00  0.00    -0.084 Cl
ATOM     90  C   UNL A   1      37.972  21.863  25.659  1.00  0.00     0.022 A 
ENDBRANCH  80  83
BRANCH  81  91
ATOM     91  N   UNL A   1      31.024  24.813  26.501  1.00  0.00     0.062 N 
ATOM     92  O   UNL A   1      30.242  25.773  26.494  1.00  0.00    -0.258 OA
ATOM     93  O   UNL A   1      30.929  23.833  27.253  1.00  0.00    -0.258 OA
ENDBRANCH  81  91
ENDBRANCH  74  77
ENDBRANCH  72  73
ENDBRANCH  71  72
ENDBRANCH   1  71
TORSDOF 15
ENDMDL
