MODEL 1
REMARK VINA RESULT:     -12.6      0.000      0.000
REMARK SMILES O=C(NCCCNC(=O)c1ccc(C[N@@H+]2CCN3C(=O)NC[C@@H]3C2)nc1)c1ccc(-c2c3nc(c(-c4cc(S(=O)(=O)[O-])ccc4F)c4ccc([nH]4)c(-c4cc(S(=O)(=O)[O-])ccc4F)c4nc(c(-c5cc(S(=O)(=O)[O-])ccc5F)c5ccc2[nH]5)C=C4)C=C3)cc1
REMARK SMILES IDX 4 1 3 2 1 3 2 4 27 6 28 7 89 8 29 9 88 10 30 11 31 12 32 13
REMARK SMILES IDX 82 14 33 15 87 16 81 17 83 18 34 19 86 20 80 21 79 22 35 24
REMARK SMILES IDX 67 25 47 26 66 27 48 28 51 29 65 30 84 31 49 32 50 33 64 35
REMARK SMILES IDX 85 36 52 37 36 38 37 39 45 40 38 41 44 42 46 43 43 44 39 45
REMARK SMILES IDX 40 46 41 47 42 48 68 49 69 50 77 51 70 52 76 53 78 54 75 55
REMARK SMILES IDX 71 56 72 57 73 58 74 59 53 60 54 61 62 62 55 63 61 64 63 65
REMARK SMILES IDX 60 66 56 67 57 68 58 69 59 70 5 71 6 72 7 73 8 74 9 76 10 77
REMARK SMILES IDX 11 78 26 79 12 80 25 81 13 82 14 83 15 84 16 85 24 86 17 88
REMARK SMILES IDX 23 89 18 90 22 91 19 92 21 93 20 94
REMARK H PARENT 3 5 83 23 51 34 7 75 15 87 21 95
REMARK Flexibility Score: inf
ROOT
ATOM      1  C   UNL A   1      32.726  32.824  27.244  1.00  0.00     0.118 C 
ENDROOT
BRANCH   1   2
ATOM      2  N   UNL A   1      32.581  34.197  27.720  1.00  0.00    -0.352 N 
ATOM      3  O   UNL A   1      32.756  35.929  29.145  1.00  0.00    -0.269 OA
ATOM      4  C   UNL A   1      33.171  34.831  28.786  1.00  0.00     0.251 C 
ATOM      5  H   UNL A   1      31.963  34.755  27.193  1.00  0.00     0.163 HD
BRANCH   4   6
ATOM      6  C   UNL A   1      34.291  34.183  29.499  1.00  0.00     0.039 A 
ATOM      7  C   UNL A   1      35.605  34.392  29.079  1.00  0.00     0.014 A 
ATOM      8  C   UNL A   1      34.029  33.364  30.600  1.00  0.00     0.014 A 
ATOM      9  C   UNL A   1      36.634  33.649  29.637  1.00  0.00     0.010 A 
ATOM     10  C   UNL A   1      35.087  32.712  31.244  1.00  0.00     0.010 A 
ATOM     11  C   UNL A   1      36.395  32.828  30.748  1.00  0.00    -0.014 A 
BRANCH  11  12
ATOM     12  C   UNL A   1      37.549  32.172  31.416  1.00  0.00     0.031 A 
ATOM     13  C   UNL A   1      38.307  31.058  30.749  1.00  0.00     0.074 A 
ATOM     14  C   UNL A   1      37.926  32.625  32.629  1.00  0.00     0.049 A 
ATOM     15  N   UNL A   1      39.332  30.379  31.198  1.00  0.00    -0.248 NA
ATOM     16  C   UNL A   1      37.853  30.647  29.413  1.00  0.00     0.031 C 
ATOM     17  C   UNL A   1      37.262  33.707  33.365  1.00  0.00     0.029 A 
ATOM     18  N   UNL A   1      38.960  32.257  33.448  1.00  0.00    -0.354 N 
ATOM     19  C   UNL A   1      39.639  29.451  30.210  1.00  0.00     0.074 A 
ATOM     20  C   UNL A   1      38.665  29.632  29.152  1.00  0.00     0.031 C 
ATOM     21  C   UNL A   1      37.937  33.949  34.496  1.00  0.00     0.029 A 
ATOM     22  C   UNL A   1      39.019  32.982  34.617  1.00  0.00     0.049 A 
ATOM     23  H   UNL A   1      39.599  31.542  33.224  1.00  0.00     0.167 HD
ATOM     24  C   UNL A   1      40.644  28.539  30.190  1.00  0.00     0.034 A 
ATOM     25  C   UNL A   1      39.829  32.861  35.685  1.00  0.00     0.034 A 
ATOM     26  C   UNL A   1      41.599  28.376  31.263  1.00  0.00     0.049 A 
ATOM     27  C   UNL A   1      40.890  31.795  35.665  1.00  0.00     0.074 A 
ATOM     28  C   UNL A   1      42.671  27.502  31.334  1.00  0.00     0.029 A 
ATOM     29  N   UNL A   1      41.594  29.089  32.456  1.00  0.00    -0.354 N 
ATOM     30  N   UNL A   1      41.175  30.934  34.715  1.00  0.00    -0.248 NA
ATOM     31  C   UNL A   1      41.739  31.687  36.855  1.00  0.00     0.031 C 
ATOM     32  C   UNL A   1      43.256  27.625  32.598  1.00  0.00     0.029 A 
ATOM     33  C   UNL A   1      42.617  28.646  33.282  1.00  0.00     0.049 A 
ATOM     34  H   UNL A   1      40.957  29.805  32.682  1.00  0.00     0.167 HD
ATOM     35  C   UNL A   1      42.259  30.200  35.186  1.00  0.00     0.074 A 
ATOM     36  C   UNL A   1      42.586  30.735  36.492  1.00  0.00     0.031 C 
ATOM     37  C   UNL A   1      42.926  29.180  34.589  1.00  0.00     0.034 A 
BRANCH  24  38
ATOM     38  C   UNL A   1      40.732  27.616  28.997  1.00  0.00     0.023 A 
ATOM     39  C   UNL A   1      41.677  27.807  27.974  1.00  0.00     0.031 A 
ATOM     40  C   UNL A   1      39.850  26.525  28.879  1.00  0.00     0.131 A 
ATOM     41  C   UNL A   1      41.677  26.964  26.851  1.00  0.00     0.055 A 
ATOM     42  C   UNL A   1      39.910  25.640  27.800  1.00  0.00     0.041 A 
ATOM     43  F   UNL A   1      38.909  26.303  29.809  1.00  0.00    -0.206 F 
ATOM     44  C   UNL A   1      40.819  25.865  26.771  1.00  0.00     0.022 A 
BRANCH  41  45
ATOM     45  S   UNL A   1      42.717  27.409  25.434  1.00  0.00     0.124 S 
ATOM     46  O   UNL A   1      42.652  26.193  24.626  1.00  0.00    -0.237 OA
ATOM     47  O   UNL A   1      42.029  28.573  24.890  1.00  0.00    -0.237 OA
ATOM     48  O   UNL A   1      44.022  27.678  26.036  1.00  0.00    -0.744 OA
ENDBRANCH  41  45
ENDBRANCH  24  38
BRANCH  25  49
ATOM     49  C   UNL A   1      39.638  33.738  36.876  1.00  0.00     0.023 A 
ATOM     50  C   UNL A   1      39.036  33.252  38.045  1.00  0.00     0.031 A 
ATOM     51  C   UNL A   1      40.021  35.093  36.845  1.00  0.00     0.131 A 
ATOM     52  C   UNL A   1      38.784  34.125  39.115  1.00  0.00     0.055 A 
ATOM     53  C   UNL A   1      39.832  35.939  37.938  1.00  0.00     0.041 A 
ATOM     54  F   UNL A   1      40.603  35.611  35.751  1.00  0.00    -0.206 F 
ATOM     55  C   UNL A   1      39.195  35.460  39.076  1.00  0.00     0.022 A 
BRANCH  52  56
ATOM     56  S   UNL A   1      37.810  33.515  40.517  1.00  0.00     0.124 S 
ATOM     57  O   UNL A   1      38.767  32.636  41.180  1.00  0.00    -0.237 OA
ATOM     58  O   UNL A   1      37.481  34.751  41.218  1.00  0.00    -0.237 OA
ATOM     59  O   UNL A   1      36.682  32.841  39.878  1.00  0.00    -0.744 OA
ENDBRANCH  52  56
ENDBRANCH  25  49
BRANCH  37  60
ATOM     60  C   UNL A   1      44.115  28.615  35.330  1.00  0.00     0.023 A 
ATOM     61  C   UNL A   1      43.984  27.559  36.251  1.00  0.00     0.031 A 
ATOM     62  C   UNL A   1      45.396  29.155  35.124  1.00  0.00     0.131 A 
ATOM     63  C   UNL A   1      45.103  27.123  36.975  1.00  0.00     0.055 A 
ATOM     64  C   UNL A   1      46.518  28.668  35.794  1.00  0.00     0.041 A 
ATOM     65  F   UNL A   1      45.580  30.170  34.262  1.00  0.00    -0.206 F 
ATOM     66  C   UNL A   1      46.373  27.656  36.738  1.00  0.00     0.022 A 
BRANCH  63  67
ATOM     67  S   UNL A   1      44.859  25.922  38.313  1.00  0.00     0.124 S 
ATOM     68  O   UNL A   1      44.102  26.702  39.286  1.00  0.00    -0.237 OA
ATOM     69  O   UNL A   1      44.125  24.853  37.644  1.00  0.00    -0.237 OA
ATOM     70  O   UNL A   1      46.221  25.579  38.717  1.00  0.00    -0.744 OA
ENDBRANCH  63  67
ENDBRANCH  37  60
ENDBRANCH  11  12
ENDBRANCH   4   6
ENDBRANCH   1   2
BRANCH   1  71
ATOM     71  C   UNL A   1      31.492  32.329  26.509  1.00  0.00     0.042 C 
BRANCH  71  72
ATOM     72  C   UNL A   1      31.575  30.864  26.119  1.00  0.00     0.118 C 
BRANCH  72  73
ATOM     73  N   UNL A   1      30.810  30.572  24.913  1.00  0.00    -0.352 N 
ATOM     74  C   UNL A   1      30.803  29.423  24.170  1.00  0.00     0.252 C 
ATOM     75  H   UNL A   1      30.223  31.295  24.592  1.00  0.00     0.163 HD
ATOM     76  O   UNL A   1      30.240  29.368  23.083  1.00  0.00    -0.269 OA
BRANCH  74  77
ATOM     77  C   UNL A   1      31.500  28.249  24.695  1.00  0.00     0.058 A 
ATOM     78  C   UNL A   1      30.999  27.515  25.770  1.00  0.00     0.017 A 
ATOM     79  C   UNL A   1      32.708  27.887  24.138  1.00  0.00     0.125 A 
ATOM     80  C   UNL A   1      31.750  26.458  26.273  1.00  0.00     0.030 A 
ATOM     81  N   UNL A   1      33.456  26.874  24.621  1.00  0.00    -0.255 NA
ATOM     82  C   UNL A   1      32.971  26.157  25.671  1.00  0.00     0.095 A 
BRANCH  82  83
ATOM     83  C   UNL A   1      33.786  24.954  26.127  1.00  0.00     0.319 C 
BRANCH  83  84
ATOM     84  N   UNL A   1      33.527  23.679  25.418  1.00  0.00    -0.327 N 
ATOM     85  C   UNL A   1      32.162  23.159  25.692  1.00  0.00     0.284 C 
ATOM     86  C   UNL A   1      34.579  22.675  25.653  1.00  0.00     0.289 C 
ATOM     87  H   UNL A   1      33.564  23.885  24.420  1.00  0.00     0.348 HD
ATOM     88  C   UNL A   1      31.850  21.678  25.359  1.00  0.00     0.183 C 
ATOM     89  C   UNL A   1      34.287  21.431  24.816  1.00  0.00     0.161 C 
ATOM     90  N   UNL A   1      33.023  20.849  25.203  1.00  0.00    -0.309 N 
ATOM     91  C   UNL A   1      35.260  20.270  25.000  1.00  0.00     0.148 C 
ATOM     92  C   UNL A   1      33.075  19.471  25.200  1.00  0.00     0.318 C 
ATOM     93  N   UNL A   1      34.401  19.112  25.002  1.00  0.00    -0.336 N 
ATOM     94  O   UNL A   1      32.154  18.685  25.347  1.00  0.00    -0.249 OA
ATOM     95  H   UNL A   1      34.714  18.186  24.879  1.00  0.00     0.165 HD
ENDBRANCH  83  84
ENDBRANCH  82  83
ENDBRANCH  74  77
ENDBRANCH  72  73
ENDBRANCH  71  72
ENDBRANCH   1  71
TORSDOF 15
ENDMDL
MODEL 2
REMARK VINA RESULT:     -12.5      3.023      8.377
REMARK SMILES O=C(NCCCNC(=O)c1ccc(C[N@@H+]2CCN3C(=O)NC[C@@H]3C2)nc1)c1ccc(-c2c3nc(c(-c4cc(S(=O)(=O)[O-])ccc4F)c4ccc([nH]4)c(-c4cc(S(=O)(=O)[O-])ccc4F)c4nc(c(-c5cc(S(=O)(=O)[O-])ccc5F)c5ccc2[nH]5)C=C4)C=C3)cc1
REMARK SMILES IDX 4 1 3 2 1 3 2 4 27 6 28 7 89 8 29 9 88 10 30 11 31 12 32 13
REMARK SMILES IDX 82 14 33 15 87 16 81 17 83 18 34 19 86 20 80 21 79 22 35 24
REMARK SMILES IDX 67 25 47 26 66 27 48 28 51 29 65 30 84 31 49 32 50 33 64 35
REMARK SMILES IDX 85 36 52 37 36 38 37 39 45 40 38 41 44 42 46 43 43 44 39 45
REMARK SMILES IDX 40 46 41 47 42 48 68 49 69 50 77 51 70 52 76 53 78 54 75 55
REMARK SMILES IDX 71 56 72 57 73 58 74 59 53 60 54 61 62 62 55 63 61 64 63 65
REMARK SMILES IDX 60 66 56 67 57 68 58 69 59 70 5 71 6 72 7 73 8 74 9 76 10 77
REMARK SMILES IDX 11 78 26 79 12 80 25 81 13 82 14 83 15 84 16 85 24 86 17 88
REMARK SMILES IDX 23 89 18 90 22 91 19 92 21 93 20 94
REMARK H PARENT 3 5 83 23 51 34 7 75 15 87 21 95
REMARK Flexibility Score: inf
ROOT
ATOM      1  C   UNL A   1      33.772  29.464  26.087  1.00  0.00     0.118 C 
ENDROOT
BRANCH   1   2
ATOM      2  N   UNL A   1      33.505  30.780  26.658  1.00  0.00    -0.352 N 
ATOM      3  O   UNL A   1      33.639  32.462  28.147  1.00  0.00    -0.269 OA
ATOM      4  C   UNL A   1      34.147  31.451  27.670  1.00  0.00     0.251 C 
ATOM      5  H   UNL A   1      32.746  31.262  26.255  1.00  0.00     0.163 HD
BRANCH   4   6
ATOM      6  C   UNL A   1      35.438  30.948  28.184  1.00  0.00     0.039 A 
ATOM      7  C   UNL A   1      35.490  29.743  28.886  1.00  0.00     0.014 A 
ATOM      8  C   UNL A   1      36.606  31.679  27.959  1.00  0.00     0.014 A 
ATOM      9  C   UNL A   1      36.666  29.362  29.515  1.00  0.00     0.010 A 
ATOM     10  C   UNL A   1      37.819  31.226  28.490  1.00  0.00     0.010 A 
ATOM     11  C   UNL A   1      37.852  30.078  29.297  1.00  0.00    -0.014 A 
BRANCH  11  12
ATOM     12  C   UNL A   1      39.121  29.549  29.859  1.00  0.00     0.031 A 
ATOM     13  C   UNL A   1      39.722  30.127  31.110  1.00  0.00     0.074 A 
ATOM     14  C   UNL A   1      39.710  28.508  29.237  1.00  0.00     0.049 A 
ATOM     15  N   UNL A   1      40.824  29.784  31.726  1.00  0.00    -0.248 NA
ATOM     16  C   UNL A   1      39.000  31.239  31.746  1.00  0.00     0.031 C 
ATOM     17  C   UNL A   1      39.208  27.865  28.017  1.00  0.00     0.029 A 
ATOM     18  N   UNL A   1      40.837  27.793  29.543  1.00  0.00    -0.354 N 
ATOM     19  C   UNL A   1      40.939  30.642  32.813  1.00  0.00     0.074 A 
ATOM     20  C   UNL A   1      39.810  31.548  32.749  1.00  0.00     0.031 C 
ATOM     21  C   UNL A   1      39.991  26.822  27.713  1.00  0.00     0.029 A 
ATOM     22  C   UNL A   1      41.102  26.777  28.653  1.00  0.00     0.049 A 
ATOM     23  H   UNL A   1      41.404  27.987  30.325  1.00  0.00     0.167 HD
ATOM     24  C   UNL A   1      41.897  30.664  33.774  1.00  0.00     0.034 A 
ATOM     25  C   UNL A   1      42.141  25.925  28.577  1.00  0.00     0.034 A 
ATOM     26  C   UNL A   1      43.017  29.752  33.811  1.00  0.00     0.049 A 
ATOM     27  C   UNL A   1      43.224  26.018  29.617  1.00  0.00     0.074 A 
ATOM     28  C   UNL A   1      44.029  29.670  34.753  1.00  0.00     0.029 A 
ATOM     29  N   UNL A   1      43.284  28.773  32.862  1.00  0.00    -0.354 N 
ATOM     30  N   UNL A   1      43.309  26.828  30.648  1.00  0.00    -0.248 NA
ATOM     31  C   UNL A   1      44.346  25.083  29.488  1.00  0.00     0.031 C 
ATOM     32  C   UNL A   1      44.949  28.706  34.329  1.00  0.00     0.029 A 
ATOM     33  C   UNL A   1      44.464  28.112  33.175  1.00  0.00     0.049 A 
ATOM     34  H   UNL A   1      42.718  28.575  32.081  1.00  0.00     0.167 HD
ATOM     35  C   UNL A   1      44.484  26.476  31.306  1.00  0.00     0.074 A 
ATOM     36  C   UNL A   1      45.058  25.371  30.567  1.00  0.00     0.031 C 
ATOM     37  C   UNL A   1      45.034  27.017  32.423  1.00  0.00     0.034 A 
BRANCH  24  38
ATOM     38  C   UNL A   1      41.802  31.737  34.835  1.00  0.00     0.023 A 
ATOM     39  C   UNL A   1      40.869  31.669  35.884  1.00  0.00     0.031 A 
ATOM     40  C   UNL A   1      42.662  32.851  34.794  1.00  0.00     0.131 A 
ATOM     41  C   UNL A   1      40.773  32.722  36.808  1.00  0.00     0.055 A 
ATOM     42  C   UNL A   1      42.618  33.855  35.764  1.00  0.00     0.041 A 
ATOM     43  F   UNL A   1      43.558  32.987  33.804  1.00  0.00    -0.206 F 
ATOM     44  C   UNL A   1      41.660  33.800  36.772  1.00  0.00     0.022 A 
BRANCH  41  45
ATOM     45  S   UNL A   1      39.381  32.730  37.970  1.00  0.00     0.124 S 
ATOM     46  O   UNL A   1      38.562  31.633  37.460  1.00  0.00    -0.237 OA
ATOM     47  O   UNL A   1      40.037  32.495  39.251  1.00  0.00    -0.237 OA
ATOM     48  O   UNL A   1      38.800  34.061  37.800  1.00  0.00    -0.744 OA
ENDBRANCH  41  45
ENDBRANCH  24  38
BRANCH  25  49
ATOM     49  C   UNL A   1      42.231  24.946  27.455  1.00  0.00     0.023 A 
ATOM     50  C   UNL A   1      41.469  23.769  27.458  1.00  0.00     0.031 A 
ATOM     51  C   UNL A   1      43.116  25.157  26.381  1.00  0.00     0.131 A 
ATOM     52  C   UNL A   1      41.644  22.823  26.437  1.00  0.00     0.055 A 
ATOM     53  C   UNL A   1      43.234  24.245  25.332  1.00  0.00     0.041 A 
ATOM     54  F   UNL A   1      43.870  26.267  26.328  1.00  0.00    -0.206 F 
ATOM     55  C   UNL A   1      42.507  23.061  25.365  1.00  0.00     0.022 A 
BRANCH  52  56
ATOM     56  S   UNL A   1      40.806  21.222  26.589  1.00  0.00     0.124 S 
ATOM     57  O   UNL A   1      40.792  21.034  28.035  1.00  0.00    -0.237 OA
ATOM     58  O   UNL A   1      39.516  21.495  25.964  1.00  0.00    -0.237 OA
ATOM     59  O   UNL A   1      41.677  20.312  25.848  1.00  0.00    -0.744 OA
ENDBRANCH  52  56
ENDBRANCH  25  49
BRANCH  37  60
ATOM     60  C   UNL A   1      46.299  26.376  32.941  1.00  0.00     0.023 A 
ATOM     61  C   UNL A   1      46.270  25.251  33.784  1.00  0.00     0.031 A 
ATOM     62  C   UNL A   1      47.553  26.912  32.598  1.00  0.00     0.131 A 
ATOM     63  C   UNL A   1      47.468  24.739  34.306  1.00  0.00     0.055 A 
ATOM     64  C   UNL A   1      48.744  26.355  33.063  1.00  0.00     0.041 A 
ATOM     65  F   UNL A   1      47.641  27.991  31.803  1.00  0.00    -0.206 F 
ATOM     66  C   UNL A   1      48.706  25.271  33.935  1.00  0.00     0.022 A 
BRANCH  63  67
ATOM     67  S   UNL A   1      47.382  23.437  35.567  1.00  0.00     0.124 S 
ATOM     68  O   UNL A   1      48.165  24.015  36.653  1.00  0.00    -0.237 OA
ATOM     69  O   UNL A   1      45.947  23.327  35.804  1.00  0.00    -0.237 OA
ATOM     70  O   UNL A   1      47.992  22.283  34.908  1.00  0.00    -0.744 OA
ENDBRANCH  63  67
ENDBRANCH  37  60
ENDBRANCH  11  12
ENDBRANCH   4   6
ENDBRANCH   1   2
BRANCH   1  71
ATOM     71  C   UNL A   1      32.948  29.193  24.839  1.00  0.00     0.042 C 
BRANCH  71  72
ATOM     72  C   UNL A   1      31.458  29.396  25.050  1.00  0.00     0.118 C 
BRANCH  72  73
ATOM     73  N   UNL A   1      30.769  29.738  23.812  1.00  0.00    -0.352 N 
ATOM     74  C   UNL A   1      30.461  28.919  22.759  1.00  0.00     0.252 C 
ATOM     75  H   UNL A   1      30.490  30.678  23.721  1.00  0.00     0.163 HD
ATOM     76  O   UNL A   1      30.028  29.369  21.705  1.00  0.00    -0.269 OA
BRANCH  74  77
ATOM     77  C   UNL A   1      30.672  27.479  22.910  1.00  0.00     0.058 A 
ATOM     78  C   UNL A   1      29.885  26.705  23.761  1.00  0.00     0.017 A 
ATOM     79  C   UNL A   1      31.709  26.884  22.225  1.00  0.00     0.125 A 
ATOM     80  C   UNL A   1      30.189  25.357  23.921  1.00  0.00     0.030 A 
ATOM     81  N   UNL A   1      32.028  25.582  22.378  1.00  0.00    -0.255 NA
ATOM     82  C   UNL A   1      31.262  24.823  23.208  1.00  0.00     0.095 A 
BRANCH  82  83
ATOM     83  C   UNL A   1      31.578  23.335  23.280  1.00  0.00     0.319 C 
BRANCH  83  84
ATOM     84  N   UNL A   1      32.816  22.961  24.004  1.00  0.00    -0.327 N 
ATOM     85  C   UNL A   1      32.934  23.670  25.305  1.00  0.00     0.284 C 
ATOM     86  C   UNL A   1      34.023  23.091  23.170  1.00  0.00     0.289 C 
ATOM     87  H   UNL A   1      32.740  21.967  24.221  1.00  0.00     0.348 HD
ATOM     88  C   UNL A   1      34.313  23.704  26.010  1.00  0.00     0.183 C 
ATOM     89  C   UNL A   1      35.236  22.599  23.956  1.00  0.00     0.161 C 
ATOM     90  N   UNL A   1      35.428  23.400  25.143  1.00  0.00    -0.309 N 
ATOM     91  C   UNL A   1      36.579  22.730  23.244  1.00  0.00     0.148 C 
ATOM     92  C   UNL A   1      36.763  23.633  25.389  1.00  0.00     0.318 C 
ATOM     93  N   UNL A   1      37.470  23.165  24.291  1.00  0.00    -0.336 N 
ATOM     94  O   UNL A   1      37.265  24.155  26.371  1.00  0.00    -0.249 OA
ATOM     95  H   UNL A   1      38.453  23.134  24.234  1.00  0.00     0.165 HD
ENDBRANCH  83  84
ENDBRANCH  82  83
ENDBRANCH  74  77
ENDBRANCH  72  73
ENDBRANCH  71  72
ENDBRANCH   1  71
TORSDOF 15
ENDMDL
MODEL 3
REMARK VINA RESULT:     -12.4      1.322      1.651
REMARK SMILES O=C(NCCCNC(=O)c1ccc(C[N@@H+]2CCN3C(=O)NC[C@@H]3C2)nc1)c1ccc(-c2c3nc(c(-c4cc(S(=O)(=O)[O-])ccc4F)c4ccc([nH]4)c(-c4cc(S(=O)(=O)[O-])ccc4F)c4nc(c(-c5cc(S(=O)(=O)[O-])ccc5F)c5ccc2[nH]5)C=C4)C=C3)cc1
REMARK SMILES IDX 4 1 3 2 1 3 2 4 27 6 28 7 89 8 29 9 88 10 30 11 31 12 32 13
REMARK SMILES IDX 82 14 33 15 87 16 81 17 83 18 34 19 86 20 80 21 79 22 35 24
REMARK SMILES IDX 67 25 47 26 66 27 48 28 51 29 65 30 84 31 49 32 50 33 64 35
REMARK SMILES IDX 85 36 52 37 36 38 37 39 45 40 38 41 44 42 46 43 43 44 39 45
REMARK SMILES IDX 40 46 41 47 42 48 68 49 69 50 77 51 70 52 76 53 78 54 75 55
REMARK SMILES IDX 71 56 72 57 73 58 74 59 53 60 54 61 62 62 55 63 61 64 63 65
REMARK SMILES IDX 60 66 56 67 57 68 58 69 59 70 5 71 6 72 7 73 8 74 9 76 10 77
REMARK SMILES IDX 11 78 26 79 12 80 25 81 13 82 14 83 15 84 16 85 24 86 17 88
REMARK SMILES IDX 23 89 18 90 22 91 19 92 21 93 20 94
REMARK H PARENT 3 5 83 23 51 34 7 75 15 87 21 95
REMARK Flexibility Score: inf
ROOT
ATOM      1  C   UNL A   1      32.825  32.635  27.383  1.00  0.00     0.118 C 
ENDROOT
BRANCH   1   2
ATOM      2  N   UNL A   1      32.764  34.046  27.753  1.00  0.00    -0.352 N 
ATOM      3  O   UNL A   1      33.074  35.872  29.031  1.00  0.00    -0.269 OA
ATOM      4  C   UNL A   1      33.422  34.730  28.746  1.00  0.00     0.251 C 
ATOM      5  H   UNL A   1      32.155  34.593  27.205  1.00  0.00     0.163 HD
BRANCH   4   6
ATOM      6  C   UNL A   1      34.535  34.082  29.472  1.00  0.00     0.039 A 
ATOM      7  C   UNL A   1      35.853  34.285  29.060  1.00  0.00     0.014 A 
ATOM      8  C   UNL A   1      34.263  33.272  30.576  1.00  0.00     0.014 A 
ATOM      9  C   UNL A   1      36.875  33.543  29.630  1.00  0.00     0.010 A 
ATOM     10  C   UNL A   1      35.313  32.620  31.231  1.00  0.00     0.010 A 
ATOM     11  C   UNL A   1      36.626  32.729  30.745  1.00  0.00    -0.014 A 
BRANCH  11  12
ATOM     12  C   UNL A   1      37.773  32.074  31.425  1.00  0.00     0.031 A 
ATOM     13  C   UNL A   1      38.569  30.994  30.747  1.00  0.00     0.074 A 
ATOM     14  C   UNL A   1      38.108  32.496  32.661  1.00  0.00     0.049 A 
ATOM     15  N   UNL A   1      39.593  30.320  31.204  1.00  0.00    -0.248 NA
ATOM     16  C   UNL A   1      38.159  30.615  29.387  1.00  0.00     0.031 C 
ATOM     17  C   UNL A   1      37.404  33.544  33.410  1.00  0.00     0.029 A 
ATOM     18  N   UNL A   1      39.125  32.122  33.498  1.00  0.00    -0.354 N 
ATOM     19  C   UNL A   1      39.944  29.427  30.198  1.00  0.00     0.074 A 
ATOM     20  C   UNL A   1      38.997  29.622  29.119  1.00  0.00     0.031 C 
ATOM     21  C   UNL A   1      38.043  33.763  34.566  1.00  0.00     0.029 A 
ATOM     22  C   UNL A   1      39.138  32.812  34.688  1.00  0.00     0.049 A 
ATOM     23  H   UNL A   1      39.783  31.425  33.270  1.00  0.00     0.167 HD
ATOM     24  C   UNL A   1      40.966  28.534  30.180  1.00  0.00     0.034 A 
ATOM     25  C   UNL A   1      39.921  32.674  35.775  1.00  0.00     0.034 A 
ATOM     26  C   UNL A   1      41.894  28.355  31.273  1.00  0.00     0.049 A 
ATOM     27  C   UNL A   1      41.001  31.628  35.753  1.00  0.00     0.074 A 
ATOM     28  C   UNL A   1      42.979  27.498  31.349  1.00  0.00     0.029 A 
ATOM     29  N   UNL A   1      41.843  29.032  32.486  1.00  0.00    -0.354 N 
ATOM     30  N   UNL A   1      41.328  30.801  34.787  1.00  0.00    -0.248 NA
ATOM     31  C   UNL A   1      41.819  31.498  36.963  1.00  0.00     0.031 C 
ATOM     32  C   UNL A   1      43.527  27.593  32.632  1.00  0.00     0.029 A 
ATOM     33  C   UNL A   1      42.851  28.582  33.327  1.00  0.00     0.049 A 
ATOM     34  H   UNL A   1      41.187  29.730  32.715  1.00  0.00     0.167 HD
ATOM     35  C   UNL A   1      42.412  30.072  35.266  1.00  0.00     0.074 A 
ATOM     36  C   UNL A   1      42.693  30.573  36.595  1.00  0.00     0.031 C 
ATOM     37  C   UNL A   1      43.114  29.081  34.658  1.00  0.00     0.034 A 
BRANCH  24  38
ATOM     38  C   UNL A   1      41.103  27.649  28.963  1.00  0.00     0.023 A 
ATOM     39  C   UNL A   1      42.089  27.872  27.986  1.00  0.00     0.031 A 
ATOM     40  C   UNL A   1      40.229  26.562  28.774  1.00  0.00     0.131 A 
ATOM     41  C   UNL A   1      42.136  27.064  26.838  1.00  0.00     0.055 A 
ATOM     42  C   UNL A   1      40.334  25.711  27.672  1.00  0.00     0.041 A 
ATOM     43  F   UNL A   1      39.251  26.310  29.658  1.00  0.00    -0.206 F 
ATOM     44  C   UNL A   1      41.284  25.968  26.688  1.00  0.00     0.022 A 
BRANCH  41  45
ATOM     45  S   UNL A   1      43.232  27.554  25.478  1.00  0.00     0.124 S 
ATOM     46  O   UNL A   1      42.299  28.219  24.571  1.00  0.00    -0.237 OA
ATOM     47  O   UNL A   1      44.199  28.417  26.146  1.00  0.00    -0.237 OA
ATOM     48  O   UNL A   1      43.762  26.281  24.990  1.00  0.00    -0.744 OA
ENDBRANCH  41  45
ENDBRANCH  24  38
BRANCH  25  49
ATOM     49  C   UNL A   1      39.682  33.511  36.986  1.00  0.00     0.023 A 
ATOM     50  C   UNL A   1      40.440  34.665  37.230  1.00  0.00     0.031 A 
ATOM     51  C   UNL A   1      38.715  33.143  37.940  1.00  0.00     0.131 A 
ATOM     52  C   UNL A   1      40.257  35.380  38.424  1.00  0.00     0.055 A 
ATOM     53  C   UNL A   1      38.488  33.897  39.091  1.00  0.00     0.041 A 
ATOM     54  F   UNL A   1      37.960  32.048  37.757  1.00  0.00    -0.206 F 
ATOM     55  C   UNL A   1      39.274  35.015  39.346  1.00  0.00     0.022 A 
BRANCH  52  56
ATOM     56  S   UNL A   1      41.402  36.734  38.803  1.00  0.00     0.124 S 
ATOM     57  O   UNL A   1      42.060  36.932  37.517  1.00  0.00    -0.237 OA
ATOM     58  O   UNL A   1      40.490  37.790  39.229  1.00  0.00    -0.237 OA
ATOM     59  O   UNL A   1      42.246  36.177  39.858  1.00  0.00    -0.744 OA
ENDBRANCH  52  56
ENDBRANCH  25  49
BRANCH  37  60
ATOM     60  C   UNL A   1      44.292  28.515  35.415  1.00  0.00     0.023 A 
ATOM     61  C   UNL A   1      44.144  27.475  36.350  1.00  0.00     0.031 A 
ATOM     62  C   UNL A   1      45.580  29.040  35.210  1.00  0.00     0.131 A 
ATOM     63  C   UNL A   1      45.254  27.037  37.088  1.00  0.00     0.055 A 
ATOM     64  C   UNL A   1      46.692  28.551  35.895  1.00  0.00     0.041 A 
ATOM     65  F   UNL A   1      45.779  30.041  34.336  1.00  0.00    -0.206 F 
ATOM     66  C   UNL A   1      46.531  27.554  36.852  1.00  0.00     0.022 A 
BRANCH  63  67
ATOM     67  S   UNL A   1      44.989  25.858  38.441  1.00  0.00     0.124 S 
ATOM     68  O   UNL A   1      44.441  24.705  37.736  1.00  0.00    -0.237 OA
ATOM     69  O   UNL A   1      46.336  25.694  38.980  1.00  0.00    -0.237 OA
ATOM     70  O   UNL A   1      44.051  26.553  39.321  1.00  0.00    -0.744 OA
ENDBRANCH  63  67
ENDBRANCH  37  60
ENDBRANCH  11  12
ENDBRANCH   4   6
ENDBRANCH   1   2
BRANCH   1  71
ATOM     71  C   UNL A   1      31.647  32.207  26.525  1.00  0.00     0.042 C 
BRANCH  71  72
ATOM     72  C   UNL A   1      31.682  30.735  26.154  1.00  0.00     0.118 C 
BRANCH  72  73
ATOM     73  N   UNL A   1      30.926  30.457  24.939  1.00  0.00    -0.352 N 
ATOM     74  C   UNL A   1      30.964  29.337  24.153  1.00  0.00     0.252 C 
ATOM     75  H   UNL A   1      30.309  31.167  24.646  1.00  0.00     0.163 HD
ATOM     76  O   UNL A   1      30.400  29.299  23.065  1.00  0.00    -0.269 OA
BRANCH  74  77
ATOM     77  C   UNL A   1      31.709  28.173  24.633  1.00  0.00     0.058 A 
ATOM     78  C   UNL A   1      32.976  27.858  24.145  1.00  0.00     0.017 A 
ATOM     79  C   UNL A   1      31.119  27.342  25.561  1.00  0.00     0.125 A 
ATOM     80  C   UNL A   1      33.598  26.693  24.584  1.00  0.00     0.030 A 
ATOM     81  N   UNL A   1      31.700  26.201  25.988  1.00  0.00    -0.255 NA
ATOM     82  C   UNL A   1      32.937  25.891  25.513  1.00  0.00     0.095 A 
BRANCH  82  83
ATOM     83  C   UNL A   1      33.614  24.655  26.091  1.00  0.00     0.319 C 
BRANCH  83  84
ATOM     84  N   UNL A   1      33.394  23.384  25.361  1.00  0.00    -0.327 N 
ATOM     85  C   UNL A   1      32.041  22.825  25.616  1.00  0.00     0.284 C 
ATOM     86  C   UNL A   1      34.470  22.404  25.588  1.00  0.00     0.289 C 
ATOM     87  H   UNL A   1      33.433  23.607  24.366  1.00  0.00     0.348 HD
ATOM     88  C   UNL A   1      31.770  21.342  25.258  1.00  0.00     0.183 C 
ATOM     89  C   UNL A   1      34.217  21.166  24.731  1.00  0.00     0.161 C 
ATOM     90  N   UNL A   1      32.965  20.545  25.099  1.00  0.00    -0.309 N 
ATOM     91  C   UNL A   1      35.218  20.029  24.905  1.00  0.00     0.148 C 
ATOM     92  C   UNL A   1      33.054  19.170  25.076  1.00  0.00     0.318 C 
ATOM     93  N   UNL A   1      34.389  18.849  24.883  1.00  0.00    -0.336 N 
ATOM     94  O   UNL A   1      32.152  18.359  25.204  1.00  0.00    -0.249 OA
ATOM     95  H   UNL A   1      34.728  17.933  24.748  1.00  0.00     0.165 HD
ENDBRANCH  83  84
ENDBRANCH  82  83
ENDBRANCH  74  77
ENDBRANCH  72  73
ENDBRANCH  71  72
ENDBRANCH   1  71
TORSDOF 15
ENDMDL
