MODEL 1
REMARK VINA RESULT:     -11.2      0.000      0.000
REMARK SMILES CC[C@@](C)(NC(=O)Nc1cccc(C[NH2+]C)c1)C(=O)NCCCNC(=O)c1ccc(-c2c3nc(c(-c4cc(S(=O)(=O)[O-])ccc4F)c4ccc([nH]4)c(-c4cc(S(=O)(=O)[O-])ccc4F)c4nc(c(-c5cc(S(=O)(=O)[O-])ccc5F)c5ccc2[nH]5)C=C4)C=C3)cc1
REMARK SMILES IDX 21 1 20 2 18 3 19 4 3 6 4 7 2 8 1 9 5 10 6 11 7 13 8 14 9 16
REMARK SMILES IDX 10 17 17 18 11 19 13 20 12 21 14 22 15 23 16 24 22 27 23 28
REMARK SMILES IDX 24 29 25 30 26 32 27 33 28 34 89 35 29 36 88 37 30 38 31 39
REMARK SMILES IDX 32 40 82 41 33 42 87 43 81 44 83 45 34 46 86 47 80 48 79 49
REMARK SMILES IDX 35 51 67 52 47 53 66 54 48 55 51 56 65 57 84 58 49 59 50 60
REMARK SMILES IDX 64 62 85 63 52 64 36 65 37 66 45 67 38 68 44 69 46 70 43 71
REMARK SMILES IDX 39 72 40 73 41 74 42 75 68 76 69 77 77 78 70 79 76 80 78 81
REMARK SMILES IDX 75 82 71 83 72 84 73 85 74 86 53 87 54 88 62 89 55 90 61 91
REMARK SMILES IDX 63 92 60 93 56 94 57 95 58 96 59 97
REMARK H PARENT 20 5 5 12 8 15 15 25 15 26 24 31 83 50 51 61
REMARK Flexibility Score: inf
ROOT
ATOM      1  C   UNL A   1      35.149  23.550  23.870  1.00  0.00     0.117 C 
ENDROOT
BRANCH   1   2
ATOM      2  N   UNL A   1      34.948  24.608  24.825  1.00  0.00    -0.354 N 
ATOM      3  C   UNL A   1      33.927  24.810  25.738  1.00  0.00     0.245 C 
ATOM      4  O   UNL A   1      33.672  24.064  26.674  1.00  0.00    -0.272 OA
ATOM      5  H   UNL A   1      35.648  25.299  24.829  1.00  0.00     0.163 HD
BRANCH   3   6
ATOM      6  C   UNL A   1      33.001  25.952  25.233  1.00  0.00     0.117 C 
ATOM      7  C   UNL A   1      33.861  27.153  25.755  1.00  0.00     0.045 C 
BRANCH   6   8
ATOM      8  C   UNL A   1      32.676  26.257  23.760  1.00  0.00     0.035 C 
ATOM      9  C   UNL A   1      33.608  27.151  22.976  1.00  0.00     0.007 C 
ENDBRANCH   6   8
BRANCH   6  10
ATOM     10  N   UNL A   1      31.701  25.874  25.980  1.00  0.00    -0.324 N 
ATOM     11  C   UNL A   1      30.616  25.086  26.005  1.00  0.00     0.320 C 
ATOM     12  H   UNL A   1      31.624  26.606  26.633  1.00  0.00     0.166 HD
ATOM     13  O   UNL A   1      29.649  25.558  26.614  1.00  0.00    -0.248 OA
ATOM     14  N   UNL A   1      30.437  23.876  25.447  1.00  0.00    -0.308 N 
ATOM     15  H   UNL A   1      29.479  23.653  25.483  1.00  0.00     0.171 HD
BRANCH  14  16
ATOM     16  C   UNL A   1      31.125  22.806  24.828  1.00  0.00     0.043 A 
ATOM     17  C   UNL A   1      31.291  22.894  23.445  1.00  0.00     0.026 A 
ATOM     18  C   UNL A   1      31.586  21.633  25.412  1.00  0.00     0.035 A 
ATOM     19  C   UNL A   1      32.046  21.943  22.740  1.00  0.00     0.003 A 
ATOM     20  C   UNL A   1      32.499  20.767  24.783  1.00  0.00     0.008 A 
ATOM     21  C   UNL A   1      32.700  20.910  23.416  1.00  0.00     0.010 A 
BRANCH  20  22
ATOM     22  C   UNL A   1      33.410  19.939  25.668  1.00  0.00     0.297 C 
BRANCH  22  23
ATOM     23  N   UNL A   1      32.843  18.824  26.421  1.00  0.00    -0.345 N 
ATOM     24  C   UNL A   1      32.553  17.752  25.449  1.00  0.00     0.331 C 
ATOM     25  H   UNL A   1      31.984  19.116  26.888  1.00  0.00     0.346 HD
ATOM     26  H   UNL A   1      33.493  18.499  27.138  1.00  0.00     0.346 HD
ENDBRANCH  22  23
ENDBRANCH  20  22
ENDBRANCH  14  16
ENDBRANCH   6  10
ENDBRANCH   3   6
ENDBRANCH   1   2
BRANCH   1  27
ATOM     27  C   UNL A   1      36.376  22.716  24.296  1.00  0.00     0.042 C 
BRANCH  27  28
ATOM     28  C   UNL A   1      36.926  22.962  25.710  1.00  0.00     0.118 C 
BRANCH  28  29
ATOM     29  N   UNL A   1      38.076  22.142  26.027  1.00  0.00    -0.352 N 
ATOM     30  C   UNL A   1      39.326  22.502  26.482  1.00  0.00     0.251 C 
ATOM     31  H   UNL A   1      37.944  21.176  25.896  1.00  0.00     0.163 HD
ATOM     32  O   UNL A   1      40.205  21.659  26.538  1.00  0.00    -0.269 OA
BRANCH  30  33
ATOM     33  C   UNL A   1      39.617  23.907  26.861  1.00  0.00     0.039 A 
ATOM     34  C   UNL A   1      39.376  24.298  28.181  1.00  0.00     0.014 A 
ATOM     35  C   UNL A   1      40.087  24.844  25.936  1.00  0.00     0.014 A 
ATOM     36  C   UNL A   1      39.675  25.602  28.591  1.00  0.00     0.010 A 
ATOM     37  C   UNL A   1      40.434  26.133  26.360  1.00  0.00     0.010 A 
ATOM     38  C   UNL A   1      40.250  26.521  27.697  1.00  0.00    -0.014 A 
BRANCH  38  39
ATOM     39  C   UNL A   1      40.706  27.862  28.171  1.00  0.00     0.031 A 
ATOM     40  C   UNL A   1      42.166  28.228  28.181  1.00  0.00     0.074 A 
ATOM     41  C   UNL A   1      39.797  28.745  28.636  1.00  0.00     0.049 A 
ATOM     42  N   UNL A   1      42.740  29.328  28.603  1.00  0.00    -0.248 NA
ATOM     43  C   UNL A   1      43.103  27.221  27.669  1.00  0.00     0.031 C 
ATOM     44  C   UNL A   1      38.353  28.506  28.705  1.00  0.00     0.029 A 
ATOM     45  N   UNL A   1      39.944  30.013  29.142  1.00  0.00    -0.354 N 
ATOM     46  C   UNL A   1      44.106  29.145  28.411  1.00  0.00     0.074 A 
ATOM     47  C   UNL A   1      44.273  27.805  27.885  1.00  0.00     0.031 C 
ATOM     48  C   UNL A   1      37.749  29.599  29.200  1.00  0.00     0.029 A 
ATOM     49  C   UNL A   1      38.760  30.596  29.536  1.00  0.00     0.049 A 
ATOM     50  H   UNL A   1      40.816  30.464  29.219  1.00  0.00     0.167 HD
ATOM     51  C   UNL A   1      45.123  30.017  28.637  1.00  0.00     0.034 A 
ATOM     52  C   UNL A   1      38.510  31.787  30.118  1.00  0.00     0.034 A 
ATOM     53  C   UNL A   1      44.944  31.351  29.165  1.00  0.00     0.049 A 
ATOM     54  C   UNL A   1      39.662  32.716  30.409  1.00  0.00     0.074 A 
ATOM     55  C   UNL A   1      45.904  32.326  29.384  1.00  0.00     0.029 A 
ATOM     56  N   UNL A   1      43.733  31.894  29.575  1.00  0.00    -0.354 N 
ATOM     57  N   UNL A   1      40.943  32.544  30.175  1.00  0.00    -0.248 NA
ATOM     58  C   UNL A   1      39.333  34.004  31.034  1.00  0.00     0.031 C 
ATOM     59  C   UNL A   1      45.289  33.421  30.000  1.00  0.00     0.029 A 
ATOM     60  C   UNL A   1      43.929  33.173  30.082  1.00  0.00     0.049 A 
ATOM     61  H   UNL A   1      42.862  31.440  29.515  1.00  0.00     0.167 HD
ATOM     62  C   UNL A   1      41.566  33.717  30.596  1.00  0.00     0.074 A 
ATOM     63  C   UNL A   1      40.520  34.593  31.080  1.00  0.00     0.031 C 
ATOM     64  C   UNL A   1      42.885  34.040  30.578  1.00  0.00     0.034 A 
BRANCH  51  65
ATOM     65  C   UNL A   1      46.529  29.543  28.342  1.00  0.00     0.023 A 
ATOM     66  C   UNL A   1      47.262  28.781  29.268  1.00  0.00     0.031 A 
ATOM     67  C   UNL A   1      47.149  29.863  27.120  1.00  0.00     0.131 A 
ATOM     68  C   UNL A   1      48.593  28.429  28.991  1.00  0.00     0.055 A 
ATOM     69  C   UNL A   1      48.443  29.438  26.815  1.00  0.00     0.041 A 
ATOM     70  F   UNL A   1      46.507  30.604  26.201  1.00  0.00    -0.206 F 
ATOM     71  C   UNL A   1      49.179  28.729  27.759  1.00  0.00     0.022 A 
BRANCH  68  72
ATOM     72  S   UNL A   1      49.592  27.705  30.320  1.00  0.00     0.124 S 
ATOM     73  O   UNL A   1      49.365  28.653  31.409  1.00  0.00    -0.237 OA
ATOM     74  O   UNL A   1      48.992  26.387  30.484  1.00  0.00    -0.237 OA
ATOM     75  O   UNL A   1      50.947  27.711  29.772  1.00  0.00    -0.744 OA
ENDBRANCH  68  72
ENDBRANCH  51  65
BRANCH  52  76
ATOM     76  C   UNL A   1      37.116  32.169  30.491  1.00  0.00     0.023 A 
ATOM     77  C   UNL A   1      36.248  32.753  29.556  1.00  0.00     0.031 A 
ATOM     78  C   UNL A   1      36.649  32.004  31.808  1.00  0.00     0.131 A 
ATOM     79  C   UNL A   1      34.978  33.196  29.960  1.00  0.00     0.055 A 
ATOM     80  C   UNL A   1      35.363  32.390  32.190  1.00  0.00     0.041 A 
ATOM     81  F   UNL A   1      37.438  31.452  32.745  1.00  0.00    -0.206 F 
ATOM     82  C   UNL A   1      34.524  33.002  31.266  1.00  0.00     0.022 A 
BRANCH  79  83
ATOM     83  S   UNL A   1      33.962  34.119  28.774  1.00  0.00     0.124 S 
ATOM     84  O   UNL A   1      32.867  34.582  29.619  1.00  0.00    -0.237 OA
ATOM     85  O   UNL A   1      34.893  35.143  28.310  1.00  0.00    -0.237 OA
ATOM     86  O   UNL A   1      33.601  33.112  27.778  1.00  0.00    -0.744 OA
ENDBRANCH  79  83
ENDBRANCH  52  76
BRANCH  64  87
ATOM     87  C   UNL A   1      43.263  35.424  31.055  1.00  0.00     0.023 A 
ATOM     88  C   UNL A   1      43.419  36.501  30.164  1.00  0.00     0.031 A 
ATOM     89  C   UNL A   1      43.487  35.663  32.423  1.00  0.00     0.131 A 
ATOM     90  C   UNL A   1      43.845  37.750  30.644  1.00  0.00     0.055 A 
ATOM     91  C   UNL A   1      43.844  36.924  32.902  1.00  0.00     0.041 A 
ATOM     92  F   UNL A   1      43.359  34.672  33.320  1.00  0.00    -0.206 F 
ATOM     93  C   UNL A   1      44.038  37.973  32.009  1.00  0.00     0.022 A 
BRANCH  90  94
ATOM     94  S   UNL A   1      44.244  39.055  29.448  1.00  0.00     0.124 S 
ATOM     95  O   UNL A   1      44.413  40.217  30.314  1.00  0.00    -0.237 OA
ATOM     96  O   UNL A   1      45.461  38.544  28.824  1.00  0.00    -0.237 OA
ATOM     97  O   UNL A   1      43.071  39.095  28.577  1.00  0.00    -0.744 OA
ENDBRANCH  90  94
ENDBRANCH  64  87
ENDBRANCH  38  39
ENDBRANCH  30  33
ENDBRANCH  28  29
ENDBRANCH  27  28
ENDBRANCH   1  27
TORSDOF 18
ENDMDL
MODEL 2
REMARK VINA RESULT:     -11.2      4.838      9.498
REMARK SMILES CC[C@@](C)(NC(=O)Nc1cccc(C[NH2+]C)c1)C(=O)NCCCNC(=O)c1ccc(-c2c3nc(c(-c4cc(S(=O)(=O)[O-])ccc4F)c4ccc([nH]4)c(-c4cc(S(=O)(=O)[O-])ccc4F)c4nc(c(-c5cc(S(=O)(=O)[O-])ccc5F)c5ccc2[nH]5)C=C4)C=C3)cc1
REMARK SMILES IDX 21 1 20 2 18 3 19 4 3 6 4 7 2 8 1 9 5 10 6 11 7 13 8 14 9 16
REMARK SMILES IDX 10 17 17 18 11 19 13 20 12 21 14 22 15 23 16 24 22 27 23 28
REMARK SMILES IDX 24 29 25 30 26 32 27 33 28 34 89 35 29 36 88 37 30 38 31 39
REMARK SMILES IDX 32 40 82 41 33 42 87 43 81 44 83 45 34 46 86 47 80 48 79 49
REMARK SMILES IDX 35 51 67 52 47 53 66 54 48 55 51 56 65 57 84 58 49 59 50 60
REMARK SMILES IDX 64 62 85 63 52 64 36 65 37 66 45 67 38 68 44 69 46 70 43 71
REMARK SMILES IDX 39 72 40 73 41 74 42 75 68 76 69 77 77 78 70 79 76 80 78 81
REMARK SMILES IDX 75 82 71 83 72 84 73 85 74 86 53 87 54 88 62 89 55 90 61 91
REMARK SMILES IDX 63 92 60 93 56 94 57 95 58 96 59 97
REMARK H PARENT 20 5 5 12 8 15 15 25 15 26 24 31 83 50 51 61
REMARK Flexibility Score: inf
ROOT
ATOM      1  C   UNL A   1      31.943  28.881  24.683  1.00  0.00     0.117 C 
ENDROOT
BRANCH   1   2
ATOM      2  N   UNL A   1      31.058  27.775  24.938  1.00  0.00    -0.354 N 
ATOM      3  C   UNL A   1      31.104  26.797  25.917  1.00  0.00     0.245 C 
ATOM      4  O   UNL A   1      31.011  27.008  27.118  1.00  0.00    -0.272 OA
ATOM      5  H   UNL A   1      30.297  27.703  24.318  1.00  0.00     0.163 HD
BRANCH   3   6
ATOM      6  C   UNL A   1      31.567  25.455  25.283  1.00  0.00     0.117 C 
ATOM      7  C   UNL A   1      33.035  25.471  25.831  1.00  0.00     0.045 C 
BRANCH   6   8
ATOM      8  C   UNL A   1      30.995  24.064  25.614  1.00  0.00     0.035 C 
ATOM      9  C   UNL A   1      31.565  23.298  26.784  1.00  0.00     0.007 C 
ENDBRANCH   6   8
BRANCH   6  10
ATOM     10  N   UNL A   1      31.562  25.607  23.790  1.00  0.00    -0.324 N 
ATOM     11  C   UNL A   1      32.137  25.020  22.730  1.00  0.00     0.320 C 
ATOM     12  H   UNL A   1      30.972  26.344  23.512  1.00  0.00     0.166 HD
ATOM     13  O   UNL A   1      32.043  25.655  21.674  1.00  0.00    -0.248 OA
ATOM     14  N   UNL A   1      32.810  23.858  22.670  1.00  0.00    -0.308 N 
ATOM     15  H   UNL A   1      33.266  23.805  21.800  1.00  0.00     0.171 HD
BRANCH  14  16
ATOM     16  C   UNL A   1      33.099  22.682  23.402  1.00  0.00     0.043 A 
ATOM     17  C   UNL A   1      32.178  21.640  23.291  1.00  0.00     0.026 A 
ATOM     18  C   UNL A   1      34.147  22.461  24.287  1.00  0.00     0.035 A 
ATOM     19  C   UNL A   1      32.414  20.391  23.888  1.00  0.00     0.003 A 
ATOM     20  C   UNL A   1      34.513  21.181  24.743  1.00  0.00     0.008 A 
ATOM     21  C   UNL A   1      33.609  20.142  24.566  1.00  0.00     0.010 A 
BRANCH  20  22
ATOM     22  C   UNL A   1      35.963  20.957  25.127  1.00  0.00     0.297 C 
BRANCH  22  23
ATOM     23  N   UNL A   1      36.592  21.868  26.079  1.00  0.00    -0.345 N 
ATOM     24  C   UNL A   1      37.976  22.084  25.615  1.00  0.00     0.331 C 
ATOM     25  H   UNL A   1      36.595  21.454  27.011  1.00  0.00     0.346 HD
ATOM     26  H   UNL A   1      36.083  22.751  26.131  1.00  0.00     0.346 HD
ENDBRANCH  22  23
ENDBRANCH  20  22
ENDBRANCH  14  16
ENDBRANCH   6  10
ENDBRANCH   3   6
ENDBRANCH   1   2
BRANCH   1  27
ATOM     27  C   UNL A   1      31.358  30.153  25.334  1.00  0.00     0.042 C 
BRANCH  27  28
ATOM     28  C   UNL A   1      31.957  30.579  26.685  1.00  0.00     0.118 C 
BRANCH  28  29
ATOM     29  N   UNL A   1      32.041  32.015  26.844  1.00  0.00    -0.352 N 
ATOM     30  C   UNL A   1      32.984  32.784  27.493  1.00  0.00     0.251 C 
ATOM     31  H   UNL A   1      31.310  32.522  26.424  1.00  0.00     0.163 HD
ATOM     32  O   UNL A   1      32.780  33.977  27.640  1.00  0.00    -0.269 OA
BRANCH  30  33
ATOM     33  C   UNL A   1      34.214  32.165  28.044  1.00  0.00     0.039 A 
ATOM     34  C   UNL A   1      35.275  33.004  28.395  1.00  0.00     0.014 A 
ATOM     35  C   UNL A   1      34.350  30.781  28.187  1.00  0.00     0.014 A 
ATOM     36  C   UNL A   1      36.438  32.465  28.957  1.00  0.00     0.010 A 
ATOM     37  C   UNL A   1      35.492  30.248  28.797  1.00  0.00     0.010 A 
ATOM     38  C   UNL A   1      36.542  31.086  29.207  1.00  0.00    -0.014 A 
BRANCH  38  39
ATOM     39  C   UNL A   1      37.718  30.532  29.941  1.00  0.00     0.031 A 
ATOM     40  C   UNL A   1      37.969  30.880  31.384  1.00  0.00     0.074 A 
ATOM     41  C   UNL A   1      38.592  29.737  29.288  1.00  0.00     0.049 A 
ATOM     42  N   UNL A   1      38.964  30.526  32.159  1.00  0.00    -0.248 NA
ATOM     43  C   UNL A   1      36.985  31.753  32.034  1.00  0.00     0.031 C 
ATOM     44  C   UNL A   1      38.481  29.343  27.881  1.00  0.00     0.029 A 
ATOM     45  N   UNL A   1      39.746  29.123  29.710  1.00  0.00    -0.354 N 
ATOM     46  C   UNL A   1      38.730  31.136  33.387  1.00  0.00     0.074 A 
ATOM     47  C   UNL A   1      37.524  31.925  33.232  1.00  0.00     0.031 C 
ATOM     48  C   UNL A   1      39.507  28.537  27.567  1.00  0.00     0.029 A 
ATOM     49  C   UNL A   1      40.382  28.398  28.726  1.00  0.00     0.049 A 
ATOM     50  H   UNL A   1      40.089  29.196  30.630  1.00  0.00     0.167 HD
ATOM     51  C   UNL A   1      39.442  31.035  34.540  1.00  0.00     0.034 A 
ATOM     52  C   UNL A   1      41.544  27.714  28.743  1.00  0.00     0.034 A 
ATOM     53  C   UNL A   1      40.645  30.246  34.682  1.00  0.00     0.049 A 
ATOM     54  C   UNL A   1      42.346  27.661  30.020  1.00  0.00     0.074 A 
ATOM     55  C   UNL A   1      41.411  30.041  35.818  1.00  0.00     0.029 A 
ATOM     56  N   UNL A   1      41.270  29.548  33.657  1.00  0.00    -0.354 N 
ATOM     57  N   UNL A   1      42.081  28.206  31.185  1.00  0.00    -0.248 NA
ATOM     58  C   UNL A   1      43.598  26.894  29.985  1.00  0.00     0.031 C 
ATOM     59  C   UNL A   1      42.537  29.292  35.463  1.00  0.00     0.029 A 
ATOM     60  C   UNL A   1      42.432  28.947  34.126  1.00  0.00     0.049 A 
ATOM     61  H   UNL A   1      40.939  29.487  32.732  1.00  0.00     0.167 HD
ATOM     62  C   UNL A   1      43.120  27.818  32.029  1.00  0.00     0.074 A 
ATOM     63  C   UNL A   1      44.002  26.980  31.244  1.00  0.00     0.031 C 
ATOM     64  C   UNL A   1      43.319  28.123  33.337  1.00  0.00     0.034 A 
BRANCH  51  65
ATOM     65  C   UNL A   1      38.954  31.824  35.735  1.00  0.00     0.023 A 
ATOM     66  C   UNL A   1      38.297  31.204  36.812  1.00  0.00     0.031 A 
ATOM     67  C   UNL A   1      39.142  33.217  35.796  1.00  0.00     0.131 A 
ATOM     68  C   UNL A   1      37.788  31.982  37.865  1.00  0.00     0.055 A 
ATOM     69  C   UNL A   1      38.708  33.973  36.886  1.00  0.00     0.041 A 
ATOM     70  F   UNL A   1      39.747  33.869  34.790  1.00  0.00    -0.206 F 
ATOM     71  C   UNL A   1      38.013  33.358  37.922  1.00  0.00     0.022 A 
BRANCH  68  72
ATOM     72  S   UNL A   1      36.701  31.188  39.080  1.00  0.00     0.124 S 
ATOM     73  O   UNL A   1      37.577  31.102  40.247  1.00  0.00    -0.237 OA
ATOM     74  O   UNL A   1      35.595  32.132  39.180  1.00  0.00    -0.237 OA
ATOM     75  O   UNL A   1      36.374  29.905  38.462  1.00  0.00    -0.744 OA
ENDBRANCH  68  72
ENDBRANCH  51  65
BRANCH  52  76
ATOM     76  C   UNL A   1      42.043  27.038  27.508  1.00  0.00     0.023 A 
ATOM     77  C   UNL A   1      41.963  25.645  27.359  1.00  0.00     0.031 A 
ATOM     78  C   UNL A   1      42.656  27.775  26.479  1.00  0.00     0.131 A 
ATOM     79  C   UNL A   1      42.530  25.027  26.234  1.00  0.00     0.055 A 
ATOM     80  C   UNL A   1      43.165  27.162  25.332  1.00  0.00     0.041 A 
ATOM     81  F   UNL A   1      42.762  29.111  26.569  1.00  0.00    -0.206 F 
ATOM     82  C   UNL A   1      43.115  25.778  25.212  1.00  0.00     0.022 A 
BRANCH  79  83
ATOM     83  S   UNL A   1      42.581  23.215  26.170  1.00  0.00     0.124 S 
ATOM     84  O   UNL A   1      41.230  22.865  26.593  1.00  0.00    -0.237 OA
ATOM     85  O   UNL A   1      42.900  22.970  24.767  1.00  0.00    -0.237 OA
ATOM     86  O   UNL A   1      43.642  22.871  27.116  1.00  0.00    -0.744 OA
ENDBRANCH  79  83
ENDBRANCH  52  76
BRANCH  64  87
ATOM     87  C   UNL A   1      44.521  27.505  34.015  1.00  0.00     0.023 A 
ATOM     88  C   UNL A   1      44.454  26.254  34.653  1.00  0.00     0.031 A 
ATOM     89  C   UNL A   1      45.751  28.189  34.034  1.00  0.00     0.131 A 
ATOM     90  C   UNL A   1      45.576  25.755  35.334  1.00  0.00     0.055 A 
ATOM     91  C   UNL A   1      46.881  27.655  34.654  1.00  0.00     0.041 A 
ATOM     92  F   UNL A   1      45.875  29.390  33.446  1.00  0.00    -0.206 F 
ATOM     93  C   UNL A   1      46.795  26.438  35.321  1.00  0.00     0.022 A 
BRANCH  90  94
ATOM     94  S   UNL A   1      45.395  24.247  36.327  1.00  0.00     0.124 S 
ATOM     95  O   UNL A   1      46.744  23.692  36.285  1.00  0.00    -0.237 OA
ATOM     96  O   UNL A   1      44.963  24.774  37.618  1.00  0.00    -0.237 OA
ATOM     97  O   UNL A   1      44.384  23.477  35.604  1.00  0.00    -0.744 OA
ENDBRANCH  90  94
ENDBRANCH  64  87
ENDBRANCH  38  39
ENDBRANCH  30  33
ENDBRANCH  28  29
ENDBRANCH  27  28
ENDBRANCH   1  27
TORSDOF 18
ENDMDL
MODEL 3
REMARK VINA RESULT:     -11.1      2.647      3.936
REMARK SMILES CC[C@@](C)(NC(=O)Nc1cccc(C[NH2+]C)c1)C(=O)NCCCNC(=O)c1ccc(-c2c3nc(c(-c4cc(S(=O)(=O)[O-])ccc4F)c4ccc([nH]4)c(-c4cc(S(=O)(=O)[O-])ccc4F)c4nc(c(-c5cc(S(=O)(=O)[O-])ccc5F)c5ccc2[nH]5)C=C4)C=C3)cc1
REMARK SMILES IDX 21 1 20 2 18 3 19 4 3 6 4 7 2 8 1 9 5 10 6 11 7 13 8 14 9 16
REMARK SMILES IDX 10 17 17 18 11 19 13 20 12 21 14 22 15 23 16 24 22 27 23 28
REMARK SMILES IDX 24 29 25 30 26 32 27 33 28 34 89 35 29 36 88 37 30 38 31 39
REMARK SMILES IDX 32 40 82 41 33 42 87 43 81 44 83 45 34 46 86 47 80 48 79 49
REMARK SMILES IDX 35 51 67 52 47 53 66 54 48 55 51 56 65 57 84 58 49 59 50 60
REMARK SMILES IDX 64 62 85 63 52 64 36 65 37 66 45 67 38 68 44 69 46 70 43 71
REMARK SMILES IDX 39 72 40 73 41 74 42 75 68 76 69 77 77 78 70 79 76 80 78 81
REMARK SMILES IDX 75 82 71 83 72 84 73 85 74 86 53 87 54 88 62 89 55 90 61 91
REMARK SMILES IDX 63 92 60 93 56 94 57 95 58 96 59 97
REMARK H PARENT 20 5 5 12 8 15 15 25 15 26 24 31 83 50 51 61
REMARK Flexibility Score: inf
ROOT
ATOM      1  C   UNL A   1      35.293  20.736  25.212  1.00  0.00     0.117 C 
ENDROOT
BRANCH   1   2
ATOM      2  N   UNL A   1      34.129  20.894  26.044  1.00  0.00    -0.354 N 
ATOM      3  C   UNL A   1      32.786  20.750  25.744  1.00  0.00     0.245 C 
ATOM      4  O   UNL A   1      32.259  19.703  25.392  1.00  0.00    -0.272 OA
ATOM      5  H   UNL A   1      34.319  21.145  26.977  1.00  0.00     0.163 HD
BRANCH   3   6
ATOM      6  C   UNL A   1      32.124  22.154  25.649  1.00  0.00     0.117 C 
ATOM      7  C   UNL A   1      33.192  22.935  26.488  1.00  0.00     0.045 C 
BRANCH   6   8
ATOM      8  C   UNL A   1      31.914  22.959  24.354  1.00  0.00     0.035 C 
ATOM      9  C   UNL A   1      33.118  23.545  23.654  1.00  0.00     0.007 C 
ENDBRANCH   6   8
BRANCH   6  10
ATOM     10  N   UNL A   1      30.812  22.111  26.378  1.00  0.00    -0.324 N 
ATOM     11  C   UNL A   1      29.939  22.983  26.901  1.00  0.00     0.320 C 
ATOM     12  H   UNL A   1      30.510  21.184  26.507  1.00  0.00     0.166 HD
ATOM     13  O   UNL A   1      29.097  22.482  27.655  1.00  0.00    -0.248 OA
ATOM     14  N   UNL A   1      29.870  24.315  26.731  1.00  0.00    -0.308 N 
ATOM     15  H   UNL A   1      29.244  24.684  27.395  1.00  0.00     0.171 HD
BRANCH  14  16
ATOM     16  C   UNL A   1      30.369  25.380  25.945  1.00  0.00     0.043 A 
ATOM     17  C   UNL A   1      29.699  25.633  24.747  1.00  0.00     0.026 A 
ATOM     18  C   UNL A   1      31.497  26.157  26.174  1.00  0.00     0.035 A 
ATOM     19  C   UNL A   1      30.041  26.729  23.938  1.00  0.00     0.003 A 
ATOM     20  C   UNL A   1      31.751  27.365  25.497  1.00  0.00     0.008 A 
ATOM     21  C   UNL A   1      31.029  27.630  24.341  1.00  0.00     0.010 A 
BRANCH  20  22
ATOM     22  C   UNL A   1      32.571  28.418  26.218  1.00  0.00     0.297 C 
BRANCH  22  23
ATOM     23  N   UNL A   1      31.903  29.319  27.153  1.00  0.00    -0.345 N 
ATOM     24  C   UNL A   1      32.648  30.592  27.129  1.00  0.00     0.331 C 
ATOM     25  H   UNL A   1      31.917  28.922  28.093  1.00  0.00     0.346 HD
ATOM     26  H   UNL A   1      30.928  29.462  26.889  1.00  0.00     0.346 HD
ENDBRANCH  22  23
ENDBRANCH  20  22
ENDBRANCH  14  16
ENDBRANCH   6  10
ENDBRANCH   3   6
ENDBRANCH   1   2
BRANCH   1  27
ATOM     27  C   UNL A   1      36.306  21.852  25.548  1.00  0.00     0.042 C 
BRANCH  27  28
ATOM     28  C   UNL A   1      37.700  21.738  24.910  1.00  0.00     0.118 C 
BRANCH  28  29
ATOM     29  N   UNL A   1      38.556  20.780  25.579  1.00  0.00    -0.352 N 
ATOM     30  C   UNL A   1      39.657  20.982  26.385  1.00  0.00     0.251 C 
ATOM     31  H   UNL A   1      38.314  19.838  25.436  1.00  0.00     0.163 HD
ATOM     32  O   UNL A   1      40.331  20.025  26.723  1.00  0.00    -0.269 OA
BRANCH  30  33
ATOM     33  C   UNL A   1      40.046  22.352  26.803  1.00  0.00     0.039 A 
ATOM     34  C   UNL A   1      41.013  22.487  27.803  1.00  0.00     0.014 A 
ATOM     35  C   UNL A   1      39.452  23.493  26.255  1.00  0.00     0.014 A 
ATOM     36  C   UNL A   1      41.438  23.760  28.198  1.00  0.00     0.010 A 
ATOM     37  C   UNL A   1      39.916  24.765  26.614  1.00  0.00     0.010 A 
ATOM     38  C   UNL A   1      40.928  24.913  27.577  1.00  0.00    -0.014 A 
BRANCH  38  39
ATOM     39  C   UNL A   1      41.488  26.260  27.893  1.00  0.00     0.031 A 
ATOM     40  C   UNL A   1      42.881  26.643  27.468  1.00  0.00     0.074 A 
ATOM     41  C   UNL A   1      40.748  27.135  28.606  1.00  0.00     0.049 A 
ATOM     42  N   UNL A   1      43.542  27.750  27.699  1.00  0.00    -0.248 NA
ATOM     43  C   UNL A   1      43.635  25.644  26.701  1.00  0.00     0.031 C 
ATOM     44  C   UNL A   1      39.393  26.881  29.102  1.00  0.00     0.029 A 
ATOM     45  N   UNL A   1      41.025  28.407  29.044  1.00  0.00    -0.354 N 
ATOM     46  C   UNL A   1      44.791  27.582  27.109  1.00  0.00     0.074 A 
ATOM     47  C   UNL A   1      44.810  26.242  26.559  1.00  0.00     0.031 C 
ATOM     48  C   UNL A   1      38.951  27.969  29.752  1.00  0.00     0.029 A 
ATOM     49  C   UNL A   1      40.004  28.979  29.772  1.00  0.00     0.049 A 
ATOM     50  H   UNL A   1      41.875  28.868  28.858  1.00  0.00     0.167 HD
ATOM     51  C   UNL A   1      45.818  28.466  27.022  1.00  0.00     0.034 A 
ATOM     52  C   UNL A   1      39.925  30.170  30.400  1.00  0.00     0.034 A 
ATOM     53  C   UNL A   1      45.789  29.800  27.578  1.00  0.00     0.049 A 
ATOM     54  C   UNL A   1      41.100  31.113  30.335  1.00  0.00     0.074 A 
ATOM     55  C   UNL A   1      46.758  30.787  27.501  1.00  0.00     0.029 A 
ATOM     56  N   UNL A   1      44.748  30.332  28.329  1.00  0.00    -0.354 N 
ATOM     57  N   UNL A   1      42.256  30.953  29.731  1.00  0.00    -0.248 NA
ATOM     58  C   UNL A   1      40.956  32.400  31.028  1.00  0.00     0.031 C 
ATOM     59  C   UNL A   1      46.342  31.878  28.270  1.00  0.00     0.029 A 
ATOM     60  C   UNL A   1      45.071  31.615  28.753  1.00  0.00     0.049 A 
ATOM     61  H   UNL A   1      43.904  29.868  28.531  1.00  0.00     0.167 HD
ATOM     62  C   UNL A   1      42.962  32.135  29.947  1.00  0.00     0.074 A 
ATOM     63  C   UNL A   1      42.096  33.001  30.719  1.00  0.00     0.031 C 
ATOM     64  C   UNL A   1      44.211  32.472  29.536  1.00  0.00     0.034 A 
BRANCH  51  65
ATOM     65  C   UNL A   1      47.079  28.007  26.323  1.00  0.00     0.023 A 
ATOM     66  C   UNL A   1      47.253  28.159  24.936  1.00  0.00     0.031 A 
ATOM     67  C   UNL A   1      48.119  27.401  27.051  1.00  0.00     0.131 A 
ATOM     68  C   UNL A   1      48.402  27.646  24.312  1.00  0.00     0.055 A 
ATOM     69  C   UNL A   1      49.297  26.970  26.437  1.00  0.00     0.041 A 
ATOM     70  F   UNL A   1      48.005  27.211  28.375  1.00  0.00    -0.206 F 
ATOM     71  C   UNL A   1      49.437  27.077  25.057  1.00  0.00     0.022 A 
BRANCH  68  72
ATOM     72  S   UNL A   1      48.457  27.601  22.500  1.00  0.00     0.124 S 
ATOM     73  O   UNL A   1      47.191  28.244  22.151  1.00  0.00    -0.237 OA
ATOM     74  O   UNL A   1      49.664  28.362  22.201  1.00  0.00    -0.237 OA
ATOM     75  O   UNL A   1      48.525  26.174  22.194  1.00  0.00    -0.744 OA
ENDBRANCH  68  72
ENDBRANCH  51  65
BRANCH  52  76
ATOM     76  C   UNL A   1      38.700  30.538  31.171  1.00  0.00     0.023 A 
ATOM     77  C   UNL A   1      37.634  31.217  30.560  1.00  0.00     0.031 A 
ATOM     78  C   UNL A   1      38.602  30.263  32.547  1.00  0.00     0.131 A 
ATOM     79  C   UNL A   1      36.540  31.641  31.331  1.00  0.00     0.055 A 
ATOM     80  C   UNL A   1      37.483  30.632  33.297  1.00  0.00     0.041 A 
ATOM     81  F   UNL A   1      39.593  29.617  33.183  1.00  0.00    -0.206 F 
ATOM     82  C   UNL A   1      36.450  31.338  32.691  1.00  0.00     0.022 A 
BRANCH  79  83
ATOM     83  S   UNL A   1      35.277  32.683  30.548  1.00  0.00     0.124 S 
ATOM     84  O   UNL A   1      36.015  33.918  30.314  1.00  0.00    -0.237 OA
ATOM     85  O   UNL A   1      34.934  31.904  29.363  1.00  0.00    -0.237 OA
ATOM     86  O   UNL A   1      34.227  32.763  31.563  1.00  0.00    -0.744 OA
ENDBRANCH  79  83
ENDBRANCH  52  76
BRANCH  64  87
ATOM     87  C   UNL A   1      44.698  33.863  29.878  1.00  0.00     0.023 A 
ATOM     88  C   UNL A   1      44.436  34.968  29.048  1.00  0.00     0.031 A 
ATOM     89  C   UNL A   1      45.450  34.081  31.047  1.00  0.00     0.131 A 
ATOM     90  C   UNL A   1      44.973  36.225  29.367  1.00  0.00     0.055 A 
ATOM     91  C   UNL A   1      45.923  35.347  31.394  1.00  0.00     0.041 A 
ATOM     92  F   UNL A   1      45.737  33.064  31.875  1.00  0.00    -0.206 F 
ATOM     93  C   UNL A   1      45.697  36.426  30.545  1.00  0.00     0.022 A 
BRANCH  90  94
ATOM     94  S   UNL A   1      44.800  37.578  28.170  1.00  0.00     0.124 S 
ATOM     95  O   UNL A   1      46.189  37.838  27.805  1.00  0.00    -0.237 OA
ATOM     96  O   UNL A   1      43.972  36.971  27.132  1.00  0.00    -0.237 OA
ATOM     97  O   UNL A   1      44.152  38.638  28.939  1.00  0.00    -0.744 OA
ENDBRANCH  90  94
ENDBRANCH  64  87
ENDBRANCH  38  39
ENDBRANCH  30  33
ENDBRANCH  28  29
ENDBRANCH  27  28
ENDBRANCH   1  27
TORSDOF 18
ENDMDL
