MODEL 1
REMARK VINA RESULT:     -13.4      0.000      0.000
REMARK SMILES COc1ccc(NC2=[NH+]C(=O)/C(=C\c3ccccc3C(=O)NCCCNC(=O)c3ccc(-c4c5nc(c(-c6cc(S(=O)(=O)[O-])ccc6F)c6ccc([nH]6)c(-c6cc(S(=O)(=O)[O-])ccc6F)c6nc(c(-c7cc(S(=O)(=O)[O-])ccc7F)c7ccc4[nH]7)C=C6)C=C5)cc3)S2)cc1
REMARK SMILES IDX 24 1 23 2 22 3 20 4 21 5 19 7 14 8 15 9 16 10 18 11 17 12
REMARK SMILES IDX 13 13 7 14 8 15 9 17 92 18 10 19 12 21 11 22 6 23 3 24 4 25
REMARK SMILES IDX 94 26 5 27 93 28 2 29 1 30 25 31 26 32 27 33 28 35 29 36
REMARK SMILES IDX 30 37 91 38 31 39 90 40 32 41 33 42 34 43 84 44 35 45 89 46
REMARK SMILES IDX 83 47 85 48 36 49 88 50 82 51 81 52 37 54 69 55 49 56 68 57
REMARK SMILES IDX 50 58 53 59 67 60 86 61 51 62 52 63 66 65 87 66 54 67 38 68
REMARK SMILES IDX 39 69 47 70 40 71 46 72 48 73 45 74 41 75 42 76 43 77 44 78
REMARK SMILES IDX 70 79 71 80 79 81 72 82 78 83 80 84 77 85 73 86 74 87 75 88
REMARK SMILES IDX 76 89 55 90 56 91 64 92 57 93 63 94 65 95 62 96 58 97 59 98
REMARK SMILES IDX 60 99 61 100
REMARK H PARENT 22 6 7 16 9 20 26 34 85 53 53 64
REMARK Flexibility Score: inf
ROOT
ATOM      1  C   UNL A   1      32.830  30.287  27.257  1.00  0.00     0.042 C 
ENDROOT
BRANCH   1   2
ATOM      2  C   UNL A   1      32.211  30.379  25.871  1.00  0.00     0.118 C 
BRANCH   2   3
ATOM      3  N   UNL A   1      32.702  29.409  24.923  1.00  0.00    -0.352 N 
ATOM      4  C   UNL A   1      32.072  28.943  23.795  1.00  0.00     0.251 C 
ATOM      5  O   UNL A   1      32.706  28.975  22.738  1.00  0.00    -0.269 OA
ATOM      6  H   UNL A   1      33.594  29.037  25.106  1.00  0.00     0.163 HD
BRANCH   4   7
ATOM      7  C   UNL A   1      30.877  28.059  23.884  1.00  0.00     0.047 A 
ATOM      8  C   UNL A   1      30.725  26.807  24.503  1.00  0.00    -0.011 A 
ATOM      9  C   UNL A   1      29.461  26.170  24.393  1.00  0.00     0.009 A 
ATOM     10  C   UNL A   1      28.374  26.760  23.744  1.00  0.00     0.001 A 
ATOM     11  C   UNL A   1      29.754  28.651  23.250  1.00  0.00     0.014 A 
ATOM     12  C   UNL A   1      28.518  28.015  23.180  1.00  0.00     0.001 A 
BRANCH   8  13
ATOM     13  C   UNL A   1      31.701  25.984  25.237  1.00  0.00     0.032 C 
ATOM     14  N   UNL A   1      34.635  22.051  25.011  1.00  0.00    -0.235 N 
ATOM     15  C   UNL A   1      34.091  23.229  24.600  1.00  0.00     0.322 C 
ATOM     16  H   UNL A   1      35.416  22.114  25.608  1.00  0.00     0.313 HD
ATOM     17  N   UNL A   1      33.795  23.665  23.422  1.00  0.00    -0.199 N 
ATOM     18  S   UNL A   1      33.689  24.316  25.925  1.00  0.00     0.006 SA
ATOM     19  C   UNL A   1      33.213  24.920  23.448  1.00  0.00     0.346 C 
ATOM     20  H   UNL A   1      33.965  23.159  22.595  1.00  0.00     0.316 HD
ATOM     21  C   UNL A   1      32.744  25.251  24.824  1.00  0.00     0.110 C 
ATOM     22  O   UNL A   1      33.093  25.672  22.495  1.00  0.00    -0.240 OA
BRANCH  14  23
ATOM     23  C   UNL A   1      34.208  20.747  24.677  1.00  0.00     0.125 A 
ATOM     24  C   UNL A   1      33.451  18.042  24.416  1.00  0.00     0.119 A 
ATOM     25  C   UNL A   1      32.520  19.066  24.225  1.00  0.00     0.051 A 
ATOM     26  C   UNL A   1      34.784  18.372  24.630  1.00  0.00     0.051 A 
ATOM     27  C   UNL A   1      32.897  20.412  24.339  1.00  0.00     0.055 A 
ATOM     28  C   UNL A   1      35.157  19.713  24.750  1.00  0.00     0.055 A 
BRANCH  24  29
ATOM     29  O   UNL A   1      32.950  16.770  24.370  1.00  0.00    -0.497 OA
ATOM     30  C   UNL A   1      32.793  16.113  25.628  1.00  0.00     0.278 C 
ENDBRANCH  24  29
ENDBRANCH  14  23
ENDBRANCH   8  13
ENDBRANCH   4   7
ENDBRANCH   2   3
ENDBRANCH   1   2
BRANCH   1  31
ATOM     31  C   UNL A   1      33.761  31.478  27.494  1.00  0.00     0.118 C 
BRANCH  31  32
ATOM     32  N   UNL A   1      33.072  32.761  27.576  1.00  0.00    -0.352 N 
ATOM     33  C   UNL A   1      33.336  33.860  28.369  1.00  0.00     0.251 C 
ATOM     34  H   UNL A   1      32.299  32.858  26.975  1.00  0.00     0.163 HD
ATOM     35  O   UNL A   1      32.531  34.791  28.367  1.00  0.00    -0.269 OA
BRANCH  33  36
ATOM     36  C   UNL A   1      34.489  33.870  29.308  1.00  0.00     0.039 A 
ATOM     37  C   UNL A   1      34.277  33.373  30.598  1.00  0.00     0.014 A 
ATOM     38  C   UNL A   1      35.775  34.243  28.924  1.00  0.00     0.014 A 
ATOM     39  C   UNL A   1      35.369  33.072  31.415  1.00  0.00     0.010 A 
ATOM     40  C   UNL A   1      36.866  33.841  29.686  1.00  0.00     0.010 A 
ATOM     41  C   UNL A   1      36.672  33.198  30.913  1.00  0.00    -0.014 A 
BRANCH  41  42
ATOM     42  C   UNL A   1      37.821  32.538  31.585  1.00  0.00     0.031 A 
ATOM     43  C   UNL A   1      38.529  31.382  30.943  1.00  0.00     0.074 A 
ATOM     44  C   UNL A   1      38.130  32.920  32.842  1.00  0.00     0.049 A 
ATOM     45  N   UNL A   1      39.484  30.629  31.424  1.00  0.00    -0.248 NA
ATOM     46  C   UNL A   1      38.071  30.992  29.602  1.00  0.00     0.031 C 
ATOM     47  C   UNL A   1      37.440  33.970  33.600  1.00  0.00     0.029 A 
ATOM     48  N   UNL A   1      39.088  32.469  33.713  1.00  0.00    -0.354 N 
ATOM     49  C   UNL A   1      39.736  29.668  30.451  1.00  0.00     0.074 A 
ATOM     50  C   UNL A   1      38.782  29.896  29.384  1.00  0.00     0.031 C 
ATOM     51  C   UNL A   1      38.020  34.107  34.801  1.00  0.00     0.029 A 
ATOM     52  C   UNL A   1      39.091  33.127  34.923  1.00  0.00     0.049 A 
ATOM     53  H   UNL A   1      39.716  31.743  33.494  1.00  0.00     0.167 HD
ATOM     54  C   UNL A   1      40.690  28.703  30.441  1.00  0.00     0.034 A 
ATOM     55  C   UNL A   1      39.866  32.958  36.011  1.00  0.00     0.034 A 
ATOM     56  C   UNL A   1      41.627  28.499  31.519  1.00  0.00     0.049 A 
ATOM     57  C   UNL A   1      40.935  31.900  35.967  1.00  0.00     0.074 A 
ATOM     58  C   UNL A   1      42.667  27.589  31.604  1.00  0.00     0.029 A 
ATOM     59  N   UNL A   1      41.632  29.217  32.710  1.00  0.00    -0.354 N 
ATOM     60  N   UNL A   1      41.205  31.044  35.008  1.00  0.00    -0.248 NA
ATOM     61  C   UNL A   1      41.808  31.794  37.141  1.00  0.00     0.031 C 
ATOM     62  C   UNL A   1      43.268  27.725  32.861  1.00  0.00     0.029 A 
ATOM     63  C   UNL A   1      42.643  28.761  33.540  1.00  0.00     0.049 A 
ATOM     64  H   UNL A   1      41.007  29.945  32.932  1.00  0.00     0.167 HD
ATOM     65  C   UNL A   1      42.298  30.312  35.454  1.00  0.00     0.074 A 
ATOM     66  C   UNL A   1      42.645  30.840  36.760  1.00  0.00     0.031 C 
ATOM     67  C   UNL A   1      42.960  29.297  34.843  1.00  0.00     0.034 A 
BRANCH  54  68
ATOM     68  C   UNL A   1      40.740  27.799  29.231  1.00  0.00     0.023 A 
ATOM     69  C   UNL A   1      41.679  28.006  28.204  1.00  0.00     0.031 A 
ATOM     70  C   UNL A   1      39.810  26.757  29.069  1.00  0.00     0.131 A 
ATOM     71  C   UNL A   1      41.606  27.253  27.022  1.00  0.00     0.055 A 
ATOM     72  C   UNL A   1      39.801  25.951  27.927  1.00  0.00     0.041 A 
ATOM     73  F   UNL A   1      38.879  26.519  30.004  1.00  0.00    -0.206 F 
ATOM     74  C   UNL A   1      40.690  26.209  26.886  1.00  0.00     0.022 A 
BRANCH  71  75
ATOM     75  S   UNL A   1      42.621  27.768  25.610  1.00  0.00     0.124 S 
ATOM     76  O   UNL A   1      42.581  26.575  24.768  1.00  0.00    -0.237 OA
ATOM     77  O   UNL A   1      41.897  28.929  25.106  1.00  0.00    -0.237 OA
ATOM     78  O   UNL A   1      43.923  28.055  26.210  1.00  0.00    -0.744 OA
ENDBRANCH  71  75
ENDBRANCH  54  68
BRANCH  55  79
ATOM     79  C   UNL A   1      39.673  33.813  37.216  1.00  0.00     0.023 A 
ATOM     80  C   UNL A   1      38.943  33.347  38.319  1.00  0.00     0.031 A 
ATOM     81  C   UNL A   1      40.212  35.111  37.280  1.00  0.00     0.131 A 
ATOM     82  C   UNL A   1      38.738  34.184  39.427  1.00  0.00     0.055 A 
ATOM     83  C   UNL A   1      40.040  35.925  38.403  1.00  0.00     0.041 A 
ATOM     84  F   UNL A   1      40.932  35.599  36.259  1.00  0.00    -0.206 F 
ATOM     85  C   UNL A   1      39.289  35.465  39.481  1.00  0.00     0.022 A 
BRANCH  82  86
ATOM     86  S   UNL A   1      37.683  33.590  40.778  1.00  0.00     0.124 S 
ATOM     87  O   UNL A   1      37.398  34.825  41.500  1.00  0.00    -0.237 OA
ATOM     88  O   UNL A   1      36.565  32.998  40.051  1.00  0.00    -0.237 OA
ATOM     89  O   UNL A   1      38.539  32.638  41.484  1.00  0.00    -0.744 OA
ENDBRANCH  82  86
ENDBRANCH  55  79
BRANCH  67  90
ATOM     90  C   UNL A   1      44.144  28.728  35.578  1.00  0.00     0.023 A 
ATOM     91  C   UNL A   1      43.998  27.696  36.519  1.00  0.00     0.031 A 
ATOM     92  C   UNL A   1      45.431  29.244  35.348  1.00  0.00     0.131 A 
ATOM     93  C   UNL A   1      45.115  27.247  37.239  1.00  0.00     0.055 A 
ATOM     94  C   UNL A   1      46.547  28.756  36.027  1.00  0.00     0.041 A 
ATOM     95  F   UNL A   1      45.621  30.233  34.459  1.00  0.00    -0.206 F 
ATOM     96  C   UNL A   1      46.391  27.760  36.987  1.00  0.00     0.022 A 
BRANCH  93  97
ATOM     97  S   UNL A   1      44.865  26.038  38.566  1.00  0.00     0.124 S 
ATOM     98  O   UNL A   1      44.134  24.979  37.877  1.00  0.00    -0.237 OA
ATOM     99  O   UNL A   1      46.232  25.716  38.958  1.00  0.00    -0.237 OA
ATOM    100  O   UNL A   1      44.092  26.777  39.562  1.00  0.00    -0.744 OA
ENDBRANCH  93  97
ENDBRANCH  67  90
ENDBRANCH  41  42
ENDBRANCH  33  36
ENDBRANCH  31  32
ENDBRANCH   1  31
TORSDOF 16
ENDMDL
MODEL 2
REMARK VINA RESULT:     -13.4      2.031      2.543
REMARK SMILES COc1ccc(NC2=[NH+]C(=O)/C(=C\c3ccccc3C(=O)NCCCNC(=O)c3ccc(-c4c5nc(c(-c6cc(S(=O)(=O)[O-])ccc6F)c6ccc([nH]6)c(-c6cc(S(=O)(=O)[O-])ccc6F)c6nc(c(-c7cc(S(=O)(=O)[O-])ccc7F)c7ccc4[nH]7)C=C6)C=C5)cc3)S2)cc1
REMARK SMILES IDX 24 1 23 2 22 3 20 4 21 5 19 7 14 8 15 9 16 10 18 11 17 12
REMARK SMILES IDX 13 13 7 14 8 15 9 17 92 18 10 19 12 21 11 22 6 23 3 24 4 25
REMARK SMILES IDX 94 26 5 27 93 28 2 29 1 30 25 31 26 32 27 33 28 35 29 36
REMARK SMILES IDX 30 37 91 38 31 39 90 40 32 41 33 42 34 43 84 44 35 45 89 46
REMARK SMILES IDX 83 47 85 48 36 49 88 50 82 51 81 52 37 54 69 55 49 56 68 57
REMARK SMILES IDX 50 58 53 59 67 60 86 61 51 62 52 63 66 65 87 66 54 67 38 68
REMARK SMILES IDX 39 69 47 70 40 71 46 72 48 73 45 74 41 75 42 76 43 77 44 78
REMARK SMILES IDX 70 79 71 80 79 81 72 82 78 83 80 84 77 85 73 86 74 87 75 88
REMARK SMILES IDX 76 89 55 90 56 91 64 92 57 93 63 94 65 95 62 96 58 97 59 98
REMARK SMILES IDX 60 99 61 100
REMARK H PARENT 22 6 7 16 9 20 26 34 85 53 53 64
REMARK Flexibility Score: inf
ROOT
ATOM      1  C   UNL A   1      31.134  31.473  26.440  1.00  0.00     0.042 C 
ENDROOT
BRANCH   1   2
ATOM      2  C   UNL A   1      31.762  30.189  26.958  1.00  0.00     0.118 C 
BRANCH   2   3
ATOM      3  N   UNL A   1      32.491  29.431  25.971  1.00  0.00    -0.352 N 
ATOM      4  C   UNL A   1      32.116  29.152  24.679  1.00  0.00     0.251 C 
ATOM      5  O   UNL A   1      32.928  29.404  23.787  1.00  0.00    -0.269 OA
ATOM      6  H   UNL A   1      33.361  29.071  26.257  1.00  0.00     0.163 HD
BRANCH   4   7
ATOM      7  C   UNL A   1      30.997  28.216  24.383  1.00  0.00     0.047 A 
ATOM      8  C   UNL A   1      30.832  26.866  24.735  1.00  0.00    -0.011 A 
ATOM      9  C   UNL A   1      29.663  26.206  24.276  1.00  0.00     0.009 A 
ATOM     10  C   UNL A   1      28.670  26.857  23.541  1.00  0.00     0.001 A 
ATOM     11  C   UNL A   1      29.966  28.865  23.657  1.00  0.00     0.014 A 
ATOM     12  C   UNL A   1      28.816  28.200  23.241  1.00  0.00     0.001 A 
BRANCH   8  13
ATOM     13  C   UNL A   1      31.720  25.965  25.490  1.00  0.00     0.032 C 
ATOM     14  N   UNL A   1      34.610  22.001  25.226  1.00  0.00    -0.235 N 
ATOM     15  C   UNL A   1      34.124  23.220  24.864  1.00  0.00     0.322 C 
ATOM     16  H   UNL A   1      35.328  21.999  25.899  1.00  0.00     0.313 HD
ATOM     17  N   UNL A   1      33.953  23.757  23.703  1.00  0.00    -0.199 N 
ATOM     18  S   UNL A   1      33.607  24.204  26.229  1.00  0.00     0.006 SA
ATOM     19  C   UNL A   1      33.388  25.019  23.776  1.00  0.00     0.346 C 
ATOM     20  H   UNL A   1      34.197  23.317  22.857  1.00  0.00     0.316 HD
ATOM     21  C   UNL A   1      32.789  25.246  25.122  1.00  0.00     0.110 C 
ATOM     22  O   UNL A   1      33.373  25.848  22.882  1.00  0.00    -0.240 OA
BRANCH  14  23
ATOM     23  C   UNL A   1      34.201  20.738  24.744  1.00  0.00     0.125 A 
ATOM     24  C   UNL A   1      33.445  18.079  24.184  1.00  0.00     0.119 A 
ATOM     25  C   UNL A   1      32.542  19.130  24.008  1.00  0.00     0.051 A 
ATOM     26  C   UNL A   1      34.758  18.368  24.535  1.00  0.00     0.051 A 
ATOM     27  C   UNL A   1      32.919  20.455  24.271  1.00  0.00     0.055 A 
ATOM     28  C   UNL A   1      35.131  19.687  24.803  1.00  0.00     0.055 A 
BRANCH  24  29
ATOM     29  O   UNL A   1      32.938  16.824  23.985  1.00  0.00    -0.497 OA
ATOM     30  C   UNL A   1      32.916  15.969  25.128  1.00  0.00     0.278 C 
ENDBRANCH  24  29
ENDBRANCH  14  23
ENDBRANCH   8  13
ENDBRANCH   4   7
ENDBRANCH   2   3
ENDBRANCH   1   2
BRANCH   1  31
ATOM     31  C   UNL A   1      32.206  32.554  26.287  1.00  0.00     0.118 C 
BRANCH  31  32
ATOM     32  N   UNL A   1      32.205  33.545  27.357  1.00  0.00    -0.352 N 
ATOM     33  C   UNL A   1      33.143  33.790  28.340  1.00  0.00     0.251 C 
ATOM     34  H   UNL A   1      31.413  34.129  27.384  1.00  0.00     0.163 HD
ATOM     35  O   UNL A   1      32.866  34.595  29.229  1.00  0.00    -0.269 OA
BRANCH  33  36
ATOM     36  C   UNL A   1      34.405  33.005  28.410  1.00  0.00     0.039 A 
ATOM     37  C   UNL A   1      35.611  33.708  28.320  1.00  0.00     0.014 A 
ATOM     38  C   UNL A   1      34.431  31.637  28.674  1.00  0.00     0.014 A 
ATOM     39  C   UNL A   1      36.807  33.086  28.682  1.00  0.00     0.010 A 
ATOM     40  C   UNL A   1      35.599  31.048  29.142  1.00  0.00     0.010 A 
ATOM     41  C   UNL A   1      36.786  31.786  29.207  1.00  0.00    -0.014 A 
BRANCH  41  42
ATOM     42  C   UNL A   1      37.950  31.239  29.952  1.00  0.00     0.031 A 
ATOM     43  C   UNL A   1      38.826  30.183  29.346  1.00  0.00     0.074 A 
ATOM     44  C   UNL A   1      38.123  31.622  31.235  1.00  0.00     0.049 A 
ATOM     45  N   UNL A   1      39.821  29.527  29.885  1.00  0.00    -0.248 NA
ATOM     46  C   UNL A   1      38.512  29.778  27.968  1.00  0.00     0.031 C 
ATOM     47  C   UNL A   1      37.267  32.571  31.956  1.00  0.00     0.029 A 
ATOM     48  N   UNL A   1      39.059  31.257  32.168  1.00  0.00    -0.354 N 
ATOM     49  C   UNL A   1      40.247  28.624  28.917  1.00  0.00     0.074 A 
ATOM     50  C   UNL A   1      39.354  28.772  27.786  1.00  0.00     0.031 C 
ATOM     51  C   UNL A   1      37.741  32.741  33.199  1.00  0.00     0.029 A 
ATOM     52  C   UNL A   1      38.902  31.881  33.384  1.00  0.00     0.049 A 
ATOM     53  H   UNL A   1      39.777  30.609  31.984  1.00  0.00     0.167 HD
ATOM     54  C   UNL A   1      41.300  27.768  28.963  1.00  0.00     0.034 A 
ATOM     55  C   UNL A   1      39.609  31.771  34.525  1.00  0.00     0.034 A 
ATOM     56  C   UNL A   1      42.173  27.641  30.105  1.00  0.00     0.049 A 
ATOM     57  C   UNL A   1      40.788  30.838  34.544  1.00  0.00     0.074 A 
ATOM     58  C   UNL A   1      43.298  26.849  30.253  1.00  0.00     0.029 A 
ATOM     59  N   UNL A   1      42.013  28.327  31.305  1.00  0.00    -0.354 N 
ATOM     60  N   UNL A   1      41.221  30.040  33.594  1.00  0.00    -0.248 NA
ATOM     61  C   UNL A   1      41.581  30.799  35.777  1.00  0.00     0.031 C 
ATOM     62  C   UNL A   1      43.788  27.018  31.554  1.00  0.00     0.029 A 
ATOM     63  C   UNL A   1      43.005  27.963  32.201  1.00  0.00     0.049 A 
ATOM     64  H   UNL A   1      41.296  28.976  31.491  1.00  0.00     0.167 HD
ATOM     65  C   UNL A   1      42.353  29.420  34.109  1.00  0.00     0.074 A 
ATOM     66  C   UNL A   1      42.543  29.951  35.445  1.00  0.00     0.031 C 
ATOM     67  C   UNL A   1      43.165  28.498  33.532  1.00  0.00     0.034 A 
BRANCH  54  68
ATOM     68  C   UNL A   1      41.537  26.905  27.745  1.00  0.00     0.023 A 
ATOM     69  C   UNL A   1      41.112  25.565  27.707  1.00  0.00     0.031 A 
ATOM     70  C   UNL A   1      42.242  27.402  26.635  1.00  0.00     0.131 A 
ATOM     71  C   UNL A   1      41.479  24.742  26.632  1.00  0.00     0.055 A 
ATOM     72  C   UNL A   1      42.526  26.600  25.526  1.00  0.00     0.041 A 
ATOM     73  F   UNL A   1      42.688  28.667  26.617  1.00  0.00    -0.206 F 
ATOM     74  C   UNL A   1      42.162  25.255  25.528  1.00  0.00     0.022 A 
BRANCH  71  75
ATOM     75  S   UNL A   1      41.189  22.957  26.777  1.00  0.00     0.124 S 
ATOM     76  O   UNL A   1      39.732  22.888  26.696  1.00  0.00    -0.237 OA
ATOM     77  O   UNL A   1      41.917  22.424  25.631  1.00  0.00    -0.237 OA
ATOM     78  O   UNL A   1      41.750  22.624  28.084  1.00  0.00    -0.744 OA
ENDBRANCH  71  75
ENDBRANCH  54  68
BRANCH  55  79
ATOM     79  C   UNL A   1      39.236  32.571  35.725  1.00  0.00     0.023 A 
ATOM     80  C   UNL A   1      39.702  33.884  35.888  1.00  0.00     0.031 A 
ATOM     81  C   UNL A   1      38.413  32.033  36.731  1.00  0.00     0.131 A 
ATOM     82  C   UNL A   1      39.373  34.606  37.045  1.00  0.00     0.055 A 
ATOM     83  C   UNL A   1      38.054  32.770  37.862  1.00  0.00     0.041 A 
ATOM     84  F   UNL A   1      37.927  30.787  36.617  1.00  0.00    -0.206 F 
ATOM     85  C   UNL A   1      38.545  34.062  38.028  1.00  0.00     0.022 A 
BRANCH  82  86
ATOM     86  S   UNL A   1      40.098  36.253  37.276  1.00  0.00     0.124 S 
ATOM     87  O   UNL A   1      39.919  36.845  35.956  1.00  0.00    -0.237 OA
ATOM     88  O   UNL A   1      39.268  36.800  38.344  1.00  0.00    -0.237 OA
ATOM     89  O   UNL A   1      41.482  35.966  37.650  1.00  0.00    -0.744 OA
ENDBRANCH  82  86
ENDBRANCH  55  79
BRANCH  67  90
ATOM     90  C   UNL A   1      44.348  28.045  34.344  1.00  0.00     0.023 A 
ATOM     91  C   UNL A   1      44.278  26.914  35.175  1.00  0.00     0.031 A 
ATOM     92  C   UNL A   1      45.552  28.768  34.301  1.00  0.00     0.131 A 
ATOM     93  C   UNL A   1      45.378  26.570  35.974  1.00  0.00     0.055 A 
ATOM     94  C   UNL A   1      46.661  28.388  35.057  1.00  0.00     0.041 A 
ATOM     95  F   UNL A   1      45.667  29.857  33.523  1.00  0.00    -0.206 F 
ATOM     96  C   UNL A   1      46.574  27.290  35.909  1.00  0.00     0.022 A 
BRANCH  93  97
ATOM     97  S   UNL A   1      45.197  25.211  37.162  1.00  0.00     0.124 S 
ATOM     98  O   UNL A   1      45.473  25.879  38.429  1.00  0.00    -0.237 OA
ATOM     99  O   UNL A   1      43.816  24.792  36.950  1.00  0.00    -0.237 OA
ATOM    100  O   UNL A   1      46.210  24.247  36.736  1.00  0.00    -0.744 OA
ENDBRANCH  93  97
ENDBRANCH  67  90
ENDBRANCH  41  42
ENDBRANCH  33  36
ENDBRANCH  31  32
ENDBRANCH   1  31
TORSDOF 16
ENDMDL
MODEL 3
REMARK VINA RESULT:     -13.1      2.206      7.603
REMARK SMILES COc1ccc(NC2=[NH+]C(=O)/C(=C\c3ccccc3C(=O)NCCCNC(=O)c3ccc(-c4c5nc(c(-c6cc(S(=O)(=O)[O-])ccc6F)c6ccc([nH]6)c(-c6cc(S(=O)(=O)[O-])ccc6F)c6nc(c(-c7cc(S(=O)(=O)[O-])ccc7F)c7ccc4[nH]7)C=C6)C=C5)cc3)S2)cc1
REMARK SMILES IDX 24 1 23 2 22 3 20 4 21 5 19 7 14 8 15 9 16 10 18 11 17 12
REMARK SMILES IDX 13 13 7 14 8 15 9 17 92 18 10 19 12 21 11 22 6 23 3 24 4 25
REMARK SMILES IDX 94 26 5 27 93 28 2 29 1 30 25 31 26 32 27 33 28 35 29 36
REMARK SMILES IDX 30 37 91 38 31 39 90 40 32 41 33 42 34 43 84 44 35 45 89 46
REMARK SMILES IDX 83 47 85 48 36 49 88 50 82 51 81 52 37 54 69 55 49 56 68 57
REMARK SMILES IDX 50 58 53 59 67 60 86 61 51 62 52 63 66 65 87 66 54 67 38 68
REMARK SMILES IDX 39 69 47 70 40 71 46 72 48 73 45 74 41 75 42 76 43 77 44 78
REMARK SMILES IDX 70 79 71 80 79 81 72 82 78 83 80 84 77 85 73 86 74 87 75 88
REMARK SMILES IDX 76 89 55 90 56 91 64 92 57 93 63 94 65 95 62 96 58 97 59 98
REMARK SMILES IDX 60 99 61 100
REMARK H PARENT 22 6 7 16 9 20 26 34 85 53 53 64
REMARK Flexibility Score: inf
ROOT
ATOM      1  C   UNL A   1      31.941  30.455  25.641  1.00  0.00     0.042 C 
ENDROOT
BRANCH   1   2
ATOM      2  C   UNL A   1      33.041  29.510  25.185  1.00  0.00     0.118 C 
BRANCH   2   3
ATOM      3  N   UNL A   1      32.852  28.951  23.869  1.00  0.00    -0.352 N 
ATOM      4  C   UNL A   1      31.694  28.912  23.131  1.00  0.00     0.251 C 
ATOM      5  O   UNL A   1      31.747  29.329  21.972  1.00  0.00    -0.269 OA
ATOM      6  H   UNL A   1      33.647  28.550  23.450  1.00  0.00     0.163 HD
BRANCH   4   7
ATOM      7  C   UNL A   1      30.554  28.039  23.524  1.00  0.00     0.047 A 
ATOM      8  C   UNL A   1      30.528  26.912  24.363  1.00  0.00    -0.011 A 
ATOM      9  C   UNL A   1      29.285  26.246  24.528  1.00  0.00     0.009 A 
ATOM     10  C   UNL A   1      28.104  26.697  23.934  1.00  0.00     0.001 A 
ATOM     11  C   UNL A   1      29.339  28.494  22.949  1.00  0.00     0.014 A 
ATOM     12  C   UNL A   1      28.129  27.836  23.150  1.00  0.00     0.001 A 
BRANCH   8  13
ATOM     13  C   UNL A   1      31.619  26.245  25.094  1.00  0.00     0.032 C 
ATOM     14  N   UNL A   1      34.726  22.441  25.105  1.00  0.00    -0.235 N 
ATOM     15  C   UNL A   1      34.078  23.523  24.595  1.00  0.00     0.322 C 
ATOM     16  H   UNL A   1      35.560  22.622  25.598  1.00  0.00     0.313 HD
ATOM     17  N   UNL A   1      33.639  23.770  23.406  1.00  0.00    -0.199 N 
ATOM     18  S   UNL A   1      33.756  24.776  25.788  1.00  0.00     0.006 SA
ATOM     19  C   UNL A   1      32.994  24.991  23.318  1.00  0.00     0.346 C 
ATOM     20  H   UNL A   1      33.750  23.155  22.646  1.00  0.00     0.316 HD
ATOM     21  C   UNL A   1      32.652  25.501  24.676  1.00  0.00     0.110 C 
ATOM     22  O   UNL A   1      32.735  25.590  22.287  1.00  0.00    -0.240 OA
BRANCH  14  23
ATOM     23  C   UNL A   1      34.340  21.086  25.009  1.00  0.00     0.125 A 
ATOM     24  C   UNL A   1      33.398  18.489  24.440  1.00  0.00     0.119 A 
ATOM     25  C   UNL A   1      34.763  18.732  24.613  1.00  0.00     0.051 A 
ATOM     26  C   UNL A   1      32.495  19.522  24.659  1.00  0.00     0.051 A 
ATOM     27  C   UNL A   1      35.233  20.019  24.911  1.00  0.00     0.055 A 
ATOM     28  C   UNL A   1      32.964  20.805  24.950  1.00  0.00     0.055 A 
BRANCH  24  29
ATOM     29  O   UNL A   1      33.067  17.217  24.062  1.00  0.00    -0.497 OA
ATOM     30  C   UNL A   1      34.026  16.532  23.256  1.00  0.00     0.278 C 
ENDBRANCH  24  29
ENDBRANCH  14  23
ENDBRANCH   8  13
ENDBRANCH   4   7
ENDBRANCH   2   3
ENDBRANCH   1   2
BRANCH   1  31
ATOM     31  C   UNL A   1      32.134  30.808  27.117  1.00  0.00     0.118 C 
BRANCH  31  32
ATOM     32  N   UNL A   1      32.364  32.227  27.362  1.00  0.00    -0.352 N 
ATOM     33  C   UNL A   1      33.520  32.890  27.723  1.00  0.00     0.251 C 
ATOM     34  H   UNL A   1      31.571  32.802  27.255  1.00  0.00     0.163 HD
ATOM     35  O   UNL A   1      33.447  34.084  28.011  1.00  0.00    -0.269 OA
BRANCH  33  36
ATOM     36  C   UNL A   1      34.803  32.157  27.895  1.00  0.00     0.039 A 
ATOM     37  C   UNL A   1      35.972  32.916  28.008  1.00  0.00     0.014 A 
ATOM     38  C   UNL A   1      34.868  30.775  28.061  1.00  0.00     0.014 A 
ATOM     39  C   UNL A   1      37.146  32.320  28.473  1.00  0.00     0.010 A 
ATOM     40  C   UNL A   1      36.000  30.202  28.630  1.00  0.00     0.010 A 
ATOM     41  C   UNL A   1      37.130  30.984  28.896  1.00  0.00    -0.014 A 
BRANCH  41  42
ATOM     42  C   UNL A   1      38.220  30.432  29.741  1.00  0.00     0.031 A 
ATOM     43  C   UNL A   1      38.406  30.890  31.157  1.00  0.00     0.074 A 
ATOM     44  C   UNL A   1      39.118  29.605  29.163  1.00  0.00     0.049 A 
ATOM     45  N   UNL A   1      39.356  30.589  32.004  1.00  0.00    -0.248 NA
ATOM     46  C   UNL A   1      37.420  31.850  31.673  1.00  0.00     0.031 C 
ATOM     47  C   UNL A   1      39.088  29.171  27.762  1.00  0.00     0.029 A 
ATOM     48  N   UNL A   1      40.234  28.990  29.668  1.00  0.00    -0.354 N 
ATOM     49  C   UNL A   1      39.089  31.329  33.151  1.00  0.00     0.074 A 
ATOM     50  C   UNL A   1      37.928  32.144  32.860  1.00  0.00     0.031 C 
ATOM     51  C   UNL A   1      40.110  28.335  27.533  1.00  0.00     0.029 A 
ATOM     52  C   UNL A   1      40.898  28.206  28.751  1.00  0.00     0.049 A 
ATOM     53  H   UNL A   1      40.534  29.098  30.600  1.00  0.00     0.167 HD
ATOM     54  C   UNL A   1      39.741  31.310  34.341  1.00  0.00     0.034 A 
ATOM     55  C   UNL A   1      42.018  27.470  28.875  1.00  0.00     0.034 A 
ATOM     56  C   UNL A   1      40.897  30.487  34.603  1.00  0.00     0.049 A 
ATOM     57  C   UNL A   1      42.709  27.442  30.211  1.00  0.00     0.074 A 
ATOM     58  C   UNL A   1      41.612  30.344  35.778  1.00  0.00     0.029 A 
ATOM     59  N   UNL A   1      41.514  29.667  33.663  1.00  0.00    -0.354 N 
ATOM     60  N   UNL A   1      42.402  28.096  31.308  1.00  0.00    -0.248 NA
ATOM     61  C   UNL A   1      43.882  26.571  30.331  1.00  0.00     0.031 C 
ATOM     62  C   UNL A   1      42.686  29.478  35.538  1.00  0.00     0.029 A 
ATOM     63  C   UNL A   1      42.608  29.031  34.227  1.00  0.00     0.049 A 
ATOM     64  H   UNL A   1      41.216  29.555  32.731  1.00  0.00     0.167 HD
ATOM     65  C   UNL A   1      43.334  27.695  32.258  1.00  0.00     0.074 A 
ATOM     66  C   UNL A   1      44.201  26.732  31.607  1.00  0.00     0.031 C 
ATOM     67  C   UNL A   1      43.463  28.084  33.552  1.00  0.00     0.034 A 
BRANCH  54  68
ATOM     68  C   UNL A   1      39.215  32.220  35.427  1.00  0.00     0.023 A 
ATOM     69  C   UNL A   1      39.629  33.562  35.518  1.00  0.00     0.031 A 
ATOM     70  C   UNL A   1      38.338  31.735  36.413  1.00  0.00     0.131 A 
ATOM     71  C   UNL A   1      39.247  34.341  36.621  1.00  0.00     0.055 A 
ATOM     72  C   UNL A   1      37.891  32.544  37.461  1.00  0.00     0.041 A 
ATOM     73  F   UNL A   1      37.920  30.461  36.390  1.00  0.00    -0.206 F 
ATOM     74  C   UNL A   1      38.361  33.850  37.581  1.00  0.00     0.022 A 
BRANCH  71  75
ATOM     75  S   UNL A   1      40.058  35.945  36.862  1.00  0.00     0.124 S 
ATOM     76  O   UNL A   1      39.761  36.618  35.599  1.00  0.00    -0.237 OA
ATOM     77  O   UNL A   1      39.377  36.471  38.040  1.00  0.00    -0.237 OA
ATOM     78  O   UNL A   1      41.463  35.594  37.057  1.00  0.00    -0.744 OA
ENDBRANCH  71  75
ENDBRANCH  54  68
BRANCH  55  79
ATOM     79  C   UNL A   1      42.543  26.692  27.717  1.00  0.00     0.023 A 
ATOM     80  C   UNL A   1      42.372  25.301  27.649  1.00  0.00     0.031 A 
ATOM     81  C   UNL A   1      43.227  27.326  26.665  1.00  0.00     0.131 A 
ATOM     82  C   UNL A   1      42.910  24.582  26.570  1.00  0.00     0.055 A 
ATOM     83  C   UNL A   1      43.724  26.611  25.572  1.00  0.00     0.041 A 
ATOM     84  F   UNL A   1      43.403  28.657  26.673  1.00  0.00    -0.206 F 
ATOM     85  C   UNL A   1      43.575  25.228  25.527  1.00  0.00     0.022 A 
BRANCH  82  86
ATOM     86  S   UNL A   1      42.777  22.773  26.582  1.00  0.00     0.124 S 
ATOM     87  O   UNL A   1      42.130  22.512  25.301  1.00  0.00    -0.237 OA
ATOM     88  O   UNL A   1      44.175  22.369  26.691  1.00  0.00    -0.237 OA
ATOM     89  O   UNL A   1      41.958  22.500  27.762  1.00  0.00    -0.744 OA
ENDBRANCH  82  86
ENDBRANCH  55  79
BRANCH  67  90
ATOM     90  C   UNL A   1      44.564  27.429  34.343  1.00  0.00     0.023 A 
ATOM     91  C   UNL A   1      44.373  26.193  34.983  1.00  0.00     0.031 A 
ATOM     92  C   UNL A   1      45.811  28.063  34.474  1.00  0.00     0.131 A 
ATOM     93  C   UNL A   1      45.399  25.655  35.774  1.00  0.00     0.055 A 
ATOM     94  C   UNL A   1      46.847  27.495  35.216  1.00  0.00     0.041 A 
ATOM     95  F   UNL A   1      46.041  29.247  33.881  1.00  0.00    -0.206 F 
ATOM     96  C   UNL A   1      46.639  26.290  35.881  1.00  0.00     0.022 A 
BRANCH  93  97
ATOM     97  S   UNL A   1      45.062  24.148  36.725  1.00  0.00     0.124 S 
ATOM     98  O   UNL A   1      44.507  24.689  37.961  1.00  0.00    -0.237 OA
ATOM     99  O   UNL A   1      44.124  23.437  35.863  1.00  0.00    -0.237 OA
ATOM    100  O   UNL A   1      46.378  23.525  36.856  1.00  0.00    -0.744 OA
ENDBRANCH  93  97
ENDBRANCH  67  90
ENDBRANCH  41  42
ENDBRANCH  33  36
ENDBRANCH  31  32
ENDBRANCH   1  31
TORSDOF 16
ENDMDL
