MODEL 1
REMARK VINA RESULT:     -12.4      0.000      0.000
REMARK SMILES CC[C@@]1(C)NC(=O)N(/N=C/c2ccccc2C(=O)NCCCNC(=O)c2ccc(-c3c4nc(c(-c5cc(S(=O)(=O)[O-])ccc5F)c5ccc([nH]5)c(-c5cc(S(=O)(=O)[O-])ccc5F)c5nc(c(-c6cc(S(=O)(=O)[O-])ccc6F)c6ccc3[nH]6)C=C5)C=C4)cc2)C1=O
REMARK SMILES IDX 21 1 20 2 19 3 17 4 18 5 16 7 11 8 12 9 13 10 15 11 14 12
REMARK SMILES IDX 10 13 9 14 8 15 3 16 4 17 5 18 89 19 6 20 90 22 7 23 2 24
REMARK SMILES IDX 1 25 22 26 23 27 24 28 25 30 26 31 27 32 88 33 28 34 87 35
REMARK SMILES IDX 29 36 30 37 31 38 81 39 32 40 86 41 80 42 82 43 33 44 85 45
REMARK SMILES IDX 79 46 78 47 34 49 66 50 46 51 65 52 47 53 50 54 64 55 83 56
REMARK SMILES IDX 48 57 49 58 63 60 84 61 51 62 35 63 36 64 44 65 37 66 43 67
REMARK SMILES IDX 45 68 42 69 38 70 39 71 40 72 41 73 67 74 68 75 76 76 69 77
REMARK SMILES IDX 75 78 77 79 74 80 70 81 71 82 72 83 73 84 52 85 53 86 61 87
REMARK SMILES IDX 54 88 60 89 62 90 59 91 55 92 56 93 57 94 58 95
REMARK H PARENT 19 6 5 21 23 29 82 48 50 59
REMARK Flexibility Score: inf
ROOT
ATOM      1  C   UNL A   1      33.230  27.617  25.568  1.00  0.00     0.042 C 
ENDROOT
BRANCH   1   2
ATOM      2  C   UNL A   1      34.121  26.529  25.016  1.00  0.00     0.118 C 
BRANCH   2   3
ATOM      3  N   UNL A   1      33.714  25.889  23.789  1.00  0.00    -0.352 N 
ATOM      4  C   UNL A   1      32.474  25.406  23.436  1.00  0.00     0.251 C 
ATOM      5  O   UNL A   1      32.276  25.143  22.248  1.00  0.00    -0.269 OA
ATOM      6  H   UNL A   1      34.420  25.781  23.111  1.00  0.00     0.163 HD
BRANCH   4   7
ATOM      7  C   UNL A   1      31.436  24.998  24.426  1.00  0.00     0.048 A 
ATOM      8  C   UNL A   1      30.309  25.708  24.871  1.00  0.00     0.007 A 
ATOM      9  C   UNL A   1      29.532  25.197  25.929  1.00  0.00     0.010 A 
ATOM     10  C   UNL A   1      29.822  23.956  26.498  1.00  0.00     0.001 A 
ATOM     11  C   UNL A   1      31.685  23.727  24.993  1.00  0.00     0.014 A 
ATOM     12  C   UNL A   1      30.888  23.210  26.014  1.00  0.00     0.001 A 
BRANCH   8  13
ATOM     13  C   UNL A   1      29.852  27.021  24.366  1.00  0.00     0.143 C 
ATOM     14  N   UNL A   1      29.497  27.210  23.140  1.00  0.00    -0.169 NA
BRANCH  14  15
ATOM     15  N   UNL A   1      29.318  28.502  22.668  1.00  0.00    -0.146 N 
ATOM     16  C   UNL A   1      28.599  30.719  22.220  1.00  0.00     0.120 C 
ATOM     17  C   UNL A   1      28.026  30.858  20.810  1.00  0.00     0.045 C 
ATOM     18  N   UNL A   1      30.030  30.564  22.160  1.00  0.00    -0.322 N 
ATOM     19  C   UNL A   1      28.206  29.324  22.760  1.00  0.00     0.276 C 
ATOM     20  C   UNL A   1      30.435  29.260  22.362  1.00  0.00     0.346 C 
ATOM     21  H   UNL A   1      30.652  31.309  21.994  1.00  0.00     0.166 HD
ATOM     22  O   UNL A   1      27.078  29.044  23.153  1.00  0.00    -0.270 OA
ATOM     23  O   UNL A   1      31.610  28.926  22.382  1.00  0.00    -0.246 OA
BRANCH  16  24
ATOM     24  C   UNL A   1      28.149  31.845  23.162  1.00  0.00     0.035 C 
ATOM     25  C   UNL A   1      28.772  33.202  22.843  1.00  0.00     0.007 C 
ENDBRANCH  16  24
ENDBRANCH  14  15
ENDBRANCH   8  13
ENDBRANCH   4   7
ENDBRANCH   2   3
ENDBRANCH   1   2
BRANCH   1  26
ATOM     26  C   UNL A   1      33.487  29.004  24.995  1.00  0.00     0.118 C 
BRANCH  26  27
ATOM     27  N   UNL A   1      32.831  30.106  25.700  1.00  0.00    -0.352 N 
ATOM     28  C   UNL A   1      33.217  30.868  26.781  1.00  0.00     0.251 C 
ATOM     29  H   UNL A   1      31.950  30.349  25.334  1.00  0.00     0.163 HD
ATOM     30  O   UNL A   1      32.439  31.705  27.239  1.00  0.00    -0.269 OA
BRANCH  28  31
ATOM     31  C   UNL A   1      34.501  30.612  27.474  1.00  0.00     0.039 A 
ATOM     32  C   UNL A   1      35.393  31.678  27.625  1.00  0.00     0.014 A 
ATOM     33  C   UNL A   1      34.833  29.369  28.002  1.00  0.00     0.014 A 
ATOM     34  C   UNL A   1      36.513  31.558  28.439  1.00  0.00     0.010 A 
ATOM     35  C   UNL A   1      35.905  29.257  28.879  1.00  0.00     0.010 A 
ATOM     36  C   UNL A   1      36.748  30.356  29.108  1.00  0.00    -0.014 A 
BRANCH  36  37
ATOM     37  C   UNL A   1      37.980  30.158  29.897  1.00  0.00     0.031 A 
ATOM     38  C   UNL A   1      39.050  29.304  29.289  1.00  0.00     0.074 A 
ATOM     39  C   UNL A   1      38.115  30.710  31.116  1.00  0.00     0.049 A 
ATOM     40  N   UNL A   1      40.113  28.785  29.835  1.00  0.00    -0.248 NA
ATOM     41  C   UNL A   1      38.864  28.956  27.870  1.00  0.00     0.031 C 
ATOM     42  C   UNL A   1      37.146  31.609  31.751  1.00  0.00     0.029 A 
ATOM     43  N   UNL A   1      39.118  30.598  32.041  1.00  0.00    -0.354 N 
ATOM     44  C   UNL A   1      40.698  28.010  28.839  1.00  0.00     0.074 A 
ATOM     45  C   UNL A   1      39.844  28.092  27.676  1.00  0.00     0.031 C 
ATOM     46  C   UNL A   1      37.616  31.977  32.956  1.00  0.00     0.029 A 
ATOM     47  C   UNL A   1      38.876  31.287  33.208  1.00  0.00     0.049 A 
ATOM     48  H   UNL A   1      39.936  30.072  31.886  1.00  0.00     0.167 HD
ATOM     49  C   UNL A   1      41.851  27.304  28.900  1.00  0.00     0.034 A 
ATOM     50  C   UNL A   1      39.585  31.315  34.356  1.00  0.00     0.034 A 
ATOM     51  C   UNL A   1      42.674  27.270  30.081  1.00  0.00     0.049 A 
ATOM     52  C   UNL A   1      40.841  30.478  34.420  1.00  0.00     0.074 A 
ATOM     53  C   UNL A   1      43.853  26.583  30.300  1.00  0.00     0.029 A 
ATOM     54  N   UNL A   1      42.396  27.972  31.251  1.00  0.00    -0.354 N 
ATOM     55  N   UNL A   1      41.366  29.703  33.495  1.00  0.00    -0.248 NA
ATOM     56  C   UNL A   1      41.596  30.511  35.676  1.00  0.00     0.031 C 
ATOM     57  C   UNL A   1      44.252  26.820  31.620  1.00  0.00     0.029 A 
ATOM     58  C   UNL A   1      43.369  27.720  32.201  1.00  0.00     0.049 A 
ATOM     59  H   UNL A   1      41.619  28.562  31.383  1.00  0.00     0.167 HD
ATOM     60  C   UNL A   1      42.528  29.177  34.051  1.00  0.00     0.074 A 
ATOM     61  C   UNL A   1      42.634  29.741  35.384  1.00  0.00     0.031 C 
ATOM     62  C   UNL A   1      43.429  28.309  33.520  1.00  0.00     0.034 A 
BRANCH  49  63
ATOM     63  C   UNL A   1      42.212  26.477  27.688  1.00  0.00     0.023 A 
ATOM     64  C   UNL A   1      41.887  25.110  27.597  1.00  0.00     0.031 A 
ATOM     65  C   UNL A   1      42.990  27.034  26.658  1.00  0.00     0.131 A 
ATOM     66  C   UNL A   1      42.428  24.329  26.564  1.00  0.00     0.055 A 
ATOM     67  C   UNL A   1      43.443  26.271  25.580  1.00  0.00     0.041 A 
ATOM     68  F   UNL A   1      43.358  28.325  26.702  1.00  0.00    -0.206 F 
ATOM     69  C   UNL A   1      43.182  24.906  25.540  1.00  0.00     0.022 A 
BRANCH  66  70
ATOM     70  S   UNL A   1      42.294  22.523  26.684  1.00  0.00     0.124 S 
ATOM     71  O   UNL A   1      43.500  22.190  27.439  1.00  0.00    -0.237 OA
ATOM     72  O   UNL A   1      41.030  22.346  27.391  1.00  0.00    -0.237 OA
ATOM     73  O   UNL A   1      42.299  22.085  25.290  1.00  0.00    -0.744 OA
ENDBRANCH  66  70
ENDBRANCH  49  63
BRANCH  50  74
ATOM     74  C   UNL A   1      39.115  32.108  35.533  1.00  0.00     0.023 A 
ATOM     75  C   UNL A   1      38.447  31.494  36.606  1.00  0.00     0.031 A 
ATOM     76  C   UNL A   1      39.287  33.504  35.586  1.00  0.00     0.131 A 
ATOM     77  C   UNL A   1      37.943  32.274  37.662  1.00  0.00     0.055 A 
ATOM     78  C   UNL A   1      38.834  34.268  36.664  1.00  0.00     0.041 A 
ATOM     79  F   UNL A   1      39.913  34.150  34.589  1.00  0.00    -0.206 F 
ATOM     80  C   UNL A   1      38.146  33.655  37.705  1.00  0.00     0.022 A 
BRANCH  77  81
ATOM     81  S   UNL A   1      36.939  31.469  38.941  1.00  0.00     0.124 S 
ATOM     82  O   UNL A   1      37.779  31.626  40.122  1.00  0.00    -0.237 OA
ATOM     83  O   UNL A   1      35.717  32.265  38.911  1.00  0.00    -0.237 OA
ATOM     84  O   UNL A   1      36.799  30.098  38.452  1.00  0.00    -0.744 OA
ENDBRANCH  77  81
ENDBRANCH  50  74
BRANCH  62  85
ATOM     85  C   UNL A   1      44.624  27.969  34.374  1.00  0.00     0.023 A 
ATOM     86  C   UNL A   1      44.617  26.871  35.249  1.00  0.00     0.031 A 
ATOM     87  C   UNL A   1      45.787  28.756  34.300  1.00  0.00     0.131 A 
ATOM     88  C   UNL A   1      45.732  26.623  36.061  1.00  0.00     0.055 A 
ATOM     89  C   UNL A   1      46.919  28.463  35.058  1.00  0.00     0.041 A 
ATOM     90  F   UNL A   1      45.843  29.817  33.478  1.00  0.00    -0.206 F 
ATOM     91  C   UNL A   1      46.891  27.399  35.955  1.00  0.00     0.022 A 
BRANCH  88  92
ATOM     92  S   UNL A   1      45.612  25.332  37.327  1.00  0.00     0.124 S 
ATOM     93  O   UNL A   1      44.727  25.953  38.308  1.00  0.00    -0.237 OA
ATOM     94  O   UNL A   1      45.049  24.212  36.580  1.00  0.00    -0.237 OA
ATOM     95  O   UNL A   1      46.995  25.153  37.765  1.00  0.00    -0.744 OA
ENDBRANCH  88  92
ENDBRANCH  62  85
ENDBRANCH  36  37
ENDBRANCH  28  31
ENDBRANCH  26  27
ENDBRANCH   1  26
TORSDOF 16
ENDMDL
MODEL 2
REMARK VINA RESULT:     -12.3      5.745      8.577
REMARK SMILES CC[C@@]1(C)NC(=O)N(/N=C/c2ccccc2C(=O)NCCCNC(=O)c2ccc(-c3c4nc(c(-c5cc(S(=O)(=O)[O-])ccc5F)c5ccc([nH]5)c(-c5cc(S(=O)(=O)[O-])ccc5F)c5nc(c(-c6cc(S(=O)(=O)[O-])ccc6F)c6ccc3[nH]6)C=C5)C=C4)cc2)C1=O
REMARK SMILES IDX 21 1 20 2 19 3 17 4 18 5 16 7 11 8 12 9 13 10 15 11 14 12
REMARK SMILES IDX 10 13 9 14 8 15 3 16 4 17 5 18 89 19 6 20 90 22 7 23 2 24
REMARK SMILES IDX 1 25 22 26 23 27 24 28 25 30 26 31 27 32 88 33 28 34 87 35
REMARK SMILES IDX 29 36 30 37 31 38 81 39 32 40 86 41 80 42 82 43 33 44 85 45
REMARK SMILES IDX 79 46 78 47 34 49 66 50 46 51 65 52 47 53 50 54 64 55 83 56
REMARK SMILES IDX 48 57 49 58 63 60 84 61 51 62 35 63 36 64 44 65 37 66 43 67
REMARK SMILES IDX 45 68 42 69 38 70 39 71 40 72 41 73 67 74 68 75 76 76 69 77
REMARK SMILES IDX 75 78 77 79 74 80 70 81 71 82 72 83 73 84 52 85 53 86 61 87
REMARK SMILES IDX 54 88 60 89 62 90 59 91 55 92 56 93 57 94 58 95
REMARK H PARENT 19 6 5 21 23 29 82 48 50 59
REMARK Flexibility Score: inf
ROOT
ATOM      1  C   UNL A   1      35.990  21.627  25.746  1.00  0.00     0.042 C 
ENDROOT
BRANCH   1   2
ATOM      2  C   UNL A   1      35.467  23.005  26.079  1.00  0.00     0.118 C 
BRANCH   2   3
ATOM      3  N   UNL A   1      34.425  23.102  27.071  1.00  0.00    -0.352 N 
ATOM      4  C   UNL A   1      33.064  22.968  26.912  1.00  0.00     0.251 C 
ATOM      5  O   UNL A   1      32.378  22.820  27.926  1.00  0.00    -0.269 OA
ATOM      6  H   UNL A   1      34.727  23.291  27.989  1.00  0.00     0.163 HD
BRANCH   4   7
ATOM      7  C   UNL A   1      32.360  23.191  25.616  1.00  0.00     0.048 A 
ATOM      8  C   UNL A   1      32.279  22.348  24.496  1.00  0.00     0.007 A 
ATOM      9  C   UNL A   1      31.682  22.817  23.309  1.00  0.00     0.010 A 
ATOM     10  C   UNL A   1      31.103  24.085  23.248  1.00  0.00     0.001 A 
ATOM     11  C   UNL A   1      31.732  24.456  25.541  1.00  0.00     0.014 A 
ATOM     12  C   UNL A   1      31.108  24.897  24.374  1.00  0.00     0.001 A 
BRANCH   8  13
ATOM     13  C   UNL A   1      32.822  20.976  24.397  1.00  0.00     0.143 C 
ATOM     14  N   UNL A   1      32.201  20.025  23.785  1.00  0.00    -0.169 NA
BRANCH  14  15
ATOM     15  N   UNL A   1      32.632  18.714  23.937  1.00  0.00    -0.146 N 
ATOM     16  C   UNL A   1      33.101  16.507  24.673  1.00  0.00     0.120 C 
ATOM     17  C   UNL A   1      34.588  16.306  24.959  1.00  0.00     0.045 C 
ATOM     18  N   UNL A   1      32.877  16.596  23.253  1.00  0.00    -0.322 N 
ATOM     19  C   UNL A   1      32.725  17.949  25.089  1.00  0.00     0.276 C 
ATOM     20  C   UNL A   1      32.664  17.891  22.825  1.00  0.00     0.346 C 
ATOM     21  H   UNL A   1      32.874  15.816  22.652  1.00  0.00     0.166 HD
ATOM     22  O   UNL A   1      32.583  18.302  26.255  1.00  0.00    -0.270 OA
ATOM     23  O   UNL A   1      32.425  18.174  21.661  1.00  0.00    -0.246 OA
BRANCH  16  24
ATOM     24  C   UNL A   1      32.211  15.463  25.364  1.00  0.00     0.035 C 
ATOM     25  C   UNL A   1      32.928  14.151  25.675  1.00  0.00     0.007 C 
ENDBRANCH  16  24
ENDBRANCH  14  15
ENDBRANCH   8  13
ENDBRANCH   4   7
ENDBRANCH   2   3
ENDBRANCH   1   2
BRANCH   1  26
ATOM     26  C   UNL A   1      37.295  21.613  24.961  1.00  0.00     0.118 C 
BRANCH  26  27
ATOM     27  N   UNL A   1      38.338  20.734  25.491  1.00  0.00    -0.352 N 
ATOM     28  C   UNL A   1      39.470  20.991  26.233  1.00  0.00     0.251 C 
ATOM     29  H   UNL A   1      38.206  19.782  25.279  1.00  0.00     0.163 HD
ATOM     30  O   UNL A   1      40.241  20.068  26.499  1.00  0.00    -0.269 OA
BRANCH  28  31
ATOM     31  C   UNL A   1      39.837  22.376  26.609  1.00  0.00     0.039 A 
ATOM     32  C   UNL A   1      40.815  22.555  27.591  1.00  0.00     0.014 A 
ATOM     33  C   UNL A   1      39.272  23.493  26.001  1.00  0.00     0.014 A 
ATOM     34  C   UNL A   1      41.350  23.814  27.841  1.00  0.00     0.010 A 
ATOM     35  C   UNL A   1      39.849  24.743  26.185  1.00  0.00     0.010 A 
ATOM     36  C   UNL A   1      40.898  24.908  27.102  1.00  0.00    -0.014 A 
BRANCH  36  37
ATOM     37  C   UNL A   1      41.368  26.274  27.410  1.00  0.00     0.031 A 
ATOM     38  C   UNL A   1      42.736  26.650  26.928  1.00  0.00     0.074 A 
ATOM     39  C   UNL A   1      40.599  27.127  28.111  1.00  0.00     0.049 A 
ATOM     40  N   UNL A   1      43.479  27.673  27.243  1.00  0.00    -0.248 NA
ATOM     41  C   UNL A   1      43.367  25.707  25.989  1.00  0.00     0.031 C 
ATOM     42  C   UNL A   1      39.230  26.861  28.559  1.00  0.00     0.029 A 
ATOM     43  N   UNL A   1      40.859  28.390  28.571  1.00  0.00    -0.354 N 
ATOM     44  C   UNL A   1      44.682  27.473  26.576  1.00  0.00     0.074 A 
ATOM     45  C   UNL A   1      44.584  26.209  25.882  1.00  0.00     0.031 C 
ATOM     46  C   UNL A   1      38.767  27.938  29.215  1.00  0.00     0.029 A 
ATOM     47  C   UNL A   1      39.826  28.938  29.298  1.00  0.00     0.049 A 
ATOM     48  H   UNL A   1      41.706  28.862  28.399  1.00  0.00     0.167 HD
ATOM     49  C   UNL A   1      45.765  28.285  26.546  1.00  0.00     0.034 A 
ATOM     50  C   UNL A   1      39.773  30.102  29.978  1.00  0.00     0.034 A 
ATOM     51  C   UNL A   1      45.805  29.545  27.242  1.00  0.00     0.049 A 
ATOM     52  C   UNL A   1      41.011  30.968  29.975  1.00  0.00     0.074 A 
ATOM     53  C   UNL A   1      46.836  30.460  27.324  1.00  0.00     0.029 A 
ATOM     54  N   UNL A   1      44.744  30.068  27.978  1.00  0.00    -0.354 N 
ATOM     55  N   UNL A   1      42.169  30.753  29.387  1.00  0.00    -0.248 NA
ATOM     56  C   UNL A   1      40.942  32.225  30.727  1.00  0.00     0.031 C 
ATOM     57  C   UNL A   1      46.421  31.504  28.160  1.00  0.00     0.029 A 
ATOM     58  C   UNL A   1      45.103  31.283  28.533  1.00  0.00     0.049 A 
ATOM     59  H   UNL A   1      43.868  29.635  28.089  1.00  0.00     0.167 HD
ATOM     60  C   UNL A   1      42.957  31.863  29.678  1.00  0.00     0.074 A 
ATOM     61  C   UNL A   1      42.132  32.751  30.477  1.00  0.00     0.031 C 
ATOM     62  C   UNL A   1      44.241  32.133  29.325  1.00  0.00     0.034 A 
BRANCH  49  63
ATOM     63  C   UNL A   1      46.980  27.779  25.804  1.00  0.00     0.023 A 
ATOM     64  C   UNL A   1      47.248  28.153  24.473  1.00  0.00     0.031 A 
ATOM     65  C   UNL A   1      47.824  26.824  26.397  1.00  0.00     0.131 A 
ATOM     66  C   UNL A   1      48.255  27.495  23.750  1.00  0.00     0.055 A 
ATOM     67  C   UNL A   1      48.888  26.245  25.701  1.00  0.00     0.041 A 
ATOM     68  F   UNL A   1      47.604  26.403  27.653  1.00  0.00    -0.206 F 
ATOM     69  C   UNL A   1      49.094  26.563  24.363  1.00  0.00     0.022 A 
BRANCH  66  70
ATOM     70  S   UNL A   1      48.326  27.735  21.952  1.00  0.00     0.124 S 
ATOM     71  O   UNL A   1      48.607  26.378  21.488  1.00  0.00    -0.237 OA
ATOM     72  O   UNL A   1      46.995  28.250  21.649  1.00  0.00    -0.237 OA
ATOM     73  O   UNL A   1      49.420  28.687  21.776  1.00  0.00    -0.744 OA
ENDBRANCH  66  70
ENDBRANCH  49  63
BRANCH  50  74
ATOM     74  C   UNL A   1      38.551  30.492  30.746  1.00  0.00     0.023 A 
ATOM     75  C   UNL A   1      37.507  31.210  30.140  1.00  0.00     0.031 A 
ATOM     76  C   UNL A   1      38.424  30.190  32.115  1.00  0.00     0.131 A 
ATOM     77  C   UNL A   1      36.406  31.636  30.905  1.00  0.00     0.055 A 
ATOM     78  C   UNL A   1      37.302  30.567  32.859  1.00  0.00     0.041 A 
ATOM     79  F   UNL A   1      39.390  29.510  32.754  1.00  0.00    -0.206 F 
ATOM     80  C   UNL A   1      36.290  31.305  32.256  1.00  0.00     0.022 A 
BRANCH  77  81
ATOM     81  S   UNL A   1      35.164  32.707  30.128  1.00  0.00     0.124 S 
ATOM     82  O   UNL A   1      34.285  33.006  31.251  1.00  0.00    -0.237 OA
ATOM     83  O   UNL A   1      35.981  33.812  29.638  1.00  0.00    -0.237 OA
ATOM     84  O   UNL A   1      34.582  31.857  29.090  1.00  0.00    -0.744 OA
ENDBRANCH  77  81
ENDBRANCH  50  74
BRANCH  62  85
ATOM     85  C   UNL A   1      44.798  33.463  29.764  1.00  0.00     0.023 A 
ATOM     86  C   UNL A   1      44.682  34.611  28.964  1.00  0.00     0.031 A 
ATOM     87  C   UNL A   1      45.447  33.577  31.005  1.00  0.00     0.131 A 
ATOM     88  C   UNL A   1      45.260  35.814  29.390  1.00  0.00     0.055 A 
ATOM     89  C   UNL A   1      45.959  34.792  31.455  1.00  0.00     0.041 A 
ATOM     90  F   UNL A   1      45.583  32.507  31.806  1.00  0.00    -0.206 F 
ATOM     91  C   UNL A   1      45.879  35.918  30.640  1.00  0.00     0.022 A 
BRANCH  88  92
ATOM     92  S   UNL A   1      45.279  37.219  28.245  1.00  0.00     0.124 S 
ATOM     93  O   UNL A   1      44.268  36.825  27.268  1.00  0.00    -0.237 OA
ATOM     94  O   UNL A   1      44.924  38.336  29.115  1.00  0.00    -0.237 OA
ATOM     95  O   UNL A   1      46.652  37.236  27.746  1.00  0.00    -0.744 OA
ENDBRANCH  88  92
ENDBRANCH  62  85
ENDBRANCH  36  37
ENDBRANCH  28  31
ENDBRANCH  26  27
ENDBRANCH   1  26
TORSDOF 16
ENDMDL
MODEL 3
REMARK VINA RESULT:     -12.2      5.245      9.862
REMARK SMILES CC[C@@]1(C)NC(=O)N(/N=C/c2ccccc2C(=O)NCCCNC(=O)c2ccc(-c3c4nc(c(-c5cc(S(=O)(=O)[O-])ccc5F)c5ccc([nH]5)c(-c5cc(S(=O)(=O)[O-])ccc5F)c5nc(c(-c6cc(S(=O)(=O)[O-])ccc6F)c6ccc3[nH]6)C=C5)C=C4)cc2)C1=O
REMARK SMILES IDX 21 1 20 2 19 3 17 4 18 5 16 7 11 8 12 9 13 10 15 11 14 12
REMARK SMILES IDX 10 13 9 14 8 15 3 16 4 17 5 18 89 19 6 20 90 22 7 23 2 24
REMARK SMILES IDX 1 25 22 26 23 27 24 28 25 30 26 31 27 32 88 33 28 34 87 35
REMARK SMILES IDX 29 36 30 37 31 38 81 39 32 40 86 41 80 42 82 43 33 44 85 45
REMARK SMILES IDX 79 46 78 47 34 49 66 50 46 51 65 52 47 53 50 54 64 55 83 56
REMARK SMILES IDX 48 57 49 58 63 60 84 61 51 62 35 63 36 64 44 65 37 66 43 67
REMARK SMILES IDX 45 68 42 69 38 70 39 71 40 72 41 73 67 74 68 75 76 76 69 77
REMARK SMILES IDX 75 78 77 79 74 80 70 81 71 82 72 83 73 84 52 85 53 86 61 87
REMARK SMILES IDX 54 88 60 89 62 90 59 91 55 92 56 93 57 94 58 95
REMARK H PARENT 19 6 5 21 23 29 82 48 50 59
REMARK Flexibility Score: inf
ROOT
ATOM      1  C   UNL A   1      35.476  23.059  25.121  1.00  0.00     0.042 C 
ENDROOT
BRANCH   1   2
ATOM      2  C   UNL A   1      34.587  24.213  25.522  1.00  0.00     0.118 C 
BRANCH   2   3
ATOM      3  N   UNL A   1      33.368  23.905  26.228  1.00  0.00    -0.352 N 
ATOM      4  C   UNL A   1      32.535  22.819  26.082  1.00  0.00     0.251 C 
ATOM      5  O   UNL A   1      31.698  22.613  26.964  1.00  0.00    -0.269 OA
ATOM      6  H   UNL A   1      33.094  24.561  26.909  1.00  0.00     0.163 HD
BRANCH   4   7
ATOM      7  C   UNL A   1      32.453  22.005  24.835  1.00  0.00     0.048 A 
ATOM      8  C   UNL A   1      32.055  22.398  23.546  1.00  0.00     0.007 A 
ATOM      9  C   UNL A   1      31.907  21.428  22.534  1.00  0.00     0.010 A 
ATOM     10  C   UNL A   1      32.219  20.089  22.771  1.00  0.00     0.001 A 
ATOM     11  C   UNL A   1      32.799  20.649  25.038  1.00  0.00     0.014 A 
ATOM     12  C   UNL A   1      32.687  19.703  24.019  1.00  0.00     0.001 A 
BRANCH   8  13
ATOM     13  C   UNL A   1      31.706  23.771  23.123  1.00  0.00     0.143 C 
ATOM     14  N   UNL A   1      32.547  24.748  23.172  1.00  0.00    -0.169 NA
BRANCH  14  15
ATOM     15  N   UNL A   1      32.097  26.050  23.001  1.00  0.00    -0.146 N 
ATOM     16  C   UNL A   1      31.255  28.255  23.252  1.00  0.00     0.120 C 
ATOM     17  C   UNL A   1      29.894  28.424  22.578  1.00  0.00     0.045 C 
ATOM     18  N   UNL A   1      32.291  28.153  22.256  1.00  0.00    -0.322 N 
ATOM     19  C   UNL A   1      31.320  26.827  23.845  1.00  0.00     0.276 C 
ATOM     20  C   UNL A   1      32.733  26.858  22.074  1.00  0.00     0.346 C 
ATOM     21  H   UNL A   1      32.647  28.925  21.759  1.00  0.00     0.166 HD
ATOM     22  O   UNL A   1      30.734  26.493  24.869  1.00  0.00    -0.270 OA
ATOM     23  O   UNL A   1      33.629  26.565  21.297  1.00  0.00    -0.246 OA
BRANCH  16  24
ATOM     24  C   UNL A   1      31.536  29.328  24.313  1.00  0.00     0.035 C 
ATOM     25  C   UNL A   1      32.956  29.283  24.874  1.00  0.00     0.007 C 
ENDBRANCH  16  24
ENDBRANCH  14  15
ENDBRANCH   8  13
ENDBRANCH   4   7
ENDBRANCH   2   3
ENDBRANCH   1   2
BRANCH   1  26
ATOM     26  C   UNL A   1      36.078  22.282  26.284  1.00  0.00     0.118 C 
BRANCH  26  27
ATOM     27  N   UNL A   1      37.120  21.320  25.925  1.00  0.00    -0.352 N 
ATOM     28  C   UNL A   1      38.495  21.380  25.998  1.00  0.00     0.251 C 
ATOM     29  H   UNL A   1      36.775  20.472  25.563  1.00  0.00     0.163 HD
ATOM     30  O   UNL A   1      39.165  20.446  25.557  1.00  0.00    -0.269 OA
BRANCH  28  31
ATOM     31  C   UNL A   1      39.179  22.600  26.487  1.00  0.00     0.039 A 
ATOM     32  C   UNL A   1      40.280  22.443  27.334  1.00  0.00     0.014 A 
ATOM     33  C   UNL A   1      38.788  23.881  26.109  1.00  0.00     0.014 A 
ATOM     34  C   UNL A   1      41.086  23.528  27.659  1.00  0.00     0.010 A 
ATOM     35  C   UNL A   1      39.628  24.959  26.362  1.00  0.00     0.010 A 
ATOM     36  C   UNL A   1      40.787  24.785  27.134  1.00  0.00    -0.014 A 
BRANCH  36  37
ATOM     37  C   UNL A   1      41.559  25.977  27.539  1.00  0.00     0.031 A 
ATOM     38  C   UNL A   1      40.868  26.969  28.423  1.00  0.00     0.074 A 
ATOM     39  C   UNL A   1      42.821  26.160  27.110  1.00  0.00     0.049 A 
ATOM     40  N   UNL A   1      41.213  28.186  28.740  1.00  0.00    -0.248 NA
ATOM     41  C   UNL A   1      39.582  26.534  28.994  1.00  0.00     0.031 C 
ATOM     42  C   UNL A   1      43.588  25.208  26.302  1.00  0.00     0.029 A 
ATOM     43  N   UNL A   1      43.682  27.210  27.293  1.00  0.00    -0.354 N 
ATOM     44  C   UNL A   1      40.164  28.677  29.509  1.00  0.00     0.074 A 
ATOM     45  C   UNL A   1      39.154  27.645  29.567  1.00  0.00     0.031 C 
ATOM     46  C   UNL A   1      44.812  25.715  26.074  1.00  0.00     0.029 A 
ATOM     47  C   UNL A   1      44.891  27.051  26.654  1.00  0.00     0.049 A 
ATOM     48  H   UNL A   1      43.456  28.004  27.829  1.00  0.00     0.167 HD
ATOM     49  C   UNL A   1      40.067  29.884  30.114  1.00  0.00     0.034 A 
ATOM     50  C   UNL A   1      45.921  27.914  26.531  1.00  0.00     0.034 A 
ATOM     51  C   UNL A   1      41.112  30.872  30.039  1.00  0.00     0.049 A 
ATOM     52  C   UNL A   1      45.770  29.275  27.171  1.00  0.00     0.074 A 
ATOM     53  C   UNL A   1      41.146  32.143  30.578  1.00  0.00     0.029 A 
ATOM     54  N   UNL A   1      42.322  30.684  29.376  1.00  0.00    -0.354 N 
ATOM     55  N   UNL A   1      44.755  29.759  27.854  1.00  0.00    -0.248 NA
ATOM     56  C   UNL A   1      46.893  30.206  27.021  1.00  0.00     0.031 C 
ATOM     57  C   UNL A   1      42.349  32.745  30.189  1.00  0.00     0.029 A 
ATOM     58  C   UNL A   1      43.102  31.822  29.476  1.00  0.00     0.049 A 
ATOM     59  H   UNL A   1      42.584  29.862  28.903  1.00  0.00     0.167 HD
ATOM     60  C   UNL A   1      45.129  31.044  28.238  1.00  0.00     0.074 A 
ATOM     61  C   UNL A   1      46.472  31.247  27.725  1.00  0.00     0.031 C 
ATOM     62  C   UNL A   1      44.438  31.975  28.945  1.00  0.00     0.034 A 
BRANCH  49  63
ATOM     63  C   UNL A   1      38.769  30.192  30.824  1.00  0.00     0.023 A 
ATOM     64  C   UNL A   1      37.721  30.885  30.189  1.00  0.00     0.031 A 
ATOM     65  C   UNL A   1      38.619  29.886  32.188  1.00  0.00     0.131 A 
ATOM     66  C   UNL A   1      36.629  31.344  30.941  1.00  0.00     0.055 A 
ATOM     67  C   UNL A   1      37.482  30.259  32.908  1.00  0.00     0.041 A 
ATOM     68  F   UNL A   1      39.596  29.252  32.858  1.00  0.00    -0.206 F 
ATOM     69  C   UNL A   1      36.489  31.012  32.290  1.00  0.00     0.022 A 
BRANCH  66  70
ATOM     70  S   UNL A   1      35.494  32.538  30.179  1.00  0.00     0.124 S 
ATOM     71  O   UNL A   1      34.389  32.543  31.136  1.00  0.00    -0.237 OA
ATOM     72  O   UNL A   1      36.300  33.752  30.129  1.00  0.00    -0.237 OA
ATOM     73  O   UNL A   1      35.184  31.938  28.883  1.00  0.00    -0.744 OA
ENDBRANCH  66  70
ENDBRANCH  49  63
BRANCH  50  74
ATOM     74  C   UNL A   1      47.143  27.551  25.749  1.00  0.00     0.023 A 
ATOM     75  C   UNL A   1      47.253  27.860  24.383  1.00  0.00     0.031 A 
ATOM     76  C   UNL A   1      48.206  26.848  26.346  1.00  0.00     0.131 A 
ATOM     77  C   UNL A   1      48.376  27.435  23.653  1.00  0.00     0.055 A 
ATOM     78  C   UNL A   1      49.346  26.476  25.628  1.00  0.00     0.041 A 
ATOM     79  F   UNL A   1      48.159  26.518  27.646  1.00  0.00    -0.206 F 
ATOM     80  C   UNL A   1      49.430  26.759  24.270  1.00  0.00     0.022 A 
BRANCH  77  81
ATOM     81  S   UNL A   1      48.404  27.702  21.857  1.00  0.00     0.124 S 
ATOM     82  O   UNL A   1      47.076  28.256  21.619  1.00  0.00    -0.237 OA
ATOM     83  O   UNL A   1      49.523  28.625  21.706  1.00  0.00    -0.237 OA
ATOM     84  O   UNL A   1      48.626  26.362  21.317  1.00  0.00    -0.744 OA
ENDBRANCH  77  81
ENDBRANCH  50  74
BRANCH  62  85
ATOM     85  C   UNL A   1      45.154  33.269  29.240  1.00  0.00     0.023 A 
ATOM     86  C   UNL A   1      45.136  34.344  28.338  1.00  0.00     0.031 A 
ATOM     87  C   UNL A   1      45.857  33.422  30.448  1.00  0.00     0.131 A 
ATOM     88  C   UNL A   1      45.858  35.508  28.631  1.00  0.00     0.055 A 
ATOM     89  C   UNL A   1      46.515  34.609  30.765  1.00  0.00     0.041 A 
ATOM     90  F   UNL A   1      45.904  32.422  31.343  1.00  0.00    -0.206 F 
ATOM     91  C   UNL A   1      46.529  35.657  29.849  1.00  0.00     0.022 A 
BRANCH  88  92
ATOM     92  S   UNL A   1      45.988  36.791  27.357  1.00  0.00     0.124 S 
ATOM     93  O   UNL A   1      46.006  35.998  26.132  1.00  0.00    -0.237 OA
ATOM     94  O   UNL A   1      44.785  37.583  27.586  1.00  0.00    -0.237 OA
ATOM     95  O   UNL A   1      47.245  37.465  27.678  1.00  0.00    -0.744 OA
ENDBRANCH  88  92
ENDBRANCH  62  85
ENDBRANCH  36  37
ENDBRANCH  28  31
ENDBRANCH  26  27
ENDBRANCH   1  26
TORSDOF 16
ENDMDL
