MODEL 1
REMARK VINA RESULT:     -12.4      0.000      0.000
REMARK SMILES O=C(NCCCNC(=O)[C@@H]1CCC[N@@H+](Cc2ccc(F)cc2Cl)C1)c1ccc(-c2c3nc(c(-c4cc(S(=O)(=O)[O-])ccc4F)c4ccc([nH]4)c(-c4cc(S(=O)(=O)[O-])ccc4F)c4nc(c(-c5cc(S(=O)(=O)[O-])ccc5F)c5ccc2[nH]5)C=C4)C=C3)cc1
REMARK SMILES IDX 4 1 3 2 1 3 2 4 25 6 26 7 87 8 27 9 86 10 28 11 29 12 30 13
REMARK SMILES IDX 80 14 31 15 85 16 79 17 81 18 32 19 84 20 78 21 77 22 33 24
REMARK SMILES IDX 65 25 45 26 64 27 46 28 49 29 63 30 82 31 47 32 48 33 62 35
REMARK SMILES IDX 83 36 50 37 34 38 35 39 43 40 36 41 42 42 44 43 41 44 37 45
REMARK SMILES IDX 38 46 39 47 40 48 66 49 67 50 75 51 68 52 74 53 76 54 73 55
REMARK SMILES IDX 69 56 70 57 71 58 72 59 51 60 52 61 60 62 53 63 59 64 61 65
REMARK SMILES IDX 58 66 54 67 55 68 56 69 57 70 5 71 6 72 7 73 8 74 9 76 10 77
REMARK SMILES IDX 11 78 24 79 12 80 14 81 13 82 15 84 16 85 17 86 22 87 18 88
REMARK SMILES IDX 21 89 23 90 19 91 20 92
REMARK H PARENT 3 5 81 23 49 34 7 75 14 83
REMARK Flexibility Score: inf
ROOT
ATOM      1  C   UNL A   1      32.662  32.393  27.257  1.00  0.00     0.118 C 
ENDROOT
BRANCH   1   2
ATOM      2  N   UNL A   1      32.486  33.790  27.624  1.00  0.00    -0.352 N 
ATOM      3  O   UNL A   1      32.729  35.652  28.865  1.00  0.00    -0.269 OA
ATOM      4  C   UNL A   1      33.140  34.530  28.580  1.00  0.00     0.251 C 
ATOM      5  H   UNL A   1      31.800  34.277  27.113  1.00  0.00     0.163 HD
BRANCH   4   6
ATOM      6  C   UNL A   1      34.321  33.968  29.269  1.00  0.00     0.039 A 
ATOM      7  C   UNL A   1      34.163  33.094  30.349  1.00  0.00     0.014 A 
ATOM      8  C   UNL A   1      35.600  34.293  28.811  1.00  0.00     0.014 A 
ATOM      9  C   UNL A   1      35.278  32.652  31.050  1.00  0.00     0.010 A 
ATOM     10  C   UNL A   1      36.723  33.769  29.459  1.00  0.00     0.010 A 
ATOM     11  C   UNL A   1      36.569  32.955  30.591  1.00  0.00    -0.014 A 
BRANCH  11  12
ATOM     12  C   UNL A   1      37.732  32.298  31.237  1.00  0.00     0.031 A 
ATOM     13  C   UNL A   1      38.470  31.177  30.565  1.00  0.00     0.074 A 
ATOM     14  C   UNL A   1      38.113  32.745  32.451  1.00  0.00     0.049 A 
ATOM     15  N   UNL A   1      39.493  30.491  31.004  1.00  0.00    -0.248 NA
ATOM     16  C   UNL A   1      37.998  30.765  29.234  1.00  0.00     0.031 C 
ATOM     17  C   UNL A   1      37.452  33.825  33.193  1.00  0.00     0.029 A 
ATOM     18  N   UNL A   1      39.139  32.363  33.274  1.00  0.00    -0.354 N 
ATOM     19  C   UNL A   1      39.780  29.554  30.018  1.00  0.00     0.074 A 
ATOM     20  C   UNL A   1      38.809  29.750  28.961  1.00  0.00     0.031 C 
ATOM     21  C   UNL A   1      38.108  34.037  34.342  1.00  0.00     0.029 A 
ATOM     22  C   UNL A   1      39.182  33.061  34.459  1.00  0.00     0.049 A 
ATOM     23  H   UNL A   1      39.784  31.656  33.040  1.00  0.00     0.167 HD
ATOM     24  C   UNL A   1      40.763  28.621  30.006  1.00  0.00     0.034 A 
ATOM     25  C   UNL A   1      39.972  32.908  35.539  1.00  0.00     0.034 A 
ATOM     26  C   UNL A   1      41.726  28.456  31.069  1.00  0.00     0.049 A 
ATOM     27  C   UNL A   1      41.023  31.833  35.509  1.00  0.00     0.074 A 
ATOM     28  C   UNL A   1      42.810  27.595  31.121  1.00  0.00     0.029 A 
ATOM     29  N   UNL A   1      41.713  29.147  32.273  1.00  0.00    -0.354 N 
ATOM     30  N   UNL A   1      41.314  30.993  34.541  1.00  0.00    -0.248 NA
ATOM     31  C   UNL A   1      41.848  31.681  36.712  1.00  0.00     0.031 C 
ATOM     32  C   UNL A   1      43.404  27.712  32.383  1.00  0.00     0.029 A 
ATOM     33  C   UNL A   1      42.737  28.697  33.093  1.00  0.00     0.049 A 
ATOM     34  H   UNL A   1      41.070  29.854  32.511  1.00  0.00     0.167 HD
ATOM     35  C   UNL A   1      42.365  30.219  35.019  1.00  0.00     0.074 A 
ATOM     36  C   UNL A   1      42.676  30.715  36.345  1.00  0.00     0.031 C 
ATOM     37  C   UNL A   1      43.012  29.187  34.422  1.00  0.00     0.034 A 
BRANCH  24  38
ATOM     38  C   UNL A   1      40.827  27.670  28.837  1.00  0.00     0.023 A 
ATOM     39  C   UNL A   1      41.769  27.817  27.805  1.00  0.00     0.031 A 
ATOM     40  C   UNL A   1      39.951  26.571  28.781  1.00  0.00     0.131 A 
ATOM     41  C   UNL A   1      41.792  26.897  26.743  1.00  0.00     0.055 A 
ATOM     42  C   UNL A   1      40.017  25.627  27.754  1.00  0.00     0.041 A 
ATOM     43  F   UNL A   1      39.019  26.392  29.730  1.00  0.00    -0.206 F 
ATOM     44  C   UNL A   1      40.937  25.790  26.724  1.00  0.00     0.022 A 
BRANCH  41  45
ATOM     45  S   UNL A   1      42.900  27.207  25.342  1.00  0.00     0.124 S 
ATOM     46  O   UNL A   1      42.861  25.924  24.644  1.00  0.00    -0.237 OA
ATOM     47  O   UNL A   1      42.250  28.322  24.664  1.00  0.00    -0.237 OA
ATOM     48  O   UNL A   1      44.178  27.523  25.977  1.00  0.00    -0.744 OA
ENDBRANCH  41  45
ENDBRANCH  24  38
BRANCH  25  49
ATOM     49  C   UNL A   1      39.758  33.741  36.757  1.00  0.00     0.023 A 
ATOM     50  C   UNL A   1      39.176  33.200  37.913  1.00  0.00     0.031 A 
ATOM     51  C   UNL A   1      40.083  35.111  36.761  1.00  0.00     0.131 A 
ATOM     52  C   UNL A   1      38.888  34.034  39.004  1.00  0.00     0.055 A 
ATOM     53  C   UNL A   1      39.854  35.921  37.873  1.00  0.00     0.041 A 
ATOM     54  F   UNL A   1      40.642  35.680  35.680  1.00  0.00    -0.206 F 
ATOM     55  C   UNL A   1      39.236  35.387  38.998  1.00  0.00     0.022 A 
BRANCH  52  56
ATOM     56  S   UNL A   1      37.940  33.348  40.390  1.00  0.00     0.124 S 
ATOM     57  O   UNL A   1      37.882  34.484  41.302  1.00  0.00    -0.237 OA
ATOM     58  O   UNL A   1      36.685  32.981  39.742  1.00  0.00    -0.237 OA
ATOM     59  O   UNL A   1      38.760  32.226  40.840  1.00  0.00    -0.744 OA
ENDBRANCH  52  56
ENDBRANCH  25  49
BRANCH  37  60
ATOM     60  C   UNL A   1      44.127  28.546  35.209  1.00  0.00     0.023 A 
ATOM     61  C   UNL A   1      43.862  27.579  36.194  1.00  0.00     0.031 A 
ATOM     62  C   UNL A   1      45.461  28.931  34.997  1.00  0.00     0.131 A 
ATOM     63  C   UNL A   1      44.913  27.069  36.970  1.00  0.00     0.055 A 
ATOM     64  C   UNL A   1      46.509  28.376  35.731  1.00  0.00     0.041 A 
ATOM     65  F   UNL A   1      45.767  29.856  34.072  1.00  0.00    -0.206 F 
ATOM     66  C   UNL A   1      46.236  27.449  36.733  1.00  0.00     0.022 A 
BRANCH  63  67
ATOM     67  S   UNL A   1      44.515  25.968  38.354  1.00  0.00     0.124 S 
ATOM     68  O   UNL A   1      45.471  26.397  39.369  1.00  0.00    -0.237 OA
ATOM     69  O   UNL A   1      43.116  26.289  38.619  1.00  0.00    -0.237 OA
ATOM     70  O   UNL A   1      44.748  24.632  37.806  1.00  0.00    -0.744 OA
ENDBRANCH  63  67
ENDBRANCH  37  60
ENDBRANCH  11  12
ENDBRANCH   4   6
ENDBRANCH   1   2
BRANCH   1  71
ATOM     71  C   UNL A   1      31.507  31.852  26.430  1.00  0.00     0.042 C 
BRANCH  71  72
ATOM     72  C   UNL A   1      31.727  30.443  25.910  1.00  0.00     0.117 C 
BRANCH  72  73
ATOM     73  N   UNL A   1      31.688  29.449  26.966  1.00  0.00    -0.356 N 
ATOM     74  C   UNL A   1      31.721  28.088  26.902  1.00  0.00     0.228 C 
ATOM     75  H   UNL A   1      31.627  29.818  27.877  1.00  0.00     0.163 HD
ATOM     76  O   UNL A   1      31.508  27.468  27.944  1.00  0.00    -0.275 OA
BRANCH  74  77
ATOM     77  C   UNL A   1      31.967  27.404  25.562  1.00  0.00     0.133 C 
ATOM     78  C   UNL A   1      30.670  27.174  24.775  1.00  0.00     0.025 C 
ATOM     79  C   UNL A   1      32.721  26.076  25.710  1.00  0.00     0.276 C 
ATOM     80  C   UNL A   1      29.859  26.005  25.335  1.00  0.00     0.062 C 
ATOM     81  N   UNL A   1      31.918  24.984  26.267  1.00  0.00    -0.330 N 
ATOM     82  C   UNL A   1      30.704  24.740  25.487  1.00  0.00     0.262 C 
ATOM     83  H   UNL A   1      31.601  25.297  27.185  1.00  0.00     0.348 HD
BRANCH  81  84
ATOM     84  C   UNL A   1      32.705  23.765  26.542  1.00  0.00     0.300 C 
BRANCH  84  85
ATOM     85  C   UNL A   1      33.852  23.486  25.586  1.00  0.00     0.025 A 
ATOM     86  C   UNL A   1      35.148  23.929  25.925  1.00  0.00     0.014 A 
ATOM     87  C   UNL A   1      33.671  22.858  24.340  1.00  0.00     0.052 A 
ATOM     88  C   UNL A   1      36.201  23.832  25.017  1.00  0.00     0.040 A 
ATOM     89  C   UNL A   1      34.731  22.749  23.437  1.00  0.00     0.060 A 
ATOM     90  Cl  UNL A   1      32.154  22.191  23.849  1.00  0.00    -0.084 Cl
ATOM     91  C   UNL A   1      35.978  23.254  23.776  1.00  0.00     0.124 A 
ATOM     92  F   UNL A   1      36.980  23.181  22.892  1.00  0.00    -0.207 F 
ENDBRANCH  84  85
ENDBRANCH  81  84
ENDBRANCH  74  77
ENDBRANCH  72  73
ENDBRANCH  71  72
ENDBRANCH   1  71
TORSDOF 15
ENDMDL
MODEL 2
REMARK VINA RESULT:     -12.3      1.350      1.576
REMARK SMILES O=C(NCCCNC(=O)[C@@H]1CCC[N@@H+](Cc2ccc(F)cc2Cl)C1)c1ccc(-c2c3nc(c(-c4cc(S(=O)(=O)[O-])ccc4F)c4ccc([nH]4)c(-c4cc(S(=O)(=O)[O-])ccc4F)c4nc(c(-c5cc(S(=O)(=O)[O-])ccc5F)c5ccc2[nH]5)C=C4)C=C3)cc1
REMARK SMILES IDX 4 1 3 2 1 3 2 4 25 6 26 7 87 8 27 9 86 10 28 11 29 12 30 13
REMARK SMILES IDX 80 14 31 15 85 16 79 17 81 18 32 19 84 20 78 21 77 22 33 24
REMARK SMILES IDX 65 25 45 26 64 27 46 28 49 29 63 30 82 31 47 32 48 33 62 35
REMARK SMILES IDX 83 36 50 37 34 38 35 39 43 40 36 41 42 42 44 43 41 44 37 45
REMARK SMILES IDX 38 46 39 47 40 48 66 49 67 50 75 51 68 52 74 53 76 54 73 55
REMARK SMILES IDX 69 56 70 57 71 58 72 59 51 60 52 61 60 62 53 63 59 64 61 65
REMARK SMILES IDX 58 66 54 67 55 68 56 69 57 70 5 71 6 72 7 73 8 74 9 76 10 77
REMARK SMILES IDX 11 78 24 79 12 80 14 81 13 82 15 84 16 85 17 86 22 87 18 88
REMARK SMILES IDX 21 89 23 90 19 91 20 92
REMARK H PARENT 3 5 81 23 49 34 7 75 14 83
REMARK Flexibility Score: inf
ROOT
ATOM      1  C   UNL A   1      32.816  32.767  27.103  1.00  0.00     0.118 C 
ENDROOT
BRANCH   1   2
ATOM      2  N   UNL A   1      32.536  34.096  27.627  1.00  0.00    -0.352 N 
ATOM      3  O   UNL A   1      32.598  35.797  29.099  1.00  0.00    -0.269 OA
ATOM      4  C   UNL A   1      33.091  34.744  28.704  1.00  0.00     0.251 C 
ATOM      5  H   UNL A   1      31.848  34.605  27.140  1.00  0.00     0.163 HD
BRANCH   4   6
ATOM      6  C   UNL A   1      34.267  34.165  29.388  1.00  0.00     0.039 A 
ATOM      7  C   UNL A   1      34.102  33.275  30.453  1.00  0.00     0.014 A 
ATOM      8  C   UNL A   1      35.550  34.491  28.938  1.00  0.00     0.014 A 
ATOM      9  C   UNL A   1      35.212  32.817  31.151  1.00  0.00     0.010 A 
ATOM     10  C   UNL A   1      36.668  33.951  29.581  1.00  0.00     0.010 A 
ATOM     11  C   UNL A   1      36.506  33.120  30.700  1.00  0.00    -0.014 A 
BRANCH  11  12
ATOM     12  C   UNL A   1      37.664  32.448  31.340  1.00  0.00     0.031 A 
ATOM     13  C   UNL A   1      38.388  31.322  30.660  1.00  0.00     0.074 A 
ATOM     14  C   UNL A   1      38.053  32.884  32.555  1.00  0.00     0.049 A 
ATOM     15  N   UNL A   1      39.404  30.623  31.092  1.00  0.00    -0.248 NA
ATOM     16  C   UNL A   1      37.907  30.921  29.328  1.00  0.00     0.031 C 
ATOM     17  C   UNL A   1      37.407  33.968  33.304  1.00  0.00     0.029 A 
ATOM     18  N   UNL A   1      39.078  32.486  33.373  1.00  0.00    -0.354 N 
ATOM     19  C   UNL A   1      39.679  29.688  30.101  1.00  0.00     0.074 A 
ATOM     20  C   UNL A   1      38.707  29.899  29.048  1.00  0.00     0.031 C 
ATOM     21  C   UNL A   1      38.068  34.167  34.452  1.00  0.00     0.029 A 
ATOM     22  C   UNL A   1      39.131  33.179  34.561  1.00  0.00     0.049 A 
ATOM     23  H   UNL A   1      39.714  31.774  33.133  1.00  0.00     0.167 HD
ATOM     24  C   UNL A   1      40.651  28.744  30.081  1.00  0.00     0.034 A 
ATOM     25  C   UNL A   1      39.923  33.011  35.638  1.00  0.00     0.034 A 
ATOM     26  C   UNL A   1      41.616  28.563  31.140  1.00  0.00     0.049 A 
ATOM     27  C   UNL A   1      40.962  31.925  35.599  1.00  0.00     0.074 A 
ATOM     28  C   UNL A   1      42.690  27.691  31.185  1.00  0.00     0.029 A 
ATOM     29  N   UNL A   1      41.613  29.248  32.348  1.00  0.00    -0.354 N 
ATOM     30  N   UNL A   1      41.241  31.087  34.626  1.00  0.00    -0.248 NA
ATOM     31  C   UNL A   1      41.789  31.758  36.799  1.00  0.00     0.031 C 
ATOM     32  C   UNL A   1      43.289  27.794  32.445  1.00  0.00     0.029 A 
ATOM     33  C   UNL A   1      42.635  28.783  33.163  1.00  0.00     0.049 A 
ATOM     34  H   UNL A   1      40.979  29.961  32.592  1.00  0.00     0.167 HD
ATOM     35  C   UNL A   1      42.285  30.299  35.098  1.00  0.00     0.074 A 
ATOM     36  C   UNL A   1      42.606  30.785  36.425  1.00  0.00     0.031 C 
ATOM     37  C   UNL A   1      42.919  29.263  34.494  1.00  0.00     0.034 A 
BRANCH  24  38
ATOM     38  C   UNL A   1      40.702  27.799  28.907  1.00  0.00     0.023 A 
ATOM     39  C   UNL A   1      41.637  27.945  27.869  1.00  0.00     0.031 A 
ATOM     40  C   UNL A   1      39.819  26.704  28.852  1.00  0.00     0.131 A 
ATOM     41  C   UNL A   1      41.647  27.031  26.803  1.00  0.00     0.055 A 
ATOM     42  C   UNL A   1      39.873  25.765  27.820  1.00  0.00     0.041 A 
ATOM     43  F   UNL A   1      38.893  26.526  29.807  1.00  0.00    -0.206 F 
ATOM     44  C   UNL A   1      40.786  25.928  26.784  1.00  0.00     0.022 A 
BRANCH  41  45
ATOM     45  S   UNL A   1      42.747  27.341  25.395  1.00  0.00     0.124 S 
ATOM     46  O   UNL A   1      44.017  27.611  26.066  1.00  0.00    -0.237 OA
ATOM     47  O   UNL A   1      42.672  26.089  24.653  1.00  0.00    -0.237 OA
ATOM     48  O   UNL A   1      42.143  28.496  24.734  1.00  0.00    -0.744 OA
ENDBRANCH  41  45
ENDBRANCH  24  38
BRANCH  25  49
ATOM     49  C   UNL A   1      39.721  33.840  36.860  1.00  0.00     0.023 A 
ATOM     50  C   UNL A   1      40.552  34.935  37.140  1.00  0.00     0.031 A 
ATOM     51  C   UNL A   1      38.723  33.513  37.798  1.00  0.00     0.131 A 
ATOM     52  C   UNL A   1      40.406  35.630  38.350  1.00  0.00     0.055 A 
ATOM     53  C   UNL A   1      38.540  34.248  38.970  1.00  0.00     0.041 A 
ATOM     54  F   UNL A   1      37.900  32.475  37.580  1.00  0.00    -0.206 F 
ATOM     55  C   UNL A   1      39.397  35.303  39.260  1.00  0.00     0.022 A 
BRANCH  52  56
ATOM     56  S   UNL A   1      41.634  36.895  38.775  1.00  0.00     0.124 S 
ATOM     57  O   UNL A   1      40.787  38.000  39.207  1.00  0.00    -0.237 OA
ATOM     58  O   UNL A   1      42.402  36.228  39.821  1.00  0.00    -0.237 OA
ATOM     59  O   UNL A   1      42.349  37.110  37.519  1.00  0.00    -0.744 OA
ENDBRANCH  52  56
ENDBRANCH  25  49
BRANCH  37  60
ATOM     60  C   UNL A   1      44.029  28.607  35.274  1.00  0.00     0.023 A 
ATOM     61  C   UNL A   1      43.778  27.511  36.118  1.00  0.00     0.031 A 
ATOM     62  C   UNL A   1      45.342  29.102  35.199  1.00  0.00     0.131 A 
ATOM     63  C   UNL A   1      44.816  26.981  36.899  1.00  0.00     0.055 A 
ATOM     64  C   UNL A   1      46.382  28.531  35.933  1.00  0.00     0.041 A 
ATOM     65  F   UNL A   1      45.633  30.150  34.412  1.00  0.00    -0.206 F 
ATOM     66  C   UNL A   1      46.119  27.473  36.798  1.00  0.00     0.022 A 
BRANCH  63  67
ATOM     67  S   UNL A   1      44.418  25.695  38.114  1.00  0.00     0.124 S 
ATOM     68  O   UNL A   1      45.719  25.075  38.336  1.00  0.00    -0.237 OA
ATOM     69  O   UNL A   1      43.881  26.471  39.227  1.00  0.00    -0.237 OA
ATOM     70  O   UNL A   1      43.442  24.857  37.418  1.00  0.00    -0.744 OA
ENDBRANCH  63  67
ENDBRANCH  37  60
ENDBRANCH  11  12
ENDBRANCH   4   6
ENDBRANCH   1   2
BRANCH   1  71
ATOM     71  C   UNL A   1      31.554  31.973  26.807  1.00  0.00     0.042 C 
BRANCH  71  72
ATOM     72  C   UNL A   1      31.814  30.605  26.201  1.00  0.00     0.117 C 
BRANCH  72  73
ATOM     73  N   UNL A   1      31.680  29.534  27.172  1.00  0.00    -0.356 N 
ATOM     74  C   UNL A   1      31.758  28.183  27.014  1.00  0.00     0.228 C 
ATOM     75  H   UNL A   1      31.504  29.833  28.094  1.00  0.00     0.163 HD
ATOM     76  O   UNL A   1      31.443  27.483  27.977  1.00  0.00    -0.275 OA
BRANCH  74  77
ATOM     77  C   UNL A   1      32.176  27.606  25.666  1.00  0.00     0.133 C 
ATOM     78  C   UNL A   1      31.001  27.500  24.685  1.00  0.00     0.025 C 
ATOM     79  C   UNL A   1      32.860  26.238  25.800  1.00  0.00     0.276 C 
ATOM     80  C   UNL A   1      30.082  26.324  25.016  1.00  0.00     0.062 C 
ATOM     81  N   UNL A   1      31.950  25.139  26.135  1.00  0.00    -0.330 N 
ATOM     82  C   UNL A   1      30.857  25.015  25.171  1.00  0.00     0.262 C 
ATOM     83  H   UNL A   1      31.513  25.386  27.023  1.00  0.00     0.348 HD
BRANCH  81  84
ATOM     84  C   UNL A   1      32.651  23.868  26.409  1.00  0.00     0.300 C 
BRANCH  84  85
ATOM     85  C   UNL A   1      33.812  23.538  25.485  1.00  0.00     0.025 A 
ATOM     86  C   UNL A   1      35.109  23.966  25.839  1.00  0.00     0.014 A 
ATOM     87  C   UNL A   1      33.644  22.878  24.255  1.00  0.00     0.052 A 
ATOM     88  C   UNL A   1      36.179  23.822  24.957  1.00  0.00     0.040 A 
ATOM     89  C   UNL A   1      34.720  22.721  23.378  1.00  0.00     0.060 A 
ATOM     90  Cl  UNL A   1      32.125  22.226  23.750  1.00  0.00    -0.084 Cl
ATOM     91  C   UNL A   1      35.969  23.212  23.729  1.00  0.00     0.124 A 
ATOM     92  F   UNL A   1      36.989  23.094  22.868  1.00  0.00    -0.207 F 
ENDBRANCH  84  85
ENDBRANCH  81  84
ENDBRANCH  74  77
ENDBRANCH  72  73
ENDBRANCH  71  72
ENDBRANCH   1  71
TORSDOF 15
ENDMDL
MODEL 3
REMARK VINA RESULT:     -12.3      5.739     11.702
REMARK SMILES O=C(NCCCNC(=O)[C@@H]1CCC[N@@H+](Cc2ccc(F)cc2Cl)C1)c1ccc(-c2c3nc(c(-c4cc(S(=O)(=O)[O-])ccc4F)c4ccc([nH]4)c(-c4cc(S(=O)(=O)[O-])ccc4F)c4nc(c(-c5cc(S(=O)(=O)[O-])ccc5F)c5ccc2[nH]5)C=C4)C=C3)cc1
REMARK SMILES IDX 4 1 3 2 1 3 2 4 25 6 26 7 87 8 27 9 86 10 28 11 29 12 30 13
REMARK SMILES IDX 80 14 31 15 85 16 79 17 81 18 32 19 84 20 78 21 77 22 33 24
REMARK SMILES IDX 65 25 45 26 64 27 46 28 49 29 63 30 82 31 47 32 48 33 62 35
REMARK SMILES IDX 83 36 50 37 34 38 35 39 43 40 36 41 42 42 44 43 41 44 37 45
REMARK SMILES IDX 38 46 39 47 40 48 66 49 67 50 75 51 68 52 74 53 76 54 73 55
REMARK SMILES IDX 69 56 70 57 71 58 72 59 51 60 52 61 60 62 53 63 59 64 61 65
REMARK SMILES IDX 58 66 54 67 55 68 56 69 57 70 5 71 6 72 7 73 8 74 9 76 10 77
REMARK SMILES IDX 11 78 24 79 12 80 14 81 13 82 15 84 16 85 17 86 22 87 18 88
REMARK SMILES IDX 21 89 23 90 19 91 20 92
REMARK H PARENT 3 5 81 23 49 34 7 75 14 83
REMARK Flexibility Score: inf
ROOT
ATOM      1  C   UNL A   1      39.137  20.260  25.696  1.00  0.00     0.118 C 
ENDROOT
BRANCH   1   2
ATOM      2  N   UNL A   1      40.175  19.258  25.893  1.00  0.00    -0.352 N 
ATOM      3  O   UNL A   1      42.267  18.457  26.103  1.00  0.00    -0.269 OA
ATOM      4  C   UNL A   1      41.516  19.428  26.141  1.00  0.00     0.251 C 
ATOM      5  H   UNL A   1      39.872  18.323  25.843  1.00  0.00     0.163 HD
BRANCH   4   6
ATOM      6  C   UNL A   1      42.047  20.775  26.437  1.00  0.00     0.039 A 
ATOM      7  C   UNL A   1      42.281  21.688  25.405  1.00  0.00     0.014 A 
ATOM      8  C   UNL A   1      42.285  21.141  27.765  1.00  0.00     0.014 A 
ATOM      9  C   UNL A   1      42.873  22.913  25.684  1.00  0.00     0.010 A 
ATOM     10  C   UNL A   1      42.792  22.412  28.053  1.00  0.00     0.010 A 
ATOM     11  C   UNL A   1      43.101  23.302  27.013  1.00  0.00    -0.014 A 
BRANCH  11  12
ATOM     12  C   UNL A   1      43.539  24.693  27.289  1.00  0.00     0.031 A 
ATOM     13  C   UNL A   1      42.585  25.723  27.820  1.00  0.00     0.074 A 
ATOM     14  C   UNL A   1      44.829  25.005  27.052  1.00  0.00     0.049 A 
ATOM     15  N   UNL A   1      42.809  26.981  28.095  1.00  0.00    -0.248 NA
ATOM     16  C   UNL A   1      41.200  25.292  28.066  1.00  0.00     0.031 C 
ATOM     17  C   UNL A   1      45.835  24.074  26.524  1.00  0.00     0.029 A 
ATOM     18  N   UNL A   1      45.523  26.174  27.222  1.00  0.00    -0.354 N 
ATOM     19  C   UNL A   1      41.596  27.502  28.531  1.00  0.00     0.074 A 
ATOM     20  C   UNL A   1      40.632  26.423  28.467  1.00  0.00     0.031 C 
ATOM     21  C   UNL A   1      47.017  24.699  26.446  1.00  0.00     0.029 A 
ATOM     22  C   UNL A   1      46.842  26.091  26.838  1.00  0.00     0.049 A 
ATOM     23  H   UNL A   1      45.117  26.994  27.585  1.00  0.00     0.167 HD
ATOM     24  C   UNL A   1      41.322  28.763  28.941  1.00  0.00     0.034 A 
ATOM     25  C   UNL A   1      47.796  27.039  26.769  1.00  0.00     0.034 A 
ATOM     26  C   UNL A   1      42.306  29.818  29.008  1.00  0.00     0.049 A 
ATOM     27  C   UNL A   1      47.445  28.439  27.191  1.00  0.00     0.074 A 
ATOM     28  C   UNL A   1      42.152  31.109  29.485  1.00  0.00     0.029 A 
ATOM     29  N   UNL A   1      43.619  29.713  28.568  1.00  0.00    -0.354 N 
ATOM     30  N   UNL A   1      46.303  28.897  27.653  1.00  0.00    -0.248 NA
ATOM     31  C   UNL A   1      48.503  29.448  27.080  1.00  0.00     0.031 C 
ATOM     32  C   UNL A   1      43.346  31.805  29.262  1.00  0.00     0.029 A 
ATOM     33  C   UNL A   1      44.270  30.929  28.715  1.00  0.00     0.049 A 
ATOM     34  H   UNL A   1      44.029  28.895  28.204  1.00  0.00     0.167 HD
ATOM     35  C   UNL A   1      46.513  30.250  27.897  1.00  0.00     0.074 A 
ATOM     36  C   UNL A   1      47.897  30.522  27.562  1.00  0.00     0.031 C 
ATOM     37  C   UNL A   1      45.642  31.186  28.349  1.00  0.00     0.034 A 
BRANCH  24  38
ATOM     38  C   UNL A   1      39.897  29.099  29.308  1.00  0.00     0.023 A 
ATOM     39  C   UNL A   1      39.474  29.207  30.643  1.00  0.00     0.031 A 
ATOM     40  C   UNL A   1      38.957  29.357  28.294  1.00  0.00     0.131 A 
ATOM     41  C   UNL A   1      38.138  29.531  30.929  1.00  0.00     0.055 A 
ATOM     42  C   UNL A   1      37.645  29.737  28.584  1.00  0.00     0.041 A 
ATOM     43  F   UNL A   1      39.301  29.250  27.001  1.00  0.00    -0.206 F 
ATOM     44  C   UNL A   1      37.227  29.820  29.908  1.00  0.00     0.022 A 
BRANCH  41  45
ATOM     45  S   UNL A   1      37.580  29.496  32.654  1.00  0.00     0.124 S 
ATOM     46  O   UNL A   1      36.302  30.199  32.566  1.00  0.00    -0.237 OA
ATOM     47  O   UNL A   1      37.503  28.067  32.933  1.00  0.00    -0.237 OA
ATOM     48  O   UNL A   1      38.630  30.215  33.371  1.00  0.00    -0.744 OA
ENDBRANCH  41  45
ENDBRANCH  24  38
BRANCH  25  49
ATOM     49  C   UNL A   1      49.145  26.715  26.222  1.00  0.00     0.023 A 
ATOM     50  C   UNL A   1      49.557  27.203  24.972  1.00  0.00     0.031 A 
ATOM     51  C   UNL A   1      50.022  25.864  26.919  1.00  0.00     0.131 A 
ATOM     52  C   UNL A   1      50.787  26.794  24.436  1.00  0.00     0.055 A 
ATOM     53  C   UNL A   1      51.272  25.512  26.410  1.00  0.00     0.041 A 
ATOM     54  F   UNL A   1      49.678  25.368  28.119  1.00  0.00    -0.206 F 
ATOM     55  C   UNL A   1      51.653  25.964  25.152  1.00  0.00     0.022 A 
BRANCH  52  56
ATOM     56  S   UNL A   1      51.187  27.268  22.732  1.00  0.00     0.124 S 
ATOM     57  O   UNL A   1      52.483  26.627  22.540  1.00  0.00    -0.237 OA
ATOM     58  O   UNL A   1      50.070  26.691  21.990  1.00  0.00    -0.237 OA
ATOM     59  O   UNL A   1      51.214  28.728  22.782  1.00  0.00    -0.744 OA
ENDBRANCH  52  56
ENDBRANCH  25  49
BRANCH  37  60
ATOM     60  C   UNL A   1      46.182  32.583  28.515  1.00  0.00     0.023 A 
ATOM     61  C   UNL A   1      46.263  33.468  27.425  1.00  0.00     0.031 A 
ATOM     62  C   UNL A   1      46.651  33.022  29.764  1.00  0.00     0.131 A 
ATOM     63  C   UNL A   1      46.854  34.728  27.594  1.00  0.00     0.055 A 
ATOM     64  C   UNL A   1      47.182  34.300  29.939  1.00  0.00     0.041 A 
ATOM     65  F   UNL A   1      46.601  32.214  30.836  1.00  0.00    -0.206 F 
ATOM     66  C   UNL A   1      47.298  35.156  28.847  1.00  0.00     0.022 A 
BRANCH  63  67
ATOM     67  S   UNL A   1      47.114  35.768  26.131  1.00  0.00     0.124 S 
ATOM     68  O   UNL A   1      48.533  36.088  26.235  1.00  0.00    -0.237 OA
ATOM     69  O   UNL A   1      46.739  34.874  25.040  1.00  0.00    -0.237 OA
ATOM     70  O   UNL A   1      46.205  36.893  26.346  1.00  0.00    -0.744 OA
ENDBRANCH  63  67
ENDBRANCH  37  60
ENDBRANCH  11  12
ENDBRANCH   4   6
ENDBRANCH   1   2
BRANCH   1  71
ATOM     71  C   UNL A   1      37.884  19.691  25.053  1.00  0.00     0.042 C 
BRANCH  71  72
ATOM     72  C   UNL A   1      36.717  20.661  25.011  1.00  0.00     0.117 C 
BRANCH  72  73
ATOM     73  N   UNL A   1      36.917  21.729  24.049  1.00  0.00    -0.356 N 
ATOM     74  C   UNL A   1      36.088  22.739  23.663  1.00  0.00     0.228 C 
ATOM     75  H   UNL A   1      37.795  21.721  23.602  1.00  0.00     0.163 HD
ATOM     76  O   UNL A   1      36.440  23.423  22.702  1.00  0.00    -0.275 OA
BRANCH  74  77
ATOM     77  C   UNL A   1      34.765  22.946  24.392  1.00  0.00     0.133 C 
ATOM     78  C   UNL A   1      33.632  22.094  23.803  1.00  0.00     0.025 C 
ATOM     79  C   UNL A   1      34.336  24.419  24.425  1.00  0.00     0.276 C 
ATOM     80  C   UNL A   1      33.110  22.667  22.485  1.00  0.00     0.062 C 
ATOM     81  N   UNL A   1      33.859  24.938  23.140  1.00  0.00    -0.330 N 
ATOM     82  C   UNL A   1      32.750  24.148  22.604  1.00  0.00     0.262 C 
ATOM     83  H   UNL A   1      34.627  24.824  22.479  1.00  0.00     0.348 HD
BRANCH  81  84
ATOM     84  C   UNL A   1      33.600  26.392  23.160  1.00  0.00     0.300 C 
BRANCH  84  85
ATOM     85  C   UNL A   1      32.986  26.938  24.438  1.00  0.00     0.025 A 
ATOM     86  C   UNL A   1      33.840  27.386  25.470  1.00  0.00     0.014 A 
ATOM     87  C   UNL A   1      31.599  26.961  24.670  1.00  0.00     0.052 A 
ATOM     88  C   UNL A   1      33.331  27.753  26.715  1.00  0.00     0.040 A 
ATOM     89  C   UNL A   1      31.090  27.342  25.913  1.00  0.00     0.060 A 
ATOM     90  Cl  UNL A   1      30.448  26.525  23.456  1.00  0.00    -0.084 Cl
ATOM     91  C   UNL A   1      31.961  27.714  26.927  1.00  0.00     0.124 A 
ATOM     92  F   UNL A   1      31.471  28.043  28.129  1.00  0.00    -0.207 F 
ENDBRANCH  84  85
ENDBRANCH  81  84
ENDBRANCH  74  77
ENDBRANCH  72  73
ENDBRANCH  71  72
ENDBRANCH   1  71
TORSDOF 15
ENDMDL
