MODEL 1
REMARK VINA RESULT:     -14.1      0.000      0.000
REMARK SMILES Cc1ccccc1[C@@H]1[NH2+][C@@H](C(=O)NCCCNC(=O)c2ccc(-c3c4nc(c(-c5cc(S(=O)(=O)[O-])ccc5F)c5ccc([nH]5)c(-c5cc(S(=O)(=O)[O-])ccc5F)c5nc(c(-c6cc(S(=O)(=O)[O-])ccc6F)c6ccc3[nH]6)C=C5)C=C4)cc2)CC2=c3ccccc3=N[C@H]21
REMARK SMILES IDX 16 1 15 2 14 3 13 4 11 5 12 6 10 8 8 9 9 10 92 11 84 14
REMARK SMILES IDX 91 15 83 16 85 17 90 18 86 19 89 20 87 21 88 22 7 23 1 24
REMARK SMILES IDX 2 25 3 26 4 27 6 28 5 29 17 30 18 31 19 33 20 34 21 35 82 36
REMARK SMILES IDX 22 37 81 38 23 39 24 40 25 41 75 42 26 43 80 44 74 45 76 46
REMARK SMILES IDX 27 47 79 48 73 49 72 50 28 52 60 53 40 54 59 55 41 56 44 57
REMARK SMILES IDX 58 58 77 59 42 60 43 61 57 63 78 64 45 65 29 66 30 67 38 68
REMARK SMILES IDX 31 69 37 70 39 71 36 72 32 73 33 74 34 75 35 76 61 77 62 78
REMARK SMILES IDX 70 79 63 80 69 81 71 82 68 83 64 84 65 85 66 86 67 87 46 88
REMARK SMILES IDX 47 89 55 90 48 91 54 92 56 93 53 94 49 95 50 96 51 97 52 98
REMARK H PARENT 13 7 9 12 9 13 17 32 76 51 44 62
REMARK Flexibility Score: inf
ROOT
ATOM      1  C   UNL A   1      34.938  31.320  27.888  1.00  0.00     0.118 C 
ENDROOT
BRANCH   1   2
ATOM      2  C   UNL A   1      33.560  31.905  27.599  1.00  0.00     0.042 C 
BRANCH   2   3
ATOM      3  C   UNL A   1      32.504  30.876  27.201  1.00  0.00     0.118 C 
BRANCH   3   4
ATOM      4  N   UNL A   1      32.951  29.488  27.095  1.00  0.00    -0.351 N 
ATOM      5  C   UNL A   1      33.645  28.843  26.104  1.00  0.00     0.278 C 
ATOM      6  O   UNL A   1      34.449  27.966  26.447  1.00  0.00    -0.268 OA
ATOM      7  H   UNL A   1      32.711  28.921  27.863  1.00  0.00     0.163 HD
BRANCH   5   8
ATOM      8  C   UNL A   1      33.290  29.019  24.597  1.00  0.00     0.277 C 
ATOM      9  C   UNL A   1      31.060  28.069  23.712  1.00  0.00     0.243 C 
ATOM     10  N   UNL A   1      31.806  29.135  24.427  1.00  0.00    -0.327 N 
ATOM     11  C   UNL A   1      31.850  27.137  22.741  1.00  0.00     0.196 C 
ATOM     12  H   UNL A   1      31.406  29.200  25.364  1.00  0.00     0.347 HD
ATOM     13  H   UNL A   1      31.700  29.947  23.819  1.00  0.00     0.347 HD
ATOM     14  C   UNL A   1      33.208  26.904  23.294  1.00  0.00    -0.024 C 
ATOM     15  N   UNL A   1      31.262  25.760  22.616  1.00  0.00    -0.270 NA
ATOM     16  C   UNL A   1      33.992  28.113  23.590  1.00  0.00     0.109 C 
ATOM     17  C   UNL A   1      33.464  25.623  23.498  1.00  0.00     0.002 A 
ATOM     18  C   UNL A   1      32.230  24.988  23.017  1.00  0.00     0.066 A 
ATOM     19  C   UNL A   1      34.538  24.880  24.064  1.00  0.00     0.010 A 
ATOM     20  C   UNL A   1      32.223  23.508  23.034  1.00  0.00     0.028 A 
ATOM     21  C   UNL A   1      34.441  23.542  24.099  1.00  0.00     0.001 A 
ATOM     22  C   UNL A   1      33.286  22.857  23.542  1.00  0.00     0.002 A 
BRANCH   9  23
ATOM     23  C   UNL A   1      29.881  28.688  22.941  1.00  0.00     0.015 A 
ATOM     24  C   UNL A   1      28.112  27.054  23.878  1.00  0.00     0.045 C 
ATOM     25  C   UNL A   1      28.539  28.233  23.042  1.00  0.00    -0.042 A 
ATOM     26  C   UNL A   1      27.517  28.950  22.392  1.00  0.00     0.004 A 
ATOM     27  C   UNL A   1      27.799  30.077  21.624  1.00  0.00     0.000 A 
ATOM     28  C   UNL A   1      30.140  29.826  22.146  1.00  0.00     0.010 A 
ATOM     29  C   UNL A   1      29.112  30.509  21.493  1.00  0.00     0.001 A 
ENDBRANCH   9  23
ENDBRANCH   5   8
ENDBRANCH   3   4
ENDBRANCH   2   3
ENDBRANCH   1   2
BRANCH   1  30
ATOM     30  N   UNL A   1      35.489  31.813  29.160  1.00  0.00    -0.352 N 
ATOM     31  C   UNL A   1      36.470  31.256  29.962  1.00  0.00     0.251 C 
ATOM     32  H   UNL A   1      35.106  32.659  29.487  1.00  0.00     0.163 HD
ATOM     33  O   UNL A   1      36.875  31.791  30.981  1.00  0.00    -0.269 OA
BRANCH  31  34
ATOM     34  C   UNL A   1      37.100  30.012  29.479  1.00  0.00     0.039 A 
ATOM     35  C   UNL A   1      37.318  29.008  30.425  1.00  0.00     0.014 A 
ATOM     36  C   UNL A   1      37.765  30.023  28.257  1.00  0.00     0.014 A 
ATOM     37  C   UNL A   1      38.395  28.146  30.250  1.00  0.00     0.010 A 
ATOM     38  C   UNL A   1      38.888  29.225  28.130  1.00  0.00     0.010 A 
ATOM     39  C   UNL A   1      39.246  28.344  29.160  1.00  0.00    -0.014 A 
BRANCH  39  40
ATOM     40  C   UNL A   1      40.607  27.811  29.134  1.00  0.00     0.031 A 
ATOM     41  C   UNL A   1      40.886  26.441  28.666  1.00  0.00     0.074 A 
ATOM     42  C   UNL A   1      41.655  28.568  29.537  1.00  0.00     0.049 A 
ATOM     43  N   UNL A   1      41.874  25.726  29.093  1.00  0.00    -0.248 NA
ATOM     44  C   UNL A   1      40.050  25.753  27.693  1.00  0.00     0.031 C 
ATOM     45  C   UNL A   1      43.075  28.267  29.369  1.00  0.00     0.029 A 
ATOM     46  N   UNL A   1      41.630  29.637  30.431  1.00  0.00    -0.354 N 
ATOM     47  C   UNL A   1      41.987  24.644  28.258  1.00  0.00     0.074 A 
ATOM     48  C   UNL A   1      40.786  24.665  27.451  1.00  0.00     0.031 C 
ATOM     49  C   UNL A   1      43.765  28.905  30.324  1.00  0.00     0.029 A 
ATOM     50  C   UNL A   1      42.808  29.548  31.202  1.00  0.00     0.049 A 
ATOM     51  H   UNL A   1      40.927  30.322  30.509  1.00  0.00     0.167 HD
ATOM     52  C   UNL A   1      43.140  23.921  28.220  1.00  0.00     0.034 A 
ATOM     53  C   UNL A   1      42.764  29.452  32.563  1.00  0.00     0.034 A 
ATOM     54  C   UNL A   1      44.160  24.414  29.143  1.00  0.00     0.049 A 
ATOM     55  C   UNL A   1      43.426  28.208  33.121  1.00  0.00     0.074 A 
ATOM     56  C   UNL A   1      45.343  25.120  28.993  1.00  0.00     0.029 A 
ATOM     57  N   UNL A   1      43.907  24.391  30.505  1.00  0.00    -0.354 N 
ATOM     58  N   UNL A   1      43.991  27.283  32.395  1.00  0.00    -0.248 NA
ATOM     59  C   UNL A   1      43.410  27.858  34.541  1.00  0.00     0.031 C 
ATOM     60  C   UNL A   1      45.814  25.491  30.286  1.00  0.00     0.029 A 
ATOM     61  C   UNL A   1      44.918  25.006  31.220  1.00  0.00     0.049 A 
ATOM     62  H   UNL A   1      43.108  23.986  30.913  1.00  0.00     0.167 HD
ATOM     63  C   UNL A   1      44.322  26.212  33.189  1.00  0.00     0.074 A 
ATOM     64  C   UNL A   1      43.944  26.626  34.528  1.00  0.00     0.031 C 
ATOM     65  C   UNL A   1      44.822  25.049  32.672  1.00  0.00     0.034 A 
BRANCH  52  66
ATOM     66  C   UNL A   1      43.415  22.926  27.120  1.00  0.00     0.023 A 
ATOM     67  C   UNL A   1      42.818  21.654  27.160  1.00  0.00     0.031 A 
ATOM     68  C   UNL A   1      44.279  23.162  26.034  1.00  0.00     0.131 A 
ATOM     69  C   UNL A   1      43.173  20.652  26.241  1.00  0.00     0.055 A 
ATOM     70  C   UNL A   1      44.692  22.147  25.162  1.00  0.00     0.041 A 
ATOM     71  F   UNL A   1      44.737  24.395  25.762  1.00  0.00    -0.206 F 
ATOM     72  C   UNL A   1      44.150  20.875  25.274  1.00  0.00     0.022 A 
BRANCH  69  73
ATOM     73  S   UNL A   1      42.328  19.050  26.321  1.00  0.00     0.124 S 
ATOM     74  O   UNL A   1      43.153  18.217  25.451  1.00  0.00    -0.237 OA
ATOM     75  O   UNL A   1      42.385  18.747  27.747  1.00  0.00    -0.237 OA
ATOM     76  O   UNL A   1      40.992  19.347  25.807  1.00  0.00    -0.744 OA
ENDBRANCH  69  73
ENDBRANCH  52  66
BRANCH  53  77
ATOM     77  C   UNL A   1      41.597  30.174  33.149  1.00  0.00     0.023 A 
ATOM     78  C   UNL A   1      41.700  31.580  33.221  1.00  0.00     0.031 A 
ATOM     79  C   UNL A   1      40.320  29.607  33.237  1.00  0.00     0.131 A 
ATOM     80  C   UNL A   1      40.549  32.378  33.159  1.00  0.00     0.055 A 
ATOM     81  C   UNL A   1      39.172  30.410  33.283  1.00  0.00     0.041 A 
ATOM     82  F   UNL A   1      40.150  28.281  33.146  1.00  0.00    -0.206 F 
ATOM     83  C   UNL A   1      39.281  31.800  33.190  1.00  0.00     0.022 A 
BRANCH  80  84
ATOM     84  S   UNL A   1      40.752  34.124  32.696  1.00  0.00     0.124 S 
ATOM     85  O   UNL A   1      41.940  34.089  31.854  1.00  0.00    -0.237 OA
ATOM     86  O   UNL A   1      39.494  34.419  32.012  1.00  0.00    -0.237 OA
ATOM     87  O   UNL A   1      40.905  34.816  33.974  1.00  0.00    -0.744 OA
ENDBRANCH  80  84
ENDBRANCH  53  77
BRANCH  65  88
ATOM     88  C   UNL A   1      45.218  23.831  33.482  1.00  0.00     0.023 A 
ATOM     89  C   UNL A   1      46.541  23.575  33.881  1.00  0.00     0.031 A 
ATOM     90  C   UNL A   1      44.272  22.833  33.825  1.00  0.00     0.131 A 
ATOM     91  C   UNL A   1      46.859  22.445  34.660  1.00  0.00     0.055 A 
ATOM     92  C   UNL A   1      44.604  21.678  34.539  1.00  0.00     0.041 A 
ATOM     93  F   UNL A   1      42.976  22.941  33.502  1.00  0.00    -0.206 F 
ATOM     94  C   UNL A   1      45.901  21.487  34.981  1.00  0.00     0.022 A 
BRANCH  91  95
ATOM     95  S   UNL A   1      48.546  22.282  35.299  1.00  0.00     0.124 S 
ATOM     96  O   UNL A   1      49.359  22.638  34.142  1.00  0.00    -0.237 OA
ATOM     97  O   UNL A   1      48.544  23.247  36.395  1.00  0.00    -0.237 OA
ATOM     98  O   UNL A   1      48.627  20.881  35.709  1.00  0.00    -0.744 OA
ENDBRANCH  91  95
ENDBRANCH  65  88
ENDBRANCH  39  40
ENDBRANCH  31  34
ENDBRANCH   1  30
TORSDOF 14
ENDMDL
MODEL 2
REMARK VINA RESULT:     -13.8      2.605      3.774
REMARK SMILES Cc1ccccc1[C@@H]1[NH2+][C@@H](C(=O)NCCCNC(=O)c2ccc(-c3c4nc(c(-c5cc(S(=O)(=O)[O-])ccc5F)c5ccc([nH]5)c(-c5cc(S(=O)(=O)[O-])ccc5F)c5nc(c(-c6cc(S(=O)(=O)[O-])ccc6F)c6ccc3[nH]6)C=C5)C=C4)cc2)CC2=c3ccccc3=N[C@H]21
REMARK SMILES IDX 16 1 15 2 14 3 13 4 11 5 12 6 10 8 8 9 9 10 92 11 84 14
REMARK SMILES IDX 91 15 83 16 85 17 90 18 86 19 89 20 87 21 88 22 7 23 1 24
REMARK SMILES IDX 2 25 3 26 4 27 6 28 5 29 17 30 18 31 19 33 20 34 21 35 82 36
REMARK SMILES IDX 22 37 81 38 23 39 24 40 25 41 75 42 26 43 80 44 74 45 76 46
REMARK SMILES IDX 27 47 79 48 73 49 72 50 28 52 60 53 40 54 59 55 41 56 44 57
REMARK SMILES IDX 58 58 77 59 42 60 43 61 57 63 78 64 45 65 29 66 30 67 38 68
REMARK SMILES IDX 31 69 37 70 39 71 36 72 32 73 33 74 34 75 35 76 61 77 62 78
REMARK SMILES IDX 70 79 63 80 69 81 71 82 68 83 64 84 65 85 66 86 67 87 46 88
REMARK SMILES IDX 47 89 55 90 48 91 54 92 56 93 53 94 49 95 50 96 51 97 52 98
REMARK H PARENT 13 7 9 12 9 13 17 32 76 51 44 62
REMARK Flexibility Score: inf
ROOT
ATOM      1  C   UNL A   1      35.391  31.955  27.971  1.00  0.00     0.118 C 
ENDROOT
BRANCH   1   2
ATOM      2  C   UNL A   1      35.531  30.572  28.598  1.00  0.00     0.042 C 
BRANCH   2   3
ATOM      3  C   UNL A   1      35.182  29.413  27.667  1.00  0.00     0.118 C 
BRANCH   3   4
ATOM      4  N   UNL A   1      33.821  28.885  27.763  1.00  0.00    -0.351 N 
ATOM      5  C   UNL A   1      33.050  28.223  26.843  1.00  0.00     0.278 C 
ATOM      6  O   UNL A   1      32.290  27.339  27.264  1.00  0.00    -0.268 OA
ATOM      7  H   UNL A   1      33.387  29.030  28.634  1.00  0.00     0.163 HD
BRANCH   5   8
ATOM      8  C   UNL A   1      32.939  28.696  25.363  1.00  0.00     0.277 C 
ATOM      9  C   UNL A   1      30.977  27.850  23.917  1.00  0.00     0.243 C 
ATOM     10  N   UNL A   1      31.500  28.775  24.954  1.00  0.00    -0.327 N 
ATOM     11  C   UNL A   1      31.993  27.183  22.939  1.00  0.00     0.196 C 
ATOM     12  H   UNL A   1      30.944  28.620  25.796  1.00  0.00     0.347 HD
ATOM     13  H   UNL A   1      31.429  29.691  24.511  1.00  0.00     0.347 HD
ATOM     14  C   UNL A   1      33.254  26.903  23.671  1.00  0.00    -0.024 C 
ATOM     15  N   UNL A   1      31.553  25.838  22.436  1.00  0.00    -0.270 NA
ATOM     16  C   UNL A   1      33.874  28.058  24.339  1.00  0.00     0.109 C 
ATOM     17  C   UNL A   1      33.580  25.622  23.658  1.00  0.00     0.002 A 
ATOM     18  C   UNL A   1      32.502  25.046  22.843  1.00  0.00     0.066 A 
ATOM     19  C   UNL A   1      34.603  24.828  24.248  1.00  0.00     0.010 A 
ATOM     20  C   UNL A   1      32.617  23.597  22.563  1.00  0.00     0.028 A 
ATOM     21  C   UNL A   1      34.614  23.510  23.997  1.00  0.00     0.001 A 
ATOM     22  C   UNL A   1      33.631  22.904  23.114  1.00  0.00     0.002 A 
BRANCH   9  23
ATOM     23  C   UNL A   1      29.895  28.561  23.084  1.00  0.00     0.015 A 
ATOM     24  C   UNL A   1      27.961  27.041  23.876  1.00  0.00     0.045 C 
ATOM     25  C   UNL A   1      28.522  28.199  23.092  1.00  0.00    -0.042 A 
ATOM     26  C   UNL A   1      27.595  28.996  22.391  1.00  0.00     0.004 A 
ATOM     27  C   UNL A   1      28.004  30.112  21.665  1.00  0.00     0.000 A 
ATOM     28  C   UNL A   1      30.283  29.690  22.329  1.00  0.00     0.010 A 
ATOM     29  C   UNL A   1      29.349  30.453  21.626  1.00  0.00     0.001 A 
ENDBRANCH   9  23
ENDBRANCH   5   8
ENDBRANCH   3   4
ENDBRANCH   2   3
ENDBRANCH   1   2
BRANCH   1  30
ATOM     30  N   UNL A   1      34.398  32.780  28.675  1.00  0.00    -0.352 N 
ATOM     31  C   UNL A   1      34.555  33.564  29.803  1.00  0.00     0.251 C 
ATOM     32  H   UNL A   1      33.492  32.774  28.287  1.00  0.00     0.163 HD
ATOM     33  O   UNL A   1      33.654  34.244  30.268  1.00  0.00    -0.269 OA
BRANCH  31  34
ATOM     34  C   UNL A   1      35.910  33.635  30.383  1.00  0.00     0.039 A 
ATOM     35  C   UNL A   1      36.908  34.201  29.585  1.00  0.00     0.014 A 
ATOM     36  C   UNL A   1      36.216  32.841  31.483  1.00  0.00     0.014 A 
ATOM     37  C   UNL A   1      38.218  33.763  29.741  1.00  0.00     0.010 A 
ATOM     38  C   UNL A   1      37.502  32.340  31.576  1.00  0.00     0.010 A 
ATOM     39  C   UNL A   1      38.483  32.742  30.657  1.00  0.00    -0.014 A 
BRANCH  39  40
ATOM     40  C   UNL A   1      39.691  31.923  30.577  1.00  0.00     0.031 A 
ATOM     41  C   UNL A   1      39.685  30.610  29.907  1.00  0.00     0.074 A 
ATOM     42  C   UNL A   1      40.856  32.353  31.116  1.00  0.00     0.049 A 
ATOM     43  N   UNL A   1      40.464  29.633  30.238  1.00  0.00    -0.248 NA
ATOM     44  C   UNL A   1      38.772  30.281  28.821  1.00  0.00     0.031 C 
ATOM     45  C   UNL A   1      42.181  31.764  30.933  1.00  0.00     0.029 A 
ATOM     46  N   UNL A   1      41.019  33.256  32.165  1.00  0.00    -0.354 N 
ATOM     47  C   UNL A   1      40.380  28.689  29.247  1.00  0.00     0.074 A 
ATOM     48  C   UNL A   1      39.261  29.102  28.428  1.00  0.00     0.031 C 
ATOM     49  C   UNL A   1      42.941  32.081  31.991  1.00  0.00     0.029 A 
ATOM     50  C   UNL A   1      42.103  32.788  32.938  1.00  0.00     0.049 A 
ATOM     51  H   UNL A   1      40.482  34.064  32.334  1.00  0.00     0.167 HD
ATOM     52  C   UNL A   1      41.344  27.736  29.121  1.00  0.00     0.034 A 
ATOM     53  C   UNL A   1      41.962  32.505  34.265  1.00  0.00     0.034 A 
ATOM     54  C   UNL A   1      42.394  27.842  30.131  1.00  0.00     0.049 A 
ATOM     55  C   UNL A   1      42.299  31.075  34.637  1.00  0.00     0.074 A 
ATOM     56  C   UNL A   1      43.712  28.274  30.119  1.00  0.00     0.029 A 
ATOM     57  N   UNL A   1      42.067  27.677  31.467  1.00  0.00    -0.354 N 
ATOM     58  N   UNL A   1      42.685  30.163  33.787  1.00  0.00    -0.248 NA
ATOM     59  C   UNL A   1      42.126  30.533  35.984  1.00  0.00     0.031 C 
ATOM     60  C   UNL A   1      44.179  28.333  31.464  1.00  0.00     0.029 A 
ATOM     61  C   UNL A   1      43.147  27.933  32.291  1.00  0.00     0.049 A 
ATOM     62  H   UNL A   1      41.176  27.409  31.789  1.00  0.00     0.167 HD
ATOM     63  C   UNL A   1      42.724  28.939  34.411  1.00  0.00     0.074 A 
ATOM     64  C   UNL A   1      42.373  29.227  35.790  1.00  0.00     0.031 C 
ATOM     65  C   UNL A   1      42.982  27.782  33.729  1.00  0.00     0.034 A 
BRANCH  52  66
ATOM     66  C   UNL A   1      41.453  26.877  27.885  1.00  0.00     0.023 A 
ATOM     67  C   UNL A   1      41.225  25.493  27.972  1.00  0.00     0.031 A 
ATOM     68  C   UNL A   1      41.811  27.360  26.612  1.00  0.00     0.131 A 
ATOM     69  C   UNL A   1      41.470  24.644  26.879  1.00  0.00     0.055 A 
ATOM     70  C   UNL A   1      42.127  26.512  25.544  1.00  0.00     0.041 A 
ATOM     71  F   UNL A   1      41.842  28.676  26.349  1.00  0.00    -0.206 F 
ATOM     72  C   UNL A   1      41.974  25.140  25.680  1.00  0.00     0.022 A 
BRANCH  69  73
ATOM     73  S   UNL A   1      41.108  22.875  27.046  1.00  0.00     0.124 S 
ATOM     74  O   UNL A   1      41.770  22.537  28.302  1.00  0.00    -0.237 OA
ATOM     75  O   UNL A   1      39.649  22.863  27.063  1.00  0.00    -0.237 OA
ATOM     76  O   UNL A   1      41.716  22.292  25.851  1.00  0.00    -0.744 OA
ENDBRANCH  69  73
ENDBRANCH  52  66
BRANCH  53  77
ATOM     77  C   UNL A   1      40.954  33.380  34.932  1.00  0.00     0.023 A 
ATOM     78  C   UNL A   1      39.763  32.755  35.359  1.00  0.00     0.031 A 
ATOM     79  C   UNL A   1      41.281  34.618  35.499  1.00  0.00     0.131 A 
ATOM     80  C   UNL A   1      39.059  33.253  36.464  1.00  0.00     0.055 A 
ATOM     81  C   UNL A   1      40.513  35.168  36.534  1.00  0.00     0.041 A 
ATOM     82  F   UNL A   1      42.413  35.251  35.160  1.00  0.00    -0.206 F 
ATOM     83  C   UNL A   1      39.428  34.459  37.057  1.00  0.00     0.022 A 
BRANCH  80  84
ATOM     84  S   UNL A   1      37.895  32.134  37.302  1.00  0.00     0.124 S 
ATOM     85  O   UNL A   1      38.519  31.951  38.605  1.00  0.00    -0.237 OA
ATOM     86  O   UNL A   1      36.652  32.905  37.292  1.00  0.00    -0.237 OA
ATOM     87  O   UNL A   1      37.861  30.951  36.446  1.00  0.00    -0.744 OA
ENDBRANCH  80  84
ENDBRANCH  53  77
BRANCH  65  88
ATOM     88  C   UNL A   1      43.052  26.401  34.347  1.00  0.00     0.023 A 
ATOM     89  C   UNL A   1      44.204  25.598  34.297  1.00  0.00     0.031 A 
ATOM     90  C   UNL A   1      41.919  25.806  34.957  1.00  0.00     0.131 A 
ATOM     91  C   UNL A   1      44.234  24.331  34.912  1.00  0.00     0.055 A 
ATOM     92  C   UNL A   1      41.931  24.521  35.506  1.00  0.00     0.041 A 
ATOM     93  F   UNL A   1      40.751  26.453  35.068  1.00  0.00    -0.206 F 
ATOM     94  C   UNL A   1      43.101  23.780  35.506  1.00  0.00     0.022 A 
BRANCH  91  95
ATOM     95  S   UNL A   1      45.808  23.436  34.974  1.00  0.00     0.124 S 
ATOM     96  O   UNL A   1      45.999  23.231  36.405  1.00  0.00    -0.237 OA
ATOM     97  O   UNL A   1      45.500  22.238  34.197  1.00  0.00    -0.237 OA
ATOM     98  O   UNL A   1      46.754  24.355  34.345  1.00  0.00    -0.744 OA
ENDBRANCH  91  95
ENDBRANCH  65  88
ENDBRANCH  39  40
ENDBRANCH  31  34
ENDBRANCH   1  30
TORSDOF 14
ENDMDL
MODEL 3
REMARK VINA RESULT:     -13.8      1.692      2.068
REMARK SMILES Cc1ccccc1[C@@H]1[NH2+][C@@H](C(=O)NCCCNC(=O)c2ccc(-c3c4nc(c(-c5cc(S(=O)(=O)[O-])ccc5F)c5ccc([nH]5)c(-c5cc(S(=O)(=O)[O-])ccc5F)c5nc(c(-c6cc(S(=O)(=O)[O-])ccc6F)c6ccc3[nH]6)C=C5)C=C4)cc2)CC2=c3ccccc3=N[C@H]21
REMARK SMILES IDX 16 1 15 2 14 3 13 4 11 5 12 6 10 8 8 9 9 10 92 11 84 14
REMARK SMILES IDX 91 15 83 16 85 17 90 18 86 19 89 20 87 21 88 22 7 23 1 24
REMARK SMILES IDX 2 25 3 26 4 27 6 28 5 29 17 30 18 31 19 33 20 34 21 35 82 36
REMARK SMILES IDX 22 37 81 38 23 39 24 40 25 41 75 42 26 43 80 44 74 45 76 46
REMARK SMILES IDX 27 47 79 48 73 49 72 50 28 52 60 53 40 54 59 55 41 56 44 57
REMARK SMILES IDX 58 58 77 59 42 60 43 61 57 63 78 64 45 65 29 66 30 67 38 68
REMARK SMILES IDX 31 69 37 70 39 71 36 72 32 73 33 74 34 75 35 76 61 77 62 78
REMARK SMILES IDX 70 79 63 80 69 81 71 82 68 83 64 84 65 85 66 86 67 87 46 88
REMARK SMILES IDX 47 89 55 90 48 91 54 92 56 93 53 94 49 95 50 96 51 97 52 98
REMARK H PARENT 13 7 9 12 9 13 17 32 76 51 44 62
REMARK Flexibility Score: inf
ROOT
ATOM      1  C   UNL A   1      34.771  31.188  28.593  1.00  0.00     0.118 C 
ENDROOT
BRANCH   1   2
ATOM      2  C   UNL A   1      33.685  31.869  27.768  1.00  0.00     0.042 C 
BRANCH   2   3
ATOM      3  C   UNL A   1      32.639  30.920  27.187  1.00  0.00     0.118 C 
BRANCH   3   4
ATOM      4  N   UNL A   1      33.013  29.509  27.100  1.00  0.00    -0.351 N 
ATOM      5  C   UNL A   1      33.661  28.813  26.113  1.00  0.00     0.278 C 
ATOM      6  O   UNL A   1      34.424  27.902  26.462  1.00  0.00    -0.268 OA
ATOM      7  H   UNL A   1      32.755  28.969  27.881  1.00  0.00     0.163 HD
BRANCH   5   8
ATOM      8  C   UNL A   1      33.296  28.981  24.607  1.00  0.00     0.277 C 
ATOM      9  C   UNL A   1      31.056  28.034  23.744  1.00  0.00     0.243 C 
ATOM     10  N   UNL A   1      31.811  29.101  24.447  1.00  0.00    -0.327 N 
ATOM     11  C   UNL A   1      31.835  27.092  22.773  1.00  0.00     0.196 C 
ATOM     12  H   UNL A   1      31.417  29.173  25.386  1.00  0.00     0.347 HD
ATOM     13  H   UNL A   1      31.703  29.910  23.834  1.00  0.00     0.347 HD
ATOM     14  C   UNL A   1      33.196  26.858  23.318  1.00  0.00    -0.024 C 
ATOM     15  N   UNL A   1      31.242  25.717  22.661  1.00  0.00    -0.270 NA
ATOM     16  C   UNL A   1      33.988  28.066  23.601  1.00  0.00     0.109 C 
ATOM     17  C   UNL A   1      33.449  25.577  23.529  1.00  0.00     0.002 A 
ATOM     18  C   UNL A   1      32.210  24.944  23.060  1.00  0.00     0.066 A 
ATOM     19  C   UNL A   1      34.525  24.834  24.091  1.00  0.00     0.010 A 
ATOM     20  C   UNL A   1      32.198  23.464  23.087  1.00  0.00     0.028 A 
ATOM     21  C   UNL A   1      34.423  23.497  24.136  1.00  0.00     0.001 A 
ATOM     22  C   UNL A   1      33.261  22.812  23.591  1.00  0.00     0.002 A 
BRANCH   9  23
ATOM     23  C   UNL A   1      29.873  28.652  22.977  1.00  0.00     0.015 A 
ATOM     24  C   UNL A   1      28.117  26.990  23.888  1.00  0.00     0.045 C 
ATOM     25  C   UNL A   1      28.536  28.184  23.069  1.00  0.00    -0.042 A 
ATOM     26  C   UNL A   1      27.509  28.900  22.424  1.00  0.00     0.004 A 
ATOM     27  C   UNL A   1      27.784  30.040  21.672  1.00  0.00     0.000 A 
ATOM     28  C   UNL A   1      30.125  29.802  22.198  1.00  0.00     0.010 A 
ATOM     29  C   UNL A   1      29.093  30.485  21.551  1.00  0.00     0.001 A 
ENDBRANCH   9  23
ENDBRANCH   5   8
ENDBRANCH   3   4
ENDBRANCH   2   3
ENDBRANCH   1   2
BRANCH   1  30
ATOM     30  N   UNL A   1      35.893  32.095  28.882  1.00  0.00    -0.352 N 
ATOM     31  C   UNL A   1      37.244  31.812  28.974  1.00  0.00     0.251 C 
ATOM     32  H   UNL A   1      35.648  33.038  29.030  1.00  0.00     0.163 HD
ATOM     33  O   UNL A   1      38.088  32.670  29.176  1.00  0.00    -0.269 OA
BRANCH  31  34
ATOM     34  C   UNL A   1      37.654  30.419  28.710  1.00  0.00     0.039 A 
ATOM     35  C   UNL A   1      37.820  29.591  29.823  1.00  0.00     0.014 A 
ATOM     36  C   UNL A   1      38.199  30.099  27.472  1.00  0.00     0.014 A 
ATOM     37  C   UNL A   1      38.750  28.560  29.756  1.00  0.00     0.010 A 
ATOM     38  C   UNL A   1      39.187  29.132  27.436  1.00  0.00     0.010 A 
ATOM     39  C   UNL A   1      39.516  28.417  28.597  1.00  0.00    -0.014 A 
BRANCH  39  40
ATOM     40  C   UNL A   1      40.785  27.691  28.591  1.00  0.00     0.031 A 
ATOM     41  C   UNL A   1      40.830  26.227  28.419  1.00  0.00     0.074 A 
ATOM     42  C   UNL A   1      41.959  28.347  28.740  1.00  0.00     0.049 A 
ATOM     43  N   UNL A   1      41.753  25.475  28.922  1.00  0.00    -0.248 NA
ATOM     44  C   UNL A   1      39.814  25.486  27.685  1.00  0.00     0.031 C 
ATOM     45  C   UNL A   1      43.302  27.806  28.541  1.00  0.00     0.029 A 
ATOM     46  N   UNL A   1      42.169  29.570  29.374  1.00  0.00    -0.354 N 
ATOM     47  C   UNL A   1      41.635  24.239  28.340  1.00  0.00     0.074 A 
ATOM     48  C   UNL A   1      40.370  24.273  27.638  1.00  0.00     0.031 C 
ATOM     49  C   UNL A   1      44.166  28.517  29.279  1.00  0.00     0.029 A 
ATOM     50  C   UNL A   1      43.398  29.467  30.059  1.00  0.00     0.049 A 
ATOM     51  H   UNL A   1      41.574  30.355  29.349  1.00  0.00     0.167 HD
ATOM     52  C   UNL A   1      42.672  23.357  28.380  1.00  0.00     0.034 A 
ATOM     53  C   UNL A   1      43.482  29.664  31.407  1.00  0.00     0.034 A 
ATOM     54  C   UNL A   1      43.837  23.872  29.095  1.00  0.00     0.049 A 
ATOM     55  C   UNL A   1      44.027  28.479  32.177  1.00  0.00     0.074 A 
ATOM     56  C   UNL A   1      45.082  24.343  28.708  1.00  0.00     0.029 A 
ATOM     57  N   UNL A   1      43.726  24.171  30.443  1.00  0.00    -0.354 N 
ATOM     58  N   UNL A   1      44.387  27.348  31.636  1.00  0.00    -0.248 NA
ATOM     59  C   UNL A   1      44.112  28.439  33.637  1.00  0.00     0.031 C 
ATOM     60  C   UNL A   1      45.729  24.899  29.850  1.00  0.00     0.029 A 
ATOM     61  C   UNL A   1      44.878  24.762  30.930  1.00  0.00     0.049 A 
ATOM     62  H   UNL A   1      42.926  23.987  30.987  1.00  0.00     0.167 HD
ATOM     63  C   UNL A   1      44.653  26.428  32.621  1.00  0.00     0.074 A 
ATOM     64  C   UNL A   1      44.474  27.165  33.859  1.00  0.00     0.031 C 
ATOM     65  C   UNL A   1      44.939  25.120  32.339  1.00  0.00     0.034 A 
BRANCH  52  66
ATOM     66  C   UNL A   1      42.698  22.124  27.511  1.00  0.00     0.023 A 
ATOM     67  C   UNL A   1      43.683  21.990  26.517  1.00  0.00     0.031 A 
ATOM     68  C   UNL A   1      41.764  21.075  27.593  1.00  0.00     0.131 A 
ATOM     69  C   UNL A   1      43.643  20.934  25.590  1.00  0.00     0.055 A 
ATOM     70  C   UNL A   1      41.676  20.064  26.629  1.00  0.00     0.041 A 
ATOM     71  F   UNL A   1      40.915  20.977  28.629  1.00  0.00    -0.206 F 
ATOM     72  C   UNL A   1      42.611  19.999  25.607  1.00  0.00     0.022 A 
BRANCH  69  73
ATOM     73  S   UNL A   1      44.972  20.794  24.364  1.00  0.00     0.124 S 
ATOM     74  O   UNL A   1      44.685  19.507  23.738  1.00  0.00    -0.237 OA
ATOM     75  O   UNL A   1      44.750  21.977  23.539  1.00  0.00    -0.237 OA
ATOM     76  O   UNL A   1      46.186  20.828  25.178  1.00  0.00    -0.744 OA
ENDBRANCH  69  73
ENDBRANCH  52  66
BRANCH  53  77
ATOM     77  C   UNL A   1      42.488  30.662  31.901  1.00  0.00     0.023 A 
ATOM     78  C   UNL A   1      41.183  30.182  32.142  1.00  0.00     0.031 A 
ATOM     79  C   UNL A   1      42.862  31.870  32.501  1.00  0.00     0.131 A 
ATOM     80  C   UNL A   1      40.378  30.783  33.119  1.00  0.00     0.055 A 
ATOM     81  C   UNL A   1      42.010  32.527  33.400  1.00  0.00     0.041 A 
ATOM     82  F   UNL A   1      44.097  32.365  32.338  1.00  0.00    -0.206 F 
ATOM     83  C   UNL A   1      40.784  31.956  33.753  1.00  0.00     0.022 A 
BRANCH  80  84
ATOM     84  S   UNL A   1      38.980  29.821  33.775  1.00  0.00     0.124 S 
ATOM     85  O   UNL A   1      39.258  28.482  33.273  1.00  0.00    -0.237 OA
ATOM     86  O   UNL A   1      39.119  30.004  35.219  1.00  0.00    -0.237 OA
ATOM     87  O   UNL A   1      37.802  30.475  33.208  1.00  0.00    -0.744 OA
ENDBRANCH  80  84
ENDBRANCH  53  77
BRANCH  65  88
ATOM     88  C   UNL A   1      45.251  24.053  33.368  1.00  0.00     0.023 A 
ATOM     89  C   UNL A   1      46.517  23.910  33.961  1.00  0.00     0.031 A 
ATOM     90  C   UNL A   1      44.289  23.081  33.740  1.00  0.00     0.131 A 
ATOM     91  C   UNL A   1      46.754  22.922  34.937  1.00  0.00     0.055 A 
ATOM     92  C   UNL A   1      44.548  22.059  34.657  1.00  0.00     0.041 A 
ATOM     93  F   UNL A   1      43.043  23.091  33.247  1.00  0.00    -0.206 F 
ATOM     94  C   UNL A   1      45.782  21.986  35.280  1.00  0.00     0.022 A 
BRANCH  91  95
ATOM     95  S   UNL A   1      48.349  22.920  35.797  1.00  0.00     0.124 S 
ATOM     96  O   UNL A   1      48.352  24.219  36.461  1.00  0.00    -0.237 OA
ATOM     97  O   UNL A   1      48.213  21.760  36.673  1.00  0.00    -0.237 OA
ATOM     98  O   UNL A   1      49.324  22.770  34.719  1.00  0.00    -0.744 OA
ENDBRANCH  91  95
ENDBRANCH  65  88
ENDBRANCH  39  40
ENDBRANCH  31  34
ENDBRANCH   1  30
TORSDOF 14
ENDMDL
