MODEL 1
REMARK VINA RESULT:     -11.9      0.000      0.000
REMARK SMILES C[C@@H](C(=O)NCCCNC(=O)c1ccc(-c2c3nc(c(-c4cc(S(=O)(=O)[O-])ccc4F)c4ccc([nH]4)c(-c4cc(S(=O)(=O)[O-])ccc4F)c4nc(c(-c5cc(S(=O)(=O)[O-])ccc5F)c5ccc2[nH]5)C=C4)C=C3)cc1)c1ccc(C[C@H]2CCC[C@H]2O)cc1
REMARK SMILES IDX 6 1 5 2 3 3 4 4 2 6 1 7 75 8 76 9 87 10 77 11 86 12 78 13
REMARK SMILES IDX 79 14 80 15 81 16 84 17 82 18 83 19 85 20 7 22 8 23 9 24
REMARK SMILES IDX 10 25 11 27 12 28 13 29 74 30 14 31 73 32 15 33 16 34 17 35
REMARK SMILES IDX 67 36 18 37 72 38 66 39 68 40 19 41 71 42 65 43 64 44 20 46
REMARK SMILES IDX 52 47 32 48 51 49 33 50 36 51 50 52 69 53 34 54 35 55 49 57
REMARK SMILES IDX 70 58 37 59 21 60 22 61 30 62 23 63 29 64 31 65 28 66 24 67
REMARK SMILES IDX 25 68 26 69 27 70 53 71 54 72 62 73 55 74 61 75 63 76 60 77
REMARK SMILES IDX 56 78 57 79 58 80 59 81 38 82 39 83 47 84 40 85 46 86 48 87
REMARK SMILES IDX 45 88 41 89 42 90 43 91 44 92
REMARK H PARENT 5 5 85 21 9 26 68 45 36 56
REMARK Flexibility Score: inf
ROOT
ATOM      1  C   UNL A   1      33.217  22.381  25.961  1.00  0.00     0.117 C 
ENDROOT
BRANCH   1   2
ATOM      2  N   UNL A   1      32.544  23.507  26.579  1.00  0.00    -0.356 N 
ATOM      3  C   UNL A   1      32.236  24.738  26.074  1.00  0.00     0.227 C 
ATOM      4  O   UNL A   1      31.736  25.544  26.863  1.00  0.00    -0.274 OA
ATOM      5  H   UNL A   1      32.264  23.361  27.512  1.00  0.00     0.163 HD
BRANCH   3   6
ATOM      6  C   UNL A   1      32.474  25.050  24.580  1.00  0.00     0.105 C 
ATOM      7  C   UNL A   1      33.897  25.575  24.356  1.00  0.00     0.023 C 
BRANCH   6   8
ATOM      8  C   UNL A   1      31.399  25.996  24.041  1.00  0.00    -0.036 A 
ATOM      9  C   UNL A   1      31.680  27.315  23.661  1.00  0.00     0.005 A 
ATOM     10  C   UNL A   1      30.063  25.564  23.981  1.00  0.00     0.005 A 
ATOM     11  C   UNL A   1      30.660  28.187  23.291  1.00  0.00     0.004 A 
ATOM     12  C   UNL A   1      29.036  26.456  23.656  1.00  0.00     0.004 A 
ATOM     13  C   UNL A   1      29.324  27.793  23.363  1.00  0.00    -0.048 A 
BRANCH  13  14
ATOM     14  C   UNL A   1      28.231  28.818  23.205  1.00  0.00     0.041 C 
BRANCH  14  15
ATOM     15  C   UNL A   1      28.649  30.213  22.698  1.00  0.00     0.022 C 
ATOM     16  C   UNL A   1      28.232  30.557  21.259  1.00  0.00     0.007 C 
ATOM     17  C   UNL A   1      28.260  31.455  23.518  1.00  0.00     0.117 C 
ATOM     18  C   UNL A   1      28.098  32.082  21.207  1.00  0.00     0.003 C 
ATOM     19  C   UNL A   1      28.582  32.596  22.560  1.00  0.00     0.032 C 
BRANCH  17  20
ATOM     20  O   UNL A   1      26.892  31.551  23.871  1.00  0.00    -0.393 OA
ATOM     21  H   UNL A   1      26.354  31.099  23.203  1.00  0.00     0.210 HD
ENDBRANCH  17  20
ENDBRANCH  14  15
ENDBRANCH  13  14
ENDBRANCH   6   8
ENDBRANCH   3   6
ENDBRANCH   1   2
BRANCH   1  22
ATOM     22  C   UNL A   1      34.422  21.929  26.785  1.00  0.00     0.042 C 
BRANCH  22  23
ATOM     23  C   UNL A   1      35.766  22.376  26.219  1.00  0.00     0.118 C 
BRANCH  23  24
ATOM     24  N   UNL A   1      36.660  21.257  25.972  1.00  0.00    -0.352 N 
ATOM     25  C   UNL A   1      38.024  21.230  25.812  1.00  0.00     0.251 C 
ATOM     26  H   UNL A   1      36.219  20.379  25.911  1.00  0.00     0.163 HD
ATOM     27  O   UNL A   1      38.552  20.209  25.383  1.00  0.00    -0.269 OA
BRANCH  25  28
ATOM     28  C   UNL A   1      38.848  22.419  26.132  1.00  0.00     0.039 A 
ATOM     29  C   UNL A   1      38.471  23.658  25.607  1.00  0.00     0.014 A 
ATOM     30  C   UNL A   1      40.005  22.315  26.909  1.00  0.00     0.014 A 
ATOM     31  C   UNL A   1      39.220  24.799  25.912  1.00  0.00     0.010 A 
ATOM     32  C   UNL A   1      40.704  23.464  27.274  1.00  0.00     0.010 A 
ATOM     33  C   UNL A   1      40.322  24.718  26.777  1.00  0.00    -0.014 A 
BRANCH  33  34
ATOM     34  C   UNL A   1      41.085  25.934  27.167  1.00  0.00     0.031 A 
ATOM     35  C   UNL A   1      40.438  26.996  28.014  1.00  0.00     0.074 A 
ATOM     36  C   UNL A   1      42.341  26.107  26.711  1.00  0.00     0.049 A 
ATOM     37  N   UNL A   1      40.913  28.155  28.397  1.00  0.00    -0.248 NA
ATOM     38  C   UNL A   1      39.064  26.732  28.466  1.00  0.00     0.031 C 
ATOM     39  C   UNL A   1      43.064  25.164  25.854  1.00  0.00     0.029 A 
ATOM     40  N   UNL A   1      43.231  27.135  26.894  1.00  0.00    -0.354 N 
ATOM     41  C   UNL A   1      39.894  28.761  29.124  1.00  0.00     0.074 A 
ATOM     42  C   UNL A   1      38.756  27.869  29.071  1.00  0.00     0.031 C 
ATOM     43  C   UNL A   1      44.293  25.645  25.609  1.00  0.00     0.029 A 
ATOM     44  C   UNL A   1      44.431  26.951  26.245  1.00  0.00     0.049 A 
ATOM     45  H   UNL A   1      43.031  27.930  27.438  1.00  0.00     0.167 HD
ATOM     46  C   UNL A   1      39.914  29.943  29.793  1.00  0.00     0.034 A 
ATOM     47  C   UNL A   1      45.514  27.750  26.159  1.00  0.00     0.034 A 
ATOM     48  C   UNL A   1      41.062  30.818  29.838  1.00  0.00     0.049 A 
ATOM     49  C   UNL A   1      45.499  29.076  26.875  1.00  0.00     0.074 A 
ATOM     50  C   UNL A   1      41.209  32.010  30.527  1.00  0.00     0.029 A 
ATOM     51  N   UNL A   1      42.255  30.606  29.158  1.00  0.00    -0.354 N 
ATOM     52  N   UNL A   1      44.546  29.614  27.601  1.00  0.00    -0.248 NA
ATOM     53  C   UNL A   1      46.711  29.898  26.768  1.00  0.00     0.031 C 
ATOM     54  C   UNL A   1      42.457  32.553  30.203  1.00  0.00     0.029 A 
ATOM     55  C   UNL A   1      43.127  31.661  29.380  1.00  0.00     0.049 A 
ATOM     56  H   UNL A   1      42.452  29.819  28.598  1.00  0.00     0.167 HD
ATOM     57  C   UNL A   1      45.056  30.824  28.062  1.00  0.00     0.074 A 
ATOM     58  C   UNL A   1      46.406  30.927  27.545  1.00  0.00     0.031 C 
ATOM     59  C   UNL A   1      44.466  31.761  28.846  1.00  0.00     0.034 A 
BRANCH  46  60
ATOM     60  C   UNL A   1      38.646  30.364  30.498  1.00  0.00     0.023 A 
ATOM     61  C   UNL A   1      37.626  31.068  29.831  1.00  0.00     0.031 A 
ATOM     62  C   UNL A   1      38.463  30.087  31.865  1.00  0.00     0.131 A 
ATOM     63  C   UNL A   1      36.517  31.543  30.547  1.00  0.00     0.055 A 
ATOM     64  C   UNL A   1      37.313  30.486  32.551  1.00  0.00     0.041 A 
ATOM     65  F   UNL A   1      39.406  29.436  32.563  1.00  0.00    -0.206 F 
ATOM     66  C   UNL A   1      36.340  31.234  31.896  1.00  0.00     0.022 A 
BRANCH  63  67
ATOM     67  S   UNL A   1      35.393  32.707  29.726  1.00  0.00     0.124 S 
ATOM     68  O   UNL A   1      36.297  33.807  29.397  1.00  0.00    -0.237 OA
ATOM     69  O   UNL A   1      34.900  31.926  28.598  1.00  0.00    -0.237 OA
ATOM     70  O   UNL A   1      34.403  33.011  30.756  1.00  0.00    -0.744 OA
ENDBRANCH  63  67
ENDBRANCH  46  60
BRANCH  47  71
ATOM     71  C   UNL A   1      46.698  27.329  25.354  1.00  0.00     0.023 A 
ATOM     72  C   UNL A   1      46.913  27.837  24.063  1.00  0.00     0.031 A 
ATOM     73  C   UNL A   1      47.613  26.383  25.851  1.00  0.00     0.131 A 
ATOM     74  C   UNL A   1      47.988  27.365  23.296  1.00  0.00     0.055 A 
ATOM     75  C   UNL A   1      48.714  25.958  25.105  1.00  0.00     0.041 A 
ATOM     76  F   UNL A   1      47.456  25.868  27.081  1.00  0.00    -0.206 F 
ATOM     77  C   UNL A   1      48.899  26.440  23.813  1.00  0.00     0.022 A 
BRANCH  74  78
ATOM     78  S   UNL A   1      48.135  27.917  21.574  1.00  0.00     0.124 S 
ATOM     79  O   UNL A   1      48.460  26.672  20.889  1.00  0.00    -0.237 OA
ATOM     80  O   UNL A   1      46.806  28.464  21.317  1.00  0.00    -0.237 OA
ATOM     81  O   UNL A   1      49.214  28.902  21.625  1.00  0.00    -0.744 OA
ENDBRANCH  74  78
ENDBRANCH  47  71
BRANCH  59  82
ATOM     82  C   UNL A   1      45.300  32.963  29.227  1.00  0.00     0.023 A 
ATOM     83  C   UNL A   1      45.337  34.122  28.434  1.00  0.00     0.031 A 
ATOM     84  C   UNL A   1      46.079  32.939  30.397  1.00  0.00     0.131 A 
ATOM     85  C   UNL A   1      46.179  35.187  28.789  1.00  0.00     0.055 A 
ATOM     86  C   UNL A   1      46.864  34.026  30.782  1.00  0.00     0.041 A 
ATOM     87  F   UNL A   1      46.086  31.856  31.192  1.00  0.00    -0.206 F 
ATOM     88  C   UNL A   1      46.928  35.154  29.968  1.00  0.00     0.022 A 
BRANCH  85  89
ATOM     89  S   UNL A   1      46.361  36.577  27.639  1.00  0.00     0.124 S 
ATOM     90  O   UNL A   1      46.840  35.912  26.432  1.00  0.00    -0.237 OA
ATOM     91  O   UNL A   1      45.004  37.111  27.577  1.00  0.00    -0.237 OA
ATOM     92  O   UNL A   1      47.336  37.443  28.298  1.00  0.00    -0.744 OA
ENDBRANCH  85  89
ENDBRANCH  59  82
ENDBRANCH  33  34
ENDBRANCH  25  28
ENDBRANCH  23  24
ENDBRANCH  22  23
ENDBRANCH   1  22
TORSDOF 17
ENDMDL
MODEL 2
REMARK VINA RESULT:     -11.8      5.361     10.544
REMARK SMILES C[C@@H](C(=O)NCCCNC(=O)c1ccc(-c2c3nc(c(-c4cc(S(=O)(=O)[O-])ccc4F)c4ccc([nH]4)c(-c4cc(S(=O)(=O)[O-])ccc4F)c4nc(c(-c5cc(S(=O)(=O)[O-])ccc5F)c5ccc2[nH]5)C=C4)C=C3)cc1)c1ccc(C[C@H]2CCC[C@H]2O)cc1
REMARK SMILES IDX 6 1 5 2 3 3 4 4 2 6 1 7 75 8 76 9 87 10 77 11 86 12 78 13
REMARK SMILES IDX 79 14 80 15 81 16 84 17 82 18 83 19 85 20 7 22 8 23 9 24
REMARK SMILES IDX 10 25 11 27 12 28 13 29 74 30 14 31 73 32 15 33 16 34 17 35
REMARK SMILES IDX 67 36 18 37 72 38 66 39 68 40 19 41 71 42 65 43 64 44 20 46
REMARK SMILES IDX 52 47 32 48 51 49 33 50 36 51 50 52 69 53 34 54 35 55 49 57
REMARK SMILES IDX 70 58 37 59 21 60 22 61 30 62 23 63 29 64 31 65 28 66 24 67
REMARK SMILES IDX 25 68 26 69 27 70 53 71 54 72 62 73 55 74 61 75 63 76 60 77
REMARK SMILES IDX 56 78 57 79 58 80 59 81 38 82 39 83 47 84 40 85 46 86 48 87
REMARK SMILES IDX 45 88 41 89 42 90 43 91 44 92
REMARK H PARENT 5 5 85 21 9 26 68 45 36 56
REMARK Flexibility Score: inf
ROOT
ATOM      1  C   UNL A   1      32.046  26.752  26.236  1.00  0.00     0.117 C 
ENDROOT
BRANCH   1   2
ATOM      2  N   UNL A   1      31.343  26.275  25.061  1.00  0.00    -0.356 N 
ATOM      3  C   UNL A   1      31.814  25.952  23.820  1.00  0.00     0.227 C 
ATOM      4  O   UNL A   1      30.968  25.657  22.973  1.00  0.00    -0.274 OA
ATOM      5  H   UNL A   1      30.372  26.165  25.175  1.00  0.00     0.163 HD
BRANCH   3   6
ATOM      6  C   UNL A   1      33.334  25.925  23.546  1.00  0.00     0.105 C 
ATOM      7  C   UNL A   1      33.633  26.368  22.108  1.00  0.00     0.023 C 
BRANCH   6   8
ATOM      8  C   UNL A   1      33.926  24.554  23.881  1.00  0.00    -0.036 A 
ATOM      9  C   UNL A   1      33.680  23.417  23.099  1.00  0.00     0.005 A 
ATOM     10  C   UNL A   1      34.691  24.397  25.049  1.00  0.00     0.005 A 
ATOM     11  C   UNL A   1      34.131  22.163  23.498  1.00  0.00     0.004 A 
ATOM     12  C   UNL A   1      35.102  23.129  25.471  1.00  0.00     0.004 A 
ATOM     13  C   UNL A   1      34.774  21.993  24.725  1.00  0.00    -0.048 A 
BRANCH  13  14
ATOM     14  C   UNL A   1      35.027  20.604  25.251  1.00  0.00     0.041 C 
BRANCH  14  15
ATOM     15  C   UNL A   1      34.204  19.459  24.627  1.00  0.00     0.022 C 
ATOM     16  C   UNL A   1      34.945  18.126  24.438  1.00  0.00     0.007 C 
ATOM     17  C   UNL A   1      32.862  19.064  25.269  1.00  0.00     0.117 C 
ATOM     18  C   UNL A   1      33.875  17.031  24.496  1.00  0.00     0.003 C 
ATOM     19  C   UNL A   1      32.533  17.754  24.564  1.00  0.00     0.032 C 
BRANCH  17  20
ATOM     20  O   UNL A   1      32.901  18.816  26.662  1.00  0.00    -0.393 OA
ATOM     21  H   UNL A   1      33.612  19.338  27.064  1.00  0.00     0.210 HD
ENDBRANCH  17  20
ENDBRANCH  14  15
ENDBRANCH  13  14
ENDBRANCH   6   8
ENDBRANCH   3   6
ENDBRANCH   1   2
BRANCH   1  22
ATOM     22  C   UNL A   1      31.796  28.241  26.471  1.00  0.00     0.042 C 
BRANCH  22  23
ATOM     23  C   UNL A   1      32.954  29.141  26.052  1.00  0.00     0.118 C 
BRANCH  23  24
ATOM     24  N   UNL A   1      32.697  30.542  26.344  1.00  0.00    -0.352 N 
ATOM     25  C   UNL A   1      33.331  31.397  27.212  1.00  0.00     0.251 C 
ATOM     26  H   UNL A   1      31.953  30.941  25.838  1.00  0.00     0.163 HD
ATOM     27  O   UNL A   1      32.806  32.475  27.473  1.00  0.00    -0.269 OA
BRANCH  25  28
ATOM     28  C   UNL A   1      34.617  31.021  27.843  1.00  0.00     0.039 A 
ATOM     29  C   UNL A   1      35.636  31.975  27.913  1.00  0.00     0.014 A 
ATOM     30  C   UNL A   1      34.838  29.730  28.331  1.00  0.00     0.014 A 
ATOM     31  C   UNL A   1      36.851  31.652  28.523  1.00  0.00     0.010 A 
ATOM     32  C   UNL A   1      36.020  29.434  29.007  1.00  0.00     0.010 A 
ATOM     33  C   UNL A   1      37.041  30.390  29.108  1.00  0.00    -0.014 A 
BRANCH  33  34
ATOM     34  C   UNL A   1      38.302  30.055  29.824  1.00  0.00     0.031 A 
ATOM     35  C   UNL A   1      39.276  29.075  29.227  1.00  0.00     0.074 A 
ATOM     36  C   UNL A   1      38.541  30.590  31.038  1.00  0.00     0.049 A 
ATOM     37  N   UNL A   1      40.389  28.603  29.728  1.00  0.00    -0.248 NA
ATOM     38  C   UNL A   1      38.937  28.534  27.902  1.00  0.00     0.031 C 
ATOM     39  C   UNL A   1      37.656  31.525  31.736  1.00  0.00     0.029 A 
ATOM     40  N   UNL A   1      39.592  30.421  31.903  1.00  0.00    -0.354 N 
ATOM     41  C   UNL A   1      40.878  27.702  28.787  1.00  0.00     0.074 A 
ATOM     42  C   UNL A   1      39.903  27.648  27.717  1.00  0.00     0.031 C 
ATOM     43  C   UNL A   1      38.214  31.866  32.908  1.00  0.00     0.029 A 
ATOM     44  C   UNL A   1      39.467  31.138  33.071  1.00  0.00     0.049 A 
ATOM     45  H   UNL A   1      40.363  29.842  31.708  1.00  0.00     0.167 HD
ATOM     46  C   UNL A   1      42.040  27.002  28.804  1.00  0.00     0.034 A 
ATOM     47  C   UNL A   1      40.265  31.193  34.157  1.00  0.00     0.034 A 
ATOM     48  C   UNL A   1      43.002  27.073  29.879  1.00  0.00     0.049 A 
ATOM     49  C   UNL A   1      41.531  30.376  34.172  1.00  0.00     0.074 A 
ATOM     50  C   UNL A   1      44.235  26.449  29.975  1.00  0.00     0.029 A 
ATOM     51  N   UNL A   1      42.836  27.799  31.052  1.00  0.00    -0.354 N 
ATOM     52  N   UNL A   1      42.005  29.567  33.253  1.00  0.00    -0.248 NA
ATOM     53  C   UNL A   1      42.376  30.487  35.368  1.00  0.00     0.031 C 
ATOM     54  C   UNL A   1      44.776  26.736  31.232  1.00  0.00     0.029 A 
ATOM     55  C   UNL A   1      43.924  27.609  31.890  1.00  0.00     0.049 A 
ATOM     56  H   UNL A   1      42.058  28.367  31.258  1.00  0.00     0.167 HD
ATOM     57  C   UNL A   1      43.218  29.098  33.748  1.00  0.00     0.074 A 
ATOM     58  C   UNL A   1      43.409  29.727  35.039  1.00  0.00     0.031 C 
ATOM     59  C   UNL A   1      44.097  28.230  33.184  1.00  0.00     0.034 A 
BRANCH  46  60
ATOM     60  C   UNL A   1      42.313  26.080  27.638  1.00  0.00     0.023 A 
ATOM     61  C   UNL A   1      41.776  24.781  27.580  1.00  0.00     0.031 A 
ATOM     62  C   UNL A   1      43.148  26.490  26.583  1.00  0.00     0.131 A 
ATOM     63  C   UNL A   1      42.146  23.914  26.541  1.00  0.00     0.055 A 
ATOM     64  C   UNL A   1      43.441  25.651  25.505  1.00  0.00     0.041 A 
ATOM     65  F   UNL A   1      43.709  27.709  26.589  1.00  0.00    -0.206 F 
ATOM     66  C   UNL A   1      42.953  24.348  25.489  1.00  0.00     0.022 A 
BRANCH  63  67
ATOM     67  S   UNL A   1      41.687  22.163  26.672  1.00  0.00     0.124 S 
ATOM     68  O   UNL A   1      40.228  22.241  26.682  1.00  0.00    -0.237 OA
ATOM     69  O   UNL A   1      42.289  21.589  25.475  1.00  0.00    -0.237 OA
ATOM     70  O   UNL A   1      42.288  21.745  27.936  1.00  0.00    -0.744 OA
ENDBRANCH  63  67
ENDBRANCH  46  60
BRANCH  47  71
ATOM     71  C   UNL A   1      39.887  32.038  35.327  1.00  0.00     0.023 A 
ATOM     72  C   UNL A   1      39.028  31.550  36.325  1.00  0.00     0.031 A 
ATOM     73  C   UNL A   1      40.350  33.361  35.446  1.00  0.00     0.131 A 
ATOM     74  C   UNL A   1      38.623  32.391  37.372  1.00  0.00     0.055 A 
ATOM     75  C   UNL A   1      39.989  34.176  36.520  1.00  0.00     0.041 A 
ATOM     76  F   UNL A   1      41.176  33.877  34.521  1.00  0.00    -0.206 F 
ATOM     77  C   UNL A   1      39.109  33.696  37.485  1.00  0.00     0.022 A 
BRANCH  74  78
ATOM     78  S   UNL A   1      37.383  31.781  38.546  1.00  0.00     0.124 S 
ATOM     79  O   UNL A   1      38.085  31.912  39.817  1.00  0.00    -0.237 OA
ATOM     80  O   UNL A   1      36.275  32.705  38.325  1.00  0.00    -0.237 OA
ATOM     81  O   UNL A   1      37.144  30.408  38.104  1.00  0.00    -0.744 OA
ENDBRANCH  74  78
ENDBRANCH  47  71
BRANCH  59  82
ATOM     82  C   UNL A   1      45.369  27.947  33.949  1.00  0.00     0.023 A 
ATOM     83  C   UNL A   1      45.465  26.886  34.865  1.00  0.00     0.031 A 
ATOM     84  C   UNL A   1      46.500  28.763  33.765  1.00  0.00     0.131 A 
ATOM     85  C   UNL A   1      46.642  26.703  35.605  1.00  0.00     0.055 A 
ATOM     86  C   UNL A   1      47.692  28.536  34.454  1.00  0.00     0.041 A 
ATOM     87  F   UNL A   1      46.466  29.795  32.905  1.00  0.00    -0.206 F 
ATOM     88  C   UNL A   1      47.764  27.510  35.391  1.00  0.00     0.022 A 
BRANCH  85  89
ATOM     89  S   UNL A   1      46.661  25.459  36.924  1.00  0.00     0.124 S 
ATOM     90  O   UNL A   1      47.827  25.861  37.704  1.00  0.00    -0.237 OA
ATOM     91  O   UNL A   1      45.365  25.661  37.563  1.00  0.00    -0.237 OA
ATOM     92  O   UNL A   1      46.804  24.196  36.203  1.00  0.00    -0.744 OA
ENDBRANCH  85  89
ENDBRANCH  59  82
ENDBRANCH  33  34
ENDBRANCH  25  28
ENDBRANCH  23  24
ENDBRANCH  22  23
ENDBRANCH   1  22
TORSDOF 17
ENDMDL
MODEL 3
REMARK VINA RESULT:     -11.7      3.261      8.183
REMARK SMILES C[C@@H](C(=O)NCCCNC(=O)c1ccc(-c2c3nc(c(-c4cc(S(=O)(=O)[O-])ccc4F)c4ccc([nH]4)c(-c4cc(S(=O)(=O)[O-])ccc4F)c4nc(c(-c5cc(S(=O)(=O)[O-])ccc5F)c5ccc2[nH]5)C=C4)C=C3)cc1)c1ccc(C[C@H]2CCC[C@H]2O)cc1
REMARK SMILES IDX 6 1 5 2 3 3 4 4 2 6 1 7 75 8 76 9 87 10 77 11 86 12 78 13
REMARK SMILES IDX 79 14 80 15 81 16 84 17 82 18 83 19 85 20 7 22 8 23 9 24
REMARK SMILES IDX 10 25 11 27 12 28 13 29 74 30 14 31 73 32 15 33 16 34 17 35
REMARK SMILES IDX 67 36 18 37 72 38 66 39 68 40 19 41 71 42 65 43 64 44 20 46
REMARK SMILES IDX 52 47 32 48 51 49 33 50 36 51 50 52 69 53 34 54 35 55 49 57
REMARK SMILES IDX 70 58 37 59 21 60 22 61 30 62 23 63 29 64 31 65 28 66 24 67
REMARK SMILES IDX 25 68 26 69 27 70 53 71 54 72 62 73 55 74 61 75 63 76 60 77
REMARK SMILES IDX 56 78 57 79 58 80 59 81 38 82 39 83 47 84 40 85 46 86 48 87
REMARK SMILES IDX 45 88 41 89 42 90 43 91 44 92
REMARK H PARENT 5 5 85 21 9 26 68 45 36 56
REMARK Flexibility Score: inf
ROOT
ATOM      1  C   UNL A   1      34.744  22.493  25.340  1.00  0.00     0.117 C 
ENDROOT
BRANCH   1   2
ATOM      2  N   UNL A   1      33.692  22.595  24.348  1.00  0.00    -0.356 N 
ATOM      3  C   UNL A   1      32.412  23.057  24.463  1.00  0.00     0.227 C 
ATOM      4  O   UNL A   1      31.696  22.940  23.465  1.00  0.00    -0.274 OA
ATOM      5  H   UNL A   1      33.938  22.280  23.449  1.00  0.00     0.163 HD
BRANCH   3   6
ATOM      6  C   UNL A   1      31.938  23.726  25.772  1.00  0.00     0.105 C 
ATOM      7  C   UNL A   1      30.736  22.977  26.359  1.00  0.00     0.023 C 
BRANCH   6   8
ATOM      8  C   UNL A   1      31.663  25.216  25.557  1.00  0.00    -0.036 A 
ATOM      9  C   UNL A   1      30.413  25.698  25.146  1.00  0.00     0.005 A 
ATOM     10  C   UNL A   1      32.709  26.142  25.706  1.00  0.00     0.005 A 
ATOM     11  C   UNL A   1      30.229  27.043  24.841  1.00  0.00     0.004 A 
ATOM     12  C   UNL A   1      32.534  27.484  25.352  1.00  0.00     0.004 A 
ATOM     13  C   UNL A   1      31.304  27.933  24.862  1.00  0.00    -0.048 A 
BRANCH  13  14
ATOM     14  C   UNL A   1      31.141  29.317  24.289  1.00  0.00     0.041 C 
BRANCH  14  15
ATOM     15  C   UNL A   1      29.804  29.631  23.587  1.00  0.00     0.022 C 
ATOM     16  C   UNL A   1      29.209  31.020  23.869  1.00  0.00     0.007 C 
ATOM     17  C   UNL A   1      29.705  29.473  22.060  1.00  0.00     0.117 C 
ATOM     18  C   UNL A   1      28.369  31.381  22.639  1.00  0.00     0.003 C 
ATOM     19  C   UNL A   1      28.373  30.143  21.746  1.00  0.00     0.032 C 
BRANCH  17  20
ATOM     20  O   UNL A   1      30.713  30.126  21.311  1.00  0.00    -0.393 OA
ATOM     21  H   UNL A   1      30.909  29.610  20.515  1.00  0.00     0.210 HD
ENDBRANCH  17  20
ENDBRANCH  14  15
ENDBRANCH  13  14
ENDBRANCH   6   8
ENDBRANCH   3   6
ENDBRANCH   1   2
BRANCH   1  22
ATOM     22  C   UNL A   1      35.540  23.794  25.446  1.00  0.00     0.042 C 
BRANCH  22  23
ATOM     23  C   UNL A   1      36.964  23.698  24.908  1.00  0.00     0.118 C 
BRANCH  23  24
ATOM     24  N   UNL A   1      37.724  22.636  25.547  1.00  0.00    -0.352 N 
ATOM     25  C   UNL A   1      38.869  22.697  26.303  1.00  0.00     0.251 C 
ATOM     26  H   UNL A   1      37.360  21.730  25.419  1.00  0.00     0.163 HD
ATOM     27  O   UNL A   1      39.472  21.657  26.552  1.00  0.00    -0.269 OA
BRANCH  25  28
ATOM     28  C   UNL A   1      39.385  23.995  26.795  1.00  0.00     0.039 A 
ATOM     29  C   UNL A   1      40.049  24.837  25.900  1.00  0.00     0.014 A 
ATOM     30  C   UNL A   1      39.252  24.370  28.135  1.00  0.00     0.014 A 
ATOM     31  C   UNL A   1      40.526  26.077  26.334  1.00  0.00     0.010 A 
ATOM     32  C   UNL A   1      39.659  25.638  28.547  1.00  0.00     0.010 A 
ATOM     33  C   UNL A   1      40.303  26.504  27.653  1.00  0.00    -0.014 A 
BRANCH  33  34
ATOM     34  C   UNL A   1      40.741  27.850  28.110  1.00  0.00     0.031 A 
ATOM     35  C   UNL A   1      42.202  28.213  28.112  1.00  0.00     0.074 A 
ATOM     36  C   UNL A   1      39.829  28.724  28.579  1.00  0.00     0.049 A 
ATOM     37  N   UNL A   1      42.785  29.305  28.539  1.00  0.00    -0.248 NA
ATOM     38  C   UNL A   1      43.132  27.201  27.590  1.00  0.00     0.031 C 
ATOM     39  C   UNL A   1      38.387  28.475  28.660  1.00  0.00     0.029 A 
ATOM     40  N   UNL A   1      39.973  29.993  29.081  1.00  0.00    -0.354 N 
ATOM     41  C   UNL A   1      44.148  29.107  28.348  1.00  0.00     0.074 A 
ATOM     42  C   UNL A   1      44.306  27.765  27.828  1.00  0.00     0.031 C 
ATOM     43  C   UNL A   1      37.780  29.565  29.156  1.00  0.00     0.029 A 
ATOM     44  C   UNL A   1      38.788  30.570  29.476  1.00  0.00     0.049 A 
ATOM     45  H   UNL A   1      40.843  30.448  29.153  1.00  0.00     0.167 HD
ATOM     46  C   UNL A   1      45.171  29.972  28.565  1.00  0.00     0.034 A 
ATOM     47  C   UNL A   1      38.541  31.767  30.046  1.00  0.00     0.034 A 
ATOM     48  C   UNL A   1      44.993  31.310  29.080  1.00  0.00     0.049 A 
ATOM     49  C   UNL A   1      39.697  32.697  30.316  1.00  0.00     0.074 A 
ATOM     50  C   UNL A   1      45.952  32.288  29.288  1.00  0.00     0.029 A 
ATOM     51  N   UNL A   1      43.780  31.855  29.481  1.00  0.00    -0.354 N 
ATOM     52  N   UNL A   1      40.976  32.515  30.083  1.00  0.00    -0.248 NA
ATOM     53  C   UNL A   1      39.373  33.997  30.917  1.00  0.00     0.031 C 
ATOM     54  C   UNL A   1      45.331  33.391  29.884  1.00  0.00     0.029 A 
ATOM     55  C   UNL A   1      43.972  33.139  29.970  1.00  0.00     0.049 A 
ATOM     56  H   UNL A   1      42.910  31.397  29.427  1.00  0.00     0.167 HD
ATOM     57  C   UNL A   1      41.605  33.691  30.481  1.00  0.00     0.074 A 
ATOM     58  C   UNL A   1      40.562  34.579  30.953  1.00  0.00     0.031 C 
ATOM     59  C   UNL A   1      42.925  34.011  30.454  1.00  0.00     0.034 A 
BRANCH  46  60
ATOM     60  C   UNL A   1      46.571  29.482  28.273  1.00  0.00     0.023 A 
ATOM     61  C   UNL A   1      47.364  28.876  29.265  1.00  0.00     0.031 A 
ATOM     62  C   UNL A   1      47.135  29.647  26.996  1.00  0.00     0.131 A 
ATOM     63  C   UNL A   1      48.698  28.540  28.989  1.00  0.00     0.055 A 
ATOM     64  C   UNL A   1      48.435  29.228  26.703  1.00  0.00     0.041 A 
ATOM     65  F   UNL A   1      46.437  30.236  26.011  1.00  0.00    -0.206 F 
ATOM     66  C   UNL A   1      49.231  28.687  27.707  1.00  0.00     0.022 A 
BRANCH  63  67
ATOM     67  S   UNL A   1      49.772  28.060  30.370  1.00  0.00     0.124 S 
ATOM     68  O   UNL A   1      48.935  27.088  31.070  1.00  0.00    -0.237 OA
ATOM     69  O   UNL A   1      50.942  27.521  29.687  1.00  0.00    -0.237 OA
ATOM     70  O   UNL A   1      49.989  29.314  31.088  1.00  0.00    -0.744 OA
ENDBRANCH  63  67
ENDBRANCH  46  60
BRANCH  47  71
ATOM     71  C   UNL A   1      37.148  32.154  30.414  1.00  0.00     0.023 A 
ATOM     72  C   UNL A   1      36.297  32.764  29.479  1.00  0.00     0.031 A 
ATOM     73  C   UNL A   1      36.659  31.951  31.717  1.00  0.00     0.131 A 
ATOM     74  C   UNL A   1      35.019  33.192  29.872  1.00  0.00     0.055 A 
ATOM     75  C   UNL A   1      35.367  32.328  32.088  1.00  0.00     0.041 A 
ATOM     76  F   UNL A   1      37.431  31.368  32.648  1.00  0.00    -0.206 F 
ATOM     77  C   UNL A   1      34.543  32.965  31.165  1.00  0.00     0.022 A 
BRANCH  74  78
ATOM     78  S   UNL A   1      34.014  34.127  28.686  1.00  0.00     0.124 S 
ATOM     79  O   UNL A   1      33.743  33.120  27.667  1.00  0.00    -0.237 OA
ATOM     80  O   UNL A   1      32.878  34.534  29.507  1.00  0.00    -0.237 OA
ATOM     81  O   UNL A   1      34.902  35.212  28.271  1.00  0.00    -0.744 OA
ENDBRANCH  74  78
ENDBRANCH  47  71
BRANCH  59  82
ATOM     82  C   UNL A   1      43.304  35.401  30.910  1.00  0.00     0.023 A 
ATOM     83  C   UNL A   1      43.475  35.715  32.269  1.00  0.00     0.031 A 
ATOM     84  C   UNL A   1      43.487  36.428  29.967  1.00  0.00     0.131 A 
ATOM     85  C   UNL A   1      43.759  37.034  32.652  1.00  0.00     0.055 A 
ATOM     86  C   UNL A   1      43.835  37.724  30.349  1.00  0.00     0.041 A 
ATOM     87  F   UNL A   1      43.333  36.187  28.655  1.00  0.00    -0.206 F 
ATOM     88  C   UNL A   1      43.959  38.037  31.699  1.00  0.00     0.022 A 
BRANCH  85  89
ATOM     89  S   UNL A   1      43.766  37.449  34.418  1.00  0.00     0.124 S 
ATOM     90  O   UNL A   1      44.841  38.433  34.494  1.00  0.00    -0.237 OA
ATOM     91  O   UNL A   1      42.416  37.962  34.624  1.00  0.00    -0.237 OA
ATOM     92  O   UNL A   1      44.049  36.171  35.069  1.00  0.00    -0.744 OA
ENDBRANCH  85  89
ENDBRANCH  59  82
ENDBRANCH  33  34
ENDBRANCH  25  28
ENDBRANCH  23  24
ENDBRANCH  22  23
ENDBRANCH   1  22
TORSDOF 17
ENDMDL
