MODEL 1
REMARK VINA RESULT:     -12.3      0.000      0.000
REMARK SMILES CC[C@]1(C(=O)NCCCNC(=O)c2ccc(-c3c4nc(c(-c5cc(S(=O)(=O)[O-])ccc5F)c5ccc([nH]5)c(-c5cc(S(=O)(=O)[O-])ccc5F)c5nc(c(-c6cc(S(=O)(=O)[O-])ccc6F)c6ccc3[nH]6)C=C5)C=C4)cc2)CC[N@@H+](Cc2ccc(CC(C)C)cc2)C1
REMARK SMILES IDX 7 1 6 2 4 3 5 4 3 6 76 7 90 8 77 9 78 10 2 12 1 13 79 14
REMARK SMILES IDX 80 15 81 16 89 17 82 18 88 19 83 20 84 21 85 22 86 23 87 24
REMARK SMILES IDX 8 25 9 26 10 27 11 28 12 30 13 31 14 32 75 33 15 34 74 35
REMARK SMILES IDX 16 36 17 37 18 38 68 39 19 40 73 41 67 42 69 43 20 44 72 45
REMARK SMILES IDX 66 46 65 47 21 49 53 50 33 51 52 52 34 53 37 54 51 55 70 56
REMARK SMILES IDX 35 57 36 58 50 60 71 61 38 62 22 63 23 64 31 65 24 66 30 67
REMARK SMILES IDX 32 68 29 69 25 70 26 71 27 72 28 73 54 74 55 75 63 76 56 77
REMARK SMILES IDX 62 78 64 79 61 80 57 81 58 82 59 83 60 84 39 85 40 86 48 87
REMARK SMILES IDX 41 88 47 89 49 90 46 91 42 92 43 93 44 94 45 95
REMARK H PARENT 6 5 78 11 10 29 69 48 37 59
REMARK Flexibility Score: inf
ROOT
ATOM      1  C   UNL A   1      35.313  23.916  25.170  1.00  0.00     0.117 C 
ENDROOT
BRANCH   1   2
ATOM      2  N   UNL A   1      34.777  23.917  23.798  1.00  0.00    -0.355 N 
ATOM      3  C   UNL A   1      33.598  23.719  23.138  1.00  0.00     0.232 C 
ATOM      4  O   UNL A   1      33.656  24.109  21.956  1.00  0.00    -0.274 OA
ATOM      5  H   UNL A   1      35.494  24.126  23.157  1.00  0.00     0.163 HD
BRANCH   3   6
ATOM      6  C   UNL A   1      32.252  23.036  23.605  1.00  0.00     0.103 C 
ATOM      7  C   UNL A   1      32.424  22.538  25.072  1.00  0.00     0.084 C 
ATOM      8  C   UNL A   1      30.971  23.890  23.684  1.00  0.00     0.279 C 
ATOM      9  C   UNL A   1      31.091  22.792  25.773  1.00  0.00     0.263 C 
ATOM     10  N   UNL A   1      30.462  23.904  25.068  1.00  0.00    -0.330 N 
ATOM     11  H   UNL A   1      29.452  23.773  25.029  1.00  0.00     0.348 HD
BRANCH   6  12
ATOM     12  C   UNL A   1      32.078  21.767  22.694  1.00  0.00     0.020 C 
ATOM     13  C   UNL A   1      32.446  20.402  23.282  1.00  0.00     0.005 C 
ENDBRANCH   6  12
BRANCH  10  14
ATOM     14  C   UNL A   1      30.475  25.203  25.790  1.00  0.00     0.299 C 
BRANCH  14  15
ATOM     15  C   UNL A   1      30.317  26.462  24.960  1.00  0.00     0.006 A 
ATOM     16  C   UNL A   1      31.251  27.492  24.881  1.00  0.00     0.010 A 
ATOM     17  C   UNL A   1      29.168  26.616  24.206  1.00  0.00     0.010 A 
ATOM     18  C   UNL A   1      31.059  28.551  23.970  1.00  0.00     0.004 A 
ATOM     19  C   UNL A   1      28.975  27.607  23.267  1.00  0.00     0.004 A 
ATOM     20  C   UNL A   1      29.945  28.578  23.119  1.00  0.00    -0.048 A 
BRANCH  20  21
ATOM     21  C   UNL A   1      29.712  29.624  22.067  1.00  0.00     0.038 C 
BRANCH  21  22
ATOM     22  C   UNL A   1      28.354  30.313  22.254  1.00  0.00    -0.013 C 
ATOM     23  C   UNL A   1      28.390  31.166  23.519  1.00  0.00     0.008 C 
ATOM     24  C   UNL A   1      28.002  31.139  21.018  1.00  0.00     0.008 C 
ENDBRANCH  21  22
ENDBRANCH  20  21
ENDBRANCH  14  15
ENDBRANCH  10  14
ENDBRANCH   3   6
ENDBRANCH   1   2
BRANCH   1  25
ATOM     25  C   UNL A   1      36.071  22.658  25.703  1.00  0.00     0.042 C 
BRANCH  25  26
ATOM     26  C   UNL A   1      37.434  22.245  25.072  1.00  0.00     0.118 C 
BRANCH  26  27
ATOM     27  N   UNL A   1      38.299  21.627  26.086  1.00  0.00    -0.352 N 
ATOM     28  C   UNL A   1      39.458  22.019  26.720  1.00  0.00     0.251 C 
ATOM     29  H   UNL A   1      37.982  20.741  26.375  1.00  0.00     0.163 HD
ATOM     30  O   UNL A   1      40.199  21.112  27.112  1.00  0.00    -0.269 OA
BRANCH  28  31
ATOM     31  C   UNL A   1      39.854  23.426  27.033  1.00  0.00     0.039 A 
ATOM     32  C   UNL A   1      41.014  23.641  27.798  1.00  0.00     0.014 A 
ATOM     33  C   UNL A   1      39.016  24.515  26.816  1.00  0.00     0.014 A 
ATOM     34  C   UNL A   1      41.351  24.922  28.293  1.00  0.00     0.010 A 
ATOM     35  C   UNL A   1      39.371  25.799  27.302  1.00  0.00     0.010 A 
ATOM     36  C   UNL A   1      40.556  26.048  28.024  1.00  0.00    -0.014 A 
BRANCH  36  37
ATOM     37  C   UNL A   1      41.006  27.445  28.430  1.00  0.00     0.031 A 
ATOM     38  C   UNL A   1      42.462  27.892  28.398  1.00  0.00     0.074 A 
ATOM     39  C   UNL A   1      40.118  28.334  28.941  1.00  0.00     0.049 A 
ATOM     40  N   UNL A   1      42.986  29.056  28.720  1.00  0.00    -0.248 NA
ATOM     41  C   UNL A   1      43.460  26.892  28.007  1.00  0.00     0.031 C 
ATOM     42  C   UNL A   1      38.702  28.067  29.202  1.00  0.00     0.029 A 
ATOM     43  N   UNL A   1      40.276  29.643  29.358  1.00  0.00    -0.354 N 
ATOM     44  C   UNL A   1      44.369  28.914  28.606  1.00  0.00     0.074 A 
ATOM     45  C   UNL A   1      44.598  27.526  28.257  1.00  0.00     0.031 C 
ATOM     46  C   UNL A   1      38.121  29.171  29.702  1.00  0.00     0.029 A 
ATOM     47  C   UNL A   1      39.116  30.232  29.817  1.00  0.00     0.049 A 
ATOM     48  H   UNL A   1      41.141  30.114  29.331  1.00  0.00     0.167 HD
ATOM     49  C   UNL A   1      45.358  29.842  28.739  1.00  0.00     0.034 A 
ATOM     50  C   UNL A   1      38.853  31.477  30.270  1.00  0.00     0.034 A 
ATOM     51  C   UNL A   1      45.148  31.246  29.028  1.00  0.00     0.049 A 
ATOM     52  C   UNL A   1      39.937  32.525  30.303  1.00  0.00     0.074 A 
ATOM     53  C   UNL A   1      46.076  32.278  29.013  1.00  0.00     0.029 A 
ATOM     54  N   UNL A   1      43.940  31.819  29.396  1.00  0.00    -0.354 N 
ATOM     55  N   UNL A   1      41.214  32.402  30.035  1.00  0.00    -0.248 NA
ATOM     56  C   UNL A   1      39.529  33.889  30.671  1.00  0.00     0.031 C 
ATOM     57  C   UNL A   1      45.446  33.456  29.431  1.00  0.00     0.029 A 
ATOM     58  C   UNL A   1      44.107  33.179  29.638  1.00  0.00     0.049 A 
ATOM     59  H   UNL A   1      43.088  31.333  29.477  1.00  0.00     0.167 HD
ATOM     60  C   UNL A   1      41.754  33.681  30.174  1.00  0.00     0.074 A 
ATOM     61  C   UNL A   1      40.662  34.561  30.528  1.00  0.00     0.031 C 
ATOM     62  C   UNL A   1      43.041  34.080  30.014  1.00  0.00     0.034 A 
BRANCH  49  63
ATOM     63  C   UNL A   1      46.790  29.374  28.554  1.00  0.00     0.023 A 
ATOM     64  C   UNL A   1      47.318  29.107  27.279  1.00  0.00     0.031 A 
ATOM     65  C   UNL A   1      47.640  29.192  29.661  1.00  0.00     0.131 A 
ATOM     66  C   UNL A   1      48.609  28.576  27.148  1.00  0.00     0.055 A 
ATOM     67  C   UNL A   1      48.960  28.756  29.516  1.00  0.00     0.041 A 
ATOM     68  F   UNL A   1      47.201  29.428  30.908  1.00  0.00    -0.206 F 
ATOM     69  C   UNL A   1      49.446  28.425  28.255  1.00  0.00     0.022 A 
BRANCH  66  70
ATOM     70  S   UNL A   1      49.113  27.932  25.530  1.00  0.00     0.124 S 
ATOM     71  O   UNL A   1      50.351  28.671  25.292  1.00  0.00    -0.237 OA
ATOM     72  O   UNL A   1      49.265  26.503  25.793  1.00  0.00    -0.237 OA
ATOM     73  O   UNL A   1      48.002  28.292  24.655  1.00  0.00    -0.744 OA
ENDBRANCH  66  70
ENDBRANCH  49  63
BRANCH  50  74
ATOM     74  C   UNL A   1      37.474  31.838  30.708  1.00  0.00     0.023 A 
ATOM     75  C   UNL A   1      36.585  32.485  29.833  1.00  0.00     0.031 A 
ATOM     76  C   UNL A   1      37.043  31.586  32.022  1.00  0.00     0.131 A 
ATOM     77  C   UNL A   1      35.328  32.902  30.295  1.00  0.00     0.055 A 
ATOM     78  C   UNL A   1      35.773  31.961  32.463  1.00  0.00     0.041 A 
ATOM     79  F   UNL A   1      37.853  30.962  32.892  1.00  0.00    -0.206 F 
ATOM     80  C   UNL A   1      34.911  32.635  31.602  1.00  0.00     0.022 A 
BRANCH  77  81
ATOM     81  S   UNL A   1      34.267  33.861  29.180  1.00  0.00     0.124 S 
ATOM     82  O   UNL A   1      35.225  34.773  28.567  1.00  0.00    -0.237 OA
ATOM     83  O   UNL A   1      33.723  32.822  28.311  1.00  0.00    -0.237 OA
ATOM     84  O   UNL A   1      33.299  34.482  30.081  1.00  0.00    -0.744 OA
ENDBRANCH  77  81
ENDBRANCH  50  74
BRANCH  62  85
ATOM     85  C   UNL A   1      43.336  35.555  30.181  1.00  0.00     0.023 A 
ATOM     86  C   UNL A   1      43.295  36.451  29.096  1.00  0.00     0.031 A 
ATOM     87  C   UNL A   1      43.714  36.065  31.436  1.00  0.00     0.131 A 
ATOM     88  C   UNL A   1      43.695  37.787  29.271  1.00  0.00     0.055 A 
ATOM     89  C   UNL A   1      44.050  37.409  31.618  1.00  0.00     0.041 A 
ATOM     90  F   UNL A   1      43.777  35.262  32.511  1.00  0.00    -0.206 F 
ATOM     91  C   UNL A   1      44.059  38.275  30.528  1.00  0.00     0.022 A 
BRANCH  88  92
ATOM     92  S   UNL A   1      43.851  38.851  27.808  1.00  0.00     0.124 S 
ATOM     93  O   UNL A   1      44.974  38.240  27.104  1.00  0.00    -0.237 OA
ATOM     94  O   UNL A   1      42.544  38.704  27.176  1.00  0.00    -0.237 OA
ATOM     95  O   UNL A   1      44.121  40.173  28.373  1.00  0.00    -0.744 OA
ENDBRANCH  88  92
ENDBRANCH  62  85
ENDBRANCH  36  37
ENDBRANCH  28  31
ENDBRANCH  26  27
ENDBRANCH  25  26
ENDBRANCH   1  25
TORSDOF 18
ENDMDL
MODEL 2
REMARK VINA RESULT:     -12.2      2.352      7.899
REMARK SMILES CC[C@]1(C(=O)NCCCNC(=O)c2ccc(-c3c4nc(c(-c5cc(S(=O)(=O)[O-])ccc5F)c5ccc([nH]5)c(-c5cc(S(=O)(=O)[O-])ccc5F)c5nc(c(-c6cc(S(=O)(=O)[O-])ccc6F)c6ccc3[nH]6)C=C5)C=C4)cc2)CC[N@@H+](Cc2ccc(CC(C)C)cc2)C1
REMARK SMILES IDX 7 1 6 2 4 3 5 4 3 6 76 7 90 8 77 9 78 10 2 12 1 13 79 14
REMARK SMILES IDX 80 15 81 16 89 17 82 18 88 19 83 20 84 21 85 22 86 23 87 24
REMARK SMILES IDX 8 25 9 26 10 27 11 28 12 30 13 31 14 32 75 33 15 34 74 35
REMARK SMILES IDX 16 36 17 37 18 38 68 39 19 40 73 41 67 42 69 43 20 44 72 45
REMARK SMILES IDX 66 46 65 47 21 49 53 50 33 51 52 52 34 53 37 54 51 55 70 56
REMARK SMILES IDX 35 57 36 58 50 60 71 61 38 62 22 63 23 64 31 65 24 66 30 67
REMARK SMILES IDX 32 68 29 69 25 70 26 71 27 72 28 73 54 74 55 75 63 76 56 77
REMARK SMILES IDX 62 78 64 79 61 80 57 81 58 82 59 83 60 84 39 85 40 86 48 87
REMARK SMILES IDX 41 88 47 89 49 90 46 91 42 92 43 93 44 94 45 95
REMARK H PARENT 6 5 78 11 10 29 69 48 37 59
REMARK Flexibility Score: inf
ROOT
ATOM      1  C   UNL A   1      38.123  22.287  25.443  1.00  0.00     0.117 C 
ENDROOT
BRANCH   1   2
ATOM      2  N   UNL A   1      37.426  22.454  24.156  1.00  0.00    -0.355 N 
ATOM      3  C   UNL A   1      36.207  22.834  23.670  1.00  0.00     0.232 C 
ATOM      4  O   UNL A   1      36.242  23.047  22.443  1.00  0.00    -0.274 OA
ATOM      5  H   UNL A   1      38.028  22.219  23.413  1.00  0.00     0.163 HD
BRANCH   3   6
ATOM      6  C   UNL A   1      34.805  22.971  24.385  1.00  0.00     0.103 C 
ATOM      7  C   UNL A   1      34.925  24.020  25.532  1.00  0.00     0.084 C 
ATOM      8  C   UNL A   1      33.601  23.490  23.573  1.00  0.00     0.279 C 
ATOM      9  C   UNL A   1      33.615  24.805  25.538  1.00  0.00     0.263 C 
ATOM     10  N   UNL A   1      33.088  24.734  24.179  1.00  0.00    -0.330 N 
ATOM     11  H   UNL A   1      32.071  24.674  24.196  1.00  0.00     0.348 HD
BRANCH   6  12
ATOM     12  C   UNL A   1      34.527  21.574  25.051  1.00  0.00     0.020 C 
ATOM     13  C   UNL A   1      34.579  21.481  26.579  1.00  0.00     0.005 C 
ENDBRANCH   6  12
BRANCH  10  14
ATOM     14  C   UNL A   1      33.209  25.984  23.384  1.00  0.00     0.299 C 
BRANCH  14  15
ATOM     15  C   UNL A   1      32.007  26.908  23.354  1.00  0.00     0.006 A 
ATOM     16  C   UNL A   1      32.043  28.261  23.026  1.00  0.00     0.010 A 
ATOM     17  C   UNL A   1      30.764  26.385  23.665  1.00  0.00     0.010 A 
ATOM     18  C   UNL A   1      30.844  28.990  22.898  1.00  0.00     0.004 A 
ATOM     19  C   UNL A   1      29.571  27.053  23.496  1.00  0.00     0.004 A 
ATOM     20  C   UNL A   1      29.600  28.368  23.078  1.00  0.00    -0.048 A 
BRANCH  20  21
ATOM     21  C   UNL A   1      28.278  29.053  22.878  1.00  0.00     0.038 C 
BRANCH  21  22
ATOM     22  C   UNL A   1      28.463  30.544  22.570  1.00  0.00    -0.013 C 
ATOM     23  C   UNL A   1      28.068  30.813  21.120  1.00  0.00     0.008 C 
ATOM     24  C   UNL A   1      27.653  31.394  23.549  1.00  0.00     0.008 C 
ENDBRANCH  21  22
ENDBRANCH  20  21
ENDBRANCH  14  15
ENDBRANCH  10  14
ENDBRANCH   3   6
ENDBRANCH   1   2
BRANCH   1  25
ATOM     25  C   UNL A   1      38.249  20.863  26.074  1.00  0.00     0.042 C 
BRANCH  25  26
ATOM     26  C   UNL A   1      38.929  19.714  25.272  1.00  0.00     0.118 C 
BRANCH  26  27
ATOM     27  N   UNL A   1      40.010  19.110  26.063  1.00  0.00    -0.352 N 
ATOM     28  C   UNL A   1      41.288  19.505  26.393  1.00  0.00     0.251 C 
ATOM     29  H   UNL A   1      39.768  18.233  26.439  1.00  0.00     0.163 HD
ATOM     30  O   UNL A   1      42.098  18.600  26.616  1.00  0.00    -0.269 OA
BRANCH  28  31
ATOM     31  C   UNL A   1      41.752  20.915  26.569  1.00  0.00     0.039 A 
ATOM     32  C   UNL A   1      41.700  21.481  27.855  1.00  0.00     0.014 A 
ATOM     33  C   UNL A   1      42.004  21.770  25.501  1.00  0.00     0.014 A 
ATOM     34  C   UNL A   1      41.941  22.858  28.072  1.00  0.00     0.010 A 
ATOM     35  C   UNL A   1      42.261  23.146  25.730  1.00  0.00     0.010 A 
ATOM     36  C   UNL A   1      42.268  23.723  27.016  1.00  0.00    -0.014 A 
BRANCH  36  37
ATOM     37  C   UNL A   1      42.674  25.167  27.278  1.00  0.00     0.031 A 
ATOM     38  C   UNL A   1      41.767  26.173  27.976  1.00  0.00     0.074 A 
ATOM     39  C   UNL A   1      43.849  25.651  26.802  1.00  0.00     0.049 A 
ATOM     40  N   UNL A   1      41.987  27.439  28.262  1.00  0.00    -0.248 NA
ATOM     41  C   UNL A   1      40.425  25.716  28.351  1.00  0.00     0.031 C 
ATOM     42  C   UNL A   1      44.803  24.905  25.978  1.00  0.00     0.029 A 
ATOM     43  N   UNL A   1      44.437  26.896  26.920  1.00  0.00    -0.354 N 
ATOM     44  C   UNL A   1      40.805  27.934  28.812  1.00  0.00     0.074 A 
ATOM     45  C   UNL A   1      39.851  26.844  28.748  1.00  0.00     0.031 C 
ATOM     46  C   UNL A   1      45.856  25.688  25.691  1.00  0.00     0.029 A 
ATOM     47  C   UNL A   1      45.661  27.002  26.294  1.00  0.00     0.049 A 
ATOM     48  H   UNL A   1      44.019  27.642  27.409  1.00  0.00     0.167 HD
ATOM     49  C   UNL A   1      40.535  29.154  29.354  1.00  0.00     0.034 A 
ATOM     50  C   UNL A   1      46.547  28.018  26.209  1.00  0.00     0.034 A 
ATOM     51  C   UNL A   1      41.490  30.236  29.483  1.00  0.00     0.049 A 
ATOM     52  C   UNL A   1      46.282  29.327  26.911  1.00  0.00     0.074 A 
ATOM     53  C   UNL A   1      41.347  31.435  30.167  1.00  0.00     0.029 A 
ATOM     54  N   UNL A   1      42.754  30.266  28.914  1.00  0.00    -0.354 N 
ATOM     55  N   UNL A   1      45.214  29.712  27.564  1.00  0.00    -0.248 NA
ATOM     56  C   UNL A   1      47.364  30.323  26.887  1.00  0.00     0.031 C 
ATOM     57  C   UNL A   1      42.493  32.212  29.958  1.00  0.00     0.029 A 
ATOM     58  C   UNL A   1      43.385  31.470  29.205  1.00  0.00     0.049 A 
ATOM     59  H   UNL A   1      43.147  29.539  28.379  1.00  0.00     0.167 HD
ATOM     60  C   UNL A   1      45.509  30.985  28.054  1.00  0.00     0.074 A 
ATOM     61  C   UNL A   1      46.861  31.290  27.638  1.00  0.00     0.031 C 
ATOM     62  C   UNL A   1      44.724  31.815  28.787  1.00  0.00     0.034 A 
BRANCH  49  63
ATOM     63  C   UNL A   1      39.131  29.395  29.879  1.00  0.00     0.023 A 
ATOM     64  C   UNL A   1      38.167  30.075  29.115  1.00  0.00     0.031 A 
ATOM     65  C   UNL A   1      38.749  28.942  31.156  1.00  0.00     0.131 A 
ATOM     66  C   UNL A   1      36.913  30.374  29.668  1.00  0.00     0.055 A 
ATOM     67  C   UNL A   1      37.465  29.157  31.663  1.00  0.00     0.041 A 
ATOM     68  F   UNL A   1      39.620  28.286  31.939  1.00  0.00    -0.206 F 
ATOM     69  C   UNL A   1      36.543  29.895  30.926  1.00  0.00     0.022 A 
BRANCH  66  70
ATOM     70  S   UNL A   1      35.840  31.537  28.783  1.00  0.00     0.124 S 
ATOM     71  O   UNL A   1      34.966  32.005  29.857  1.00  0.00    -0.237 OA
ATOM     72  O   UNL A   1      36.795  32.515  28.267  1.00  0.00    -0.237 OA
ATOM     73  O   UNL A   1      35.189  30.707  27.776  1.00  0.00    -0.744 OA
ENDBRANCH  66  70
ENDBRANCH  49  63
BRANCH  50  74
ATOM     74  C   UNL A   1      47.818  27.842  25.448  1.00  0.00     0.023 A 
ATOM     75  C   UNL A   1      47.843  27.961  24.048  1.00  0.00     0.031 A 
ATOM     76  C   UNL A   1      49.014  27.505  26.105  1.00  0.00     0.131 A 
ATOM     77  C   UNL A   1      49.028  27.696  23.345  1.00  0.00     0.055 A 
ATOM     78  C   UNL A   1      50.201  27.288  25.405  1.00  0.00     0.041 A 
ATOM     79  F   UNL A   1      49.042  27.389  27.442  1.00  0.00    -0.206 F 
ATOM     80  C   UNL A   1      50.211  27.371  24.015  1.00  0.00     0.022 A 
BRANCH  77  81
ATOM     81  S   UNL A   1      48.985  27.717  21.532  1.00  0.00     0.124 S 
ATOM     82  O   UNL A   1      49.670  28.970  21.232  1.00  0.00    -0.237 OA
ATOM     83  O   UNL A   1      49.708  26.495  21.197  1.00  0.00    -0.237 OA
ATOM     84  O   UNL A   1      47.557  27.696  21.226  1.00  0.00    -0.744 OA
ENDBRANCH  77  81
ENDBRANCH  50  74
BRANCH  62  85
ATOM     85  C   UNL A   1      45.328  33.131  29.227  1.00  0.00     0.023 A 
ATOM     86  C   UNL A   1      45.310  34.272  28.404  1.00  0.00     0.031 A 
ATOM     87  C   UNL A   1      45.978  33.233  30.471  1.00  0.00     0.131 A 
ATOM     88  C   UNL A   1      45.989  35.437  28.800  1.00  0.00     0.055 A 
ATOM     89  C   UNL A   1      46.598  34.414  30.887  1.00  0.00     0.041 A 
ATOM     90  F   UNL A   1      46.035  32.179  31.302  1.00  0.00    -0.206 F 
ATOM     91  C   UNL A   1      46.622  35.519  30.042  1.00  0.00     0.022 A 
BRANCH  88  92
ATOM     92  S   UNL A   1      46.142  36.806  27.616  1.00  0.00     0.124 S 
ATOM     93  O   UNL A   1      46.570  37.906  28.474  1.00  0.00    -0.237 OA
ATOM     94  O   UNL A   1      47.142  36.298  26.681  1.00  0.00    -0.237 OA
ATOM     95  O   UNL A   1      44.792  36.937  27.068  1.00  0.00    -0.744 OA
ENDBRANCH  88  92
ENDBRANCH  62  85
ENDBRANCH  36  37
ENDBRANCH  28  31
ENDBRANCH  26  27
ENDBRANCH  25  26
ENDBRANCH   1  25
TORSDOF 18
ENDMDL
MODEL 3
REMARK VINA RESULT:     -12.2      4.800      9.563
REMARK SMILES CC[C@]1(C(=O)NCCCNC(=O)c2ccc(-c3c4nc(c(-c5cc(S(=O)(=O)[O-])ccc5F)c5ccc([nH]5)c(-c5cc(S(=O)(=O)[O-])ccc5F)c5nc(c(-c6cc(S(=O)(=O)[O-])ccc6F)c6ccc3[nH]6)C=C5)C=C4)cc2)CC[N@@H+](Cc2ccc(CC(C)C)cc2)C1
REMARK SMILES IDX 7 1 6 2 4 3 5 4 3 6 76 7 90 8 77 9 78 10 2 12 1 13 79 14
REMARK SMILES IDX 80 15 81 16 89 17 82 18 88 19 83 20 84 21 85 22 86 23 87 24
REMARK SMILES IDX 8 25 9 26 10 27 11 28 12 30 13 31 14 32 75 33 15 34 74 35
REMARK SMILES IDX 16 36 17 37 18 38 68 39 19 40 73 41 67 42 69 43 20 44 72 45
REMARK SMILES IDX 66 46 65 47 21 49 53 50 33 51 52 52 34 53 37 54 51 55 70 56
REMARK SMILES IDX 35 57 36 58 50 60 71 61 38 62 22 63 23 64 31 65 24 66 30 67
REMARK SMILES IDX 32 68 29 69 25 70 26 71 27 72 28 73 54 74 55 75 63 76 56 77
REMARK SMILES IDX 62 78 64 79 61 80 57 81 58 82 59 83 60 84 39 85 40 86 48 87
REMARK SMILES IDX 41 88 47 89 49 90 46 91 42 92 43 93 44 94 45 95
REMARK H PARENT 6 5 78 11 10 29 69 48 37 59
REMARK Flexibility Score: inf
ROOT
ATOM      1  C   UNL A   1      33.908  28.090  24.674  1.00  0.00     0.117 C 
ENDROOT
BRANCH   1   2
ATOM      2  N   UNL A   1      33.986  27.408  23.371  1.00  0.00    -0.355 N 
ATOM      3  C   UNL A   1      33.505  26.293  22.745  1.00  0.00     0.232 C 
ATOM      4  O   UNL A   1      33.689  26.335  21.514  1.00  0.00    -0.274 OA
ATOM      5  H   UNL A   1      34.567  27.915  22.759  1.00  0.00     0.163 HD
BRANCH   3   6
ATOM      6  C   UNL A   1      32.842  24.984  23.330  1.00  0.00     0.103 C 
ATOM      7  C   UNL A   1      33.174  24.886  24.850  1.00  0.00     0.084 C 
ATOM      8  C   UNL A   1      31.306  24.852  23.308  1.00  0.00     0.279 C 
ATOM      9  C   UNL A   1      31.923  24.337  25.531  1.00  0.00     0.263 C 
ATOM     10  N   UNL A   1      30.795  24.716  24.686  1.00  0.00    -0.330 N 
ATOM     11  H   UNL A   1      30.090  23.979  24.684  1.00  0.00     0.348 HD
BRANCH   6  12
ATOM     12  C   UNL A   1      33.561  23.783  22.612  1.00  0.00     0.020 C 
ATOM     13  C   UNL A   1      34.499  22.904  23.445  1.00  0.00     0.005 C 
ENDBRANCH   6  12
BRANCH  10  14
ATOM     14  C   UNL A   1      29.946  25.815  25.214  1.00  0.00     0.299 C 
BRANCH  14  15
ATOM     15  C   UNL A   1      29.391  26.808  24.211  1.00  0.00     0.006 A 
ATOM     16  C   UNL A   1      28.042  26.962  23.899  1.00  0.00     0.010 A 
ATOM     17  C   UNL A   1      30.273  27.643  23.551  1.00  0.00     0.010 A 
ATOM     18  C   UNL A   1      27.628  28.011  23.053  1.00  0.00     0.004 A 
ATOM     19  C   UNL A   1      29.899  28.711  22.764  1.00  0.00     0.004 A 
ATOM     20  C   UNL A   1      28.556  28.924  22.530  1.00  0.00    -0.048 A 
BRANCH  20  21
ATOM     21  C   UNL A   1      28.186  30.114  21.691  1.00  0.00     0.038 C 
BRANCH  21  22
ATOM     22  C   UNL A   1      28.402  31.426  22.456  1.00  0.00    -0.013 C 
ATOM     23  C   UNL A   1      28.156  32.605  21.519  1.00  0.00     0.008 C 
ATOM     24  C   UNL A   1      27.499  31.477  23.688  1.00  0.00     0.008 C 
ENDBRANCH  21  22
ENDBRANCH  20  21
ENDBRANCH  14  15
ENDBRANCH  10  14
ENDBRANCH   3   6
ENDBRANCH   1   2
BRANCH   1  25
ATOM     25  C   UNL A   1      32.875  29.244  24.882  1.00  0.00     0.042 C 
BRANCH  25  26
ATOM     26  C   UNL A   1      32.510  29.711  26.323  1.00  0.00     0.118 C 
BRANCH  26  27
ATOM     27  N   UNL A   1      32.852  31.128  26.501  1.00  0.00    -0.352 N 
ATOM     28  C   UNL A   1      33.606  31.821  27.423  1.00  0.00     0.251 C 
ATOM     29  H   UNL A   1      32.456  31.710  25.812  1.00  0.00     0.163 HD
ATOM     30  O   UNL A   1      33.293  33.001  27.608  1.00  0.00    -0.269 OA
BRANCH  28  31
ATOM     31  C   UNL A   1      34.798  31.294  28.154  1.00  0.00     0.039 A 
ATOM     32  C   UNL A   1      35.938  32.111  28.255  1.00  0.00     0.014 A 
ATOM     33  C   UNL A   1      34.930  29.960  28.527  1.00  0.00     0.014 A 
ATOM     34  C   UNL A   1      37.163  31.620  28.762  1.00  0.00     0.010 A 
ATOM     35  C   UNL A   1      36.158  29.480  29.050  1.00  0.00     0.010 A 
ATOM     36  C   UNL A   1      37.296  30.296  29.211  1.00  0.00    -0.014 A 
BRANCH  36  37
ATOM     37  C   UNL A   1      38.571  29.821  29.895  1.00  0.00     0.031 A 
ATOM     38  C   UNL A   1      39.025  30.333  31.256  1.00  0.00     0.074 A 
ATOM     39  C   UNL A   1      39.422  28.977  29.259  1.00  0.00     0.049 A 
ATOM     40  N   UNL A   1      40.094  30.013  31.955  1.00  0.00    -0.248 NA
ATOM     41  C   UNL A   1      38.206  31.372  31.887  1.00  0.00     0.031 C 
ATOM     42  C   UNL A   1      39.260  28.479  27.891  1.00  0.00     0.029 A 
ATOM     43  N   UNL A   1      40.610  28.400  29.668  1.00  0.00    -0.354 N 
ATOM     44  C   UNL A   1      40.093  30.835  33.082  1.00  0.00     0.074 A 
ATOM     45  C   UNL A   1      38.952  31.717  32.928  1.00  0.00     0.031 C 
ATOM     46  C   UNL A   1      40.281  27.661  27.587  1.00  0.00     0.029 A 
ATOM     47  C   UNL A   1      41.190  27.576  28.727  1.00  0.00     0.049 A 
ATOM     48  H   UNL A   1      41.007  28.564  30.555  1.00  0.00     0.167 HD
ATOM     49  C   UNL A   1      40.925  30.844  34.160  1.00  0.00     0.034 A 
ATOM     50  C   UNL A   1      42.309  26.821  28.754  1.00  0.00     0.034 A 
ATOM     51  C   UNL A   1      42.034  29.933  34.362  1.00  0.00     0.049 A 
ATOM     52  C   UNL A   1      43.158  26.755  29.999  1.00  0.00     0.074 A 
ATOM     53  C   UNL A   1      42.816  29.766  35.496  1.00  0.00     0.029 A 
ATOM     54  N   UNL A   1      42.530  29.048  33.418  1.00  0.00    -0.354 N 
ATOM     55  N   UNL A   1      43.041  27.428  31.116  1.00  0.00    -0.248 NA
ATOM     56  C   UNL A   1      44.274  25.797  29.989  1.00  0.00     0.031 C 
ATOM     57  C   UNL A   1      43.820  28.830  35.216  1.00  0.00     0.029 A 
ATOM     58  C   UNL A   1      43.622  28.357  33.932  1.00  0.00     0.049 A 
ATOM     59  H   UNL A   1      42.163  28.927  32.512  1.00  0.00     0.167 HD
ATOM     60  C   UNL A   1      44.051  26.953  31.952  1.00  0.00     0.074 A 
ATOM     61  C   UNL A   1      44.752  25.922  31.218  1.00  0.00     0.031 C 
ATOM     62  C   UNL A   1      44.357  27.339  33.217  1.00  0.00     0.034 A 
BRANCH  49  63
ATOM     63  C   UNL A   1      40.663  31.875  35.243  1.00  0.00     0.023 A 
ATOM     64  C   UNL A   1      39.628  31.712  36.179  1.00  0.00     0.031 A 
ATOM     65  C   UNL A   1      41.454  33.035  35.342  1.00  0.00     0.131 A 
ATOM     66  C   UNL A   1      39.344  32.731  37.100  1.00  0.00     0.055 A 
ATOM     67  C   UNL A   1      41.228  34.002  36.326  1.00  0.00     0.041 A 
ATOM     68  F   UNL A   1      42.459  33.256  34.480  1.00  0.00    -0.206 F 
ATOM     69  C   UNL A   1      40.154  33.864  37.200  1.00  0.00     0.022 A 
BRANCH  66  70
ATOM     70  S   UNL A   1      37.802  32.627  38.048  1.00  0.00     0.124 S 
ATOM     71  O   UNL A   1      36.821  33.081  37.065  1.00  0.00    -0.237 OA
ATOM     72  O   UNL A   1      37.744  31.210  38.399  1.00  0.00    -0.237 OA
ATOM     73  O   UNL A   1      38.022  33.539  39.166  1.00  0.00    -0.744 OA
ENDBRANCH  66  70
ENDBRANCH  49  63
BRANCH  50  74
ATOM     74  C   UNL A   1      42.696  26.013  27.561  1.00  0.00     0.023 A 
ATOM     75  C   UNL A   1      42.226  24.700  27.395  1.00  0.00     0.031 A 
ATOM     76  C   UNL A   1      43.580  26.527  26.597  1.00  0.00     0.131 A 
ATOM     77  C   UNL A   1      42.680  23.925  26.317  1.00  0.00     0.055 A 
ATOM     78  C   UNL A   1      43.993  25.767  25.500  1.00  0.00     0.041 A 
ATOM     79  F   UNL A   1      44.049  27.779  26.706  1.00  0.00    -0.206 F 
ATOM     80  C   UNL A   1      43.551  24.454  25.362  1.00  0.00     0.022 A 
BRANCH  77  81
ATOM     81  S   UNL A   1      42.164  22.190  26.217  1.00  0.00     0.124 S 
ATOM     82  O   UNL A   1      42.596  21.675  27.511  1.00  0.00    -0.237 OA
ATOM     83  O   UNL A   1      40.723  22.311  26.023  1.00  0.00    -0.237 OA
ATOM     84  O   UNL A   1      42.903  21.681  25.063  1.00  0.00    -0.744 OA
ENDBRANCH  77  81
ENDBRANCH  50  74
BRANCH  62  85
ATOM     85  C   UNL A   1      45.485  26.607  33.911  1.00  0.00     0.023 A 
ATOM     86  C   UNL A   1      45.286  25.375  34.563  1.00  0.00     0.031 A 
ATOM     87  C   UNL A   1      46.771  27.175  33.966  1.00  0.00     0.131 A 
ATOM     88  C   UNL A   1      46.330  24.791  35.299  1.00  0.00     0.055 A 
ATOM     89  C   UNL A   1      47.824  26.558  34.647  1.00  0.00     0.041 A 
ATOM     90  F   UNL A   1      47.027  28.350  33.369  1.00  0.00    -0.206 F 
ATOM     91  C   UNL A   1      47.602  25.368  35.335  1.00  0.00     0.022 A 
BRANCH  88  92
ATOM     92  S   UNL A   1      45.973  23.329  36.315  1.00  0.00     0.124 S 
ATOM     93  O   UNL A   1      45.017  22.606  35.483  1.00  0.00    -0.237 OA
ATOM     94  O   UNL A   1      47.291  22.716  36.452  1.00  0.00    -0.237 OA
ATOM     95  O   UNL A   1      45.421  23.893  37.546  1.00  0.00    -0.744 OA
ENDBRANCH  88  92
ENDBRANCH  62  85
ENDBRANCH  36  37
ENDBRANCH  28  31
ENDBRANCH  26  27
ENDBRANCH  25  26
ENDBRANCH   1  25
TORSDOF 18
ENDMDL
