MODEL 1
REMARK VINA RESULT:     -12.3      0.000      0.000
REMARK SMILES C[C@@H](NC(=O)[C@@H]1CC[C@@H]2CCCC[C@@H]2[NH2+]1)C(=O)NCCCNC(=O)c1ccc(-c2c3nc(c(-c4cc(S(=O)(=O)[O-])ccc4F)c4ccc([nH]4)c(-c4cc(S(=O)(=O)[O-])ccc4F)c4nc(c(-c5cc(S(=O)(=O)[O-])ccc5F)c5ccc2[nH]5)C=C4)C=C3)cc1
REMARK SMILES IDX 20 1 19 2 18 3 16 4 17 5 2 7 1 8 3 9 4 10 5 12 6 13 7 14
REMARK SMILES IDX 15 15 8 16 14 17 9 20 13 21 10 22 12 23 11 24 21 25 22 26
REMARK SMILES IDX 23 27 24 29 25 30 26 31 87 32 27 33 86 34 28 35 29 36 30 37
REMARK SMILES IDX 80 38 31 39 85 40 79 41 81 42 32 43 84 44 78 45 77 46 33 48
REMARK SMILES IDX 65 49 45 50 64 51 46 52 49 53 63 54 82 55 47 56 48 57 62 59
REMARK SMILES IDX 83 60 50 61 34 62 35 63 43 64 36 65 42 66 44 67 41 68 37 69
REMARK SMILES IDX 38 70 39 71 40 72 66 73 67 74 75 75 68 76 74 77 76 78 73 79
REMARK SMILES IDX 69 80 70 81 71 82 72 83 51 84 52 85 60 86 53 87 59 88 61 89
REMARK SMILES IDX 58 90 54 91 55 92 56 93 57 94
REMARK H PARENT 18 6 3 11 15 18 15 19 22 28 81 47 49 58
REMARK Flexibility Score: inf
ROOT
ATOM      1  C   UNL A   1      31.668  31.657  26.568  1.00  0.00     0.042 C 
ENDROOT
BRANCH   1   2
ATOM      2  C   UNL A   1      31.788  30.159  26.195  1.00  0.00     0.117 C 
BRANCH   2   3
ATOM      3  N   UNL A   1      32.144  29.863  24.821  1.00  0.00    -0.354 N 
ATOM      4  C   UNL A   1      31.646  28.961  23.930  1.00  0.00     0.242 C 
ATOM      5  O   UNL A   1      32.197  28.921  22.823  1.00  0.00    -0.273 OA
ATOM      6  H   UNL A   1      32.879  30.414  24.469  1.00  0.00     0.163 HD
BRANCH   4   7
ATOM      7  C   UNL A   1      30.522  27.947  24.256  1.00  0.00     0.168 C 
ATOM      8  C   UNL A   1      29.417  28.111  23.204  1.00  0.00     0.041 C 
BRANCH   7   9
ATOM      9  N   UNL A   1      30.792  26.512  24.459  1.00  0.00    -0.339 N 
ATOM     10  C   UNL A   1      31.166  25.932  25.648  1.00  0.00     0.278 C 
ATOM     11  H   UNL A   1      30.696  25.919  23.679  1.00  0.00     0.164 HD
ATOM     12  O   UNL A   1      30.315  25.247  26.228  1.00  0.00    -0.268 OA
BRANCH  10  13
ATOM     13  C   UNL A   1      32.644  25.930  26.144  1.00  0.00     0.272 C 
ATOM     14  C   UNL A   1      33.664  26.568  25.230  1.00  0.00     0.076 C 
ATOM     15  N   UNL A   1      33.079  24.533  26.478  1.00  0.00    -0.333 N 
ATOM     16  C   UNL A   1      33.788  25.717  23.985  1.00  0.00     0.016 C 
ATOM     17  C   UNL A   1      33.491  23.666  25.345  1.00  0.00     0.186 C 
ATOM     18  H   UNL A   1      32.301  24.074  26.950  1.00  0.00     0.347 HD
ATOM     19  H   UNL A   1      33.920  24.646  27.044  1.00  0.00     0.347 HD
ATOM     20  C   UNL A   1      34.408  24.381  24.335  1.00  0.00     0.048 C 
ATOM     21  C   UNL A   1      32.279  22.965  24.698  1.00  0.00     0.065 C 
ATOM     22  C   UNL A   1      34.666  23.563  23.062  1.00  0.00     0.010 C 
ATOM     23  C   UNL A   1      32.563  22.253  23.375  1.00  0.00     0.006 C 
ATOM     24  C   UNL A   1      33.379  23.091  22.403  1.00  0.00     0.001 C 
ENDBRANCH  10  13
ENDBRANCH   7   9
ENDBRANCH   4   7
ENDBRANCH   2   3
ENDBRANCH   1   2
BRANCH   1  25
ATOM     25  C   UNL A   1      32.918  32.442  27.012  1.00  0.00     0.118 C 
BRANCH  25  26
ATOM     26  N   UNL A   1      32.663  33.744  27.636  1.00  0.00    -0.352 N 
ATOM     27  C   UNL A   1      33.201  34.345  28.753  1.00  0.00     0.251 C 
ATOM     28  H   UNL A   1      31.985  34.287  27.173  1.00  0.00     0.163 HD
ATOM     29  O   UNL A   1      32.648  35.300  29.274  1.00  0.00    -0.269 OA
BRANCH  27  30
ATOM     30  C   UNL A   1      34.479  33.844  29.280  1.00  0.00     0.039 A 
ATOM     31  C   UNL A   1      35.697  34.339  28.809  1.00  0.00     0.014 A 
ATOM     32  C   UNL A   1      34.443  32.832  30.235  1.00  0.00     0.014 A 
ATOM     33  C   UNL A   1      36.885  33.874  29.377  1.00  0.00     0.010 A 
ATOM     34  C   UNL A   1      35.605  32.458  30.875  1.00  0.00     0.010 A 
ATOM     35  C   UNL A   1      36.839  32.966  30.446  1.00  0.00    -0.014 A 
BRANCH  35  36
ATOM     36  C   UNL A   1      38.047  32.474  31.147  1.00  0.00     0.031 A 
ATOM     37  C   UNL A   1      38.806  31.321  30.547  1.00  0.00     0.074 A 
ATOM     38  C   UNL A   1      38.329  32.934  32.379  1.00  0.00     0.049 A 
ATOM     39  N   UNL A   1      39.688  30.531  31.096  1.00  0.00    -0.248 NA
ATOM     40  C   UNL A   1      38.461  30.969  29.159  1.00  0.00     0.031 C 
ATOM     41  C   UNL A   1      37.613  34.011  33.069  1.00  0.00     0.029 A 
ATOM     42  N   UNL A   1      39.272  32.530  33.287  1.00  0.00    -0.354 N 
ATOM     43  C   UNL A   1      39.964  29.557  30.141  1.00  0.00     0.074 A 
ATOM     44  C   UNL A   1      39.104  29.823  29.007  1.00  0.00     0.031 C 
ATOM     45  C   UNL A   1      38.151  34.188  34.286  1.00  0.00     0.029 A 
ATOM     46  C   UNL A   1      39.210  33.206  34.484  1.00  0.00     0.049 A 
ATOM     47  H   UNL A   1      39.931  31.822  33.101  1.00  0.00     0.167 HD
ATOM     48  C   UNL A   1      40.866  28.548  30.203  1.00  0.00     0.034 A 
ATOM     49  C   UNL A   1      39.917  33.031  35.615  1.00  0.00     0.034 A 
ATOM     50  C   UNL A   1      41.736  28.347  31.336  1.00  0.00     0.049 A 
ATOM     51  C   UNL A   1      40.955  31.939  35.644  1.00  0.00     0.074 A 
ATOM     52  C   UNL A   1      42.741  27.412  31.502  1.00  0.00     0.029 A 
ATOM     53  N   UNL A   1      41.707  29.111  32.498  1.00  0.00    -0.354 N 
ATOM     54  N   UNL A   1      41.234  31.044  34.724  1.00  0.00    -0.248 NA
ATOM     55  C   UNL A   1      41.780  31.843  36.853  1.00  0.00     0.031 C 
ATOM     56  C   UNL A   1      43.287  27.581  32.780  1.00  0.00     0.029 A 
ATOM     57  C   UNL A   1      42.669  28.664  33.387  1.00  0.00     0.049 A 
ATOM     58  H   UNL A   1      41.091  29.861  32.664  1.00  0.00     0.167 HD
ATOM     59  C   UNL A   1      42.294  30.298  35.230  1.00  0.00     0.074 A 
ATOM     60  C   UNL A   1      42.606  30.857  36.532  1.00  0.00     0.031 C 
ATOM     61  C   UNL A   1      42.954  29.249  34.676  1.00  0.00     0.034 A 
BRANCH  48  62
ATOM     62  C   UNL A   1      40.933  27.597  29.030  1.00  0.00     0.023 A 
ATOM     63  C   UNL A   1      41.891  27.747  28.011  1.00  0.00     0.031 A 
ATOM     64  C   UNL A   1      39.994  26.558  28.895  1.00  0.00     0.131 A 
ATOM     65  C   UNL A   1      41.828  26.945  26.862  1.00  0.00     0.055 A 
ATOM     66  C   UNL A   1      39.996  25.701  27.792  1.00  0.00     0.041 A 
ATOM     67  F   UNL A   1      39.041  26.373  29.822  1.00  0.00    -0.206 F 
ATOM     68  C   UNL A   1      40.905  25.904  26.757  1.00  0.00     0.022 A 
BRANCH  65  69
ATOM     69  S   UNL A   1      42.865  27.390  25.442  1.00  0.00     0.124 S 
ATOM     70  O   UNL A   1      42.882  26.139  24.688  1.00  0.00    -0.237 OA
ATOM     71  O   UNL A   1      42.120  28.489  24.839  1.00  0.00    -0.237 OA
ATOM     72  O   UNL A   1      44.140  27.760  26.052  1.00  0.00    -0.744 OA
ENDBRANCH  65  69
ENDBRANCH  48  62
BRANCH  49  73
ATOM     73  C   UNL A   1      39.682  33.910  36.796  1.00  0.00     0.023 A 
ATOM     74  C   UNL A   1      39.093  33.397  37.961  1.00  0.00     0.031 A 
ATOM     75  C   UNL A   1      40.034  35.270  36.780  1.00  0.00     0.131 A 
ATOM     76  C   UNL A   1      38.832  34.246  39.048  1.00  0.00     0.055 A 
ATOM     77  C   UNL A   1      39.816  36.101  37.881  1.00  0.00     0.041 A 
ATOM     78  F   UNL A   1      40.617  35.809  35.696  1.00  0.00    -0.206 F 
ATOM     79  C   UNL A   1      39.200  35.592  39.020  1.00  0.00     0.022 A 
BRANCH  76  80
ATOM     80  S   UNL A   1      37.936  33.575  40.475  1.00  0.00     0.124 S 
ATOM     81  O   UNL A   1      38.863  32.558  40.957  1.00  0.00    -0.237 OA
ATOM     82  O   UNL A   1      37.785  34.757  41.317  1.00  0.00    -0.237 OA
ATOM     83  O   UNL A   1      36.698  33.066  39.890  1.00  0.00    -0.744 OA
ENDBRANCH  76  80
ENDBRANCH  49  73
BRANCH  61  84
ATOM     84  C   UNL A   1      44.112  28.689  35.458  1.00  0.00     0.023 A 
ATOM     85  C   UNL A   1      43.944  27.637  36.372  1.00  0.00     0.031 A 
ATOM     86  C   UNL A   1      45.401  29.222  35.281  1.00  0.00     0.131 A 
ATOM     87  C   UNL A   1      45.041  27.182  37.117  1.00  0.00     0.055 A 
ATOM     88  C   UNL A   1      46.499  28.727  35.983  1.00  0.00     0.041 A 
ATOM     89  F   UNL A   1      45.612  30.228  34.418  1.00  0.00    -0.206 F 
ATOM     90  C   UNL A   1      46.321  27.710  36.916  1.00  0.00     0.022 A 
BRANCH  87  91
ATOM     91  S   UNL A   1      44.759  25.947  38.413  1.00  0.00     0.124 S 
ATOM     92  O   UNL A   1      44.050  24.901  37.684  1.00  0.00    -0.237 OA
ATOM     93  O   UNL A   1      46.118  25.621  38.834  1.00  0.00    -0.237 OA
ATOM     94  O   UNL A   1      43.960  26.666  39.404  1.00  0.00    -0.744 OA
ENDBRANCH  87  91
ENDBRANCH  61  84
ENDBRANCH  35  36
ENDBRANCH  27  30
ENDBRANCH  25  26
ENDBRANCH   1  25
TORSDOF 15
ENDMDL
MODEL 2
REMARK VINA RESULT:     -12.2      2.286      3.079
REMARK SMILES C[C@@H](NC(=O)[C@@H]1CC[C@@H]2CCCC[C@@H]2[NH2+]1)C(=O)NCCCNC(=O)c1ccc(-c2c3nc(c(-c4cc(S(=O)(=O)[O-])ccc4F)c4ccc([nH]4)c(-c4cc(S(=O)(=O)[O-])ccc4F)c4nc(c(-c5cc(S(=O)(=O)[O-])ccc5F)c5ccc2[nH]5)C=C4)C=C3)cc1
REMARK SMILES IDX 20 1 19 2 18 3 16 4 17 5 2 7 1 8 3 9 4 10 5 12 6 13 7 14
REMARK SMILES IDX 15 15 8 16 14 17 9 20 13 21 10 22 12 23 11 24 21 25 22 26
REMARK SMILES IDX 23 27 24 29 25 30 26 31 87 32 27 33 86 34 28 35 29 36 30 37
REMARK SMILES IDX 80 38 31 39 85 40 79 41 81 42 32 43 84 44 78 45 77 46 33 48
REMARK SMILES IDX 65 49 45 50 64 51 46 52 49 53 63 54 82 55 47 56 48 57 62 59
REMARK SMILES IDX 83 60 50 61 34 62 35 63 43 64 36 65 42 66 44 67 41 68 37 69
REMARK SMILES IDX 38 70 39 71 40 72 66 73 67 74 75 75 68 76 74 77 76 78 73 79
REMARK SMILES IDX 69 80 70 81 71 82 72 83 51 84 52 85 60 86 53 87 59 88 61 89
REMARK SMILES IDX 58 90 54 91 55 92 56 93 57 94
REMARK H PARENT 18 6 3 11 15 18 15 19 22 28 81 47 49 58
REMARK Flexibility Score: inf
ROOT
ATOM      1  C   UNL A   1      33.945  28.560  24.593  1.00  0.00     0.042 C 
ENDROOT
BRANCH   1   2
ATOM      2  C   UNL A   1      33.266  28.524  23.201  1.00  0.00     0.117 C 
BRANCH   2   3
ATOM      3  N   UNL A   1      33.344  27.269  22.479  1.00  0.00    -0.354 N 
ATOM      4  C   UNL A   1      32.668  26.096  22.629  1.00  0.00     0.242 C 
ATOM      5  O   UNL A   1      32.993  25.176  21.867  1.00  0.00    -0.273 OA
ATOM      6  H   UNL A   1      34.003  27.265  21.749  1.00  0.00     0.163 HD
BRANCH   4   7
ATOM      7  C   UNL A   1      31.615  25.833  23.733  1.00  0.00     0.168 C 
ATOM      8  C   UNL A   1      30.662  24.741  23.230  1.00  0.00     0.041 C 
BRANCH   7   9
ATOM      9  N   UNL A   1      31.995  25.542  25.128  1.00  0.00    -0.339 N 
ATOM     10  C   UNL A   1      32.902  24.588  25.525  1.00  0.00     0.278 C 
ATOM     11  H   UNL A   1      31.564  26.076  25.834  1.00  0.00     0.164 HD
ATOM     12  O   UNL A   1      33.996  24.994  25.935  1.00  0.00    -0.268 OA
BRANCH  10  13
ATOM     13  C   UNL A   1      32.516  23.085  25.678  1.00  0.00     0.272 C 
ATOM     14  C   UNL A   1      33.120  22.350  26.852  1.00  0.00     0.076 C 
ATOM     15  N   UNL A   1      32.821  22.339  24.413  1.00  0.00    -0.333 N 
ATOM     16  C   UNL A   1      34.611  22.233  26.626  1.00  0.00     0.016 C 
ATOM     17  C   UNL A   1      34.230  21.923  24.197  1.00  0.00     0.186 C 
ATOM     18  H   UNL A   1      32.553  22.937  23.632  1.00  0.00     0.347 HD
ATOM     19  H   UNL A   1      32.297  21.467  24.488  1.00  0.00     0.347 HD
ATOM     20  C   UNL A   1      34.884  21.317  25.453  1.00  0.00     0.048 C 
ATOM     21  C   UNL A   1      35.059  23.049  23.546  1.00  0.00     0.065 C 
ATOM     22  C   UNL A   1      36.392  21.080  25.300  1.00  0.00     0.010 C 
ATOM     23  C   UNL A   1      36.570  22.815  23.513  1.00  0.00     0.006 C 
ATOM     24  C   UNL A   1      37.133  22.325  24.838  1.00  0.00     0.001 C 
ENDBRANCH  10  13
ENDBRANCH   7   9
ENDBRANCH   4   7
ENDBRANCH   2   3
ENDBRANCH   1   2
BRANCH   1  25
ATOM     25  C   UNL A   1      33.095  28.795  25.857  1.00  0.00     0.118 C 
BRANCH  25  26
ATOM     26  N   UNL A   1      32.645  30.174  26.075  1.00  0.00    -0.352 N 
ATOM     27  C   UNL A   1      33.050  31.138  26.971  1.00  0.00     0.251 C 
ATOM     28  H   UNL A   1      31.922  30.461  25.472  1.00  0.00     0.163 HD
ATOM     29  O   UNL A   1      32.355  32.117  27.190  1.00  0.00    -0.269 OA
BRANCH  27  30
ATOM     30  C   UNL A   1      34.359  30.991  27.626  1.00  0.00     0.039 A 
ATOM     31  C   UNL A   1      35.236  32.072  27.735  1.00  0.00     0.014 A 
ATOM     32  C   UNL A   1      34.718  29.732  28.101  1.00  0.00     0.014 A 
ATOM     33  C   UNL A   1      36.444  31.902  28.414  1.00  0.00     0.010 A 
ATOM     34  C   UNL A   1      35.854  29.592  28.868  1.00  0.00     0.010 A 
ATOM     35  C   UNL A   1      36.735  30.672  29.024  1.00  0.00    -0.014 A 
BRANCH  35  36
ATOM     36  C   UNL A   1      37.961  30.426  29.816  1.00  0.00     0.031 A 
ATOM     37  C   UNL A   1      39.008  29.503  29.253  1.00  0.00     0.074 A 
ATOM     38  C   UNL A   1      38.031  30.876  31.082  1.00  0.00     0.049 A 
ATOM     39  N   UNL A   1      39.997  28.902  29.856  1.00  0.00    -0.248 NA
ATOM     40  C   UNL A   1      38.865  29.152  27.830  1.00  0.00     0.031 C 
ATOM     41  C   UNL A   1      37.036  31.731  31.737  1.00  0.00     0.029 A 
ATOM     42  N   UNL A   1      38.963  30.647  32.059  1.00  0.00    -0.354 N 
ATOM     43  C   UNL A   1      40.563  28.063  28.900  1.00  0.00     0.074 A 
ATOM     44  C   UNL A   1      39.760  28.187  27.702  1.00  0.00     0.031 C 
ATOM     45  C   UNL A   1      37.419  31.963  33.002  1.00  0.00     0.029 A 
ATOM     46  C   UNL A   1      38.653  31.232  33.265  1.00  0.00     0.049 A 
ATOM     47  H   UNL A   1      39.778  30.114  31.912  1.00  0.00     0.167 HD
ATOM     48  C   UNL A   1      41.662  27.277  29.014  1.00  0.00     0.034 A 
ATOM     49  C   UNL A   1      39.286  31.163  34.450  1.00  0.00     0.034 A 
ATOM     50  C   UNL A   1      42.459  27.219  30.214  1.00  0.00     0.049 A 
ATOM     51  C   UNL A   1      40.538  30.329  34.540  1.00  0.00     0.074 A 
ATOM     52  C   UNL A   1      43.633  26.525  30.442  1.00  0.00     0.029 A 
ATOM     53  N   UNL A   1      42.164  27.899  31.391  1.00  0.00    -0.354 N 
ATOM     54  N   UNL A   1      41.087  29.565  33.623  1.00  0.00    -0.248 NA
ATOM     55  C   UNL A   1      41.263  30.359  35.815  1.00  0.00     0.031 C 
ATOM     56  C   UNL A   1      44.020  26.747  31.769  1.00  0.00     0.029 A 
ATOM     57  C   UNL A   1      43.127  27.634  32.350  1.00  0.00     0.049 A 
ATOM     58  H   UNL A   1      41.383  28.484  31.523  1.00  0.00     0.167 HD
ATOM     59  C   UNL A   1      42.243  29.049  34.200  1.00  0.00     0.074 A 
ATOM     60  C   UNL A   1      42.313  29.598  35.540  1.00  0.00     0.031 C 
ATOM     61  C   UNL A   1      43.166  28.202  33.676  1.00  0.00     0.034 A 
BRANCH  48  62
ATOM     62  C   UNL A   1      42.037  26.425  27.823  1.00  0.00     0.023 A 
ATOM     63  C   UNL A   1      41.559  25.111  27.674  1.00  0.00     0.031 A 
ATOM     64  C   UNL A   1      42.928  26.910  26.848  1.00  0.00     0.131 A 
ATOM     65  C   UNL A   1      42.048  24.297  26.642  1.00  0.00     0.055 A 
ATOM     66  C   UNL A   1      43.338  26.124  25.768  1.00  0.00     0.041 A 
ATOM     67  F   UNL A   1      43.437  28.148  26.942  1.00  0.00    -0.206 F 
ATOM     68  C   UNL A   1      42.913  24.802  25.672  1.00  0.00     0.022 A 
BRANCH  65  69
ATOM     69  S   UNL A   1      41.662  22.525  26.686  1.00  0.00     0.124 S 
ATOM     70  O   UNL A   1      40.213  22.546  26.872  1.00  0.00    -0.237 OA
ATOM     71  O   UNL A   1      42.133  22.066  25.386  1.00  0.00    -0.237 OA
ATOM     72  O   UNL A   1      42.423  22.038  27.835  1.00  0.00    -0.744 OA
ENDBRANCH  65  69
ENDBRANCH  48  62
BRANCH  49  73
ATOM     73  C   UNL A   1      38.764  31.908  35.631  1.00  0.00     0.023 A 
ATOM     74  C   UNL A   1      38.174  31.221  36.703  1.00  0.00     0.031 A 
ATOM     75  C   UNL A   1      38.838  33.309  35.706  1.00  0.00     0.131 A 
ATOM     76  C   UNL A   1      37.641  31.937  37.786  1.00  0.00     0.055 A 
ATOM     77  C   UNL A   1      38.350  34.015  36.808  1.00  0.00     0.041 A 
ATOM     78  F   UNL A   1      39.409  34.014  34.716  1.00  0.00    -0.206 F 
ATOM     79  C   UNL A   1      37.735  33.329  37.852  1.00  0.00     0.022 A 
BRANCH  76  80
ATOM     80  S   UNL A   1      36.757  31.023  39.078  1.00  0.00     0.124 S 
ATOM     81  O   UNL A   1      35.515  31.780  39.182  1.00  0.00    -0.237 OA
ATOM     82  O   UNL A   1      36.651  29.693  38.486  1.00  0.00    -0.237 OA
ATOM     83  O   UNL A   1      37.647  31.120  40.233  1.00  0.00    -0.744 OA
ENDBRANCH  76  80
ENDBRANCH  49  73
BRANCH  61  84
ATOM     84  C   UNL A   1      44.352  27.875  34.543  1.00  0.00     0.023 A 
ATOM     85  C   UNL A   1      44.362  26.755  35.388  1.00  0.00     0.031 A 
ATOM     86  C   UNL A   1      45.488  28.704  34.517  1.00  0.00     0.131 A 
ATOM     87  C   UNL A   1      45.468  26.519  36.216  1.00  0.00     0.055 A 
ATOM     88  C   UNL A   1      46.609  28.432  35.302  1.00  0.00     0.041 A 
ATOM     89  F   UNL A   1      45.527  29.787  33.726  1.00  0.00    -0.206 F 
ATOM     90  C   UNL A   1      46.599  27.341  36.166  1.00  0.00     0.022 A 
BRANCH  87  91
ATOM     91  S   UNL A   1      45.378  25.168  37.421  1.00  0.00     0.124 S 
ATOM     92  O   UNL A   1      46.773  24.752  37.515  1.00  0.00    -0.237 OA
ATOM     93  O   UNL A   1      44.832  25.837  38.599  1.00  0.00    -0.237 OA
ATOM     94  O   UNL A   1      44.482  24.203  36.787  1.00  0.00    -0.744 OA
ENDBRANCH  87  91
ENDBRANCH  61  84
ENDBRANCH  35  36
ENDBRANCH  27  30
ENDBRANCH  25  26
ENDBRANCH   1  25
TORSDOF 15
ENDMDL
MODEL 3
REMARK VINA RESULT:     -12.2      5.573      8.862
REMARK SMILES C[C@@H](NC(=O)[C@@H]1CC[C@@H]2CCCC[C@@H]2[NH2+]1)C(=O)NCCCNC(=O)c1ccc(-c2c3nc(c(-c4cc(S(=O)(=O)[O-])ccc4F)c4ccc([nH]4)c(-c4cc(S(=O)(=O)[O-])ccc4F)c4nc(c(-c5cc(S(=O)(=O)[O-])ccc5F)c5ccc2[nH]5)C=C4)C=C3)cc1
REMARK SMILES IDX 20 1 19 2 18 3 16 4 17 5 2 7 1 8 3 9 4 10 5 12 6 13 7 14
REMARK SMILES IDX 15 15 8 16 14 17 9 20 13 21 10 22 12 23 11 24 21 25 22 26
REMARK SMILES IDX 23 27 24 29 25 30 26 31 87 32 27 33 86 34 28 35 29 36 30 37
REMARK SMILES IDX 80 38 31 39 85 40 79 41 81 42 32 43 84 44 78 45 77 46 33 48
REMARK SMILES IDX 65 49 45 50 64 51 46 52 49 53 63 54 82 55 47 56 48 57 62 59
REMARK SMILES IDX 83 60 50 61 34 62 35 63 43 64 36 65 42 66 44 67 41 68 37 69
REMARK SMILES IDX 38 70 39 71 40 72 66 73 67 74 75 75 68 76 74 77 76 78 73 79
REMARK SMILES IDX 69 80 70 81 71 82 72 83 51 84 52 85 60 86 53 87 59 88 61 89
REMARK SMILES IDX 58 90 54 91 55 92 56 93 57 94
REMARK H PARENT 18 6 3 11 15 18 15 19 22 28 81 47 49 58
REMARK Flexibility Score: inf
ROOT
ATOM      1  C   UNL A   1      36.275  21.108  24.767  1.00  0.00     0.042 C 
ENDROOT
BRANCH   1   2
ATOM      2  C   UNL A   1      35.233  21.239  25.904  1.00  0.00     0.117 C 
BRANCH   2   3
ATOM      3  N   UNL A   1      34.043  20.419  25.785  1.00  0.00    -0.354 N 
ATOM      4  C   UNL A   1      33.004  20.452  24.905  1.00  0.00     0.242 C 
ATOM      5  O   UNL A   1      32.101  19.626  25.091  1.00  0.00    -0.273 OA
ATOM      6  H   UNL A   1      33.974  19.709  26.463  1.00  0.00     0.163 HD
BRANCH   4   7
ATOM      7  C   UNL A   1      32.855  21.501  23.776  1.00  0.00     0.168 C 
ATOM      8  C   UNL A   1      32.003  20.880  22.661  1.00  0.00     0.041 C 
BRANCH   7   9
ATOM      9  N   UNL A   1      32.387  22.875  24.037  1.00  0.00    -0.339 N 
ATOM     10  C   UNL A   1      32.643  23.968  23.244  1.00  0.00     0.278 C 
ATOM     11  H   UNL A   1      31.846  23.022  24.847  1.00  0.00     0.164 HD
ATOM     12  O   UNL A   1      31.698  24.407  22.576  1.00  0.00    -0.268 OA
BRANCH  10  13
ATOM     13  C   UNL A   1      33.976  24.771  23.336  1.00  0.00     0.272 C 
ATOM     14  C   UNL A   1      34.737  24.667  24.637  1.00  0.00     0.076 C 
ATOM     15  N   UNL A   1      33.737  26.216  23.012  1.00  0.00    -0.333 N 
ATOM     16  C   UNL A   1      33.927  25.348  25.719  1.00  0.00     0.016 C 
ATOM     17  C   UNL A   1      33.185  27.068  24.096  1.00  0.00     0.186 C 
ATOM     18  H   UNL A   1      33.084  26.251  22.230  1.00  0.00     0.347 HD
ATOM     19  H   UNL A   1      34.662  26.600  22.819  1.00  0.00     0.347 HD
ATOM     20  C   UNL A   1      33.868  26.837  25.457  1.00  0.00     0.048 C 
ATOM     21  C   UNL A   1      31.646  26.989  24.151  1.00  0.00     0.065 C 
ATOM     22  C   UNL A   1      33.169  27.556  26.619  1.00  0.00     0.010 C 
ATOM     23  C   UNL A   1      31.001  27.626  25.382  1.00  0.00     0.006 C 
ATOM     24  C   UNL A   1      31.682  27.243  26.686  1.00  0.00     0.001 C 
ENDBRANCH  10  13
ENDBRANCH   7   9
ENDBRANCH   4   7
ENDBRANCH   2   3
ENDBRANCH   1   2
BRANCH   1  25
ATOM     25  C   UNL A   1      37.729  21.563  25.000  1.00  0.00     0.118 C 
BRANCH  25  26
ATOM     26  N   UNL A   1      38.574  20.635  25.758  1.00  0.00    -0.352 N 
ATOM     27  C   UNL A   1      39.777  20.811  26.405  1.00  0.00     0.251 C 
ATOM     28  H   UNL A   1      38.217  19.719  25.814  1.00  0.00     0.163 HD
ATOM     29  O   UNL A   1      40.460  19.852  26.724  1.00  0.00    -0.269 OA
BRANCH  27  30
ATOM     30  C   UNL A   1      40.203  22.177  26.746  1.00  0.00     0.039 A 
ATOM     31  C   UNL A   1      41.228  22.403  27.668  1.00  0.00     0.014 A 
ATOM     32  C   UNL A   1      39.529  23.242  26.156  1.00  0.00     0.014 A 
ATOM     33  C   UNL A   1      41.638  23.714  27.921  1.00  0.00     0.010 A 
ATOM     34  C   UNL A   1      40.008  24.525  26.316  1.00  0.00     0.010 A 
ATOM     35  C   UNL A   1      41.059  24.776  27.209  1.00  0.00    -0.014 A 
BRANCH  35  36
ATOM     36  C   UNL A   1      41.480  26.187  27.367  1.00  0.00     0.031 A 
ATOM     37  C   UNL A   1      42.818  26.603  26.819  1.00  0.00     0.074 A 
ATOM     38  C   UNL A   1      40.755  27.009  28.147  1.00  0.00     0.049 A 
ATOM     39  N   UNL A   1      43.531  27.664  27.082  1.00  0.00    -0.248 NA
ATOM     40  C   UNL A   1      43.472  25.648  25.908  1.00  0.00     0.031 C 
ATOM     41  C   UNL A   1      39.472  26.676  28.772  1.00  0.00     0.029 A 
ATOM     42  N   UNL A   1      41.012  28.283  28.579  1.00  0.00    -0.354 N 
ATOM     43  C   UNL A   1      44.737  27.481  26.412  1.00  0.00     0.074 A 
ATOM     44  C   UNL A   1      44.679  26.176  25.789  1.00  0.00     0.031 C 
ATOM     45  C   UNL A   1      39.049  27.725  29.495  1.00  0.00     0.029 A 
ATOM     46  C   UNL A   1      40.053  28.779  29.432  1.00  0.00     0.049 A 
ATOM     47  H   UNL A   1      41.807  28.796  28.306  1.00  0.00     0.167 HD
ATOM     48  C   UNL A   1      45.785  28.334  26.316  1.00  0.00     0.034 A 
ATOM     49  C   UNL A   1      40.008  29.946  30.101  1.00  0.00     0.034 A 
ATOM     50  C   UNL A   1      45.782  29.646  26.916  1.00  0.00     0.049 A 
ATOM     51  C   UNL A   1      41.159  30.906  29.934  1.00  0.00     0.074 A 
ATOM     52  C   UNL A   1      46.743  30.637  26.838  1.00  0.00     0.029 A 
ATOM     53  N   UNL A   1      44.751  30.151  27.701  1.00  0.00    -0.354 N 
ATOM     54  N   UNL A   1      42.281  30.740  29.272  1.00  0.00    -0.248 NA
ATOM     55  C   UNL A   1      41.031  32.211  30.591  1.00  0.00     0.031 C 
ATOM     56  C   UNL A   1      46.314  31.722  27.612  1.00  0.00     0.029 A 
ATOM     57  C   UNL A   1      45.055  31.436  28.119  1.00  0.00     0.049 A 
ATOM     58  H   UNL A   1      43.924  29.667  27.926  1.00  0.00     0.167 HD
ATOM     59  C   UNL A   1      42.980  31.935  29.404  1.00  0.00     0.074 A 
ATOM     60  C   UNL A   1      42.146  32.814  30.202  1.00  0.00     0.031 C 
ATOM     61  C   UNL A   1      44.197  32.283  28.912  1.00  0.00     0.034 A 
BRANCH  48  62
ATOM     62  C   UNL A   1      47.003  27.862  25.554  1.00  0.00     0.023 A 
ATOM     63  C   UNL A   1      47.202  28.192  24.202  1.00  0.00     0.031 A 
ATOM     64  C   UNL A   1      47.952  27.026  26.169  1.00  0.00     0.131 A 
ATOM     65  C   UNL A   1      48.259  27.612  23.484  1.00  0.00     0.055 A 
ATOM     66  C   UNL A   1      49.057  26.527  25.473  1.00  0.00     0.041 A 
ATOM     67  F   UNL A   1      47.810  26.657  27.452  1.00  0.00    -0.206 F 
ATOM     68  C   UNL A   1      49.204  26.803  24.117  1.00  0.00     0.022 A 
BRANCH  65  69
ATOM     69  S   UNL A   1      48.282  27.800  21.680  1.00  0.00     0.124 S 
ATOM     70  O   UNL A   1      48.638  26.450  21.250  1.00  0.00    -0.237 OA
ATOM     71  O   UNL A   1      46.918  28.225  21.389  1.00  0.00    -0.237 OA
ATOM     72  O   UNL A   1      49.313  28.811  21.455  1.00  0.00    -0.744 OA
ENDBRANCH  65  69
ENDBRANCH  48  62
BRANCH  49  73
ATOM     73  C   UNL A   1      38.841  30.277  30.966  1.00  0.00     0.023 A 
ATOM     74  C   UNL A   1      37.750  30.993  30.450  1.00  0.00     0.031 A 
ATOM     75  C   UNL A   1      38.797  29.892  32.317  1.00  0.00     0.131 A 
ATOM     76  C   UNL A   1      36.680  31.340  31.288  1.00  0.00     0.055 A 
ATOM     77  C   UNL A   1      37.707  30.199  33.136  1.00  0.00     0.041 A 
ATOM     78  F   UNL A   1      39.807  29.191  32.858  1.00  0.00    -0.206 F 
ATOM     79  C   UNL A   1      36.645  30.939  32.625  1.00  0.00     0.022 A 
BRANCH  76  80
ATOM     80  S   UNL A   1      35.362  32.391  30.618  1.00  0.00     0.124 S 
ATOM     81  O   UNL A   1      36.042  33.674  30.486  1.00  0.00    -0.237 OA
ATOM     82  O   UNL A   1      35.035  31.705  29.373  1.00  0.00    -0.237 OA
ATOM     83  O   UNL A   1      34.327  32.335  31.648  1.00  0.00    -0.744 OA
ENDBRANCH  76  80
ENDBRANCH  49  73
BRANCH  61  84
ATOM     84  C   UNL A   1      44.658  33.691  29.180  1.00  0.00     0.023 A 
ATOM     85  C   UNL A   1      44.261  34.764  28.367  1.00  0.00     0.031 A 
ATOM     86  C   UNL A   1      45.508  33.955  30.268  1.00  0.00     0.131 A 
ATOM     87  C   UNL A   1      44.757  36.050  28.623  1.00  0.00     0.055 A 
ATOM     88  C   UNL A   1      45.952  35.246  30.552  1.00  0.00     0.041 A 
ATOM     89  F   UNL A   1      45.915  32.962  31.075  1.00  0.00    -0.206 F 
ATOM     90  C   UNL A   1      45.587  36.300  29.721  1.00  0.00     0.022 A 
BRANCH  87  91
ATOM     91  S   UNL A   1      44.368  37.378  27.453  1.00  0.00     0.124 S 
ATOM     92  O   UNL A   1      44.057  38.488  28.347  1.00  0.00    -0.237 OA
ATOM     93  O   UNL A   1      45.610  37.500  26.695  1.00  0.00    -0.237 OA
ATOM     94  O   UNL A   1      43.233  36.850  26.699  1.00  0.00    -0.744 OA
ENDBRANCH  87  91
ENDBRANCH  61  84
ENDBRANCH  35  36
ENDBRANCH  27  30
ENDBRANCH  25  26
ENDBRANCH   1  25
TORSDOF 15
ENDMDL
