MODEL 1
REMARK VINA RESULT:     -11.7      0.000      0.000
REMARK SMILES COc1ccc2c(c1)C=C(C(=O)NCCCNC(=O)c1ccc(-c3c4nc(c(-c5cc(S(=O)(=O)[O-])ccc5F)c5ccc([nH]5)c(-c5cc(S(=O)(=O)[O-])ccc5F)c5nc(c(-c6cc(S(=O)(=O)[O-])ccc6F)c6ccc3[nH]6)C=C5)C=C4)cc1)[C@H](C(F)(F)F)O2
REMARK SMILES IDX 16 1 15 2 14 3 13 4 11 5 12 6 10 8 3 9 4 10 8 11 5 12 7 13
REMARK SMILES IDX 6 14 9 15 88 16 83 17 2 18 1 19 84 20 85 21 86 22 87 23
REMARK SMILES IDX 17 24 18 25 19 27 20 28 21 29 82 30 22 31 81 32 23 33 24 34
REMARK SMILES IDX 25 35 75 36 26 37 80 38 74 39 76 40 27 41 79 42 73 43 72 44
REMARK SMILES IDX 28 46 60 47 40 48 59 49 41 50 44 51 58 52 77 53 42 54 43 55
REMARK SMILES IDX 57 57 78 58 45 59 29 60 30 61 38 62 31 63 37 64 39 65 36 66
REMARK SMILES IDX 32 67 33 68 34 69 35 70 61 71 62 72 70 73 63 74 69 75 71 76
REMARK SMILES IDX 68 77 64 78 65 79 66 80 67 81 46 82 47 83 55 84 48 85 54 86
REMARK SMILES IDX 56 87 53 88 49 89 50 90 51 91 52 92
REMARK H PARENT 13 7 17 26 76 45 44 56
REMARK Flexibility Score: inf
ROOT
ATOM      1  C   UNL A   1      33.998  28.622  26.248  1.00  0.00     0.118 C 
ENDROOT
BRANCH   1   2
ATOM      2  C   UNL A   1      32.980  27.824  27.060  1.00  0.00     0.042 C 
BRANCH   2   3
ATOM      3  C   UNL A   1      31.623  27.685  26.362  1.00  0.00     0.118 C 
BRANCH   3   4
ATOM      4  N   UNL A   1      30.985  26.426  26.720  1.00  0.00    -0.352 N 
ATOM      5  C   UNL A   1      31.210  25.136  26.357  1.00  0.00     0.251 C 
ATOM      6  O   UNL A   1      30.419  24.281  26.748  1.00  0.00    -0.270 OA
ATOM      7  H   UNL A   1      30.240  26.531  27.354  1.00  0.00     0.163 HD
BRANCH   5   8
ATOM      8  C   UNL A   1      32.406  24.707  25.584  1.00  0.00     0.067 C 
ATOM      9  C   UNL A   1      36.676  22.509  25.113  1.00  0.00     0.119 A 
ATOM     10  C   UNL A   1      36.611  22.656  23.729  1.00  0.00     0.050 A 
ATOM     11  C   UNL A   1      35.656  23.018  25.915  1.00  0.00     0.058 A 
ATOM     12  C   UNL A   1      35.525  23.322  23.152  1.00  0.00     0.051 A 
ATOM     13  C   UNL A   1      34.572  23.688  25.338  1.00  0.00     0.021 A 
ATOM     14  C   UNL A   1      34.505  23.834  23.957  1.00  0.00     0.128 A 
ATOM     15  C   UNL A   1      33.473  24.148  26.166  1.00  0.00     0.025 C 
ATOM     16  O   UNL A   1      33.446  24.400  23.314  1.00  0.00    -0.475 OA
ATOM     17  C   UNL A   1      32.427  25.085  24.103  1.00  0.00     0.314 C 
BRANCH   9  18
ATOM     18  O   UNL A   1      37.644  21.797  25.763  1.00  0.00    -0.497 OA
ATOM     19  C   UNL A   1      38.740  22.585  26.214  1.00  0.00     0.278 C 
ENDBRANCH   9  18
BRANCH  17  20
ATOM     20  C   UNL A   1      31.089  24.937  23.342  1.00  0.00     0.429 C 
ATOM     21  F   UNL A   1      31.225  25.061  22.003  1.00  0.00    -0.167 F 
ATOM     22  F   UNL A   1      30.557  23.697  23.533  1.00  0.00    -0.167 F 
ATOM     23  F   UNL A   1      30.155  25.824  23.756  1.00  0.00    -0.167 F 
ENDBRANCH  17  20
ENDBRANCH   5   8
ENDBRANCH   3   4
ENDBRANCH   2   3
ENDBRANCH   1   2
BRANCH   1  24
ATOM     24  N   UNL A   1      33.930  30.044  26.549  1.00  0.00    -0.352 N 
ATOM     25  C   UNL A   1      34.688  30.798  27.410  1.00  0.00     0.251 C 
ATOM     26  H   UNL A   1      33.233  30.541  26.061  1.00  0.00     0.163 HD
ATOM     27  O   UNL A   1      34.306  31.925  27.710  1.00  0.00    -0.269 OA
BRANCH  25  28
ATOM     28  C   UNL A   1      35.944  30.260  27.982  1.00  0.00     0.039 A 
ATOM     29  C   UNL A   1      35.914  29.687  29.257  1.00  0.00     0.014 A 
ATOM     30  C   UNL A   1      37.156  30.363  27.294  1.00  0.00     0.014 A 
ATOM     31  C   UNL A   1      37.085  29.174  29.819  1.00  0.00     0.010 A 
ATOM     32  C   UNL A   1      38.310  29.791  27.826  1.00  0.00     0.010 A 
ATOM     33  C   UNL A   1      38.288  29.196  29.097  1.00  0.00    -0.014 A 
BRANCH  33  34
ATOM     34  C   UNL A   1      39.539  28.614  29.655  1.00  0.00     0.031 A 
ATOM     35  C   UNL A   1      40.245  29.298  30.793  1.00  0.00     0.074 A 
ATOM     36  C   UNL A   1      40.076  27.520  29.083  1.00  0.00     0.049 A 
ATOM     37  N   UNL A   1      41.397  29.014  31.346  1.00  0.00    -0.248 NA
ATOM     38  C   UNL A   1      39.581  30.481  31.359  1.00  0.00     0.031 C 
ATOM     39  C   UNL A   1      39.504  26.795  27.947  1.00  0.00     0.029 A 
ATOM     40  N   UNL A   1      41.234  26.838  29.364  1.00  0.00    -0.354 N 
ATOM     41  C   UNL A   1      41.609  29.996  32.309  1.00  0.00     0.074 A 
ATOM     42  C   UNL A   1      40.492  30.912  32.219  1.00  0.00     0.031 C 
ATOM     43  C   UNL A   1      40.308  25.766  27.634  1.00  0.00     0.029 A 
ATOM     44  C   UNL A   1      41.472  25.784  28.513  1.00  0.00     0.049 A 
ATOM     45  H   UNL A   1      41.835  27.080  30.105  1.00  0.00     0.167 HD
ATOM     46  C   UNL A   1      42.629  30.110  33.195  1.00  0.00     0.034 A 
ATOM     47  C   UNL A   1      42.521  24.941  28.433  1.00  0.00     0.034 A 
ATOM     48  C   UNL A   1      43.729  29.176  33.273  1.00  0.00     0.049 A 
ATOM     49  C   UNL A   1      43.652  25.089  29.416  1.00  0.00     0.074 A 
ATOM     50  C   UNL A   1      44.777  29.148  34.176  1.00  0.00     0.029 A 
ATOM     51  N   UNL A   1      43.930  28.109  32.403  1.00  0.00    -0.354 N 
ATOM     52  N   UNL A   1      43.811  25.986  30.362  1.00  0.00    -0.248 NA
ATOM     53  C   UNL A   1      44.738  24.106  29.329  1.00  0.00     0.031 C 
ATOM     54  C   UNL A   1      45.648  28.116  33.808  1.00  0.00     0.029 A 
ATOM     55  C   UNL A   1      45.104  27.443  32.726  1.00  0.00     0.049 A 
ATOM     56  H   UNL A   1      43.327  27.862  31.665  1.00  0.00     0.167 HD
ATOM     57  C   UNL A   1      45.003  25.659  30.999  1.00  0.00     0.074 A 
ATOM     58  C   UNL A   1      45.516  24.476  30.336  1.00  0.00     0.031 C 
ATOM     59  C   UNL A   1      45.614  26.276  32.044  1.00  0.00     0.034 A 
BRANCH  46  60
ATOM     60  C   UNL A   1      42.617  31.307  34.119  1.00  0.00     0.023 A 
ATOM     61  C   UNL A   1      41.845  31.329  35.295  1.00  0.00     0.031 A 
ATOM     62  C   UNL A   1      43.343  32.467  33.793  1.00  0.00     0.131 A 
ATOM     63  C   UNL A   1      41.739  32.510  36.044  1.00  0.00     0.055 A 
ATOM     64  C   UNL A   1      43.307  33.610  34.595  1.00  0.00     0.041 A 
ATOM     65  F   UNL A   1      44.085  32.519  32.676  1.00  0.00    -0.206 F 
ATOM     66  C   UNL A   1      42.485  33.644  35.718  1.00  0.00     0.022 A 
BRANCH  63  67
ATOM     67  S   UNL A   1      40.473  32.597  37.342  1.00  0.00     0.124 S 
ATOM     68  O   UNL A   1      40.018  33.980  37.218  1.00  0.00    -0.237 OA
ATOM     69  O   UNL A   1      39.525  31.571  36.925  1.00  0.00    -0.237 OA
ATOM     70  O   UNL A   1      41.216  32.303  38.565  1.00  0.00    -0.744 OA
ENDBRANCH  63  67
ENDBRANCH  46  60
BRANCH  47  71
ATOM     71  C   UNL A   1      42.554  23.897  27.370  1.00  0.00     0.023 A 
ATOM     72  C   UNL A   1      42.035  22.613  27.597  1.00  0.00     0.031 A 
ATOM     73  C   UNL A   1      43.105  24.175  26.106  1.00  0.00     0.131 A 
ATOM     74  C   UNL A   1      42.104  21.645  26.583  1.00  0.00     0.055 A 
ATOM     75  C   UNL A   1      43.130  23.221  25.087  1.00  0.00     0.041 A 
ATOM     76  F   UNL A   1      43.605  25.391  25.836  1.00  0.00    -0.206 F 
ATOM     77  C   UNL A   1      42.635  21.944  25.326  1.00  0.00     0.022 A 
BRANCH  74  78
ATOM     78  S   UNL A   1      41.528  19.963  26.946  1.00  0.00     0.124 S 
ATOM     79  O   UNL A   1      42.786  19.228  27.022  1.00  0.00    -0.237 OA
ATOM     80  O   UNL A   1      40.817  20.152  28.206  1.00  0.00    -0.237 OA
ATOM     81  O   UNL A   1      40.683  19.638  25.799  1.00  0.00    -0.744 OA
ENDBRANCH  74  78
ENDBRANCH  47  71
BRANCH  59  82
ATOM     82  C   UNL A   1      46.889  25.653  32.559  1.00  0.00     0.023 A 
ATOM     83  C   UNL A   1      48.131  25.882  31.940  1.00  0.00     0.031 A 
ATOM     84  C   UNL A   1      46.858  24.818  33.690  1.00  0.00     0.131 A 
ATOM     85  C   UNL A   1      49.282  25.245  32.428  1.00  0.00     0.055 A 
ATOM     86  C   UNL A   1      48.016  24.234  34.206  1.00  0.00     0.041 A 
ATOM     87  F   UNL A   1      45.700  24.561  34.318  1.00  0.00    -0.206 F 
ATOM     88  C   UNL A   1      49.235  24.437  33.568  1.00  0.00     0.022 A 
BRANCH  85  89
ATOM     89  S   UNL A   1      50.834  25.419  31.504  1.00  0.00     0.124 S 
ATOM     90  O   UNL A   1      51.666  24.385  32.112  1.00  0.00    -0.237 OA
ATOM     91  O   UNL A   1      50.410  25.172  30.131  1.00  0.00    -0.237 OA
ATOM     92  O   UNL A   1      51.249  26.793  31.787  1.00  0.00    -0.744 OA
ENDBRANCH  85  89
ENDBRANCH  59  82
ENDBRANCH  33  34
ENDBRANCH  25  28
ENDBRANCH   1  24
TORSDOF 15
ENDMDL
MODEL 2
REMARK VINA RESULT:     -11.7      2.358      4.018
REMARK SMILES COc1ccc2c(c1)C=C(C(=O)NCCCNC(=O)c1ccc(-c3c4nc(c(-c5cc(S(=O)(=O)[O-])ccc5F)c5ccc([nH]5)c(-c5cc(S(=O)(=O)[O-])ccc5F)c5nc(c(-c6cc(S(=O)(=O)[O-])ccc6F)c6ccc3[nH]6)C=C5)C=C4)cc1)[C@H](C(F)(F)F)O2
REMARK SMILES IDX 16 1 15 2 14 3 13 4 11 5 12 6 10 8 3 9 4 10 8 11 5 12 7 13
REMARK SMILES IDX 6 14 9 15 88 16 83 17 2 18 1 19 84 20 85 21 86 22 87 23
REMARK SMILES IDX 17 24 18 25 19 27 20 28 21 29 82 30 22 31 81 32 23 33 24 34
REMARK SMILES IDX 25 35 75 36 26 37 80 38 74 39 76 40 27 41 79 42 73 43 72 44
REMARK SMILES IDX 28 46 60 47 40 48 59 49 41 50 44 51 58 52 77 53 42 54 43 55
REMARK SMILES IDX 57 57 78 58 45 59 29 60 30 61 38 62 31 63 37 64 39 65 36 66
REMARK SMILES IDX 32 67 33 68 34 69 35 70 61 71 62 72 70 73 63 74 69 75 71 76
REMARK SMILES IDX 68 77 64 78 65 79 66 80 67 81 46 82 47 83 55 84 48 85 54 86
REMARK SMILES IDX 56 87 53 88 49 89 50 90 51 91 52 92
REMARK H PARENT 13 7 17 26 76 45 44 56
REMARK Flexibility Score: inf
ROOT
ATOM      1  C   UNL A   1      34.032  29.275  26.088  1.00  0.00     0.118 C 
ENDROOT
BRANCH   1   2
ATOM      2  C   UNL A   1      33.271  28.165  26.807  1.00  0.00     0.042 C 
BRANCH   2   3
ATOM      3  C   UNL A   1      33.401  26.800  26.123  1.00  0.00     0.118 C 
BRANCH   3   4
ATOM      4  N   UNL A   1      33.822  26.955  24.737  1.00  0.00    -0.352 N 
ATOM      5  C   UNL A   1      33.147  27.200  23.583  1.00  0.00     0.251 C 
ATOM      6  O   UNL A   1      33.776  27.167  22.529  1.00  0.00    -0.270 OA
ATOM      7  H   UNL A   1      34.794  26.864  24.611  1.00  0.00     0.163 HD
BRANCH   5   8
ATOM      8  C   UNL A   1      31.711  27.584  23.551  1.00  0.00     0.067 C 
ATOM      9  C   UNL A   1      28.103  30.743  23.000  1.00  0.00     0.119 A 
ATOM     10  C   UNL A   1      27.177  29.701  23.000  1.00  0.00     0.050 A 
ATOM     11  C   UNL A   1      29.459  30.468  23.173  1.00  0.00     0.058 A 
ATOM     12  C   UNL A   1      27.614  28.385  23.182  1.00  0.00     0.051 A 
ATOM     13  C   UNL A   1      29.894  29.152  23.360  1.00  0.00     0.021 A 
ATOM     14  C   UNL A   1      28.971  28.111  23.358  1.00  0.00     0.128 A 
ATOM     15  C   UNL A   1      31.311  28.859  23.462  1.00  0.00     0.025 C 
ATOM     16  O   UNL A   1      29.323  26.799  23.451  1.00  0.00    -0.475 OA
ATOM     17  C   UNL A   1      30.703  26.461  23.788  1.00  0.00     0.314 C 
BRANCH   9  18
ATOM     18  O   UNL A   1      27.790  32.047  22.738  1.00  0.00    -0.497 OA
ATOM     19  C   UNL A   1      28.056  32.449  21.400  1.00  0.00     0.278 C 
ENDBRANCH   9  18
BRANCH  17  20
ATOM     20  C   UNL A   1      31.016  25.108  23.107  1.00  0.00     0.429 C 
ATOM     21  F   UNL A   1      31.955  24.390  23.763  1.00  0.00    -0.167 F 
ATOM     22  F   UNL A   1      29.912  24.311  23.081  1.00  0.00    -0.167 F 
ATOM     23  F   UNL A   1      31.416  25.253  21.823  1.00  0.00    -0.167 F 
ENDBRANCH  17  20
ENDBRANCH   5   8
ENDBRANCH   3   4
ENDBRANCH   2   3
ENDBRANCH   1   2
BRANCH   1  24
ATOM     24  N   UNL A   1      33.852  30.562  26.742  1.00  0.00    -0.352 N 
ATOM     25  C   UNL A   1      34.508  31.099  27.823  1.00  0.00     0.251 C 
ATOM     26  H   UNL A   1      33.152  31.135  26.352  1.00  0.00     0.163 HD
ATOM     27  O   UNL A   1      34.034  32.086  28.377  1.00  0.00    -0.269 OA
BRANCH  25  28
ATOM     28  C   UNL A   1      35.763  30.493  28.325  1.00  0.00     0.039 A 
ATOM     29  C   UNL A   1      36.948  30.713  27.617  1.00  0.00     0.014 A 
ATOM     30  C   UNL A   1      35.770  29.672  29.456  1.00  0.00     0.014 A 
ATOM     31  C   UNL A   1      38.145  30.152  28.068  1.00  0.00     0.010 A 
ATOM     32  C   UNL A   1      36.974  29.169  29.943  1.00  0.00     0.010 A 
ATOM     33  C   UNL A   1      38.173  29.397  29.251  1.00  0.00    -0.014 A 
BRANCH  33  34
ATOM     34  C   UNL A   1      39.443  28.828  29.778  1.00  0.00     0.031 A 
ATOM     35  C   UNL A   1      40.152  29.500  30.921  1.00  0.00     0.074 A 
ATOM     36  C   UNL A   1      39.994  27.757  29.174  1.00  0.00     0.049 A 
ATOM     37  N   UNL A   1      41.318  29.227  31.451  1.00  0.00    -0.248 NA
ATOM     38  C   UNL A   1      39.474  30.657  31.522  1.00  0.00     0.031 C 
ATOM     39  C   UNL A   1      39.420  27.047  28.030  1.00  0.00     0.029 A 
ATOM     40  N   UNL A   1      41.168  27.093  29.423  1.00  0.00    -0.354 N 
ATOM     41  C   UNL A   1      41.524  30.191  32.433  1.00  0.00     0.074 A 
ATOM     42  C   UNL A   1      40.388  31.087  32.380  1.00  0.00     0.031 C 
ATOM     43  C   UNL A   1      40.239  26.041  27.682  1.00  0.00     0.029 A 
ATOM     44  C   UNL A   1      41.415  26.063  28.545  1.00  0.00     0.049 A 
ATOM     45  H   UNL A   1      41.776  27.330  30.160  1.00  0.00     0.167 HD
ATOM     46  C   UNL A   1      42.555  30.305  33.307  1.00  0.00     0.034 A 
ATOM     47  C   UNL A   1      42.479  25.243  28.431  1.00  0.00     0.034 A 
ATOM     48  C   UNL A   1      43.673  29.393  33.348  1.00  0.00     0.049 A 
ATOM     49  C   UNL A   1      43.621  25.392  29.402  1.00  0.00     0.074 A 
ATOM     50  C   UNL A   1      44.736  29.366  34.235  1.00  0.00     0.029 A 
ATOM     51  N   UNL A   1      43.883  28.349  32.452  1.00  0.00    -0.354 N 
ATOM     52  N   UNL A   1      43.776  26.270  30.365  1.00  0.00    -0.248 NA
ATOM     53  C   UNL A   1      44.725  24.433  29.277  1.00  0.00     0.031 C 
ATOM     54  C   UNL A   1      45.621  28.359  33.832  1.00  0.00     0.029 A 
ATOM     55  C   UNL A   1      45.074  27.700  32.742  1.00  0.00     0.049 A 
ATOM     56  H   UNL A   1      43.274  28.107  31.717  1.00  0.00     0.167 HD
ATOM     57  C   UNL A   1      44.984  25.953  30.978  1.00  0.00     0.074 A 
ATOM     58  C   UNL A   1      45.510  24.796  30.281  1.00  0.00     0.031 C 
ATOM     59  C   UNL A   1      45.598  26.559  32.027  1.00  0.00     0.034 A 
BRANCH  46  60
ATOM     60  C   UNL A   1      42.532  31.482  34.257  1.00  0.00     0.023 A 
ATOM     61  C   UNL A   1      41.768  31.466  35.439  1.00  0.00     0.031 A 
ATOM     62  C   UNL A   1      43.241  32.659  33.953  1.00  0.00     0.131 A 
ATOM     63  C   UNL A   1      41.651  32.629  36.215  1.00  0.00     0.055 A 
ATOM     64  C   UNL A   1      43.195  33.782  34.781  1.00  0.00     0.041 A 
ATOM     65  F   UNL A   1      43.974  32.746  32.833  1.00  0.00    -0.206 F 
ATOM     66  C   UNL A   1      42.379  33.780  35.909  1.00  0.00     0.022 A 
BRANCH  63  67
ATOM     67  S   UNL A   1      40.392  32.670  37.522  1.00  0.00     0.124 S 
ATOM     68  O   UNL A   1      39.952  34.061  37.465  1.00  0.00    -0.237 OA
ATOM     69  O   UNL A   1      39.430  31.675  37.063  1.00  0.00    -0.237 OA
ATOM     70  O   UNL A   1      41.139  32.310  38.726  1.00  0.00    -0.744 OA
ENDBRANCH  63  67
ENDBRANCH  46  60
BRANCH  47  71
ATOM     71  C   UNL A   1      42.517  24.224  27.345  1.00  0.00     0.023 A 
ATOM     72  C   UNL A   1      41.709  23.077  27.396  1.00  0.00     0.031 A 
ATOM     73  C   UNL A   1      43.364  24.388  26.234  1.00  0.00     0.131 A 
ATOM     74  C   UNL A   1      41.787  22.124  26.368  1.00  0.00     0.055 A 
ATOM     75  C   UNL A   1      43.404  23.459  25.193  1.00  0.00     0.041 A 
ATOM     76  F   UNL A   1      44.148  25.473  26.133  1.00  0.00    -0.206 F 
ATOM     77  C   UNL A   1      42.618  22.314  25.262  1.00  0.00     0.022 A 
BRANCH  74  78
ATOM     78  S   UNL A   1      40.815  20.599  26.521  1.00  0.00     0.124 S 
ATOM     79  O   UNL A   1      39.500  21.039  26.068  1.00  0.00    -0.237 OA
ATOM     80  O   UNL A   1      41.532  19.693  25.630  1.00  0.00    -0.237 OA
ATOM     81  O   UNL A   1      40.911  20.276  27.942  1.00  0.00    -0.744 OA
ENDBRANCH  74  78
ENDBRANCH  47  71
BRANCH  59  82
ATOM     82  C   UNL A   1      46.892  25.950  32.510  1.00  0.00     0.023 A 
ATOM     83  C   UNL A   1      46.922  24.967  33.515  1.00  0.00     0.031 A 
ATOM     84  C   UNL A   1      48.116  26.362  31.953  1.00  0.00     0.131 A 
ATOM     85  C   UNL A   1      48.152  24.463  33.963  1.00  0.00     0.055 A 
ATOM     86  C   UNL A   1      49.333  25.815  32.361  1.00  0.00     0.041 A 
ATOM     87  F   UNL A   1      48.147  27.301  30.993  1.00  0.00    -0.206 F 
ATOM     88  C   UNL A   1      49.356  24.868  33.380  1.00  0.00     0.022 A 
BRANCH  85  89
ATOM     89  S   UNL A   1      48.167  23.329  35.379  1.00  0.00     0.124 S 
ATOM     90  O   UNL A   1      46.994  22.501  35.117  1.00  0.00    -0.237 OA
ATOM     91  O   UNL A   1      49.460  22.667  35.236  1.00  0.00    -0.237 OA
ATOM     92  O   UNL A   1      48.051  24.219  36.533  1.00  0.00    -0.744 OA
ENDBRANCH  85  89
ENDBRANCH  59  82
ENDBRANCH  33  34
ENDBRANCH  25  28
ENDBRANCH   1  24
TORSDOF 15
ENDMDL
MODEL 3
REMARK VINA RESULT:     -11.7      1.302      1.703
REMARK SMILES COc1ccc2c(c1)C=C(C(=O)NCCCNC(=O)c1ccc(-c3c4nc(c(-c5cc(S(=O)(=O)[O-])ccc5F)c5ccc([nH]5)c(-c5cc(S(=O)(=O)[O-])ccc5F)c5nc(c(-c6cc(S(=O)(=O)[O-])ccc6F)c6ccc3[nH]6)C=C5)C=C4)cc1)[C@H](C(F)(F)F)O2
REMARK SMILES IDX 16 1 15 2 14 3 13 4 11 5 12 6 10 8 3 9 4 10 8 11 5 12 7 13
REMARK SMILES IDX 6 14 9 15 88 16 83 17 2 18 1 19 84 20 85 21 86 22 87 23
REMARK SMILES IDX 17 24 18 25 19 27 20 28 21 29 82 30 22 31 81 32 23 33 24 34
REMARK SMILES IDX 25 35 75 36 26 37 80 38 74 39 76 40 27 41 79 42 73 43 72 44
REMARK SMILES IDX 28 46 60 47 40 48 59 49 41 50 44 51 58 52 77 53 42 54 43 55
REMARK SMILES IDX 57 57 78 58 45 59 29 60 30 61 38 62 31 63 37 64 39 65 36 66
REMARK SMILES IDX 32 67 33 68 34 69 35 70 61 71 62 72 70 73 63 74 69 75 71 76
REMARK SMILES IDX 68 77 64 78 65 79 66 80 67 81 46 82 47 83 55 84 48 85 54 86
REMARK SMILES IDX 56 87 53 88 49 89 50 90 51 91 52 92
REMARK H PARENT 13 7 17 26 76 45 44 56
REMARK Flexibility Score: inf
ROOT
ATOM      1  C   UNL A   1      33.910  28.849  26.265  1.00  0.00     0.118 C 
ENDROOT
BRANCH   1   2
ATOM      2  C   UNL A   1      32.866  28.045  27.036  1.00  0.00     0.042 C 
BRANCH   2   3
ATOM      3  C   UNL A   1      31.549  27.872  26.272  1.00  0.00     0.118 C 
BRANCH   3   4
ATOM      4  N   UNL A   1      30.889  26.632  26.656  1.00  0.00    -0.352 N 
ATOM      5  C   UNL A   1      31.099  25.329  26.333  1.00  0.00     0.251 C 
ATOM      6  O   UNL A   1      30.291  24.497  26.738  1.00  0.00    -0.270 OA
ATOM      7  H   UNL A   1      30.137  26.766  27.277  1.00  0.00     0.163 HD
BRANCH   5   8
ATOM      8  C   UNL A   1      32.299  24.862  25.588  1.00  0.00     0.067 C 
ATOM      9  C   UNL A   1      36.509  22.531  25.221  1.00  0.00     0.119 A 
ATOM     10  C   UNL A   1      36.480  22.677  23.835  1.00  0.00     0.050 A 
ATOM     11  C   UNL A   1      35.486  23.074  25.998  1.00  0.00     0.058 A 
ATOM     12  C   UNL A   1      35.429  23.375  23.232  1.00  0.00     0.051 A 
ATOM     13  C   UNL A   1      34.438  23.776  25.395  1.00  0.00     0.021 A 
ATOM     14  C   UNL A   1      34.407  23.920  24.012  1.00  0.00     0.128 A 
ATOM     15  C   UNL A   1      33.335  24.271  26.197  1.00  0.00     0.025 C 
ATOM     16  O   UNL A   1      33.381  24.517  23.344  1.00  0.00    -0.475 OA
ATOM     17  C   UNL A   1      32.366  25.236  24.108  1.00  0.00     0.314 C 
BRANCH   9  18
ATOM     18  O   UNL A   1      37.439  21.791  25.894  1.00  0.00    -0.497 OA
ATOM     19  C   UNL A   1      38.700  22.434  26.035  1.00  0.00     0.278 C 
ENDBRANCH   9  18
BRANCH  17  20
ATOM     20  C   UNL A   1      31.042  25.127  23.317  1.00  0.00     0.429 C 
ATOM     21  F   UNL A   1      31.221  25.160  21.977  1.00  0.00    -0.167 F 
ATOM     22  F   UNL A   1      30.425  23.938  23.565  1.00  0.00    -0.167 F 
ATOM     23  F   UNL A   1      30.158  26.096  23.648  1.00  0.00    -0.167 F 
ENDBRANCH  17  20
ENDBRANCH   5   8
ENDBRANCH   3   4
ENDBRANCH   2   3
ENDBRANCH   1   2
BRANCH   1  24
ATOM     24  N   UNL A   1      33.896  30.254  26.643  1.00  0.00    -0.352 N 
ATOM     25  C   UNL A   1      34.677  30.928  27.550  1.00  0.00     0.251 C 
ATOM     26  H   UNL A   1      33.223  30.804  26.181  1.00  0.00     0.163 HD
ATOM     27  O   UNL A   1      34.336  32.051  27.909  1.00  0.00    -0.269 OA
BRANCH  25  28
ATOM     28  C   UNL A   1      35.907  30.311  28.097  1.00  0.00     0.039 A 
ATOM     29  C   UNL A   1      37.075  30.340  27.331  1.00  0.00     0.014 A 
ATOM     30  C   UNL A   1      35.902  29.662  29.336  1.00  0.00     0.014 A 
ATOM     31  C   UNL A   1      38.248  29.763  27.824  1.00  0.00     0.010 A 
ATOM     32  C   UNL A   1      37.088  29.148  29.856  1.00  0.00     0.010 A 
ATOM     33  C   UNL A   1      38.272  29.186  29.103  1.00  0.00    -0.014 A 
BRANCH  33  34
ATOM     34  C   UNL A   1      39.519  28.608  29.669  1.00  0.00     0.031 A 
ATOM     35  C   UNL A   1      40.216  29.294  30.812  1.00  0.00     0.074 A 
ATOM     36  C   UNL A   1      40.064  27.513  29.103  1.00  0.00     0.049 A 
ATOM     37  N   UNL A   1      41.365  29.013  31.373  1.00  0.00    -0.248 NA
ATOM     38  C   UNL A   1      39.546  30.476  31.372  1.00  0.00     0.031 C 
ATOM     39  C   UNL A   1      39.501  26.787  27.964  1.00  0.00     0.029 A 
ATOM     40  N   UNL A   1      41.220  26.835  29.392  1.00  0.00    -0.354 N 
ATOM     41  C   UNL A   1      41.568  29.996  32.337  1.00  0.00     0.074 A 
ATOM     42  C   UNL A   1      40.450  30.910  32.239  1.00  0.00     0.031 C 
ATOM     43  C   UNL A   1      40.309  25.759  27.656  1.00  0.00     0.029 A 
ATOM     44  C   UNL A   1      41.467  25.781  28.543  1.00  0.00     0.049 A 
ATOM     45  H   UNL A   1      41.817  27.078  30.136  1.00  0.00     0.167 HD
ATOM     46  C   UNL A   1      42.583  30.113  33.229  1.00  0.00     0.034 A 
ATOM     47  C   UNL A   1      42.519  24.940  28.471  1.00  0.00     0.034 A 
ATOM     48  C   UNL A   1      43.683  29.182  33.316  1.00  0.00     0.049 A 
ATOM     49  C   UNL A   1      43.643  25.092  29.462  1.00  0.00     0.074 A 
ATOM     50  C   UNL A   1      44.726  29.157  34.226  1.00  0.00     0.029 A 
ATOM     51  N   UNL A   1      43.893  28.114  32.448  1.00  0.00    -0.354 N 
ATOM     52  N   UNL A   1      43.793  25.989  30.408  1.00  0.00    -0.248 NA
ATOM     53  C   UNL A   1      44.732  24.111  29.383  1.00  0.00     0.031 C 
ATOM     54  C   UNL A   1      45.601  28.126  33.865  1.00  0.00     0.029 A 
ATOM     55  C   UNL A   1      45.066  27.452  32.779  1.00  0.00     0.049 A 
ATOM     56  H   UNL A   1      43.295  27.865  31.706  1.00  0.00     0.167 HD
ATOM     57  C   UNL A   1      44.982  25.666  31.054  1.00  0.00     0.074 A 
ATOM     58  C   UNL A   1      45.501  24.484  30.395  1.00  0.00     0.031 C 
ATOM     59  C   UNL A   1      45.584  26.285  32.102  1.00  0.00     0.034 A 
BRANCH  46  60
ATOM     60  C   UNL A   1      42.561  31.311  34.152  1.00  0.00     0.023 A 
ATOM     61  C   UNL A   1      41.756  31.345  35.306  1.00  0.00     0.031 A 
ATOM     62  C   UNL A   1      43.314  32.460  33.847  1.00  0.00     0.131 A 
ATOM     63  C   UNL A   1      41.645  32.528  36.051  1.00  0.00     0.055 A 
ATOM     64  C   UNL A   1      43.271  33.604  34.648  1.00  0.00     0.041 A 
ATOM     65  F   UNL A   1      44.088  32.500  32.753  1.00  0.00    -0.206 F 
ATOM     66  C   UNL A   1      42.417  33.651  35.746  1.00  0.00     0.022 A 
BRANCH  63  67
ATOM     67  S   UNL A   1      40.344  32.635  37.312  1.00  0.00     0.124 S 
ATOM     68  O   UNL A   1      41.098  32.383  38.537  1.00  0.00    -0.237 OA
ATOM     69  O   UNL A   1      39.846  33.994  37.135  1.00  0.00    -0.237 OA
ATOM     70  O   UNL A   1      39.413  31.574  36.933  1.00  0.00    -0.744 OA
ENDBRANCH  63  67
ENDBRANCH  46  60
BRANCH  47  71
ATOM     71  C   UNL A   1      42.561  23.896  27.409  1.00  0.00     0.023 A 
ATOM     72  C   UNL A   1      42.048  22.609  27.636  1.00  0.00     0.031 A 
ATOM     73  C   UNL A   1      43.116  24.174  26.148  1.00  0.00     0.131 A 
ATOM     74  C   UNL A   1      42.126  21.640  26.623  1.00  0.00     0.055 A 
ATOM     75  C   UNL A   1      43.150  23.220  25.129  1.00  0.00     0.041 A 
ATOM     76  F   UNL A   1      43.610  25.393  25.878  1.00  0.00    -0.206 F 
ATOM     77  C   UNL A   1      42.660  21.941  25.368  1.00  0.00     0.022 A 
BRANCH  74  78
ATOM     78  S   UNL A   1      41.557  19.955  26.985  1.00  0.00     0.124 S 
ATOM     79  O   UNL A   1      40.838  19.615  25.763  1.00  0.00    -0.237 OA
ATOM     80  O   UNL A   1      42.816  19.252  27.206  1.00  0.00    -0.237 OA
ATOM     81  O   UNL A   1      40.725  20.125  28.173  1.00  0.00    -0.744 OA
ENDBRANCH  74  78
ENDBRANCH  47  71
BRANCH  59  82
ATOM     82  C   UNL A   1      46.857  25.665  32.626  1.00  0.00     0.023 A 
ATOM     83  C   UNL A   1      46.849  24.719  33.666  1.00  0.00     0.031 A 
ATOM     84  C   UNL A   1      48.098  26.030  32.073  1.00  0.00     0.131 A 
ATOM     85  C   UNL A   1      48.061  24.204  34.151  1.00  0.00     0.055 A 
ATOM     86  C   UNL A   1      49.296  25.470  32.520  1.00  0.00     0.041 A 
ATOM     87  F   UNL A   1      48.165  26.932  31.081  1.00  0.00    -0.206 F 
ATOM     88  C   UNL A   1      49.283  24.560  33.572  1.00  0.00     0.022 A 
BRANCH  85  89
ATOM     89  S   UNL A   1      48.029  23.121  35.607  1.00  0.00     0.124 S 
ATOM     90  O   UNL A   1      47.352  21.936  35.088  1.00  0.00    -0.237 OA
ATOM     91  O   UNL A   1      49.448  22.964  35.911  1.00  0.00    -0.237 OA
ATOM     92  O   UNL A   1      47.266  23.891  36.589  1.00  0.00    -0.744 OA
ENDBRANCH  85  89
ENDBRANCH  59  82
ENDBRANCH  33  34
ENDBRANCH  25  28
ENDBRANCH   1  24
TORSDOF 15
ENDMDL
