MODEL 1
REMARK VINA RESULT:     -12.2      0.000      0.000
REMARK SMILES CCC[NH2+][C@]1(C(=O)NCCCNC(=O)c2ccc(-c3c4nc(c(-c5cc(S(=O)(=O)[O-])ccc5F)c5ccc([nH]5)c(-c5cc(S(=O)(=O)[O-])ccc5F)c5nc(c(-c6cc(S(=O)(=O)[O-])ccc6F)c6ccc3[nH]6)C=C5)C=C4)cc2)CCC[C@H](Sc2nnc(C)o2)C1
REMARK SMILES IDX 10 1 9 2 8 3 6 4 7 5 5 7 78 8 89 9 79 10 81 11 80 12 4 13
REMARK SMILES IDX 3 16 2 17 1 18 82 19 83 20 84 21 88 22 85 23 86 24 87 25
REMARK SMILES IDX 11 26 12 27 13 28 14 30 15 31 16 32 77 33 17 34 76 35 18 36
REMARK SMILES IDX 19 37 20 38 70 39 21 40 75 41 69 42 71 43 22 44 74 45 68 46
REMARK SMILES IDX 67 47 23 49 55 50 35 51 54 52 36 53 39 54 53 55 72 56 37 57
REMARK SMILES IDX 38 58 52 60 73 61 40 62 24 63 25 64 33 65 26 66 32 67 34 68
REMARK SMILES IDX 31 69 27 70 28 71 29 72 30 73 56 74 57 75 65 76 58 77 64 78
REMARK SMILES IDX 66 79 63 80 59 81 60 82 61 83 62 84 41 85 42 86 50 87 43 88
REMARK SMILES IDX 49 89 51 90 48 91 44 92 45 93 46 94 47 95
REMARK H PARENT 8 6 4 14 4 15 12 29 71 48 39 59
REMARK Flexibility Score: inf
ROOT
ATOM      1  C   UNL A   1      35.794  22.502  23.987  1.00  0.00     0.042 C 
ENDROOT
BRANCH   1   2
ATOM      2  C   UNL A   1      34.298  22.759  23.873  1.00  0.00     0.118 C 
BRANCH   2   3
ATOM      3  N   UNL A   1      33.937  23.620  22.757  1.00  0.00    -0.351 N 
ATOM      4  C   UNL A   1      33.567  24.921  22.619  1.00  0.00     0.281 C 
ATOM      5  O   UNL A   1      33.615  25.334  21.447  1.00  0.00    -0.268 OA
ATOM      6  H   UNL A   1      33.969  23.146  21.894  1.00  0.00     0.163 HD
BRANCH   4   7
ATOM      7  C   UNL A   1      33.059  25.885  23.764  1.00  0.00     0.176 C 
ATOM      8  C   UNL A   1      34.013  25.988  24.971  1.00  0.00     0.079 C 
ATOM      9  C   UNL A   1      32.964  27.317  23.122  1.00  0.00     0.094 C 
ATOM     10  C   UNL A   1      33.693  27.102  25.964  1.00  0.00     0.008 C 
ATOM     11  C   UNL A   1      32.721  28.509  24.083  1.00  0.00     0.063 C 
ATOM     12  C   UNL A   1      33.705  28.444  25.254  1.00  0.00     0.015 C 
BRANCH   7  13
ATOM     13  N   UNL A   1      31.770  25.354  24.304  1.00  0.00    -0.334 N 
ATOM     14  H   UNL A   1      31.144  26.148  24.446  1.00  0.00     0.347 HD
ATOM     15  H   UNL A   1      31.450  24.677  23.612  1.00  0.00     0.347 HD
BRANCH  13  16
ATOM     16  C   UNL A   1      31.835  24.611  25.568  1.00  0.00     0.261 C 
BRANCH  16  17
ATOM     17  C   UNL A   1      31.002  23.315  25.526  1.00  0.00     0.058 C 
ATOM     18  C   UNL A   1      30.197  23.001  26.781  1.00  0.00     0.010 C 
ENDBRANCH  16  17
ENDBRANCH  13  16
ENDBRANCH   7  13
BRANCH  11  19
ATOM     19  S   UNL A   1      30.949  28.565  24.491  1.00  0.00    -0.062 SA
BRANCH  19  20
ATOM     20  C   UNL A   1      30.151  29.421  23.227  1.00  0.00     0.276 A 
ATOM     21  N   UNL A   1      29.969  29.023  21.985  1.00  0.00    -0.101 NA
ATOM     22  O   UNL A   1      29.562  30.634  23.473  1.00  0.00    -0.416 OA
ATOM     23  N   UNL A   1      29.245  30.018  21.351  1.00  0.00    -0.112 NA
ATOM     24  C   UNL A   1      29.017  30.940  22.262  1.00  0.00     0.214 A 
ATOM     25  C   UNL A   1      28.249  32.194  22.176  1.00  0.00     0.113 C 
ENDBRANCH  19  20
ENDBRANCH  11  19
ENDBRANCH   4   7
ENDBRANCH   2   3
ENDBRANCH   1   2
BRANCH   1  26
ATOM     26  C   UNL A   1      36.252  22.212  25.415  1.00  0.00     0.118 C 
BRANCH  26  27
ATOM     27  N   UNL A   1      37.269  21.163  25.474  1.00  0.00    -0.352 N 
ATOM     28  C   UNL A   1      38.606  21.222  25.773  1.00  0.00     0.251 C 
ATOM     29  H   UNL A   1      36.936  20.261  25.262  1.00  0.00     0.163 HD
ATOM     30  O   UNL A   1      39.319  20.249  25.514  1.00  0.00    -0.269 OA
BRANCH  28  31
ATOM     31  C   UNL A   1      39.197  22.430  26.383  1.00  0.00     0.039 A 
ATOM     32  C   UNL A   1      40.271  22.291  27.267  1.00  0.00     0.014 A 
ATOM     33  C   UNL A   1      38.680  23.697  26.108  1.00  0.00     0.014 A 
ATOM     34  C   UNL A   1      40.886  23.428  27.797  1.00  0.00     0.010 A 
ATOM     35  C   UNL A   1      39.339  24.831  26.575  1.00  0.00     0.010 A 
ATOM     36  C   UNL A   1      40.459  24.708  27.408  1.00  0.00    -0.014 A 
BRANCH  36  37
ATOM     37  C   UNL A   1      41.201  25.932  27.814  1.00  0.00     0.031 A 
ATOM     38  C   UNL A   1      40.501  27.029  28.565  1.00  0.00     0.074 A 
ATOM     39  C   UNL A   1      42.478  26.087  27.416  1.00  0.00     0.049 A 
ATOM     40  N   UNL A   1      40.941  28.218  28.891  1.00  0.00    -0.248 NA
ATOM     41  C   UNL A   1      39.117  26.764  28.984  1.00  0.00     0.031 C 
ATOM     42  C   UNL A   1      43.250  25.100  26.655  1.00  0.00     0.029 A 
ATOM     43  N   UNL A   1      43.351  27.134  27.574  1.00  0.00    -0.354 N 
ATOM     44  C   UNL A   1      39.886  28.848  29.542  1.00  0.00     0.074 A 
ATOM     45  C   UNL A   1      38.769  27.927  29.516  1.00  0.00     0.031 C 
ATOM     46  C   UNL A   1      44.481  25.582  26.428  1.00  0.00     0.029 A 
ATOM     47  C   UNL A   1      44.571  26.934  26.969  1.00  0.00     0.049 A 
ATOM     48  H   UNL A   1      43.125  27.952  28.074  1.00  0.00     0.167 HD
ATOM     49  C   UNL A   1      39.860  30.075  30.120  1.00  0.00     0.034 A 
ATOM     50  C   UNL A   1      45.631  27.755  26.836  1.00  0.00     0.034 A 
ATOM     51  C   UNL A   1      40.987  30.977  30.133  1.00  0.00     0.049 A 
ATOM     52  C   UNL A   1      45.554  29.139  27.429  1.00  0.00     0.074 A 
ATOM     53  C   UNL A   1      41.092  32.214  30.745  1.00  0.00     0.029 A 
ATOM     54  N   UNL A   1      42.197  30.751  29.489  1.00  0.00    -0.354 N 
ATOM     55  N   UNL A   1      44.569  29.698  28.094  1.00  0.00    -0.248 NA
ATOM     56  C   UNL A   1      46.728  30.002  27.252  1.00  0.00     0.031 C 
ATOM     57  C   UNL A   1      42.330  32.769  30.403  1.00  0.00     0.029 A 
ATOM     58  C   UNL A   1      43.034  31.846  29.646  1.00  0.00     0.049 A 
ATOM     59  H   UNL A   1      42.428  29.932  28.992  1.00  0.00     0.167 HD
ATOM     60  C   UNL A   1      45.014  30.973  28.431  1.00  0.00     0.074 A 
ATOM     61  C   UNL A   1      46.364  31.091  27.916  1.00  0.00     0.031 C 
ATOM     62  C   UNL A   1      44.368  31.958  29.105  1.00  0.00     0.034 A 
BRANCH  49  63
ATOM     63  C   UNL A   1      38.566  30.521  30.757  1.00  0.00     0.023 A 
ATOM     64  C   UNL A   1      37.559  31.164  30.017  1.00  0.00     0.031 A 
ATOM     65  C   UNL A   1      38.339  30.310  32.130  1.00  0.00     0.131 A 
ATOM     66  C   UNL A   1      36.407  31.637  30.662  1.00  0.00     0.055 A 
ATOM     67  C   UNL A   1      37.153  30.710  32.750  1.00  0.00     0.041 A 
ATOM     68  F   UNL A   1      39.270  29.720  32.895  1.00  0.00    -0.206 F 
ATOM     69  C   UNL A   1      36.185  31.392  32.019  1.00  0.00     0.022 A 
BRANCH  66  70
ATOM     70  S   UNL A   1      35.270  32.701  29.732  1.00  0.00     0.124 S 
ATOM     71  O   UNL A   1      34.756  31.774  28.727  1.00  0.00    -0.237 OA
ATOM     72  O   UNL A   1      34.323  33.122  30.756  1.00  0.00    -0.237 OA
ATOM     73  O   UNL A   1      36.137  33.755  29.211  1.00  0.00    -0.744 OA
ENDBRANCH  66  70
ENDBRANCH  49  63
BRANCH  50  74
ATOM     74  C   UNL A   1      46.840  27.314  26.083  1.00  0.00     0.023 A 
ATOM     75  C   UNL A   1      47.066  27.742  24.766  1.00  0.00     0.031 A 
ATOM     76  C   UNL A   1      47.768  26.423  26.654  1.00  0.00     0.131 A 
ATOM     77  C   UNL A   1      48.165  27.246  24.048  1.00  0.00     0.055 A 
ATOM     78  C   UNL A   1      48.893  25.980  25.956  1.00  0.00     0.041 A 
ATOM     79  F   UNL A   1      47.602  25.981  27.911  1.00  0.00    -0.206 F 
ATOM     80  C   UNL A   1      49.089  26.382  24.638  1.00  0.00     0.022 A 
BRANCH  77  81
ATOM     81  S   UNL A   1      48.321  27.680  22.293  1.00  0.00     0.124 S 
ATOM     82  O   UNL A   1      47.097  28.437  22.065  1.00  0.00    -0.237 OA
ATOM     83  O   UNL A   1      49.563  28.446  22.280  1.00  0.00    -0.237 OA
ATOM     84  O   UNL A   1      48.386  26.381  21.628  1.00  0.00    -0.744 OA
ENDBRANCH  77  81
ENDBRANCH  50  74
BRANCH  62  85
ATOM     85  C   UNL A   1      45.126  33.241  29.335  1.00  0.00     0.023 A 
ATOM     86  C   UNL A   1      45.113  34.283  28.392  1.00  0.00     0.031 A 
ATOM     87  C   UNL A   1      45.869  33.427  30.515  1.00  0.00     0.131 A 
ATOM     88  C   UNL A   1      45.866  35.445  28.622  1.00  0.00     0.055 A 
ATOM     89  C   UNL A   1      46.566  34.609  30.767  1.00  0.00     0.041 A 
ATOM     90  F   UNL A   1      45.920  32.463  31.448  1.00  0.00    -0.206 F 
ATOM     91  C   UNL A   1      46.576  35.622  29.812  1.00  0.00     0.022 A 
BRANCH  88  92
ATOM     92  S   UNL A   1      45.968  36.691  27.309  1.00  0.00     0.124 S 
ATOM     93  O   UNL A   1      47.143  37.457  27.710  1.00  0.00    -0.237 OA
ATOM     94  O   UNL A   1      46.118  35.874  26.110  1.00  0.00    -0.237 OA
ATOM     95  O   UNL A   1      44.697  37.405  27.416  1.00  0.00    -0.744 OA
ENDBRANCH  88  92
ENDBRANCH  62  85
ENDBRANCH  36  37
ENDBRANCH  28  31
ENDBRANCH  26  27
ENDBRANCH   1  26
TORSDOF 18
ENDMDL
MODEL 2
REMARK VINA RESULT:     -12.1      5.254     10.374
REMARK SMILES CCC[NH2+][C@]1(C(=O)NCCCNC(=O)c2ccc(-c3c4nc(c(-c5cc(S(=O)(=O)[O-])ccc5F)c5ccc([nH]5)c(-c5cc(S(=O)(=O)[O-])ccc5F)c5nc(c(-c6cc(S(=O)(=O)[O-])ccc6F)c6ccc3[nH]6)C=C5)C=C4)cc2)CCC[C@H](Sc2nnc(C)o2)C1
REMARK SMILES IDX 10 1 9 2 8 3 6 4 7 5 5 7 78 8 89 9 79 10 81 11 80 12 4 13
REMARK SMILES IDX 3 16 2 17 1 18 82 19 83 20 84 21 88 22 85 23 86 24 87 25
REMARK SMILES IDX 11 26 12 27 13 28 14 30 15 31 16 32 77 33 17 34 76 35 18 36
REMARK SMILES IDX 19 37 20 38 70 39 21 40 75 41 69 42 71 43 22 44 74 45 68 46
REMARK SMILES IDX 67 47 23 49 55 50 35 51 54 52 36 53 39 54 53 55 72 56 37 57
REMARK SMILES IDX 38 58 52 60 73 61 40 62 24 63 25 64 33 65 26 66 32 67 34 68
REMARK SMILES IDX 31 69 27 70 28 71 29 72 30 73 56 74 57 75 65 76 58 77 64 78
REMARK SMILES IDX 66 79 63 80 59 81 60 82 61 83 62 84 41 85 42 86 50 87 43 88
REMARK SMILES IDX 49 89 51 90 48 91 44 92 45 93 46 94 47 95
REMARK H PARENT 8 6 4 14 4 15 12 29 71 48 39 59
REMARK Flexibility Score: inf
ROOT
ATOM      1  C   UNL A   1      32.272  29.697  25.432  1.00  0.00     0.042 C 
ENDROOT
BRANCH   1   2
ATOM      2  C   UNL A   1      32.844  28.286  25.467  1.00  0.00     0.118 C 
BRANCH   2   3
ATOM      3  N   UNL A   1      31.911  27.291  25.972  1.00  0.00    -0.351 N 
ATOM      4  C   UNL A   1      31.939  25.944  26.153  1.00  0.00     0.281 C 
ATOM      5  O   UNL A   1      31.020  25.517  26.875  1.00  0.00    -0.268 OA
ATOM      6  H   UNL A   1      31.054  27.688  26.248  1.00  0.00     0.163 HD
BRANCH   4   7
ATOM      7  C   UNL A   1      32.964  24.924  25.512  1.00  0.00     0.176 C 
ATOM      8  C   UNL A   1      34.443  25.286  25.746  1.00  0.00     0.079 C 
ATOM      9  C   UNL A   1      32.704  23.542  26.214  1.00  0.00     0.094 C 
ATOM     10  C   UNL A   1      35.448  24.198  25.380  1.00  0.00     0.008 C 
ATOM     11  C   UNL A   1      33.732  22.411  25.951  1.00  0.00     0.063 C 
ATOM     12  C   UNL A   1      35.153  22.936  26.172  1.00  0.00     0.015 C 
BRANCH   7  13
ATOM     13  N   UNL A   1      32.772  24.919  24.028  1.00  0.00    -0.334 N 
ATOM     14  H   UNL A   1      33.172  25.784  23.662  1.00  0.00     0.347 HD
ATOM     15  H   UNL A   1      33.228  24.067  23.704  1.00  0.00     0.347 HD
BRANCH  13  16
ATOM     16  C   UNL A   1      31.392  24.827  23.538  1.00  0.00     0.261 C 
BRANCH  16  17
ATOM     17  C   UNL A   1      30.994  26.046  22.683  1.00  0.00     0.058 C 
ATOM     18  C   UNL A   1      32.088  26.619  21.791  1.00  0.00     0.010 C 
ENDBRANCH  16  17
ENDBRANCH  13  16
ENDBRANCH   7  13
BRANCH  11  19
ATOM     19  S   UNL A   1      33.365  21.667  24.332  1.00  0.00    -0.062 SA
BRANCH  19  20
ATOM     20  C   UNL A   1      33.057  19.992  24.587  1.00  0.00     0.276 A 
ATOM     21  N   UNL A   1      32.153  19.460  25.382  1.00  0.00    -0.101 NA
ATOM     22  O   UNL A   1      33.745  19.043  23.878  1.00  0.00    -0.416 OA
ATOM     23  N   UNL A   1      32.246  18.087  25.227  1.00  0.00    -0.112 NA
ATOM     24  C   UNL A   1      33.185  17.885  24.328  1.00  0.00     0.214 A 
ATOM     25  C   UNL A   1      33.672  16.632  23.726  1.00  0.00     0.113 C 
ENDBRANCH  19  20
ENDBRANCH  11  19
ENDBRANCH   4   7
ENDBRANCH   2   3
ENDBRANCH   1   2
BRANCH   1  26
ATOM     26  C   UNL A   1      31.933  30.248  26.816  1.00  0.00     0.118 C 
BRANCH  26  27
ATOM     27  N   UNL A   1      31.962  31.709  26.857  1.00  0.00    -0.352 N 
ATOM     28  C   UNL A   1      32.848  32.576  27.444  1.00  0.00     0.251 C 
ATOM     29  H   UNL A   1      31.218  32.145  26.382  1.00  0.00     0.163 HD
ATOM     30  O   UNL A   1      32.533  33.763  27.562  1.00  0.00    -0.269 OA
BRANCH  28  31
ATOM     31  C   UNL A   1      34.155  32.105  27.945  1.00  0.00     0.039 A 
ATOM     32  C   UNL A   1      35.227  33.001  28.001  1.00  0.00     0.014 A 
ATOM     33  C   UNL A   1      34.336  30.776  28.334  1.00  0.00     0.014 A 
ATOM     34  C   UNL A   1      36.449  32.589  28.537  1.00  0.00     0.010 A 
ATOM     35  C   UNL A   1      35.529  30.387  28.938  1.00  0.00     0.010 A 
ATOM     36  C   UNL A   1      36.590  31.294  29.063  1.00  0.00    -0.014 A 
BRANCH  36  37
ATOM     37  C   UNL A   1      37.816  30.882  29.796  1.00  0.00     0.031 A 
ATOM     38  C   UNL A   1      38.748  29.862  29.204  1.00  0.00     0.074 A 
ATOM     39  C   UNL A   1      38.029  31.359  31.038  1.00  0.00     0.049 A 
ATOM     40  N   UNL A   1      39.791  29.284  29.744  1.00  0.00    -0.248 NA
ATOM     41  C   UNL A   1      38.455  29.417  27.834  1.00  0.00     0.031 C 
ATOM     42  C   UNL A   1      37.173  32.330  31.727  1.00  0.00     0.029 A 
ATOM     43  N   UNL A   1      39.014  31.083  31.953  1.00  0.00    -0.354 N 
ATOM     44  C   UNL A   1      40.272  28.399  28.786  1.00  0.00     0.074 A 
ATOM     45  C   UNL A   1      39.374  28.480  27.653  1.00  0.00     0.031 C 
ATOM     46  C   UNL A   1      37.679  32.578  32.944  1.00  0.00     0.029 A 
ATOM     47  C   UNL A   1      38.857  31.742  33.151  1.00  0.00     0.049 A 
ATOM     48  H   UNL A   1      39.763  30.471  31.769  1.00  0.00     0.167 HD
ATOM     49  C   UNL A   1      41.371  27.605  28.844  1.00  0.00     0.034 A 
ATOM     50  C   UNL A   1      39.559  31.660  34.298  1.00  0.00     0.034 A 
ATOM     51  C   UNL A   1      42.252  27.541  29.986  1.00  0.00     0.049 A 
ATOM     52  C   UNL A   1      40.736  30.720  34.361  1.00  0.00     0.074 A 
ATOM     53  C   UNL A   1      43.427  26.823  30.126  1.00  0.00     0.029 A 
ATOM     54  N   UNL A   1      42.047  28.203  31.190  1.00  0.00    -0.354 N 
ATOM     55  N   UNL A   1      41.215  29.933  33.424  1.00  0.00    -0.248 NA
ATOM     56  C   UNL A   1      41.467  30.657  35.632  1.00  0.00     0.031 C 
ATOM     57  C   UNL A   1      43.886  26.985  31.438  1.00  0.00     0.029 A 
ATOM     58  C   UNL A   1      43.045  27.870  32.094  1.00  0.00     0.049 A 
ATOM     59  H   UNL A   1      41.301  28.819  31.375  1.00  0.00     0.167 HD
ATOM     60  C   UNL A   1      42.314  29.295  33.990  1.00  0.00     0.074 A 
ATOM     61  C   UNL A   1      42.441  29.806  35.340  1.00  0.00     0.031 C 
ATOM     62  C   UNL A   1      43.144  28.370  33.445  1.00  0.00     0.034 A 
BRANCH  49  63
ATOM     63  C   UNL A   1      41.661  26.725  27.653  1.00  0.00     0.023 A 
ATOM     64  C   UNL A   1      41.251  25.380  27.609  1.00  0.00     0.031 A 
ATOM     65  C   UNL A   1      42.368  27.232  26.547  1.00  0.00     0.131 A 
ATOM     66  C   UNL A   1      41.612  24.572  26.520  1.00  0.00     0.055 A 
ATOM     67  C   UNL A   1      42.653  26.444  25.430  1.00  0.00     0.041 A 
ATOM     68  F   UNL A   1      42.804  28.501  26.538  1.00  0.00    -0.206 F 
ATOM     69  C   UNL A   1      42.288  25.101  25.418  1.00  0.00     0.022 A 
BRANCH  66  70
ATOM     70  S   UNL A   1      41.309  22.787  26.630  1.00  0.00     0.124 S 
ATOM     71  O   UNL A   1      41.860  22.476  27.947  1.00  0.00    -0.237 OA
ATOM     72  O   UNL A   1      39.860  22.705  26.508  1.00  0.00    -0.237 OA
ATOM     73  O   UNL A   1      42.064  22.242  25.504  1.00  0.00    -0.744 OA
ENDBRANCH  66  70
ENDBRANCH  49  63
BRANCH  50  74
ATOM     74  C   UNL A   1      39.153  32.455  35.492  1.00  0.00     0.023 A 
ATOM     75  C   UNL A   1      39.623  33.764  35.681  1.00  0.00     0.031 A 
ATOM     76  C   UNL A   1      38.323  31.904  36.485  1.00  0.00     0.131 A 
ATOM     77  C   UNL A   1      39.296  34.463  36.854  1.00  0.00     0.055 A 
ATOM     78  C   UNL A   1      37.951  32.625  37.622  1.00  0.00     0.041 A 
ATOM     79  F   UNL A   1      37.844  30.656  36.356  1.00  0.00    -0.206 F 
ATOM     80  C   UNL A   1      38.450  33.909  37.818  1.00  0.00     0.022 A 
BRANCH  77  81
ATOM     81  S   UNL A   1      40.069  36.078  37.146  1.00  0.00     0.124 S 
ATOM     82  O   UNL A   1      39.278  36.588  38.258  1.00  0.00    -0.237 OA
ATOM     83  O   UNL A   1      41.445  35.704  37.453  1.00  0.00    -0.237 OA
ATOM     84  O   UNL A   1      39.884  36.776  35.875  1.00  0.00    -0.744 OA
ENDBRANCH  77  81
ENDBRANCH  50  74
BRANCH  62  85
ATOM     85  C   UNL A   1      44.273  27.868  34.311  1.00  0.00     0.023 A 
ATOM     86  C   UNL A   1      44.147  26.698  35.079  1.00  0.00     0.031 A 
ATOM     87  C   UNL A   1      45.492  28.568  34.365  1.00  0.00     0.131 A 
ATOM     88  C   UNL A   1      45.205  26.287  35.905  1.00  0.00     0.055 A 
ATOM     89  C   UNL A   1      46.563  28.121  35.142  1.00  0.00     0.041 A 
ATOM     90  F   UNL A   1      45.665  29.694  33.656  1.00  0.00    -0.206 F 
ATOM     91  C   UNL A   1      46.417  26.980  35.926  1.00  0.00     0.022 A 
BRANCH  88  92
ATOM     92  S   UNL A   1      44.945  24.875  37.014  1.00  0.00     0.124 S 
ATOM     93  O   UNL A   1      46.315  24.463  37.304  1.00  0.00    -0.237 OA
ATOM     94  O   UNL A   1      44.211  25.476  38.122  1.00  0.00    -0.237 OA
ATOM     95  O   UNL A   1      44.176  23.937  36.198  1.00  0.00    -0.744 OA
ENDBRANCH  88  92
ENDBRANCH  62  85
ENDBRANCH  36  37
ENDBRANCH  28  31
ENDBRANCH  26  27
ENDBRANCH   1  26
TORSDOF 18
ENDMDL
MODEL 3
REMARK VINA RESULT:     -12.0      5.157      8.195
REMARK SMILES CCC[NH2+][C@]1(C(=O)NCCCNC(=O)c2ccc(-c3c4nc(c(-c5cc(S(=O)(=O)[O-])ccc5F)c5ccc([nH]5)c(-c5cc(S(=O)(=O)[O-])ccc5F)c5nc(c(-c6cc(S(=O)(=O)[O-])ccc6F)c6ccc3[nH]6)C=C5)C=C4)cc2)CCC[C@H](Sc2nnc(C)o2)C1
REMARK SMILES IDX 10 1 9 2 8 3 6 4 7 5 5 7 78 8 89 9 79 10 81 11 80 12 4 13
REMARK SMILES IDX 3 16 2 17 1 18 82 19 83 20 84 21 88 22 85 23 86 24 87 25
REMARK SMILES IDX 11 26 12 27 13 28 14 30 15 31 16 32 77 33 17 34 76 35 18 36
REMARK SMILES IDX 19 37 20 38 70 39 21 40 75 41 69 42 71 43 22 44 74 45 68 46
REMARK SMILES IDX 67 47 23 49 55 50 35 51 54 52 36 53 39 54 53 55 72 56 37 57
REMARK SMILES IDX 38 58 52 60 73 61 40 62 24 63 25 64 33 65 26 66 32 67 34 68
REMARK SMILES IDX 31 69 27 70 28 71 29 72 30 73 56 74 57 75 65 76 58 77 64 78
REMARK SMILES IDX 66 79 63 80 59 81 60 82 61 83 62 84 41 85 42 86 50 87 43 88
REMARK SMILES IDX 49 89 51 90 48 91 44 92 45 93 46 94 47 95
REMARK H PARENT 8 6 4 14 4 15 12 29 71 48 39 59
REMARK Flexibility Score: inf
ROOT
ATOM      1  C   UNL A   1      32.425  27.886  27.316  1.00  0.00     0.042 C 
ENDROOT
BRANCH   1   2
ATOM      2  C   UNL A   1      31.833  27.065  26.178  1.00  0.00     0.118 C 
BRANCH   2   3
ATOM      3  N   UNL A   1      31.294  25.782  26.604  1.00  0.00    -0.351 N 
ATOM      4  C   UNL A   1      31.754  24.504  26.640  1.00  0.00     0.281 C 
ATOM      5  O   UNL A   1      31.065  23.742  27.341  1.00  0.00    -0.268 OA
ATOM      6  H   UNL A   1      30.375  25.859  26.949  1.00  0.00     0.163 HD
BRANCH   4   7
ATOM      7  C   UNL A   1      33.003  23.927  25.859  1.00  0.00     0.176 C 
ATOM      8  C   UNL A   1      34.268  24.801  25.959  1.00  0.00     0.079 C 
ATOM      9  C   UNL A   1      33.337  22.544  26.529  1.00  0.00     0.094 C 
ATOM     10  C   UNL A   1      35.553  24.153  25.451  1.00  0.00     0.008 C 
ATOM     11  C   UNL A   1      34.670  21.865  26.121  1.00  0.00     0.063 C 
ATOM     12  C   UNL A   1      35.820  22.870  26.219  1.00  0.00     0.015 C 
BRANCH   7  13
ATOM     13  N   UNL A   1      32.668  23.852  24.404  1.00  0.00    -0.334 N 
ATOM     14  H   UNL A   1      32.658  24.806  24.040  1.00  0.00     0.347 HD
ATOM     15  H   UNL A   1      33.382  23.248  23.997  1.00  0.00     0.347 HD
BRANCH  13  16
ATOM     16  C   UNL A   1      31.388  23.229  24.048  1.00  0.00     0.261 C 
BRANCH  16  17
ATOM     17  C   UNL A   1      30.466  24.189  23.272  1.00  0.00     0.058 C 
ATOM     18  C   UNL A   1      31.096  25.506  22.833  1.00  0.00     0.010 C 
ENDBRANCH  16  17
ENDBRANCH  13  16
ENDBRANCH   7  13
BRANCH  11  19
ATOM     19  S   UNL A   1      34.425  21.039  24.519  1.00  0.00    -0.062 SA
BRANCH  19  20
ATOM     20  C   UNL A   1      33.608  19.553  24.819  1.00  0.00     0.276 A 
ATOM     21  N   UNL A   1      32.341  19.390  25.141  1.00  0.00    -0.101 NA
ATOM     22  O   UNL A   1      34.261  18.358  24.670  1.00  0.00    -0.416 OA
ATOM     23  N   UNL A   1      32.128  18.026  25.240  1.00  0.00    -0.112 NA
ATOM     24  C   UNL A   1      33.277  17.456  24.946  1.00  0.00     0.214 A 
ATOM     25  C   UNL A   1      33.630  16.030  24.834  1.00  0.00     0.113 C 
ENDBRANCH  19  20
ENDBRANCH  11  19
ENDBRANCH   4   7
ENDBRANCH   2   3
ENDBRANCH   1   2
BRANCH   1  26
ATOM     26  C   UNL A   1      33.765  28.530  26.965  1.00  0.00     0.118 C 
BRANCH  26  27
ATOM     27  N   UNL A   1      33.700  29.991  26.968  1.00  0.00    -0.352 N 
ATOM     28  C   UNL A   1      34.464  30.923  27.622  1.00  0.00     0.251 C 
ATOM     29  H   UNL A   1      32.987  30.369  26.405  1.00  0.00     0.163 HD
ATOM     30  O   UNL A   1      34.068  32.090  27.674  1.00  0.00    -0.269 OA
BRANCH  28  31
ATOM     31  C   UNL A   1      35.736  30.546  28.271  1.00  0.00     0.039 A 
ATOM     32  C   UNL A   1      35.703  29.794  29.450  1.00  0.00     0.014 A 
ATOM     33  C   UNL A   1      36.960  30.953  27.738  1.00  0.00     0.014 A 
ATOM     34  C   UNL A   1      36.898  29.371  30.036  1.00  0.00     0.010 A 
ATOM     35  C   UNL A   1      38.148  30.467  28.279  1.00  0.00     0.010 A 
ATOM     36  C   UNL A   1      38.128  29.656  29.422  1.00  0.00    -0.014 A 
BRANCH  36  37
ATOM     37  C   UNL A   1      39.402  29.074  29.922  1.00  0.00     0.031 A 
ATOM     38  C   UNL A   1      40.152  29.738  31.041  1.00  0.00     0.074 A 
ATOM     39  C   UNL A   1      39.923  28.001  29.294  1.00  0.00     0.049 A 
ATOM     40  N   UNL A   1      41.335  29.456  31.524  1.00  0.00    -0.248 NA
ATOM     41  C   UNL A   1      39.497  30.885  31.686  1.00  0.00     0.031 C 
ATOM     42  C   UNL A   1      39.297  27.293  28.174  1.00  0.00     0.029 A 
ATOM     43  N   UNL A   1      41.103  27.329  29.490  1.00  0.00    -0.354 N 
ATOM     44  C   UNL A   1      41.572  30.395  32.521  1.00  0.00     0.074 A 
ATOM     45  C   UNL A   1      40.431  31.287  32.535  1.00  0.00     0.031 C 
ATOM     46  C   UNL A   1      40.090  26.279  27.796  1.00  0.00     0.029 A 
ATOM     47  C   UNL A   1      41.308  26.300  28.599  1.00  0.00     0.049 A 
ATOM     48  H   UNL A   1      41.743  27.560  30.201  1.00  0.00     0.167 HD
ATOM     49  C   UNL A   1      42.637  30.493  33.357  1.00  0.00     0.034 A 
ATOM     50  C   UNL A   1      42.367  25.486  28.424  1.00  0.00     0.034 A 
ATOM     51  C   UNL A   1      43.764  29.592  33.324  1.00  0.00     0.049 A 
ATOM     52  C   UNL A   1      43.567  25.657  29.321  1.00  0.00     0.074 A 
ATOM     53  C   UNL A   1      44.864  29.558  34.164  1.00  0.00     0.029 A 
ATOM     54  N   UNL A   1      43.948  28.578  32.392  1.00  0.00    -0.354 N 
ATOM     55  N   UNL A   1      43.751  26.513  30.299  1.00  0.00    -0.248 NA
ATOM     56  C   UNL A   1      44.702  24.754  29.089  1.00  0.00     0.031 C 
ATOM     57  C   UNL A   1      45.748  28.582  33.692  1.00  0.00     0.029 A 
ATOM     58  C   UNL A   1      45.166  27.948  32.605  1.00  0.00     0.049 A 
ATOM     59  H   UNL A   1      43.308  28.341  31.682  1.00  0.00     0.167 HD
ATOM     60  C   UNL A   1      45.015  26.239  30.812  1.00  0.00     0.074 A 
ATOM     61  C   UNL A   1      45.538  25.123  30.049  1.00  0.00     0.031 C 
ATOM     62  C   UNL A   1      45.684  26.853  31.821  1.00  0.00     0.034 A 
BRANCH  49  63
ATOM     63  C   UNL A   1      42.644  31.628  34.352  1.00  0.00     0.023 A 
ATOM     64  C   UNL A   1      41.944  31.550  35.569  1.00  0.00     0.031 A 
ATOM     65  C   UNL A   1      43.350  32.813  34.075  1.00  0.00     0.131 A 
ATOM     66  C   UNL A   1      41.906  32.658  36.429  1.00  0.00     0.055 A 
ATOM     67  C   UNL A   1      43.376  33.881  34.974  1.00  0.00     0.041 A 
ATOM     68  F   UNL A   1      44.021  32.956  32.922  1.00  0.00    -0.206 F 
ATOM     69  C   UNL A   1      42.639  33.814  36.152  1.00  0.00     0.022 A 
BRANCH  66  70
ATOM     70  S   UNL A   1      40.772  32.616  37.843  1.00  0.00     0.124 S 
ATOM     71  O   UNL A   1      41.573  31.913  38.842  1.00  0.00    -0.237 OA
ATOM     72  O   UNL A   1      40.531  34.030  38.097  1.00  0.00    -0.237 OA
ATOM     73  O   UNL A   1      39.623  31.867  37.338  1.00  0.00    -0.744 OA
ENDBRANCH  66  70
ENDBRANCH  49  63
BRANCH  50  74
ATOM     74  C   UNL A   1      42.365  24.463  27.339  1.00  0.00     0.023 A 
ATOM     75  C   UNL A   1      41.627  23.276  27.468  1.00  0.00     0.031 A 
ATOM     76  C   UNL A   1      43.133  24.637  26.174  1.00  0.00     0.131 A 
ATOM     77  C   UNL A   1      41.708  22.290  26.472  1.00  0.00     0.055 A 
ATOM     78  C   UNL A   1      43.162  23.680  25.158  1.00  0.00     0.041 A 
ATOM     79  F   UNL A   1      43.858  25.754  25.998  1.00  0.00    -0.206 F 
ATOM     80  C   UNL A   1      42.457  22.491  25.310  1.00  0.00     0.022 A 
BRANCH  77  81
ATOM     81  S   UNL A   1      40.888  20.698  26.759  1.00  0.00     0.124 S 
ATOM     82  O   UNL A   1      41.822  19.768  26.139  1.00  0.00    -0.237 OA
ATOM     83  O   UNL A   1      40.810  20.656  28.215  1.00  0.00    -0.237 OA
ATOM     84  O   UNL A   1      39.606  20.848  26.073  1.00  0.00    -0.744 OA
ENDBRANCH  77  81
ENDBRANCH  50  74
BRANCH  62  85
ATOM     85  C   UNL A   1      47.050  26.312  32.164  1.00  0.00     0.023 A 
ATOM     86  C   UNL A   1      47.227  25.341  33.164  1.00  0.00     0.031 A 
ATOM     87  C   UNL A   1      48.190  26.772  31.479  1.00  0.00     0.131 A 
ATOM     88  C   UNL A   1      48.519  24.895  33.485  1.00  0.00     0.055 A 
ATOM     89  C   UNL A   1      49.465  26.279  31.760  1.00  0.00     0.041 A 
ATOM     90  F   UNL A   1      48.079  27.702  30.518  1.00  0.00    -0.206 F 
ATOM     91  C   UNL A   1      49.635  25.342  32.775  1.00  0.00     0.022 A 
BRANCH  88  92
ATOM     92  S   UNL A   1      48.727  23.775  34.897  1.00  0.00     0.124 S 
ATOM     93  O   UNL A   1      49.193  22.554  34.247  1.00  0.00    -0.237 OA
ATOM     94  O   UNL A   1      49.711  24.478  35.713  1.00  0.00    -0.237 OA
ATOM     95  O   UNL A   1      47.386  23.697  35.473  1.00  0.00    -0.744 OA
ENDBRANCH  88  92
ENDBRANCH  62  85
ENDBRANCH  36  37
ENDBRANCH  28  31
ENDBRANCH  26  27
ENDBRANCH   1  26
TORSDOF 18
ENDMDL
