MODEL 1
REMARK VINA RESULT:     -11.6      0.000      0.000
REMARK SMILES C[C@H]1C[C@H]1CN(C)c1cccc(F)c1C(=O)NCCCNC(=O)c1ccc(-c2c3nc(c(-c4cc(S(=O)(=O)[O-])ccc4F)c4ccc([nH]4)c(-c4cc(S(=O)(=O)[O-])ccc4F)c4nc(c(-c5cc(S(=O)(=O)[O-])ccc5F)c5ccc2[nH]5)C=C4)C=C3)cc1
REMARK SMILES IDX 19 1 18 2 17 3 15 4 16 5 14 7 8 8 9 9 10 10 12 11 11 12
REMARK SMILES IDX 13 13 6 14 7 15 5 16 4 17 1 18 2 19 3 20 20 21 21 22 22 23
REMARK SMILES IDX 23 25 24 26 25 27 86 28 26 29 85 30 27 31 28 32 29 33 79 34
REMARK SMILES IDX 30 35 84 36 78 37 80 38 31 39 83 40 77 41 76 42 32 44 64 45
REMARK SMILES IDX 44 46 63 47 45 48 48 49 62 50 81 51 46 52 47 53 61 55 82 56
REMARK SMILES IDX 49 57 33 58 34 59 42 60 35 61 41 62 43 63 40 64 36 65 37 66
REMARK SMILES IDX 38 67 39 68 65 69 66 70 74 71 67 72 73 73 75 74 72 75 68 76
REMARK SMILES IDX 69 77 70 78 71 79 50 80 51 81 59 82 52 83 58 84 60 85 57 86
REMARK SMILES IDX 53 87 54 88 55 89 56 90
REMARK H PARENT 17 6 21 24 80 43 48 54
REMARK Flexibility Score: inf
ROOT
ATOM      1  C   UNL A   1      31.767  27.822  26.104  1.00  0.00     0.042 C 
ENDROOT
BRANCH   1   2
ATOM      2  C   UNL A   1      32.266  26.388  26.039  1.00  0.00     0.118 C 
BRANCH   2   3
ATOM      3  N   UNL A   1      31.425  25.389  26.692  1.00  0.00    -0.352 N 
ATOM      4  C   UNL A   1      31.349  24.013  26.518  1.00  0.00     0.256 C 
ATOM      5  O   UNL A   1      30.745  23.356  27.364  1.00  0.00    -0.269 OA
ATOM      6  H   UNL A   1      30.807  25.751  27.368  1.00  0.00     0.163 HD
BRANCH   4   7
ATOM      7  C   UNL A   1      31.914  23.363  25.304  1.00  0.00     0.098 A 
ATOM      8  C   UNL A   1      33.085  22.575  25.339  1.00  0.00     0.052 A 
ATOM      9  C   UNL A   1      33.352  21.753  24.225  1.00  0.00     0.027 A 
ATOM     10  C   UNL A   1      32.580  21.802  23.067  1.00  0.00     0.005 A 
ATOM     11  C   UNL A   1      31.256  23.522  24.081  1.00  0.00     0.138 A 
ATOM     12  C   UNL A   1      31.560  22.734  22.976  1.00  0.00     0.040 A 
ATOM     13  F   UNL A   1      30.295  24.450  23.932  1.00  0.00    -0.206 F 
BRANCH   8  14
ATOM     14  N   UNL A   1      34.075  22.640  26.312  1.00  0.00    -0.374 N 
ATOM     15  C   UNL A   1      34.017  21.817  27.502  1.00  0.00     0.143 C 
BRANCH  14  16
ATOM     16  C   UNL A   1      35.039  23.740  26.215  1.00  0.00     0.120 C 
BRANCH  16  17
ATOM     17  C   UNL A   1      36.136  23.385  25.242  1.00  0.00     0.011 C 
ATOM     18  C   UNL A   1      38.192  24.357  26.652  1.00  0.00     0.008 C 
ATOM     19  C   UNL A   1      37.613  23.701  25.444  1.00  0.00    -0.009 C 
ATOM     20  C   UNL A   1      37.123  22.284  25.557  1.00  0.00     0.009 C 
ENDBRANCH  16  17
ENDBRANCH  14  16
ENDBRANCH   8  14
ENDBRANCH   4   7
ENDBRANCH   2   3
ENDBRANCH   1   2
BRANCH   1  21
ATOM     21  C   UNL A   1      32.655  28.864  25.451  1.00  0.00     0.118 C 
BRANCH  21  22
ATOM     22  N   UNL A   1      32.274  30.234  25.763  1.00  0.00    -0.352 N 
ATOM     23  C   UNL A   1      32.787  31.139  26.666  1.00  0.00     0.251 C 
ATOM     24  H   UNL A   1      31.515  30.574  25.236  1.00  0.00     0.163 HD
ATOM     25  O   UNL A   1      32.185  32.192  26.855  1.00  0.00    -0.269 OA
BRANCH  23  26
ATOM     26  C   UNL A   1      34.028  30.851  27.424  1.00  0.00     0.039 A 
ATOM     27  C   UNL A   1      34.942  31.885  27.653  1.00  0.00     0.014 A 
ATOM     28  C   UNL A   1      34.320  29.566  27.882  1.00  0.00     0.014 A 
ATOM     29  C   UNL A   1      36.106  31.640  28.390  1.00  0.00     0.010 A 
ATOM     30  C   UNL A   1      35.410  29.351  28.717  1.00  0.00     0.010 A 
ATOM     31  C   UNL A   1      36.334  30.377  28.958  1.00  0.00    -0.014 A 
BRANCH  31  32
ATOM     32  C   UNL A   1      37.559  30.078  29.746  1.00  0.00     0.031 A 
ATOM     33  C   UNL A   1      38.640  29.220  29.142  1.00  0.00     0.074 A 
ATOM     34  C   UNL A   1      37.680  30.530  31.010  1.00  0.00     0.049 A 
ATOM     35  N   UNL A   1      39.736  28.761  29.689  1.00  0.00    -0.248 NA
ATOM     36  C   UNL A   1      38.444  28.787  27.747  1.00  0.00     0.031 C 
ATOM     37  C   UNL A   1      36.689  31.344  31.717  1.00  0.00     0.029 A 
ATOM     38  N   UNL A   1      38.690  30.371  31.925  1.00  0.00    -0.354 N 
ATOM     39  C   UNL A   1      40.345  27.976  28.714  1.00  0.00     0.074 A 
ATOM     40  C   UNL A   1      39.459  27.956  27.573  1.00  0.00     0.031 C 
ATOM     41  C   UNL A   1      37.162  31.654  32.934  1.00  0.00     0.029 A 
ATOM     42  C   UNL A   1      38.464  31.020  33.117  1.00  0.00     0.049 A 
ATOM     43  H   UNL A   1      39.501  29.842  31.746  1.00  0.00     0.167 HD
ATOM     44  C   UNL A   1      41.550  27.359  28.752  1.00  0.00     0.034 A 
ATOM     45  C   UNL A   1      39.216  31.092  34.233  1.00  0.00     0.034 A 
ATOM     46  C   UNL A   1      42.442  27.422  29.880  1.00  0.00     0.049 A 
ATOM     47  C   UNL A   1      40.536  30.369  34.270  1.00  0.00     0.074 A 
ATOM     48  C   UNL A   1      43.710  26.886  30.002  1.00  0.00     0.029 A 
ATOM     49  N   UNL A   1      42.159  28.061  31.079  1.00  0.00    -0.354 N 
ATOM     50  N   UNL A   1      41.106  29.648  33.332  1.00  0.00    -0.248 NA
ATOM     51  C   UNL A   1      41.313  30.463  35.513  1.00  0.00     0.031 C 
ATOM     52  C   UNL A   1      44.169  27.144  31.297  1.00  0.00     0.029 A 
ATOM     53  C   UNL A   1      43.215  27.900  31.960  1.00  0.00     0.049 A 
ATOM     54  H   UNL A   1      41.330  28.555  31.274  1.00  0.00     0.167 HD
ATOM     55  C   UNL A   1      42.313  29.213  33.868  1.00  0.00     0.074 A 
ATOM     56  C   UNL A   1      42.395  29.759  35.208  1.00  0.00     0.031 C 
ATOM     57  C   UNL A   1      43.268  28.435  33.301  1.00  0.00     0.034 A 
BRANCH  44  58
ATOM     58  C   UNL A   1      41.967  26.566  27.539  1.00  0.00     0.023 A 
ATOM     59  C   UNL A   1      41.791  25.173  27.477  1.00  0.00     0.031 A 
ATOM     60  C   UNL A   1      42.553  27.207  26.435  1.00  0.00     0.131 A 
ATOM     61  C   UNL A   1      42.253  24.457  26.363  1.00  0.00     0.055 A 
ATOM     62  C   UNL A   1      42.943  26.499  25.296  1.00  0.00     0.041 A 
ATOM     63  F   UNL A   1      42.764  28.533  26.446  1.00  0.00    -0.206 F 
ATOM     64  C   UNL A   1      42.804  25.114  25.260  1.00  0.00     0.022 A 
BRANCH  61  65
ATOM     65  S   UNL A   1      42.221  22.647  26.423  1.00  0.00     0.124 S 
ATOM     66  O   UNL A   1      40.813  22.387  26.714  1.00  0.00    -0.237 OA
ATOM     67  O   UNL A   1      42.675  22.276  25.087  1.00  0.00    -0.237 OA
ATOM     68  O   UNL A   1      43.146  22.323  27.507  1.00  0.00    -0.744 OA
ENDBRANCH  61  65
ENDBRANCH  44  58
BRANCH  45  69
ATOM     69  C   UNL A   1      38.735  31.885  35.398  1.00  0.00     0.023 A 
ATOM     70  C   UNL A   1      38.149  31.251  36.505  1.00  0.00     0.031 A 
ATOM     71  C   UNL A   1      38.891  33.282  35.438  1.00  0.00     0.131 A 
ATOM     72  C   UNL A   1      37.732  32.016  37.606  1.00  0.00     0.055 A 
ATOM     73  C   UNL A   1      38.506  34.033  36.549  1.00  0.00     0.041 A 
ATOM     74  F   UNL A   1      39.457  33.930  34.408  1.00  0.00    -0.206 F 
ATOM     75  C   UNL A   1      37.921  33.400  37.641  1.00  0.00     0.022 A 
BRANCH  72  76
ATOM     76  S   UNL A   1      36.934  31.175  39.001  1.00  0.00     0.124 S 
ATOM     77  O   UNL A   1      35.721  31.967  39.169  1.00  0.00    -0.237 OA
ATOM     78  O   UNL A   1      36.753  29.824  38.482  1.00  0.00    -0.237 OA
ATOM     79  O   UNL A   1      37.915  31.299  40.078  1.00  0.00    -0.744 OA
ENDBRANCH  72  76
ENDBRANCH  45  69
BRANCH  57  80
ATOM     80  C   UNL A   1      44.494  28.125  34.118  1.00  0.00     0.023 A 
ATOM     81  C   UNL A   1      44.573  26.959  34.895  1.00  0.00     0.031 A 
ATOM     82  C   UNL A   1      45.621  28.963  34.054  1.00  0.00     0.131 A 
ATOM     83  C   UNL A   1      45.753  26.668  35.595  1.00  0.00     0.055 A 
ATOM     84  C   UNL A   1      46.807  28.646  34.714  1.00  0.00     0.041 A 
ATOM     85  F   UNL A   1      45.594  30.087  33.319  1.00  0.00    -0.206 F 
ATOM     86  C   UNL A   1      46.877  27.494  35.493  1.00  0.00     0.022 A 
BRANCH  83  87
ATOM     87  S   UNL A   1      45.797  25.202  36.660  1.00  0.00     0.124 S 
ATOM     88  O   UNL A   1      44.444  25.186  37.205  1.00  0.00    -0.237 OA
ATOM     89  O   UNL A   1      46.117  24.135  35.716  1.00  0.00    -0.237 OA
ATOM     90  O   UNL A   1      46.851  25.510  37.624  1.00  0.00    -0.744 OA
ENDBRANCH  83  87
ENDBRANCH  57  80
ENDBRANCH  31  32
ENDBRANCH  23  26
ENDBRANCH  21  22
ENDBRANCH   1  21
TORSDOF 16
ENDMDL
MODEL 2
REMARK VINA RESULT:     -11.5      2.961      4.722
REMARK SMILES C[C@H]1C[C@H]1CN(C)c1cccc(F)c1C(=O)NCCCNC(=O)c1ccc(-c2c3nc(c(-c4cc(S(=O)(=O)[O-])ccc4F)c4ccc([nH]4)c(-c4cc(S(=O)(=O)[O-])ccc4F)c4nc(c(-c5cc(S(=O)(=O)[O-])ccc5F)c5ccc2[nH]5)C=C4)C=C3)cc1
REMARK SMILES IDX 19 1 18 2 17 3 15 4 16 5 14 7 8 8 9 9 10 10 12 11 11 12
REMARK SMILES IDX 13 13 6 14 7 15 5 16 4 17 1 18 2 19 3 20 20 21 21 22 22 23
REMARK SMILES IDX 23 25 24 26 25 27 86 28 26 29 85 30 27 31 28 32 29 33 79 34
REMARK SMILES IDX 30 35 84 36 78 37 80 38 31 39 83 40 77 41 76 42 32 44 64 45
REMARK SMILES IDX 44 46 63 47 45 48 48 49 62 50 81 51 46 52 47 53 61 55 82 56
REMARK SMILES IDX 49 57 33 58 34 59 42 60 35 61 41 62 43 63 40 64 36 65 37 66
REMARK SMILES IDX 38 67 39 68 65 69 66 70 74 71 67 72 73 73 75 74 72 75 68 76
REMARK SMILES IDX 69 77 70 78 71 79 50 80 51 81 59 82 52 83 58 84 60 85 57 86
REMARK SMILES IDX 53 87 54 88 55 89 56 90
REMARK H PARENT 17 6 21 24 80 43 48 54
REMARK Flexibility Score: inf
ROOT
ATOM      1  C   UNL A   1      31.358  32.270  26.487  1.00  0.00     0.042 C 
ENDROOT
BRANCH   1   2
ATOM      2  C   UNL A   1      31.302  30.760  26.337  1.00  0.00     0.118 C 
BRANCH   2   3
ATOM      3  N   UNL A   1      32.447  30.142  25.673  1.00  0.00    -0.352 N 
ATOM      4  C   UNL A   1      32.539  28.983  24.913  1.00  0.00     0.256 C 
ATOM      5  O   UNL A   1      33.558  28.807  24.249  1.00  0.00    -0.269 OA
ATOM      6  H   UNL A   1      33.297  30.628  25.784  1.00  0.00     0.163 HD
BRANCH   4   7
ATOM      7  C   UNL A   1      31.469  27.949  24.963  1.00  0.00     0.098 A 
ATOM      8  C   UNL A   1      30.525  27.781  23.926  1.00  0.00     0.052 A 
ATOM      9  C   UNL A   1      29.772  26.590  23.916  1.00  0.00     0.027 A 
ATOM     10  C   UNL A   1      29.840  25.662  24.953  1.00  0.00     0.005 A 
ATOM     11  C   UNL A   1      31.400  27.097  26.069  1.00  0.00     0.138 A 
ATOM     12  C   UNL A   1      30.618  25.947  26.062  1.00  0.00     0.040 A 
ATOM     13  F   UNL A   1      32.098  27.363  27.187  1.00  0.00    -0.206 F 
BRANCH   8  14
ATOM     14  N   UNL A   1      30.169  28.747  22.992  1.00  0.00    -0.374 N 
ATOM     15  C   UNL A   1      31.152  29.337  22.107  1.00  0.00     0.143 C 
BRANCH  14  16
ATOM     16  C   UNL A   1      28.827  29.325  23.103  1.00  0.00     0.120 C 
BRANCH  16  17
ATOM     17  C   UNL A   1      28.919  30.787  23.459  1.00  0.00     0.011 C 
ATOM     18  C   UNL A   1      28.141  31.779  21.099  1.00  0.00     0.008 C 
ATOM     19  C   UNL A   1      28.619  31.935  22.503  1.00  0.00    -0.009 C 
ATOM     20  C   UNL A   1      27.671  31.624  23.628  1.00  0.00     0.009 C 
ENDBRANCH  16  17
ENDBRANCH  14  16
ENDBRANCH   8  14
ENDBRANCH   4   7
ENDBRANCH   2   3
ENDBRANCH   1   2
BRANCH   1  21
ATOM     21  C   UNL A   1      32.586  32.822  27.188  1.00  0.00     0.118 C 
BRANCH  21  22
ATOM     22  N   UNL A   1      32.431  34.198  27.638  1.00  0.00    -0.352 N 
ATOM     23  C   UNL A   1      33.059  34.903  28.642  1.00  0.00     0.251 C 
ATOM     24  H   UNL A   1      31.760  34.716  27.138  1.00  0.00     0.163 HD
ATOM     25  O   UNL A   1      32.638  36.019  28.932  1.00  0.00    -0.269 OA
BRANCH  23  26
ATOM     26  C   UNL A   1      34.205  34.330  29.386  1.00  0.00     0.039 A 
ATOM     27  C   UNL A   1      33.957  33.486  30.474  1.00  0.00     0.014 A 
ATOM     28  C   UNL A   1      35.522  34.641  29.048  1.00  0.00     0.014 A 
ATOM     29  C   UNL A   1      35.026  32.913  31.172  1.00  0.00     0.010 A 
ATOM     30  C   UNL A   1      36.578  33.977  29.660  1.00  0.00     0.010 A 
ATOM     31  C   UNL A   1      36.347  33.127  30.749  1.00  0.00    -0.014 A 
BRANCH  31  32
ATOM     32  C   UNL A   1      37.508  32.535  31.466  1.00  0.00     0.031 A 
ATOM     33  C   UNL A   1      38.266  31.394  30.838  1.00  0.00     0.074 A 
ATOM     34  C   UNL A   1      37.850  32.982  32.691  1.00  0.00     0.049 A 
ATOM     35  N   UNL A   1      39.241  30.675  31.332  1.00  0.00    -0.248 NA
ATOM     36  C   UNL A   1      37.847  30.981  29.487  1.00  0.00     0.031 C 
ATOM     37  C   UNL A   1      37.175  34.060  33.418  1.00  0.00     0.029 A 
ATOM     38  N   UNL A   1      38.852  32.588  33.541  1.00  0.00    -0.354 N 
ATOM     39  C   UNL A   1      39.534  29.720  30.364  1.00  0.00     0.074 A 
ATOM     40  C   UNL A   1      38.584  29.900  29.290  1.00  0.00     0.031 C 
ATOM     41  C   UNL A   1      37.812  34.273  34.580  1.00  0.00     0.029 A 
ATOM     42  C   UNL A   1      38.907  33.316  34.707  1.00  0.00     0.049 A 
ATOM     43  H   UNL A   1      39.474  31.853  33.336  1.00  0.00     0.167 HD
ATOM     44  C   UNL A   1      40.529  28.801  30.352  1.00  0.00     0.034 A 
ATOM     45  C   UNL A   1      39.741  33.221  35.761  1.00  0.00     0.034 A 
ATOM     46  C   UNL A   1      41.495  28.659  31.410  1.00  0.00     0.049 A 
ATOM     47  C   UNL A   1      40.818  32.169  35.747  1.00  0.00     0.074 A 
ATOM     48  C   UNL A   1      42.579  27.803  31.474  1.00  0.00     0.029 A 
ATOM     49  N   UNL A   1      41.493  29.394  32.588  1.00  0.00    -0.354 N 
ATOM     50  N   UNL A   1      41.093  31.287  34.815  1.00  0.00    -0.248 NA
ATOM     51  C   UNL A   1      41.691  32.093  36.926  1.00  0.00     0.031 C 
ATOM     52  C   UNL A   1      43.195  27.974  32.717  1.00  0.00     0.029 A 
ATOM     53  C   UNL A   1      42.536  28.984  33.401  1.00  0.00     0.049 A 
ATOM     54  H   UNL A   1      40.846  30.101  32.812  1.00  0.00     0.167 HD
ATOM     55  C   UNL A   1      42.180  30.560  35.289  1.00  0.00     0.074 A 
ATOM     56  C   UNL A   1      42.516  31.111  36.587  1.00  0.00     0.031 C 
ATOM     57  C   UNL A   1      42.842  29.532  34.702  1.00  0.00     0.034 A 
BRANCH  44  58
ATOM     58  C   UNL A   1      40.616  27.881  29.161  1.00  0.00     0.023 A 
ATOM     59  C   UNL A   1      41.536  28.109  28.123  1.00  0.00     0.031 A 
ATOM     60  C   UNL A   1      39.766  26.767  29.056  1.00  0.00     0.131 A 
ATOM     61  C   UNL A   1      41.543  27.273  26.997  1.00  0.00     0.055 A 
ATOM     62  C   UNL A   1      39.828  25.894  27.967  1.00  0.00     0.041 A 
ATOM     63  F   UNL A   1      38.854  26.511  30.008  1.00  0.00    -0.206 F 
ATOM     64  C   UNL A   1      40.714  26.152  26.924  1.00  0.00     0.022 A 
BRANCH  61  65
ATOM     65  S   UNL A   1      42.576  27.735  25.582  1.00  0.00     0.124 S 
ATOM     66  O   UNL A   1      42.456  26.553  24.732  1.00  0.00    -0.237 OA
ATOM     67  O   UNL A   1      41.921  28.943  25.091  1.00  0.00    -0.237 OA
ATOM     68  O   UNL A   1      43.897  27.939  26.173  1.00  0.00    -0.744 OA
ENDBRANCH  61  65
ENDBRANCH  44  58
BRANCH  45  69
ATOM     69  C   UNL A   1      39.587  34.156  36.910  1.00  0.00     0.023 A 
ATOM     70  C   UNL A   1      39.011  33.725  38.115  1.00  0.00     0.031 A 
ATOM     71  C   UNL A   1      40.052  35.481  36.833  1.00  0.00     0.131 A 
ATOM     72  C   UNL A   1      38.906  34.615  39.196  1.00  0.00     0.055 A 
ATOM     73  C   UNL A   1      39.976  36.351  37.921  1.00  0.00     0.041 A 
ATOM     74  F   UNL A   1      40.622  35.935  35.706  1.00  0.00    -0.206 F 
ATOM     75  C   UNL A   1      39.399  35.920  39.111  1.00  0.00     0.022 A 
BRANCH  72  76
ATOM     76  S   UNL A   1      38.111  34.044  40.723  1.00  0.00     0.124 S 
ATOM     77  O   UNL A   1      37.733  35.305  41.350  1.00  0.00    -0.237 OA
ATOM     78  O   UNL A   1      37.017  33.226  40.212  1.00  0.00    -0.237 OA
ATOM     79  O   UNL A   1      39.174  33.303  41.401  1.00  0.00    -0.744 OA
ENDBRANCH  72  76
ENDBRANCH  45  69
BRANCH  57  80
ATOM     80  C   UNL A   1      44.002  28.930  35.448  1.00  0.00     0.023 A 
ATOM     81  C   UNL A   1      43.818  27.864  36.342  1.00  0.00     0.031 A 
ATOM     82  C   UNL A   1      45.313  29.375  35.200  1.00  0.00     0.131 A 
ATOM     83  C   UNL A   1      44.928  27.285  36.973  1.00  0.00     0.055 A 
ATOM     84  C   UNL A   1      46.417  28.766  35.795  1.00  0.00     0.041 A 
ATOM     85  F   UNL A   1      45.540  30.388  34.349  1.00  0.00    -0.206 F 
ATOM     86  C   UNL A   1      46.227  27.716  36.690  1.00  0.00     0.022 A 
BRANCH  83  87
ATOM     87  S   UNL A   1      44.652  25.968  38.188  1.00  0.00     0.124 S 
ATOM     88  O   UNL A   1      45.989  25.789  38.746  1.00  0.00    -0.237 OA
ATOM     89  O   UNL A   1      43.663  26.565  39.081  1.00  0.00    -0.237 OA
ATOM     90  O   UNL A   1      44.162  24.853  37.380  1.00  0.00    -0.744 OA
ENDBRANCH  83  87
ENDBRANCH  57  80
ENDBRANCH  31  32
ENDBRANCH  23  26
ENDBRANCH  21  22
ENDBRANCH   1  21
TORSDOF 16
ENDMDL
MODEL 3
REMARK VINA RESULT:     -11.4      1.578      1.776
REMARK SMILES C[C@H]1C[C@H]1CN(C)c1cccc(F)c1C(=O)NCCCNC(=O)c1ccc(-c2c3nc(c(-c4cc(S(=O)(=O)[O-])ccc4F)c4ccc([nH]4)c(-c4cc(S(=O)(=O)[O-])ccc4F)c4nc(c(-c5cc(S(=O)(=O)[O-])ccc5F)c5ccc2[nH]5)C=C4)C=C3)cc1
REMARK SMILES IDX 19 1 18 2 17 3 15 4 16 5 14 7 8 8 9 9 10 10 12 11 11 12
REMARK SMILES IDX 13 13 6 14 7 15 5 16 4 17 1 18 2 19 3 20 20 21 21 22 22 23
REMARK SMILES IDX 23 25 24 26 25 27 86 28 26 29 85 30 27 31 28 32 29 33 79 34
REMARK SMILES IDX 30 35 84 36 78 37 80 38 31 39 83 40 77 41 76 42 32 44 64 45
REMARK SMILES IDX 44 46 63 47 45 48 48 49 62 50 81 51 46 52 47 53 61 55 82 56
REMARK SMILES IDX 49 57 33 58 34 59 42 60 35 61 41 62 43 63 40 64 36 65 37 66
REMARK SMILES IDX 38 67 39 68 65 69 66 70 74 71 67 72 73 73 75 74 72 75 68 76
REMARK SMILES IDX 69 77 70 78 71 79 50 80 51 81 59 82 52 83 58 84 60 85 57 86
REMARK SMILES IDX 53 87 54 88 55 89 56 90
REMARK H PARENT 17 6 21 24 80 43 48 54
REMARK Flexibility Score: inf
ROOT
ATOM      1  C   UNL A   1      32.045  27.863  26.526  1.00  0.00     0.042 C 
ENDROOT
BRANCH   1   2
ATOM      2  C   UNL A   1      32.372  26.397  26.294  1.00  0.00     0.118 C 
BRANCH   2   3
ATOM      3  N   UNL A   1      31.402  25.437  26.811  1.00  0.00    -0.352 N 
ATOM      4  C   UNL A   1      31.209  24.093  26.517  1.00  0.00     0.256 C 
ATOM      5  O   UNL A   1      30.494  23.434  27.269  1.00  0.00    -0.269 OA
ATOM      6  H   UNL A   1      30.779  25.803  27.481  1.00  0.00     0.163 HD
BRANCH   4   7
ATOM      7  C   UNL A   1      31.787  23.490  25.285  1.00  0.00     0.098 A 
ATOM      8  C   UNL A   1      32.967  22.714  25.300  1.00  0.00     0.052 A 
ATOM      9  C   UNL A   1      33.249  21.932  24.162  1.00  0.00     0.027 A 
ATOM     10  C   UNL A   1      32.482  22.009  23.002  1.00  0.00     0.005 A 
ATOM     11  C   UNL A   1      31.133  23.681  24.065  1.00  0.00     0.138 A 
ATOM     12  C   UNL A   1      31.451  22.932  22.936  1.00  0.00     0.040 A 
ATOM     13  F   UNL A   1      30.162  24.601  23.941  1.00  0.00    -0.206 F 
BRANCH   8  14
ATOM     14  N   UNL A   1      33.952  22.759  26.280  1.00  0.00    -0.374 N 
ATOM     15  C   UNL A   1      33.786  22.078  27.547  1.00  0.00     0.143 C 
BRANCH  14  16
ATOM     16  C   UNL A   1      35.045  23.718  26.089  1.00  0.00     0.120 C 
BRANCH  16  17
ATOM     17  C   UNL A   1      36.362  22.991  25.991  1.00  0.00     0.011 C 
ATOM     18  C   UNL A   1      36.595  23.031  23.326  1.00  0.00     0.008 C 
ATOM     19  C   UNL A   1      37.071  22.650  24.686  1.00  0.00    -0.009 C 
ATOM     20  C   UNL A   1      37.622  23.722  25.585  1.00  0.00     0.009 C 
ENDBRANCH  16  17
ENDBRANCH  14  16
ENDBRANCH   8  14
ENDBRANCH   4   7
ENDBRANCH   2   3
ENDBRANCH   1   2
BRANCH   1  21
ATOM     21  C   UNL A   1      32.890  28.861  25.756  1.00  0.00     0.118 C 
BRANCH  21  22
ATOM     22  N   UNL A   1      32.552  30.249  26.035  1.00  0.00    -0.352 N 
ATOM     23  C   UNL A   1      33.104  31.164  26.905  1.00  0.00     0.251 C 
ATOM     24  H   UNL A   1      31.794  30.596  25.510  1.00  0.00     0.163 HD
ATOM     25  O   UNL A   1      32.535  32.238  27.073  1.00  0.00    -0.269 OA
BRANCH  23  26
ATOM     26  C   UNL A   1      34.349  30.862  27.652  1.00  0.00     0.039 A 
ATOM     27  C   UNL A   1      35.329  31.853  27.770  1.00  0.00     0.014 A 
ATOM     28  C   UNL A   1      34.577  29.604  28.208  1.00  0.00     0.014 A 
ATOM     29  C   UNL A   1      36.499  31.596  28.494  1.00  0.00     0.010 A 
ATOM     30  C   UNL A   1      35.678  29.390  29.029  1.00  0.00     0.010 A 
ATOM     31  C   UNL A   1      36.669  30.372  29.159  1.00  0.00    -0.014 A 
BRANCH  31  32
ATOM     32  C   UNL A   1      37.898  30.064  29.937  1.00  0.00     0.031 A 
ATOM     33  C   UNL A   1      38.916  29.109  29.369  1.00  0.00     0.074 A 
ATOM     34  C   UNL A   1      38.076  30.593  31.163  1.00  0.00     0.049 A 
ATOM     35  N   UNL A   1      40.002  28.631  29.921  1.00  0.00    -0.248 NA
ATOM     36  C   UNL A   1      38.661  28.593  28.013  1.00  0.00     0.031 C 
ATOM     37  C   UNL A   1      37.148  31.505  31.835  1.00  0.00     0.029 A 
ATOM     38  N   UNL A   1      39.101  30.444  32.063  1.00  0.00    -0.354 N 
ATOM     39  C   UNL A   1      40.542  27.750  28.990  1.00  0.00     0.074 A 
ATOM     40  C   UNL A   1      39.627  27.700  27.873  1.00  0.00     0.031 C 
ATOM     41  C   UNL A   1      37.668  31.872  33.017  1.00  0.00     0.029 A 
ATOM     42  C   UNL A   1      38.941  31.183  33.213  1.00  0.00     0.049 A 
ATOM     43  H   UNL A   1      39.878  29.861  31.903  1.00  0.00     0.167 HD
ATOM     44  C   UNL A   1      41.715  27.074  29.041  1.00  0.00     0.034 A 
ATOM     45  C   UNL A   1      39.726  31.291  34.302  1.00  0.00     0.034 A 
ATOM     46  C   UNL A   1      42.639  27.166  30.141  1.00  0.00     0.049 A 
ATOM     47  C   UNL A   1      41.007  30.503  34.359  1.00  0.00     0.074 A 
ATOM     48  C   UNL A   1      43.881  26.573  30.271  1.00  0.00     0.029 A 
ATOM     49  N   UNL A   1      42.422  27.900  31.300  1.00  0.00    -0.354 N 
ATOM     50  N   UNL A   1      41.513  29.691  33.461  1.00  0.00    -0.248 NA
ATOM     51  C   UNL A   1      41.821  30.641  35.574  1.00  0.00     0.031 C 
ATOM     52  C   UNL A   1      44.387  26.894  31.534  1.00  0.00     0.029 A 
ATOM     53  C   UNL A   1      43.492  27.743  32.165  1.00  0.00     0.049 A 
ATOM     54  H   UNL A   1      41.625  28.449  31.479  1.00  0.00     0.167 HD
ATOM     55  C   UNL A   1      42.711  29.230  33.997  1.00  0.00     0.074 A 
ATOM     56  C   UNL A   1      42.857  29.860  35.293  1.00  0.00     0.031 C 
ATOM     57  C   UNL A   1      43.609  28.365  33.463  1.00  0.00     0.034 A 
BRANCH  44  58
ATOM     58  C   UNL A   1      42.057  26.179  27.878  1.00  0.00     0.023 A 
ATOM     59  C   UNL A   1      41.656  24.832  27.844  1.00  0.00     0.031 A 
ATOM     60  C   UNL A   1      42.800  26.673  26.792  1.00  0.00     0.131 A 
ATOM     61  C   UNL A   1      42.051  24.010  26.779  1.00  0.00     0.055 A 
ATOM     62  C   UNL A   1      43.126  25.869  25.697  1.00  0.00     0.041 A 
ATOM     63  F   UNL A   1      43.227  27.946  26.778  1.00  0.00    -0.206 F 
ATOM     64  C   UNL A   1      42.761  24.525  25.692  1.00  0.00     0.022 A 
BRANCH  61  65
ATOM     65  S   UNL A   1      41.715  22.233  26.887  1.00  0.00     0.124 S 
ATOM     66  O   UNL A   1      40.351  22.222  27.409  1.00  0.00    -0.237 OA
ATOM     67  O   UNL A   1      41.872  21.795  25.504  1.00  0.00    -0.237 OA
ATOM     68  O   UNL A   1      42.735  21.746  27.814  1.00  0.00    -0.744 OA
ENDBRANCH  61  65
ENDBRANCH  44  58
BRANCH  45  69
ATOM     69  C   UNL A   1      39.317  32.186  35.420  1.00  0.00     0.023 A 
ATOM     70  C   UNL A   1      39.820  33.493  35.514  1.00  0.00     0.031 A 
ATOM     71  C   UNL A   1      38.388  31.761  36.386  1.00  0.00     0.131 A 
ATOM     72  C   UNL A   1      39.396  34.331  36.559  1.00  0.00     0.055 A 
ATOM     73  C   UNL A   1      37.945  32.608  37.403  1.00  0.00     0.041 A 
ATOM     74  F   UNL A   1      37.871  30.524  36.331  1.00  0.00    -0.206 F 
ATOM     75  C   UNL A   1      38.450  33.901  37.494  1.00  0.00     0.022 A 
BRANCH  72  76
ATOM     76  S   UNL A   1      40.100  35.997  36.683  1.00  0.00     0.124 S 
ATOM     77  O   UNL A   1      39.397  36.530  37.844  1.00  0.00    -0.237 OA
ATOM     78  O   UNL A   1      41.520  35.718  36.863  1.00  0.00    -0.237 OA
ATOM     79  O   UNL A   1      39.747  36.610  35.403  1.00  0.00    -0.744 OA
ENDBRANCH  72  76
ENDBRANCH  45  69
BRANCH  57  80
ATOM     80  C   UNL A   1      44.838  28.046  34.271  1.00  0.00     0.023 A 
ATOM     81  C   UNL A   1      44.886  26.922  35.110  1.00  0.00     0.031 A 
ATOM     82  C   UNL A   1      45.998  28.830  34.137  1.00  0.00     0.131 A 
ATOM     83  C   UNL A   1      46.068  26.618  35.800  1.00  0.00     0.055 A 
ATOM     84  C   UNL A   1      47.185  28.497  34.790  1.00  0.00     0.041 A 
ATOM     85  F   UNL A   1      46.003  29.912  33.343  1.00  0.00    -0.206 F 
ATOM     86  C   UNL A   1      47.223  27.387  35.630  1.00  0.00     0.022 A 
BRANCH  83  87
ATOM     87  S   UNL A   1      46.074  25.212  36.944  1.00  0.00     0.124 S 
ATOM     88  O   UNL A   1      45.467  25.792  38.137  1.00  0.00    -0.237 OA
ATOM     89  O   UNL A   1      45.267  24.224  36.234  1.00  0.00    -0.237 OA
ATOM     90  O   UNL A   1      47.491  24.877  37.068  1.00  0.00    -0.744 OA
ENDBRANCH  83  87
ENDBRANCH  57  80
ENDBRANCH  31  32
ENDBRANCH  23  26
ENDBRANCH  21  22
ENDBRANCH   1  21
TORSDOF 16
ENDMDL
