MODEL 1
REMARK VINA RESULT:     -12.4      0.000      0.000
REMARK SMILES O=C(NCCCNC(=O)[C@@]1(C(F)(F)F)CCN(C(=O)Cc2ccn[nH]2)C1)c1ccc(-c2c3nc(c(-c4cc(S(=O)(=O)[O-])ccc4F)c4ccc([nH]4)c(-c4cc(S(=O)(=O)[O-])ccc4F)c4nc(c(-c5cc(S(=O)(=O)[O-])ccc5F)c5ccc2[nH]5)C=C4)C=C3)cc1
REMARK SMILES IDX 5 1 4 2 3 3 1 4 2 5 27 7 28 8 89 9 29 10 88 11 30 12 31 13
REMARK SMILES IDX 32 14 82 15 33 16 87 17 81 18 83 19 34 20 86 21 80 22 79 23
REMARK SMILES IDX 35 25 67 26 47 27 66 28 48 29 51 30 65 31 84 32 49 33 50 34
REMARK SMILES IDX 64 36 85 37 52 38 36 39 37 40 45 41 38 42 44 43 46 44 43 45
REMARK SMILES IDX 39 46 40 47 41 48 42 49 68 50 69 51 77 52 70 53 76 54 78 55
REMARK SMILES IDX 75 56 71 57 72 58 73 59 74 60 53 61 54 62 62 63 55 64 61 65
REMARK SMILES IDX 63 66 60 67 56 68 57 69 58 70 59 71 6 72 7 73 8 74 9 76
REMARK SMILES IDX 10 77 15 78 26 79 16 80 17 81 11 82 12 83 13 84 14 85 18 86
REMARK SMILES IDX 19 87 20 88 21 89 22 90 25 91 23 92 24 93
REMARK H PARENT 3 6 83 24 51 35 7 75 25 94
REMARK Flexibility Score: inf
ROOT
ATOM      1  C   UNL A   1      31.599  32.203  26.921  1.00  0.00     0.042 C 
ENDROOT
BRANCH   1   2
ATOM      2  C   UNL A   1      32.855  33.010  27.205  1.00  0.00     0.118 C 
BRANCH   2   3
ATOM      3  N   UNL A   1      32.580  34.317  27.785  1.00  0.00    -0.352 N 
ATOM      4  O   UNL A   1      32.631  35.979  29.297  1.00  0.00    -0.269 OA
ATOM      5  C   UNL A   1      33.130  34.940  28.882  1.00  0.00     0.251 C 
ATOM      6  H   UNL A   1      31.890  34.839  27.316  1.00  0.00     0.163 HD
BRANCH   5   7
ATOM      7  C   UNL A   1      34.301  34.350  29.570  1.00  0.00     0.039 A 
ATOM      8  C   UNL A   1      35.597  34.587  29.110  1.00  0.00     0.014 A 
ATOM      9  C   UNL A   1      34.101  33.571  30.713  1.00  0.00     0.014 A 
ATOM     10  C   UNL A   1      36.670  33.910  29.675  1.00  0.00     0.010 A 
ATOM     11  C   UNL A   1      35.197  32.984  31.354  1.00  0.00     0.010 A 
ATOM     12  C   UNL A   1      36.489  33.125  30.822  1.00  0.00    -0.014 A 
BRANCH  12  13
ATOM     13  C   UNL A   1      37.671  32.525  31.492  1.00  0.00     0.031 A 
ATOM     14  C   UNL A   1      38.424  31.388  30.862  1.00  0.00     0.074 A 
ATOM     15  C   UNL A   1      38.054  33.012  32.688  1.00  0.00     0.049 A 
ATOM     16  N   UNL A   1      39.429  30.699  31.338  1.00  0.00    -0.248 NA
ATOM     17  C   UNL A   1      37.979  30.962  29.528  1.00  0.00     0.031 C 
ATOM     18  C   UNL A   1      37.395  34.115  33.395  1.00  0.00     0.029 A 
ATOM     19  N   UNL A   1      39.078  32.651  33.524  1.00  0.00    -0.354 N 
ATOM     20  C   UNL A   1      39.723  29.739  30.377  1.00  0.00     0.074 A 
ATOM     21  C   UNL A   1      38.764  29.918  29.305  1.00  0.00     0.031 C 
ATOM     22  C   UNL A   1      38.042  34.351  34.543  1.00  0.00     0.029 A 
ATOM     23  C   UNL A   1      39.101  33.364  34.700  1.00  0.00     0.049 A 
ATOM     24  H   UNL A   1      39.732  31.948  33.305  1.00  0.00     0.167 HD
ATOM     25  C   UNL A   1      40.707  28.803  30.389  1.00  0.00     0.034 A 
ATOM     26  C   UNL A   1      39.851  33.212  35.808  1.00  0.00     0.034 A 
ATOM     27  C   UNL A   1      41.643  28.642  31.480  1.00  0.00     0.049 A 
ATOM     28  C   UNL A   1      40.891  32.126  35.832  1.00  0.00     0.074 A 
ATOM     29  C   UNL A   1      42.703  27.759  31.583  1.00  0.00     0.029 A 
ATOM     30  N   UNL A   1      41.617  29.366  32.667  1.00  0.00    -0.354 N 
ATOM     31  N   UNL A   1      41.178  31.243  34.904  1.00  0.00    -0.248 NA
ATOM     32  C   UNL A   1      41.708  32.019  37.045  1.00  0.00     0.031 C 
ATOM     33  C   UNL A   1      43.259  27.886  32.860  1.00  0.00     0.029 A 
ATOM     34  C   UNL A   1      42.611  28.917  33.524  1.00  0.00     0.049 A 
ATOM     35  H   UNL A   1      40.983  30.092  32.871  1.00  0.00     0.167 HD
ATOM     36  C   UNL A   1      42.227  30.486  35.414  1.00  0.00     0.074 A 
ATOM     37  C   UNL A   1      42.524  31.023  36.727  1.00  0.00     0.031 C 
ATOM     38  C   UNL A   1      42.889  29.449  34.840  1.00  0.00     0.034 A 
BRANCH  25  39
ATOM     39  C   UNL A   1      40.772  27.847  29.218  1.00  0.00     0.023 A 
ATOM     40  C   UNL A   1      41.705  28.005  28.179  1.00  0.00     0.031 A 
ATOM     41  C   UNL A   1      39.850  26.790  29.111  1.00  0.00     0.131 A 
ATOM     42  C   UNL A   1      41.632  27.192  27.037  1.00  0.00     0.055 A 
ATOM     43  C   UNL A   1      39.844  25.922  28.017  1.00  0.00     0.041 A 
ATOM     44  F   UNL A   1      38.920  26.594  30.059  1.00  0.00    -0.206 F 
ATOM     45  C   UNL A   1      40.724  26.133  26.961  1.00  0.00     0.022 A 
BRANCH  42  46
ATOM     46  S   UNL A   1      42.611  27.657  25.581  1.00  0.00     0.124 S 
ATOM     47  O   UNL A   1      43.921  27.922  26.175  1.00  0.00    -0.237 OA
ATOM     48  O   UNL A   1      42.521  26.466  24.745  1.00  0.00    -0.237 OA
ATOM     49  O   UNL A   1      41.921  28.838  25.066  1.00  0.00    -0.744 OA
ENDBRANCH  42  46
ENDBRANCH  25  39
BRANCH  26  50
ATOM     50  C   UNL A   1      39.587  34.073  36.993  1.00  0.00     0.023 A 
ATOM     51  C   UNL A   1      38.966  33.566  38.144  1.00  0.00     0.031 A 
ATOM     52  C   UNL A   1      39.984  35.424  36.996  1.00  0.00     0.131 A 
ATOM     53  C   UNL A   1      38.745  34.410  39.243  1.00  0.00     0.055 A 
ATOM     54  C   UNL A   1      39.810  36.244  38.109  1.00  0.00     0.041 A 
ATOM     55  F   UNL A   1      40.591  35.954  35.921  1.00  0.00    -0.206 F 
ATOM     56  C   UNL A   1      39.178  35.739  39.241  1.00  0.00     0.022 A 
BRANCH  53  57
ATOM     57  S   UNL A   1      37.830  33.761  40.668  1.00  0.00     0.124 S 
ATOM     58  O   UNL A   1      38.826  32.894  41.289  1.00  0.00    -0.237 OA
ATOM     59  O   UNL A   1      37.498  34.981  41.396  1.00  0.00    -0.237 OA
ATOM     60  O   UNL A   1      36.694  33.072  40.058  1.00  0.00    -0.744 OA
ENDBRANCH  53  57
ENDBRANCH  26  50
BRANCH  38  61
ATOM     61  C   UNL A   1      44.042  28.855  35.613  1.00  0.00     0.023 A 
ATOM     62  C   UNL A   1      43.879  27.748  36.463  1.00  0.00     0.031 A 
ATOM     63  C   UNL A   1      45.330  29.401  35.474  1.00  0.00     0.131 A 
ATOM     64  C   UNL A   1      44.983  27.244  37.169  1.00  0.00     0.055 A 
ATOM     65  C   UNL A   1      46.434  28.860  36.134  1.00  0.00     0.041 A 
ATOM     66  F   UNL A   1      45.540  30.465  34.681  1.00  0.00    -0.206 F 
ATOM     67  C   UNL A   1      46.261  27.779  36.993  1.00  0.00     0.022 A 
BRANCH  64  68
ATOM     68  S   UNL A   1      44.717  25.916  38.376  1.00  0.00     0.124 S 
ATOM     69  O   UNL A   1      43.820  25.023  37.649  1.00  0.00    -0.237 OA
ATOM     70  O   UNL A   1      46.071  25.418  38.599  1.00  0.00    -0.237 OA
ATOM     71  O   UNL A   1      44.116  26.604  39.516  1.00  0.00    -0.744 OA
ENDBRANCH  64  68
ENDBRANCH  38  61
ENDBRANCH  12  13
ENDBRANCH   5   7
ENDBRANCH   2   3
ENDBRANCH   1   2
BRANCH   1  72
ATOM     72  C   UNL A   1      31.845  30.839  26.300  1.00  0.00     0.117 C 
BRANCH  72  73
ATOM     73  N   UNL A   1      31.571  29.731  27.203  1.00  0.00    -0.355 N 
ATOM     74  C   UNL A   1      31.635  28.380  27.095  1.00  0.00     0.237 C 
ATOM     75  H   UNL A   1      31.271  30.028  28.093  1.00  0.00     0.163 HD
ATOM     76  O   UNL A   1      31.449  27.779  28.159  1.00  0.00    -0.274 OA
BRANCH  74  77
ATOM     77  C   UNL A   1      31.761  27.622  25.785  1.00  0.00     0.163 C 
ATOM     78  C   UNL A   1      30.679  26.521  25.722  1.00  0.00     0.050 C 
ATOM     79  C   UNL A   1      31.584  28.443  24.510  1.00  0.00     0.146 C 
ATOM     80  C   UNL A   1      30.218  26.497  24.276  1.00  0.00     0.121 C 
ATOM     81  N   UNL A   1      30.430  27.862  23.835  1.00  0.00    -0.341 N 
BRANCH  77  82
ATOM     82  C   UNL A   1      33.159  27.027  25.743  1.00  0.00     0.404 C 
ATOM     83  F   UNL A   1      33.567  26.808  24.472  1.00  0.00    -0.170 F 
ATOM     84  F   UNL A   1      34.093  27.771  26.369  1.00  0.00    -0.170 F 
ATOM     85  F   UNL A   1      33.172  25.816  26.364  1.00  0.00    -0.170 F 
ENDBRANCH  77  82
BRANCH  81  86
ATOM     86  C   UNL A   1      29.731  28.554  22.866  1.00  0.00     0.228 C 
ATOM     87  O   UNL A   1      30.111  28.553  21.694  1.00  0.00    -0.274 OA
BRANCH  86  88
ATOM     88  C   UNL A   1      28.421  29.222  23.271  1.00  0.00     0.155 C 
BRANCH  88  89
ATOM     89  C   UNL A   1      28.450  30.692  22.981  1.00  0.00     0.044 A 
ATOM     90  C   UNL A   1      28.881  31.757  23.744  1.00  0.00     0.045 A 
ATOM     91  N   UNL A   1      28.029  31.244  21.797  1.00  0.00    -0.282 N 
ATOM     92  C   UNL A   1      28.629  32.893  22.954  1.00  0.00     0.135 A 
ATOM     93  N   UNL A   1      28.084  32.584  21.777  1.00  0.00    -0.184 NA
ATOM     94  H   UNL A   1      27.717  30.706  21.034  1.00  0.00     0.190 HD
ENDBRANCH  88  89
ENDBRANCH  86  88
ENDBRANCH  81  86
ENDBRANCH  74  77
ENDBRANCH  72  73
ENDBRANCH   1  72
TORSDOF 17
ENDMDL
MODEL 2
REMARK VINA RESULT:     -11.9      6.791     12.444
REMARK SMILES O=C(NCCCNC(=O)[C@@]1(C(F)(F)F)CCN(C(=O)Cc2ccn[nH]2)C1)c1ccc(-c2c3nc(c(-c4cc(S(=O)(=O)[O-])ccc4F)c4ccc([nH]4)c(-c4cc(S(=O)(=O)[O-])ccc4F)c4nc(c(-c5cc(S(=O)(=O)[O-])ccc5F)c5ccc2[nH]5)C=C4)C=C3)cc1
REMARK SMILES IDX 5 1 4 2 3 3 1 4 2 5 27 7 28 8 89 9 29 10 88 11 30 12 31 13
REMARK SMILES IDX 32 14 82 15 33 16 87 17 81 18 83 19 34 20 86 21 80 22 79 23
REMARK SMILES IDX 35 25 67 26 47 27 66 28 48 29 51 30 65 31 84 32 49 33 50 34
REMARK SMILES IDX 64 36 85 37 52 38 36 39 37 40 45 41 38 42 44 43 46 44 43 45
REMARK SMILES IDX 39 46 40 47 41 48 42 49 68 50 69 51 77 52 70 53 76 54 78 55
REMARK SMILES IDX 75 56 71 57 72 58 73 59 74 60 53 61 54 62 62 63 55 64 61 65
REMARK SMILES IDX 63 66 60 67 56 68 57 69 58 70 59 71 6 72 7 73 8 74 9 76
REMARK SMILES IDX 10 77 15 78 26 79 16 80 17 81 11 82 12 83 13 84 14 85 18 86
REMARK SMILES IDX 19 87 20 88 21 89 22 90 25 91 23 92 24 93
REMARK H PARENT 3 6 83 24 51 35 7 75 25 94
REMARK Flexibility Score: inf
ROOT
ATOM      1  C   UNL A   1      38.362  19.810  25.081  1.00  0.00     0.042 C 
ENDROOT
BRANCH   1   2
ATOM      2  C   UNL A   1      39.454  20.110  26.093  1.00  0.00     0.118 C 
BRANCH   2   3
ATOM      3  N   UNL A   1      40.626  19.259  25.944  1.00  0.00    -0.352 N 
ATOM      4  O   UNL A   1      42.786  18.720  25.630  1.00  0.00    -0.269 OA
ATOM      5  C   UNL A   1      41.965  19.576  25.940  1.00  0.00     0.251 C 
ATOM      6  H   UNL A   1      40.428  18.301  25.828  1.00  0.00     0.163 HD
BRANCH   5   7
ATOM      7  C   UNL A   1      42.412  20.945  26.285  1.00  0.00     0.039 A 
ATOM      8  C   UNL A   1      42.576  21.915  25.297  1.00  0.00     0.014 A 
ATOM      9  C   UNL A   1      42.641  21.270  27.625  1.00  0.00     0.014 A 
ATOM     10  C   UNL A   1      43.135  23.146  25.618  1.00  0.00     0.010 A 
ATOM     11  C   UNL A   1      43.092  22.551  27.960  1.00  0.00     0.010 A 
ATOM     12  C   UNL A   1      43.371  23.491  26.956  1.00  0.00    -0.014 A 
BRANCH  12  13
ATOM     13  C   UNL A   1      43.836  24.862  27.286  1.00  0.00     0.031 A 
ATOM     14  C   UNL A   1      42.890  25.886  27.846  1.00  0.00     0.074 A 
ATOM     15  C   UNL A   1      45.126  25.181  27.064  1.00  0.00     0.049 A 
ATOM     16  N   UNL A   1      43.107  27.147  28.123  1.00  0.00    -0.248 NA
ATOM     17  C   UNL A   1      41.518  25.437  28.120  1.00  0.00     0.031 C 
ATOM     18  C   UNL A   1      46.134  24.265  26.521  1.00  0.00     0.029 A 
ATOM     19  N   UNL A   1      45.814  26.350  27.258  1.00  0.00    -0.354 N 
ATOM     20  C   UNL A   1      41.894  27.652  28.578  1.00  0.00     0.074 A 
ATOM     21  C   UNL A   1      40.939  26.564  28.506  1.00  0.00     0.031 C 
ATOM     22  C   UNL A   1      47.311  24.900  26.445  1.00  0.00     0.029 A 
ATOM     23  C   UNL A   1      47.124  26.288  26.846  1.00  0.00     0.049 A 
ATOM     24  H   UNL A   1      45.409  27.156  27.653  1.00  0.00     0.167 HD
ATOM     25  C   UNL A   1      41.611  28.905  29.018  1.00  0.00     0.034 A 
ATOM     26  C   UNL A   1      48.063  27.248  26.746  1.00  0.00     0.034 A 
ATOM     27  C   UNL A   1      42.584  29.973  29.067  1.00  0.00     0.049 A 
ATOM     28  C   UNL A   1      47.713  28.646  27.174  1.00  0.00     0.074 A 
ATOM     29  C   UNL A   1      42.423  31.267  29.531  1.00  0.00     0.029 A 
ATOM     30  N   UNL A   1      43.896  29.879  28.613  1.00  0.00    -0.354 N 
ATOM     31  N   UNL A   1      46.570  29.105  27.629  1.00  0.00    -0.248 NA
ATOM     32  C   UNL A   1      48.776  29.653  27.081  1.00  0.00     0.031 C 
ATOM     33  C   UNL A   1      43.602  31.975  29.278  1.00  0.00     0.029 A 
ATOM     34  C   UNL A   1      44.538  31.103  28.745  1.00  0.00     0.049 A 
ATOM     35  H   UNL A   1      44.310  29.063  28.251  1.00  0.00     0.167 HD
ATOM     36  C   UNL A   1      46.782  30.452  27.897  1.00  0.00     0.074 A 
ATOM     37  C   UNL A   1      48.165  30.728  27.560  1.00  0.00     0.031 C 
ATOM     38  C   UNL A   1      45.914  31.371  28.389  1.00  0.00     0.034 A 
BRANCH  25  39
ATOM     39  C   UNL A   1      40.181  29.195  29.417  1.00  0.00     0.023 A 
ATOM     40  C   UNL A   1      39.775  29.228  30.762  1.00  0.00     0.031 A 
ATOM     41  C   UNL A   1      39.194  29.391  28.433  1.00  0.00     0.131 A 
ATOM     42  C   UNL A   1      38.413  29.346  31.084  1.00  0.00     0.055 A 
ATOM     43  C   UNL A   1      37.854  29.606  28.762  1.00  0.00     0.041 A 
ATOM     44  F   UNL A   1      39.510  29.353  27.129  1.00  0.00    -0.206 F 
ATOM     45  C   UNL A   1      37.453  29.562  30.094  1.00  0.00     0.022 A 
BRANCH  42  46
ATOM     46  S   UNL A   1      37.900  29.026  32.795  1.00  0.00     0.124 S 
ATOM     47  O   UNL A   1      37.755  27.571  32.795  1.00  0.00    -0.237 OA
ATOM     48  O   UNL A   1      39.019  29.553  33.566  1.00  0.00    -0.237 OA
ATOM     49  O   UNL A   1      36.647  29.766  32.922  1.00  0.00    -0.744 OA
ENDBRANCH  42  46
ENDBRANCH  25  39
BRANCH  26  50
ATOM     50  C   UNL A   1      49.389  26.916  26.156  1.00  0.00     0.023 A 
ATOM     51  C   UNL A   1      49.732  27.308  24.855  1.00  0.00     0.031 A 
ATOM     52  C   UNL A   1      50.350  26.217  26.912  1.00  0.00     0.131 A 
ATOM     53  C   UNL A   1      50.997  26.982  24.342  1.00  0.00     0.055 A 
ATOM     54  C   UNL A   1      51.623  25.942  26.417  1.00  0.00     0.041 A 
ATOM     55  F   UNL A   1      50.072  25.827  28.168  1.00  0.00    -0.206 F 
ATOM     56  C   UNL A   1      51.951  26.318  25.119  1.00  0.00     0.022 A 
BRANCH  53  57
ATOM     57  S   UNL A   1      51.367  27.393  22.614  1.00  0.00     0.124 S 
ATOM     58  O   UNL A   1      51.333  28.851  22.643  1.00  0.00    -0.237 OA
ATOM     59  O   UNL A   1      52.681  26.785  22.434  1.00  0.00    -0.237 OA
ATOM     60  O   UNL A   1      50.280  26.757  21.873  1.00  0.00    -0.744 OA
ENDBRANCH  53  57
ENDBRANCH  26  50
BRANCH  38  61
ATOM     61  C   UNL A   1      46.449  32.760  28.642  1.00  0.00     0.023 A 
ATOM     62  C   UNL A   1      46.422  33.761  27.657  1.00  0.00     0.031 A 
ATOM     63  C   UNL A   1      46.978  33.085  29.904  1.00  0.00     0.131 A 
ATOM     64  C   UNL A   1      46.947  35.032  27.941  1.00  0.00     0.055 A 
ATOM     65  C   UNL A   1      47.444  34.367  30.198  1.00  0.00     0.041 A 
ATOM     66  F   UNL A   1      47.036  32.164  30.879  1.00  0.00    -0.206 F 
ATOM     67  C   UNL A   1      47.437  35.347  29.211  1.00  0.00     0.022 A 
BRANCH  64  68
ATOM     68  S   UNL A   1      47.041  36.258  26.607  1.00  0.00     0.124 S 
ATOM     69  O   UNL A   1      46.366  35.566  25.513  1.00  0.00    -0.237 OA
ATOM     70  O   UNL A   1      46.330  37.398  27.176  1.00  0.00    -0.237 OA
ATOM     71  O   UNL A   1      48.477  36.455  26.423  1.00  0.00    -0.744 OA
ENDBRANCH  64  68
ENDBRANCH  38  61
ENDBRANCH  12  13
ENDBRANCH   5   7
ENDBRANCH   2   3
ENDBRANCH   1   2
BRANCH   1  72
ATOM     72  C   UNL A   1      37.196  20.784  25.093  1.00  0.00     0.117 C 
BRANCH  72  73
ATOM     73  N   UNL A   1      37.230  21.745  24.000  1.00  0.00    -0.355 N 
ATOM     74  C   UNL A   1      36.406  22.740  23.585  1.00  0.00     0.237 C 
ATOM     75  H   UNL A   1      38.030  21.651  23.433  1.00  0.00     0.163 HD
ATOM     76  O   UNL A   1      36.871  23.432  22.674  1.00  0.00    -0.274 OA
BRANCH  74  77
ATOM     77  C   UNL A   1      34.973  22.928  24.053  1.00  0.00     0.163 C 
ATOM     78  C   UNL A   1      34.080  23.280  22.842  1.00  0.00     0.050 C 
ATOM     79  C   UNL A   1      34.313  21.719  24.712  1.00  0.00     0.146 C 
ATOM     80  C   UNL A   1      32.770  22.553  23.090  1.00  0.00     0.121 C 
ATOM     81  N   UNL A   1      33.171  21.396  23.865  1.00  0.00    -0.341 N 
BRANCH  77  82
ATOM     82  C   UNL A   1      34.980  24.048  25.080  1.00  0.00     0.404 C 
ATOM     83  F   UNL A   1      36.187  24.165  25.679  1.00  0.00    -0.170 F 
ATOM     84  F   UNL A   1      34.632  25.252  24.584  1.00  0.00    -0.170 F 
ATOM     85  F   UNL A   1      34.085  23.782  26.071  1.00  0.00    -0.170 F 
ENDBRANCH  77  82
BRANCH  81  86
ATOM     86  C   UNL A   1      32.564  20.156  23.909  1.00  0.00     0.228 C 
ATOM     87  O   UNL A   1      32.175  19.609  22.876  1.00  0.00    -0.274 OA
BRANCH  86  88
ATOM     88  C   UNL A   1      32.494  19.444  25.256  1.00  0.00     0.155 C 
BRANCH  88  89
ATOM     89  C   UNL A   1      33.145  18.095  25.189  1.00  0.00     0.044 A 
ATOM     90  C   UNL A   1      32.701  16.855  25.597  1.00  0.00     0.045 A 
ATOM     91  N   UNL A   1      34.386  17.874  24.646  1.00  0.00    -0.282 N 
ATOM     92  C   UNL A   1      33.761  15.977  25.304  1.00  0.00     0.135 A 
ATOM     93  N   UNL A   1      34.800  16.601  24.748  1.00  0.00    -0.184 NA
ATOM     94  H   UNL A   1      34.921  18.582  24.220  1.00  0.00     0.190 HD
ENDBRANCH  88  89
ENDBRANCH  86  88
ENDBRANCH  81  86
ENDBRANCH  74  77
ENDBRANCH  72  73
ENDBRANCH   1  72
TORSDOF 17
ENDMDL
MODEL 3
REMARK VINA RESULT:     -11.8      1.819      2.148
REMARK SMILES O=C(NCCCNC(=O)[C@@]1(C(F)(F)F)CCN(C(=O)Cc2ccn[nH]2)C1)c1ccc(-c2c3nc(c(-c4cc(S(=O)(=O)[O-])ccc4F)c4ccc([nH]4)c(-c4cc(S(=O)(=O)[O-])ccc4F)c4nc(c(-c5cc(S(=O)(=O)[O-])ccc5F)c5ccc2[nH]5)C=C4)C=C3)cc1
REMARK SMILES IDX 5 1 4 2 3 3 1 4 2 5 27 7 28 8 89 9 29 10 88 11 30 12 31 13
REMARK SMILES IDX 32 14 82 15 33 16 87 17 81 18 83 19 34 20 86 21 80 22 79 23
REMARK SMILES IDX 35 25 67 26 47 27 66 28 48 29 51 30 65 31 84 32 49 33 50 34
REMARK SMILES IDX 64 36 85 37 52 38 36 39 37 40 45 41 38 42 44 43 46 44 43 45
REMARK SMILES IDX 39 46 40 47 41 48 42 49 68 50 69 51 77 52 70 53 76 54 78 55
REMARK SMILES IDX 75 56 71 57 72 58 73 59 74 60 53 61 54 62 62 63 55 64 61 65
REMARK SMILES IDX 63 66 60 67 56 68 57 69 58 70 59 71 6 72 7 73 8 74 9 76
REMARK SMILES IDX 10 77 15 78 26 79 16 80 17 81 11 82 12 83 13 84 14 85 18 86
REMARK SMILES IDX 19 87 20 88 21 89 22 90 25 91 23 92 24 93
REMARK H PARENT 3 6 83 24 51 35 7 75 25 94
REMARK Flexibility Score: inf
ROOT
ATOM      1  C   UNL A   1      31.929  32.085  27.150  1.00  0.00     0.042 C 
ENDROOT
BRANCH   1   2
ATOM      2  C   UNL A   1      33.092  33.058  27.248  1.00  0.00     0.118 C 
BRANCH   2   3
ATOM      3  N   UNL A   1      32.760  34.281  27.964  1.00  0.00    -0.352 N 
ATOM      4  O   UNL A   1      32.719  35.760  29.657  1.00  0.00    -0.269 OA
ATOM      5  C   UNL A   1      33.263  34.791  29.140  1.00  0.00     0.251 C 
ATOM      6  H   UNL A   1      32.063  34.832  27.539  1.00  0.00     0.163 HD
BRANCH   5   7
ATOM      7  C   UNL A   1      34.437  34.163  29.787  1.00  0.00     0.039 A 
ATOM      8  C   UNL A   1      35.734  34.498  29.398  1.00  0.00     0.014 A 
ATOM      9  C   UNL A   1      34.237  33.246  30.822  1.00  0.00     0.014 A 
ATOM     10  C   UNL A   1      36.817  33.794  29.910  1.00  0.00     0.010 A 
ATOM     11  C   UNL A   1      35.337  32.624  31.421  1.00  0.00     0.010 A 
ATOM     12  C   UNL A   1      36.636  32.871  30.950  1.00  0.00    -0.014 A 
BRANCH  12  13
ATOM     13  C   UNL A   1      37.822  32.236  31.579  1.00  0.00     0.031 A 
ATOM     14  C   UNL A   1      38.569  31.133  30.884  1.00  0.00     0.074 A 
ATOM     15  C   UNL A   1      38.213  32.658  32.797  1.00  0.00     0.049 A 
ATOM     16  N   UNL A   1      39.577  30.419  31.316  1.00  0.00    -0.248 NA
ATOM     17  C   UNL A   1      38.115  30.779  29.532  1.00  0.00     0.031 C 
ATOM     18  C   UNL A   1      37.561  33.722  33.565  1.00  0.00     0.029 A 
ATOM     19  N   UNL A   1      39.243  32.252  33.605  1.00  0.00    -0.354 N 
ATOM     20  C   UNL A   1      39.864  29.512  30.302  1.00  0.00     0.074 A 
ATOM     21  C   UNL A   1      38.898  29.748  29.248  1.00  0.00     0.031 C 
ATOM     22  C   UNL A   1      38.215  33.897  34.720  1.00  0.00     0.029 A 
ATOM     23  C   UNL A   1      39.275  32.901  34.817  1.00  0.00     0.049 A 
ATOM     24  H   UNL A   1      39.895  31.561  33.344  1.00  0.00     0.167 HD
ATOM     25  C   UNL A   1      40.846  28.575  30.258  1.00  0.00     0.034 A 
ATOM     26  C   UNL A   1      40.032  32.690  35.910  1.00  0.00     0.034 A 
ATOM     27  C   UNL A   1      41.790  28.356  31.332  1.00  0.00     0.049 A 
ATOM     28  C   UNL A   1      41.071  31.604  35.869  1.00  0.00     0.074 A 
ATOM     29  C   UNL A   1      42.850  27.468  31.381  1.00  0.00     0.029 A 
ATOM     30  N   UNL A   1      41.772  29.016  32.556  1.00  0.00    -0.354 N 
ATOM     31  N   UNL A   1      41.351  30.771  34.893  1.00  0.00    -0.248 NA
ATOM     32  C   UNL A   1      41.896  31.432  37.069  1.00  0.00     0.031 C 
ATOM     33  C   UNL A   1      43.414  27.527  32.659  1.00  0.00     0.029 A 
ATOM     34  C   UNL A   1      42.772  28.521  33.382  1.00  0.00     0.049 A 
ATOM     35  H   UNL A   1      41.141  29.730  32.803  1.00  0.00     0.167 HD
ATOM     36  C   UNL A   1      42.402  29.987  35.355  1.00  0.00     0.074 A 
ATOM     37  C   UNL A   1      42.709  30.454  36.693  1.00  0.00     0.031 C 
ATOM     38  C   UNL A   1      43.059  28.983  34.722  1.00  0.00     0.034 A 
BRANCH  25  39
ATOM     39  C   UNL A   1      40.902  27.684  29.037  1.00  0.00     0.023 A 
ATOM     40  C   UNL A   1      41.838  27.888  28.008  1.00  0.00     0.031 A 
ATOM     41  C   UNL A   1      39.969  26.643  28.873  1.00  0.00     0.131 A 
ATOM     42  C   UNL A   1      41.757  27.138  26.824  1.00  0.00     0.055 A 
ATOM     43  C   UNL A   1      39.956  25.835  27.734  1.00  0.00     0.041 A 
ATOM     44  F   UNL A   1      39.037  26.406  29.809  1.00  0.00    -0.206 F 
ATOM     45  C   UNL A   1      40.839  26.094  26.691  1.00  0.00     0.022 A 
BRANCH  42  46
ATOM     46  S   UNL A   1      42.742  27.670  25.396  1.00  0.00     0.124 S 
ATOM     47  O   UNL A   1      42.818  26.440  24.610  1.00  0.00    -0.237 OA
ATOM     48  O   UNL A   1      41.927  28.738  24.830  1.00  0.00    -0.237 OA
ATOM     49  O   UNL A   1      44.007  28.096  25.990  1.00  0.00    -0.744 OA
ENDBRANCH  42  46
ENDBRANCH  25  39
BRANCH  26  50
ATOM     50  C   UNL A   1      39.777  33.487  37.141  1.00  0.00     0.023 A 
ATOM     51  C   UNL A   1      40.514  34.643  37.432  1.00  0.00     0.031 A 
ATOM     52  C   UNL A   1      38.758  33.108  38.037  1.00  0.00     0.131 A 
ATOM     53  C   UNL A   1      40.234  35.370  38.600  1.00  0.00     0.055 A 
ATOM     54  C   UNL A   1      38.449  33.862  39.167  1.00  0.00     0.041 A 
ATOM     55  F   UNL A   1      38.018  32.012  37.798  1.00  0.00    -0.206 F 
ATOM     56  C   UNL A   1      39.196  34.998  39.459  1.00  0.00     0.022 A 
BRANCH  53  57
ATOM     57  S   UNL A   1      41.284  36.789  39.013  1.00  0.00     0.124 S 
ATOM     58  O   UNL A   1      41.985  36.304  40.197  1.00  0.00    -0.237 OA
ATOM     59  O   UNL A   1      42.090  36.932  37.805  1.00  0.00    -0.237 OA
ATOM     60  O   UNL A   1      40.325  37.865  39.252  1.00  0.00    -0.744 OA
ENDBRANCH  53  57
ENDBRANCH  26  50
BRANCH  38  61
ATOM     61  C   UNL A   1      44.217  28.347  35.454  1.00  0.00     0.023 A 
ATOM     62  C   UNL A   1      45.529  28.838  35.344  1.00  0.00     0.031 A 
ATOM     63  C   UNL A   1      43.990  27.242  36.293  1.00  0.00     0.131 A 
ATOM     64  C   UNL A   1      46.571  28.200  36.035  1.00  0.00     0.055 A 
ATOM     65  C   UNL A   1      45.021  26.649  37.023  1.00  0.00     0.041 A 
ATOM     66  F   UNL A   1      42.757  26.728  36.428  1.00  0.00    -0.206 F 
ATOM     67  C   UNL A   1      46.322  27.124  36.890  1.00  0.00     0.022 A 
BRANCH  64  68
ATOM     68  S   UNL A   1      48.275  28.755  35.755  1.00  0.00     0.124 S 
ATOM     69  O   UNL A   1      48.377  28.694  34.300  1.00  0.00    -0.237 OA
ATOM     70  O   UNL A   1      48.272  30.092  36.339  1.00  0.00    -0.237 OA
ATOM     71  O   UNL A   1      49.080  27.769  36.473  1.00  0.00    -0.744 OA
ENDBRANCH  64  68
ENDBRANCH  38  61
ENDBRANCH  12  13
ENDBRANCH   5   7
ENDBRANCH   2   3
ENDBRANCH   1   2
BRANCH   1  72
ATOM     72  C   UNL A   1      32.287  30.719  26.588  1.00  0.00     0.117 C 
BRANCH  72  73
ATOM     73  N   UNL A   1      31.732  29.613  27.355  1.00  0.00    -0.355 N 
ATOM     74  C   UNL A   1      31.607  28.278  27.141  1.00  0.00     0.237 C 
ATOM     75  H   UNL A   1      31.364  29.896  28.224  1.00  0.00     0.163 HD
ATOM     76  O   UNL A   1      31.194  27.648  28.119  1.00  0.00    -0.274 OA
BRANCH  74  77
ATOM     77  C   UNL A   1      31.793  27.597  25.796  1.00  0.00     0.163 C 
ATOM     78  C   UNL A   1      30.728  26.489  25.631  1.00  0.00     0.050 C 
ATOM     79  C   UNL A   1      31.652  28.486  24.563  1.00  0.00     0.146 C 
ATOM     80  C   UNL A   1      30.323  26.540  24.169  1.00  0.00     0.121 C 
ATOM     81  N   UNL A   1      30.532  27.930  23.814  1.00  0.00    -0.341 N 
BRANCH  77  82
ATOM     82  C   UNL A   1      33.199  27.022  25.775  1.00  0.00     0.404 C 
ATOM     83  F   UNL A   1      34.076  27.830  26.414  1.00  0.00    -0.170 F 
ATOM     84  F   UNL A   1      33.296  25.785  26.301  1.00  0.00    -0.170 F 
ATOM     85  F   UNL A   1      33.642  26.915  24.492  1.00  0.00    -0.170 F 
ENDBRANCH  77  82
BRANCH  81  86
ATOM     86  C   UNL A   1      29.861  28.668  22.859  1.00  0.00     0.228 C 
ATOM     87  O   UNL A   1      30.180  28.600  21.671  1.00  0.00    -0.274 OA
BRANCH  86  88
ATOM     88  C   UNL A   1      28.646  29.476  23.306  1.00  0.00     0.155 C 
BRANCH  88  89
ATOM     89  C   UNL A   1      28.371  30.607  22.361  1.00  0.00     0.044 A 
ATOM     90  C   UNL A   1      28.540  31.968  22.505  1.00  0.00     0.045 A 
ATOM     91  N   UNL A   1      27.883  30.437  21.090  1.00  0.00    -0.282 N 
ATOM     92  C   UNL A   1      28.079  32.520  21.297  1.00  0.00     0.135 A 
ATOM     93  N   UNL A   1      27.651  31.589  20.442  1.00  0.00    -0.184 NA
ATOM     94  H   UNL A   1      27.717  29.552  20.691  1.00  0.00     0.190 HD
ENDBRANCH  88  89
ENDBRANCH  86  88
ENDBRANCH  81  86
ENDBRANCH  74  77
ENDBRANCH  72  73
ENDBRANCH   1  72
TORSDOF 17
ENDMDL
