MODEL 1
REMARK VINA RESULT:     -13.1      0.000      0.000
REMARK SMILES CCN(C(=O)Cc1c(C(=O)NCCCNC(=O)c2ccc(-c3c4nc(c(-c5cc(S(=O)(=O)[O-])ccc5F)c5ccc([nH]5)c(-c5cc(S(=O)(=O)[O-])ccc5F)c5nc(c(-c6cc(S(=O)(=O)[O-])ccc6F)c6ccc3[nH]6)C=C5)C=C4)cc2)[nH]c2ccc(Cl)cc12)c1ccc(C)c(C)c1
REMARK SMILES IDX 12 1 11 2 9 3 10 4 8 6 7 7 88 8 81 9 82 10 87 11 83 13 85 14
REMARK SMILES IDX 84 15 86 16 6 17 4 18 5 19 3 20 2 21 1 22 89 23 90 24 96 25
REMARK SMILES IDX 91 26 94 27 92 28 95 29 93 30 13 31 14 32 15 33 16 34 17 36
REMARK SMILES IDX 18 37 19 38 80 39 20 40 79 41 21 42 22 43 23 44 73 45 24 46
REMARK SMILES IDX 78 47 72 48 74 49 25 50 77 51 71 52 70 53 26 55 58 56 38 57
REMARK SMILES IDX 57 58 39 59 42 60 56 61 75 62 40 63 41 64 55 66 76 67 43 68
REMARK SMILES IDX 27 69 28 70 36 71 29 72 35 73 37 74 34 75 30 76 31 77 32 78
REMARK SMILES IDX 33 79 59 80 60 81 68 82 61 83 67 84 69 85 66 86 62 87 63 88
REMARK SMILES IDX 64 89 65 90 44 91 45 92 53 93 46 94 52 95 54 96 51 97 47 98
REMARK SMILES IDX 48 99 49 100 50 101
REMARK H PARENT 11 5 81 12 15 35 74 54 42 65
REMARK Flexibility Score: inf
ROOT
ATOM      1  C   UNL A   1      34.378  21.473  26.980  1.00  0.00     0.118 C 
ENDROOT
BRANCH   1   2
ATOM      2  N   UNL A   1      32.974  21.682  26.711  1.00  0.00    -0.351 N 
ATOM      3  C   UNL A   1      32.157  22.704  26.342  1.00  0.00     0.268 C 
ATOM      4  O   UNL A   1      31.000  22.336  26.094  1.00  0.00    -0.268 OA
ATOM      5  H   UNL A   1      32.465  20.848  26.828  1.00  0.00     0.163 HD
BRANCH   3   6
ATOM      6  C   UNL A   1      32.486  24.115  26.201  1.00  0.00     0.109 A 
ATOM      7  C   UNL A   1      33.501  24.960  25.732  1.00  0.00    -0.000 A 
ATOM      8  C   UNL A   1      33.159  26.306  26.150  1.00  0.00     0.005 A 
ATOM      9  N   UNL A   1      31.475  24.975  26.620  1.00  0.00    -0.350 N 
ATOM     10  C   UNL A   1      31.866  26.279  26.648  1.00  0.00     0.046 A 
ATOM     11  C   UNL A   1      33.844  27.542  26.152  1.00  0.00     0.031 A 
ATOM     12  H   UNL A   1      30.572  24.672  26.871  1.00  0.00     0.167 HD
ATOM     13  C   UNL A   1      31.181  27.415  27.091  1.00  0.00     0.028 A 
ATOM     14  C   UNL A   1      33.199  28.678  26.652  1.00  0.00     0.041 A 
ATOM     15  C   UNL A   1      31.881  28.623  27.095  1.00  0.00     0.022 A 
ATOM     16  Cl  UNL A   1      34.055  30.171  26.740  1.00  0.00    -0.084 Cl
BRANCH   7  17
ATOM     17  C   UNL A   1      34.789  24.676  25.028  1.00  0.00     0.139 C 
BRANCH  17  18
ATOM     18  C   UNL A   1      34.694  24.162  23.581  1.00  0.00     0.231 C 
ATOM     19  O   UNL A   1      35.729  23.669  23.104  1.00  0.00    -0.274 OA
BRANCH  18  20
ATOM     20  N   UNL A   1      33.494  24.190  22.852  1.00  0.00    -0.312 N 
BRANCH  20  21
ATOM     21  C   UNL A   1      32.977  23.117  21.989  1.00  0.00     0.122 C 
ATOM     22  C   UNL A   1      32.456  21.857  22.661  1.00  0.00     0.028 C 
ENDBRANCH  20  21
BRANCH  20  23
ATOM     23  C   UNL A   1      32.767  25.423  22.746  1.00  0.00     0.044 A 
ATOM     24  C   UNL A   1      31.375  25.456  22.844  1.00  0.00     0.026 A 
ATOM     25  C   UNL A   1      33.455  26.633  22.636  1.00  0.00     0.030 A 
ATOM     26  C   UNL A   1      30.702  26.684  22.857  1.00  0.00     0.006 A 
ATOM     27  C   UNL A   1      32.801  27.873  22.669  1.00  0.00    -0.046 A 
ATOM     28  C   UNL A   1      31.402  27.900  22.775  1.00  0.00    -0.048 A 
ATOM     29  C   UNL A   1      33.638  29.117  22.567  1.00  0.00     0.044 C 
ATOM     30  C   UNL A   1      30.606  29.175  22.759  1.00  0.00     0.044 C 
ENDBRANCH  20  23
ENDBRANCH  18  20
ENDBRANCH  17  18
ENDBRANCH   7  17
ENDBRANCH   3   6
ENDBRANCH   1   2
BRANCH   1  31
ATOM     31  C   UNL A   1      35.177  21.132  25.736  1.00  0.00     0.042 C 
BRANCH  31  32
ATOM     32  C   UNL A   1      36.554  21.765  25.800  1.00  0.00     0.118 C 
BRANCH  32  33
ATOM     33  N   UNL A   1      37.636  20.787  25.720  1.00  0.00    -0.352 N 
ATOM     34  C   UNL A   1      38.968  20.967  26.012  1.00  0.00     0.251 C 
ATOM     35  H   UNL A   1      37.380  19.885  25.417  1.00  0.00     0.163 HD
ATOM     36  O   UNL A   1      39.772  20.062  25.806  1.00  0.00    -0.269 OA
BRANCH  34  37
ATOM     37  C   UNL A   1      39.411  22.279  26.519  1.00  0.00     0.039 A 
ATOM     38  C   UNL A   1      40.497  22.337  27.393  1.00  0.00     0.014 A 
ATOM     39  C   UNL A   1      38.813  23.453  26.052  1.00  0.00     0.014 A 
ATOM     40  C   UNL A   1      41.035  23.579  27.734  1.00  0.00     0.010 A 
ATOM     41  C   UNL A   1      39.420  24.674  26.299  1.00  0.00     0.010 A 
ATOM     42  C   UNL A   1      40.531  24.753  27.151  1.00  0.00    -0.014 A 
BRANCH  42  43
ATOM     43  C   UNL A   1      41.125  26.083  27.434  1.00  0.00     0.031 A 
ATOM     44  C   UNL A   1      42.482  26.418  26.870  1.00  0.00     0.074 A 
ATOM     45  C   UNL A   1      40.493  26.940  28.262  1.00  0.00     0.049 A 
ATOM     46  N   UNL A   1      43.236  27.461  27.091  1.00  0.00    -0.248 NA
ATOM     47  C   UNL A   1      43.092  25.419  25.974  1.00  0.00     0.031 C 
ATOM     48  C   UNL A   1      39.202  26.696  28.913  1.00  0.00     0.029 A 
ATOM     49  N   UNL A   1      40.854  28.186  28.709  1.00  0.00    -0.354 N 
ATOM     50  C   UNL A   1      44.418  27.227  26.398  1.00  0.00     0.074 A 
ATOM     51  C   UNL A   1      44.305  25.918  25.795  1.00  0.00     0.031 C 
ATOM     52  C   UNL A   1      38.868  27.768  29.649  1.00  0.00     0.029 A 
ATOM     53  C   UNL A   1      39.938  28.756  29.566  1.00  0.00     0.049 A 
ATOM     54  H   UNL A   1      41.689  28.632  28.443  1.00  0.00     0.167 HD
ATOM     55  C   UNL A   1      45.491  28.043  26.258  1.00  0.00     0.034 A 
ATOM     56  C   UNL A   1      39.969  29.936  30.217  1.00  0.00     0.034 A 
ATOM     57  C   UNL A   1      45.556  29.369  26.815  1.00  0.00     0.049 A 
ATOM     58  C   UNL A   1      41.164  30.837  30.016  1.00  0.00     0.074 A 
ATOM     59  C   UNL A   1      46.544  30.323  26.650  1.00  0.00     0.029 A 
ATOM     60  N   UNL A   1      44.593  29.929  27.644  1.00  0.00    -0.354 N 
ATOM     61  N   UNL A   1      42.241  30.632  29.290  1.00  0.00    -0.248 NA
ATOM     62  C   UNL A   1      41.144  32.132  30.709  1.00  0.00     0.031 C 
ATOM     63  C   UNL A   1      46.209  31.435  27.429  1.00  0.00     0.029 A 
ATOM     64  C   UNL A   1      44.978  31.204  28.022  1.00  0.00     0.049 A 
ATOM     65  H   UNL A   1      43.758  29.486  27.920  1.00  0.00     0.167 HD
ATOM     66  C   UNL A   1      43.003  31.790  29.410  1.00  0.00     0.074 A 
ATOM     67  C   UNL A   1      42.257  32.692  30.262  1.00  0.00     0.031 C 
ATOM     68  C   UNL A   1      44.211  32.087  28.866  1.00  0.00     0.034 A 
BRANCH  55  69
ATOM     69  C   UNL A   1      46.679  27.519  25.491  1.00  0.00     0.023 A 
ATOM     70  C   UNL A   1      46.964  27.939  24.179  1.00  0.00     0.031 A 
ATOM     71  C   UNL A   1      47.545  26.584  26.085  1.00  0.00     0.131 A 
ATOM     72  C   UNL A   1      48.046  27.380  23.485  1.00  0.00     0.055 A 
ATOM     73  C   UNL A   1      48.666  26.089  25.416  1.00  0.00     0.041 A 
ATOM     74  F   UNL A   1      47.311  26.130  27.327  1.00  0.00    -0.206 F 
ATOM     75  C   UNL A   1      48.916  26.478  24.105  1.00  0.00     0.022 A 
BRANCH  72  76
ATOM     76  S   UNL A   1      48.240  27.763  21.723  1.00  0.00     0.124 S 
ATOM     77  O   UNL A   1      48.538  26.445  21.168  1.00  0.00    -0.237 OA
ATOM     78  O   UNL A   1      46.938  28.322  21.376  1.00  0.00    -0.237 OA
ATOM     79  O   UNL A   1      49.352  28.709  21.697  1.00  0.00    -0.744 OA
ENDBRANCH  72  76
ENDBRANCH  55  69
BRANCH  56  80
ATOM     80  C   UNL A   1      38.855  30.346  31.123  1.00  0.00     0.023 A 
ATOM     81  C   UNL A   1      37.861  31.236  30.683  1.00  0.00     0.031 A 
ATOM     82  C   UNL A   1      38.809  29.923  32.463  1.00  0.00     0.131 A 
ATOM     83  C   UNL A   1      36.909  31.729  31.588  1.00  0.00     0.055 A 
ATOM     84  C   UNL A   1      37.820  30.366  33.344  1.00  0.00     0.041 A 
ATOM     85  F   UNL A   1      39.729  29.068  32.938  1.00  0.00    -0.206 F 
ATOM     86  C   UNL A   1      36.873  31.292  32.913  1.00  0.00     0.022 A 
BRANCH  83  87
ATOM     87  S   UNL A   1      35.796  33.053  31.038  1.00  0.00     0.124 S 
ATOM     88  O   UNL A   1      36.329  33.358  29.716  1.00  0.00    -0.237 OA
ATOM     89  O   UNL A   1      34.498  32.387  31.070  1.00  0.00    -0.237 OA
ATOM     90  O   UNL A   1      35.986  34.096  32.045  1.00  0.00    -0.744 OA
ENDBRANCH  83  87
ENDBRANCH  56  80
BRANCH  68  91
ATOM     91  C   UNL A   1      44.761  33.464  29.132  1.00  0.00     0.023 A 
ATOM     92  C   UNL A   1      44.341  34.583  28.393  1.00  0.00     0.031 A 
ATOM     93  C   UNL A   1      45.726  33.656  30.137  1.00  0.00     0.131 A 
ATOM     94  C   UNL A   1      44.926  35.835  28.633  1.00  0.00     0.055 A 
ATOM     95  C   UNL A   1      46.257  34.915  30.413  1.00  0.00     0.041 A 
ATOM     96  F   UNL A   1      46.161  32.620  30.873  1.00  0.00    -0.206 F 
ATOM     97  C   UNL A   1      45.868  36.011  29.650  1.00  0.00     0.022 A 
BRANCH  94  98
ATOM     98  S   UNL A   1      44.501  37.215  27.536  1.00  0.00     0.124 S 
ATOM     99  O   UNL A   1      45.791  37.536  26.937  1.00  0.00    -0.237 OA
ATOM    100  O   UNL A   1      43.516  36.612  26.643  1.00  0.00    -0.237 OA
ATOM    101  O   UNL A   1      43.970  38.227  28.449  1.00  0.00    -0.744 OA
ENDBRANCH  94  98
ENDBRANCH  68  91
ENDBRANCH  42  43
ENDBRANCH  34  37
ENDBRANCH  32  33
ENDBRANCH  31  32
ENDBRANCH   1  31
TORSDOF 18
ENDMDL
MODEL 2
REMARK VINA RESULT:     -12.8      0.673      7.256
REMARK SMILES CCN(C(=O)Cc1c(C(=O)NCCCNC(=O)c2ccc(-c3c4nc(c(-c5cc(S(=O)(=O)[O-])ccc5F)c5ccc([nH]5)c(-c5cc(S(=O)(=O)[O-])ccc5F)c5nc(c(-c6cc(S(=O)(=O)[O-])ccc6F)c6ccc3[nH]6)C=C5)C=C4)cc2)[nH]c2ccc(Cl)cc12)c1ccc(C)c(C)c1
REMARK SMILES IDX 12 1 11 2 9 3 10 4 8 6 7 7 88 8 81 9 82 10 87 11 83 13 85 14
REMARK SMILES IDX 84 15 86 16 6 17 4 18 5 19 3 20 2 21 1 22 89 23 90 24 96 25
REMARK SMILES IDX 91 26 94 27 92 28 95 29 93 30 13 31 14 32 15 33 16 34 17 36
REMARK SMILES IDX 18 37 19 38 80 39 20 40 79 41 21 42 22 43 23 44 73 45 24 46
REMARK SMILES IDX 78 47 72 48 74 49 25 50 77 51 71 52 70 53 26 55 58 56 38 57
REMARK SMILES IDX 57 58 39 59 42 60 56 61 75 62 40 63 41 64 55 66 76 67 43 68
REMARK SMILES IDX 27 69 28 70 36 71 29 72 35 73 37 74 34 75 30 76 31 77 32 78
REMARK SMILES IDX 33 79 59 80 60 81 68 82 61 83 67 84 69 85 66 86 62 87 63 88
REMARK SMILES IDX 64 89 65 90 44 91 45 92 53 93 46 94 52 95 54 96 51 97 47 98
REMARK SMILES IDX 48 99 49 100 50 101
REMARK H PARENT 11 5 81 12 15 35 74 54 42 65
REMARK Flexibility Score: inf
ROOT
ATOM      1  C   UNL A   1      34.245  21.446  26.966  1.00  0.00     0.118 C 
ENDROOT
BRANCH   1   2
ATOM      2  N   UNL A   1      32.843  21.683  26.712  1.00  0.00    -0.351 N 
ATOM      3  C   UNL A   1      32.042  22.722  26.352  1.00  0.00     0.268 C 
ATOM      4  O   UNL A   1      30.876  22.377  26.116  1.00  0.00    -0.268 OA
ATOM      5  H   UNL A   1      32.319  20.859  26.833  1.00  0.00     0.163 HD
BRANCH   3   6
ATOM      6  C   UNL A   1      32.397  24.126  26.210  1.00  0.00     0.109 A 
ATOM      7  C   UNL A   1      33.438  24.951  25.761  1.00  0.00    -0.000 A 
ATOM      8  C   UNL A   1      33.107  26.305  26.161  1.00  0.00     0.005 A 
ATOM      9  N   UNL A   1      31.390  25.005  26.597  1.00  0.00    -0.350 N 
ATOM     10  C   UNL A   1      31.802  26.303  26.625  1.00  0.00     0.046 A 
ATOM     11  C   UNL A   1      33.812  27.530  26.171  1.00  0.00     0.031 A 
ATOM     12  H   UNL A   1      30.476  24.718  26.826  1.00  0.00     0.167 HD
ATOM     13  C   UNL A   1      31.124  27.453  27.042  1.00  0.00     0.028 A 
ATOM     14  C   UNL A   1      33.173  28.681  26.646  1.00  0.00     0.041 A 
ATOM     15  C   UNL A   1      31.843  28.650  27.055  1.00  0.00     0.022 A 
ATOM     16  Cl  UNL A   1      34.050  30.160  26.745  1.00  0.00    -0.084 Cl
BRANCH   7  17
ATOM     17  C   UNL A   1      34.739  24.641  25.093  1.00  0.00     0.139 C 
BRANCH  17  18
ATOM     18  C   UNL A   1      34.677  24.178  23.627  1.00  0.00     0.231 C 
ATOM     19  O   UNL A   1      35.729  23.727  23.148  1.00  0.00    -0.274 OA
BRANCH  18  20
ATOM     20  N   UNL A   1      33.487  24.204  22.882  1.00  0.00    -0.312 N 
BRANCH  20  21
ATOM     21  C   UNL A   1      32.977  23.124  22.022  1.00  0.00     0.122 C 
ATOM     22  C   UNL A   1      32.511  21.844  22.695  1.00  0.00     0.028 C 
ENDBRANCH  20  21
BRANCH  20  23
ATOM     23  C   UNL A   1      32.766  25.438  22.754  1.00  0.00     0.044 A 
ATOM     24  C   UNL A   1      31.374  25.479  22.839  1.00  0.00     0.026 A 
ATOM     25  C   UNL A   1      33.461  26.644  22.637  1.00  0.00     0.030 A 
ATOM     26  C   UNL A   1      30.706  26.709  22.831  1.00  0.00     0.006 A 
ATOM     27  C   UNL A   1      32.812  27.887  22.649  1.00  0.00    -0.046 A 
ATOM     28  C   UNL A   1      31.412  27.922  22.741  1.00  0.00    -0.048 A 
ATOM     29  C   UNL A   1      33.655  29.126  22.541  1.00  0.00     0.044 C 
ATOM     30  C   UNL A   1      30.622  29.199  22.703  1.00  0.00     0.044 C 
ENDBRANCH  20  23
ENDBRANCH  18  20
ENDBRANCH  17  18
ENDBRANCH   7  17
ENDBRANCH   3   6
ENDBRANCH   1   2
BRANCH   1  31
ATOM     31  C   UNL A   1      35.025  21.093  25.714  1.00  0.00     0.042 C 
BRANCH  31  32
ATOM     32  C   UNL A   1      36.441  21.631  25.800  1.00  0.00     0.118 C 
BRANCH  32  33
ATOM     33  N   UNL A   1      37.455  20.608  25.565  1.00  0.00    -0.352 N 
ATOM     34  C   UNL A   1      38.813  20.695  25.765  1.00  0.00     0.251 C 
ATOM     35  H   UNL A   1      37.127  19.746  25.217  1.00  0.00     0.163 HD
ATOM     36  O   UNL A   1      39.547  19.769  25.432  1.00  0.00    -0.269 OA
BRANCH  34  37
ATOM     37  C   UNL A   1      39.367  21.940  26.331  1.00  0.00     0.039 A 
ATOM     38  C   UNL A   1      40.404  21.860  27.261  1.00  0.00     0.014 A 
ATOM     39  C   UNL A   1      38.926  23.182  25.867  1.00  0.00     0.014 A 
ATOM     40  C   UNL A   1      41.054  23.027  27.664  1.00  0.00     0.010 A 
ATOM     41  C   UNL A   1      39.646  24.324  26.179  1.00  0.00     0.010 A 
ATOM     42  C   UNL A   1      40.711  24.262  27.089  1.00  0.00    -0.014 A 
BRANCH  42  43
ATOM     43  C   UNL A   1      41.429  25.513  27.439  1.00  0.00     0.031 A 
ATOM     44  C   UNL A   1      40.728  26.554  28.273  1.00  0.00     0.074 A 
ATOM     45  C   UNL A   1      42.658  25.746  26.937  1.00  0.00     0.049 A 
ATOM     46  N   UNL A   1      41.117  27.760  28.590  1.00  0.00    -0.248 NA
ATOM     47  C   UNL A   1      39.388  26.207  28.779  1.00  0.00     0.031 C 
ATOM     48  C   UNL A   1      43.409  24.833  26.068  1.00  0.00     0.029 A 
ATOM     49  N   UNL A   1      43.493  26.827  27.072  1.00  0.00    -0.354 N 
ATOM     50  C   UNL A   1      40.059  28.327  29.292  1.00  0.00     0.074 A 
ATOM     51  C   UNL A   1      38.991  27.353  29.308  1.00  0.00     0.031 C 
ATOM     52  C   UNL A   1      44.600  25.380  25.776  1.00  0.00     0.029 A 
ATOM     53  C   UNL A   1      44.683  26.700  26.391  1.00  0.00     0.049 A 
ATOM     54  H   UNL A   1      43.263  27.621  27.607  1.00  0.00     0.167 HD
ATOM     55  C   UNL A   1      39.996  29.541  29.890  1.00  0.00     0.034 A 
ATOM     56  C   UNL A   1      45.715  27.559  26.268  1.00  0.00     0.034 A 
ATOM     57  C   UNL A   1      41.095  30.470  29.916  1.00  0.00     0.049 A 
ATOM     58  C   UNL A   1      45.628  28.892  26.973  1.00  0.00     0.074 A 
ATOM     59  C   UNL A   1      41.183  31.680  30.580  1.00  0.00     0.029 A 
ATOM     60  N   UNL A   1      42.301  30.290  29.250  1.00  0.00    -0.354 N 
ATOM     61  N   UNL A   1      44.648  29.379  27.702  1.00  0.00    -0.248 NA
ATOM     62  C   UNL A   1      46.788  29.784  26.851  1.00  0.00     0.031 C 
ATOM     63  C   UNL A   1      42.415  32.261  30.263  1.00  0.00     0.029 A 
ATOM     64  C   UNL A   1      43.126  31.382  29.462  1.00  0.00     0.049 A 
ATOM     65  H   UNL A   1      42.535  29.503  28.707  1.00  0.00     0.167 HD
ATOM     66  C   UNL A   1      45.095  30.616  28.157  1.00  0.00     0.074 A 
ATOM     67  C   UNL A   1      46.434  30.792  27.634  1.00  0.00     0.031 C 
ATOM     68  C   UNL A   1      44.461  31.528  28.936  1.00  0.00     0.034 A 
BRANCH  55  69
ATOM     69  C   UNL A   1      38.697  29.936  30.547  1.00  0.00     0.023 A 
ATOM     70  C   UNL A   1      37.825  30.876  29.970  1.00  0.00     0.031 A 
ATOM     71  C   UNL A   1      38.324  29.358  31.773  1.00  0.00     0.131 A 
ATOM     72  C   UNL A   1      36.657  31.255  30.647  1.00  0.00     0.055 A 
ATOM     73  C   UNL A   1      37.121  29.683  32.405  1.00  0.00     0.041 A 
ATOM     74  F   UNL A   1      39.127  28.471  32.383  1.00  0.00    -0.206 F 
ATOM     75  C   UNL A   1      36.286  30.644  31.848  1.00  0.00     0.022 A 
BRANCH  72  76
ATOM     76  S   UNL A   1      35.684  32.638  29.993  1.00  0.00     0.124 S 
ATOM     77  O   UNL A   1      34.383  32.400  30.613  1.00  0.00    -0.237 OA
ATOM     78  O   UNL A   1      36.419  33.800  30.479  1.00  0.00    -0.237 OA
ATOM     79  O   UNL A   1      35.724  32.433  28.547  1.00  0.00    -0.744 OA
ENDBRANCH  72  76
ENDBRANCH  55  69
BRANCH  56  80
ATOM     80  C   UNL A   1      46.916  27.211  25.452  1.00  0.00     0.023 A 
ATOM     81  C   UNL A   1      47.090  27.746  24.165  1.00  0.00     0.031 A 
ATOM     82  C   UNL A   1      47.865  26.279  25.907  1.00  0.00     0.131 A 
ATOM     83  C   UNL A   1      48.141  27.295  23.353  1.00  0.00     0.055 A 
ATOM     84  C   UNL A   1      48.947  25.881  25.120  1.00  0.00     0.041 A 
ATOM     85  F   UNL A   1      47.753  25.738  27.132  1.00  0.00    -0.206 F 
ATOM     86  C   UNL A   1      49.078  26.375  23.825  1.00  0.00     0.022 A 
BRANCH  83  87
ATOM     87  S   UNL A   1      48.188  27.833  21.620  1.00  0.00     0.124 S 
ATOM     88  O   UNL A   1      46.879  28.457  21.467  1.00  0.00    -0.237 OA
ATOM     89  O   UNL A   1      49.335  28.735  21.617  1.00  0.00    -0.237 OA
ATOM     90  O   UNL A   1      48.375  26.585  20.882  1.00  0.00    -0.744 OA
ENDBRANCH  83  87
ENDBRANCH  56  80
BRANCH  68  91
ATOM     91  C   UNL A   1      45.236  32.763  29.315  1.00  0.00     0.023 A 
ATOM     92  C   UNL A   1      45.183  33.935  28.543  1.00  0.00     0.031 A 
ATOM     93  C   UNL A   1      46.046  32.761  30.465  1.00  0.00     0.131 A 
ATOM     94  C   UNL A   1      45.970  35.041  28.899  1.00  0.00     0.055 A 
ATOM     95  C   UNL A   1      46.778  33.884  30.849  1.00  0.00     0.041 A 
ATOM     96  F   UNL A   1      46.132  31.666  31.238  1.00  0.00    -0.206 F 
ATOM     97  C   UNL A   1      46.753  35.028  30.057  1.00  0.00     0.022 A 
BRANCH  94  98
ATOM     98  S   UNL A   1      46.024  36.465  27.779  1.00  0.00     0.124 S 
ATOM     99  O   UNL A   1      44.901  36.194  26.888  1.00  0.00    -0.237 OA
ATOM    100  O   UNL A   1      45.853  37.589  28.695  1.00  0.00    -0.237 OA
ATOM    101  O   UNL A   1      47.345  36.365  27.161  1.00  0.00    -0.744 OA
ENDBRANCH  94  98
ENDBRANCH  68  91
ENDBRANCH  42  43
ENDBRANCH  34  37
ENDBRANCH  32  33
ENDBRANCH  31  32
ENDBRANCH   1  31
TORSDOF 18
ENDMDL
MODEL 3
REMARK VINA RESULT:     -12.4      4.822      9.573
REMARK SMILES CCN(C(=O)Cc1c(C(=O)NCCCNC(=O)c2ccc(-c3c4nc(c(-c5cc(S(=O)(=O)[O-])ccc5F)c5ccc([nH]5)c(-c5cc(S(=O)(=O)[O-])ccc5F)c5nc(c(-c6cc(S(=O)(=O)[O-])ccc6F)c6ccc3[nH]6)C=C5)C=C4)cc2)[nH]c2ccc(Cl)cc12)c1ccc(C)c(C)c1
REMARK SMILES IDX 12 1 11 2 9 3 10 4 8 6 7 7 88 8 81 9 82 10 87 11 83 13 85 14
REMARK SMILES IDX 84 15 86 16 6 17 4 18 5 19 3 20 2 21 1 22 89 23 90 24 96 25
REMARK SMILES IDX 91 26 94 27 92 28 95 29 93 30 13 31 14 32 15 33 16 34 17 36
REMARK SMILES IDX 18 37 19 38 80 39 20 40 79 41 21 42 22 43 23 44 73 45 24 46
REMARK SMILES IDX 78 47 72 48 74 49 25 50 77 51 71 52 70 53 26 55 58 56 38 57
REMARK SMILES IDX 57 58 39 59 42 60 56 61 75 62 40 63 41 64 55 66 76 67 43 68
REMARK SMILES IDX 27 69 28 70 36 71 29 72 35 73 37 74 34 75 30 76 31 77 32 78
REMARK SMILES IDX 33 79 59 80 60 81 68 82 61 83 67 84 69 85 66 86 62 87 63 88
REMARK SMILES IDX 64 89 65 90 44 91 45 92 53 93 46 94 52 95 54 96 51 97 47 98
REMARK SMILES IDX 48 99 49 100 50 101
REMARK H PARENT 11 5 81 12 15 35 74 54 42 65
REMARK Flexibility Score: inf
ROOT
ATOM      1  C   UNL A   1      32.100  27.373  26.993  1.00  0.00     0.118 C 
ENDROOT
BRANCH   1   2
ATOM      2  N   UNL A   1      30.828  26.693  26.925  1.00  0.00    -0.351 N 
ATOM      3  C   UNL A   1      30.355  25.464  26.585  1.00  0.00     0.268 C 
ATOM      4  O   UNL A   1      29.151  25.320  26.837  1.00  0.00    -0.268 OA
ATOM      5  H   UNL A   1      30.094  27.288  27.203  1.00  0.00     0.163 HD
BRANCH   3   6
ATOM      6  C   UNL A   1      31.083  24.349  25.996  1.00  0.00     0.109 A 
ATOM      7  C   UNL A   1      31.289  23.705  24.769  1.00  0.00    -0.000 A 
ATOM      8  C   UNL A   1      32.025  22.486  25.049  1.00  0.00     0.005 A 
ATOM      9  N   UNL A   1      31.905  23.674  26.894  1.00  0.00    -0.350 N 
ATOM     10  C   UNL A   1      32.437  22.535  26.371  1.00  0.00     0.046 A 
ATOM     11  C   UNL A   1      32.369  21.345  24.290  1.00  0.00     0.031 A 
ATOM     12  H   UNL A   1      32.082  23.988  27.811  1.00  0.00     0.167 HD
ATOM     13  C   UNL A   1      33.225  21.550  26.976  1.00  0.00     0.028 A 
ATOM     14  C   UNL A   1      33.102  20.319  24.895  1.00  0.00     0.041 A 
ATOM     15  C   UNL A   1      33.544  20.427  26.211  1.00  0.00     0.022 A 
ATOM     16  Cl  UNL A   1      33.452  18.885  24.005  1.00  0.00    -0.084 Cl
BRANCH   7  17
ATOM     17  C   UNL A   1      30.819  24.019  23.385  1.00  0.00     0.139 C 
BRANCH  17  18
ATOM     18  C   UNL A   1      31.280  25.356  22.779  1.00  0.00     0.231 C 
ATOM     19  O   UNL A   1      30.420  26.246  22.693  1.00  0.00    -0.274 OA
BRANCH  18  20
ATOM     20  N   UNL A   1      32.612  25.586  22.396  1.00  0.00    -0.312 N 
BRANCH  20  21
ATOM     21  C   UNL A   1      33.070  26.027  21.069  1.00  0.00     0.122 C 
ATOM     22  C   UNL A   1      32.478  25.336  19.851  1.00  0.00     0.028 C 
ENDBRANCH  20  21
BRANCH  20  23
ATOM     23  C   UNL A   1      33.673  25.184  23.273  1.00  0.00     0.044 A 
ATOM     24  C   UNL A   1      33.883  25.817  24.499  1.00  0.00     0.026 A 
ATOM     25  C   UNL A   1      34.464  24.077  22.953  1.00  0.00     0.030 A 
ATOM     26  C   UNL A   1      34.848  25.327  25.386  1.00  0.00     0.006 A 
ATOM     27  C   UNL A   1      35.420  23.558  23.837  1.00  0.00    -0.046 A 
ATOM     28  C   UNL A   1      35.621  24.196  25.071  1.00  0.00    -0.048 A 
ATOM     29  C   UNL A   1      36.200  22.349  23.405  1.00  0.00     0.044 C 
ATOM     30  C   UNL A   1      36.661  23.752  26.060  1.00  0.00     0.044 C 
ENDBRANCH  20  23
ENDBRANCH  18  20
ENDBRANCH  17  18
ENDBRANCH   7  17
ENDBRANCH   3   6
ENDBRANCH   1   2
BRANCH   1  31
ATOM     31  C   UNL A   1      31.966  28.855  27.288  1.00  0.00     0.042 C 
BRANCH  31  32
ATOM     32  C   UNL A   1      33.237  29.590  26.907  1.00  0.00     0.118 C 
BRANCH  32  33
ATOM     33  N   UNL A   1      33.280  30.957  27.415  1.00  0.00    -0.352 N 
ATOM     34  C   UNL A   1      34.277  31.563  28.145  1.00  0.00     0.251 C 
ATOM     35  H   UNL A   1      32.496  31.518  27.211  1.00  0.00     0.163 HD
ATOM     36  O   UNL A   1      34.121  32.702  28.576  1.00  0.00    -0.269 OA
BRANCH  34  37
ATOM     37  C   UNL A   1      35.502  30.796  28.443  1.00  0.00     0.039 A 
ATOM     38  C   UNL A   1      36.688  31.131  27.788  1.00  0.00     0.014 A 
ATOM     39  C   UNL A   1      35.494  29.816  29.438  1.00  0.00     0.014 A 
ATOM     40  C   UNL A   1      37.884  30.537  28.193  1.00  0.00     0.010 A 
ATOM     41  C   UNL A   1      36.695  29.314  29.914  1.00  0.00     0.010 A 
ATOM     42  C   UNL A   1      37.903  29.661  29.290  1.00  0.00    -0.014 A 
BRANCH  42  43
ATOM     43  C   UNL A   1      39.167  29.066  29.794  1.00  0.00     0.031 A 
ATOM     44  C   UNL A   1      39.856  29.697  30.976  1.00  0.00     0.074 A 
ATOM     45  C   UNL A   1      39.730  28.031  29.140  1.00  0.00     0.049 A 
ATOM     46  N   UNL A   1      41.020  29.422  31.499  1.00  0.00    -0.248 NA
ATOM     47  C   UNL A   1      39.160  30.822  31.627  1.00  0.00     0.031 C 
ATOM     48  C   UNL A   1      39.180  27.378  27.947  1.00  0.00     0.029 A 
ATOM     49  N   UNL A   1      40.898  27.350  29.375  1.00  0.00    -0.354 N 
ATOM     50  C   UNL A   1      41.214  30.359  32.508  1.00  0.00     0.074 A 
ATOM     51  C   UNL A   1      40.073  31.246  32.487  1.00  0.00     0.031 C 
ATOM     52  C   UNL A   1      39.994  26.376  27.577  1.00  0.00     0.029 A 
ATOM     53  C   UNL A   1      41.147  26.343  28.470  1.00  0.00     0.049 A 
ATOM     54  H   UNL A   1      41.503  27.561  30.122  1.00  0.00     0.167 HD
ATOM     55  C   UNL A   1      42.241  30.455  33.387  1.00  0.00     0.034 A 
ATOM     56  C   UNL A   1      42.193  25.498  28.368  1.00  0.00     0.034 A 
ATOM     57  C   UNL A   1      43.336  29.522  33.430  1.00  0.00     0.049 A 
ATOM     58  C   UNL A   1      43.307  25.609  29.382  1.00  0.00     0.074 A 
ATOM     59  C   UNL A   1      44.374  29.456  34.342  1.00  0.00     0.029 A 
ATOM     60  N   UNL A   1      43.534  28.489  32.523  1.00  0.00    -0.354 N 
ATOM     61  N   UNL A   1      43.434  26.454  30.381  1.00  0.00    -0.248 NA
ATOM     62  C   UNL A   1      44.410  24.647  29.265  1.00  0.00     0.031 C 
ATOM     63  C   UNL A   1      45.234  28.425  33.949  1.00  0.00     0.029 A 
ATOM     64  C   UNL A   1      44.694  27.800  32.836  1.00  0.00     0.049 A 
ATOM     65  H   UNL A   1      42.938  28.276  31.769  1.00  0.00     0.167 HD
ATOM     66  C   UNL A   1      44.610  26.095  31.032  1.00  0.00     0.074 A 
ATOM     67  C   UNL A   1      45.145  24.951  30.324  1.00  0.00     0.031 C 
ATOM     68  C   UNL A   1      45.200  26.656  32.118  1.00  0.00     0.034 A 
BRANCH  55  69
ATOM     69  C   UNL A   1      42.234  31.611  34.356  1.00  0.00     0.023 A 
ATOM     70  C   UNL A   1      41.441  31.606  35.517  1.00  0.00     0.031 A 
ATOM     71  C   UNL A   1      43.038  32.738  34.112  1.00  0.00     0.131 A 
ATOM     72  C   UNL A   1      41.424  32.728  36.357  1.00  0.00     0.055 A 
ATOM     73  C   UNL A   1      43.075  33.821  34.993  1.00  0.00     0.041 A 
ATOM     74  F   UNL A   1      43.799  32.809  33.008  1.00  0.00    -0.206 F 
ATOM     75  C   UNL A   1      42.257  33.825  36.118  1.00  0.00     0.022 A 
BRANCH  72  76
ATOM     76  S   UNL A   1      40.216  32.784  37.708  1.00  0.00     0.124 S 
ATOM     77  O   UNL A   1      39.244  31.783  37.273  1.00  0.00    -0.237 OA
ATOM     78  O   UNL A   1      41.023  32.427  38.869  1.00  0.00    -0.237 OA
ATOM     79  O   UNL A   1      39.735  34.163  37.682  1.00  0.00    -0.744 OA
ENDBRANCH  72  76
ENDBRANCH  55  69
BRANCH  56  80
ATOM     80  C   UNL A   1      42.260  24.480  27.278  1.00  0.00     0.023 A 
ATOM     81  C   UNL A   1      41.509  23.296  27.352  1.00  0.00     0.031 A 
ATOM     82  C   UNL A   1      43.133  24.635  26.187  1.00  0.00     0.131 A 
ATOM     83  C   UNL A   1      41.695  22.285  26.399  1.00  0.00     0.055 A 
ATOM     84  C   UNL A   1      43.268  23.652  25.204  1.00  0.00     0.041 A 
ATOM     85  F   UNL A   1      43.873  25.749  26.060  1.00  0.00    -0.206 F 
ATOM     86  C   UNL A   1      42.561  22.458  25.317  1.00  0.00     0.022 A 
BRANCH  83  87
ATOM     87  S   UNL A   1      40.885  20.682  26.665  1.00  0.00     0.124 S 
ATOM     88  O   UNL A   1      41.811  19.769  26.006  1.00  0.00    -0.237 OA
ATOM     89  O   UNL A   1      40.837  20.609  28.122  1.00  0.00    -0.237 OA
ATOM     90  O   UNL A   1      39.590  20.843  26.007  1.00  0.00    -0.744 OA
ENDBRANCH  83  87
ENDBRANCH  56  80
BRANCH  68  91
ATOM     91  C   UNL A   1      46.453  25.997  32.633  1.00  0.00     0.023 A 
ATOM     92  C   UNL A   1      46.407  24.959  33.578  1.00  0.00     0.031 A 
ATOM     93  C   UNL A   1      47.713  26.422  32.174  1.00  0.00     0.131 A 
ATOM     94  C   UNL A   1      47.601  24.416  34.076  1.00  0.00     0.055 A 
ATOM     95  C   UNL A   1      48.894  25.836  32.627  1.00  0.00     0.041 A 
ATOM     96  F   UNL A   1      47.813  27.411  31.271  1.00  0.00    -0.206 F 
ATOM     97  C   UNL A   1      48.843  24.837  33.593  1.00  0.00     0.022 A 
BRANCH  94  98
ATOM     98  S   UNL A   1      47.509  23.214  35.430  1.00  0.00     0.124 S 
ATOM     99  O   UNL A   1      48.472  23.754  36.382  1.00  0.00    -0.237 OA
ATOM    100  O   UNL A   1      46.106  23.295  35.825  1.00  0.00    -0.237 OA
ATOM    101  O   UNL A   1      47.901  21.955  34.797  1.00  0.00    -0.744 OA
ENDBRANCH  94  98
ENDBRANCH  68  91
ENDBRANCH  42  43
ENDBRANCH  34  37
ENDBRANCH  32  33
ENDBRANCH  31  32
ENDBRANCH   1  31
TORSDOF 18
ENDMDL
