MODEL 1
REMARK VINA RESULT:     -12.6      0.000      0.000
REMARK SMILES Cc1ccc([N+](=O)[O-])c(N2CCC[C@H](CC(=O)NCCCNC(=O)c3ccc(-c4c5nc(c(-c6cc(S(=O)(=O)[O-])ccc6F)c6ccc([nH]6)c(-c6cc(S(=O)(=O)[O-])ccc6F)c6nc(c(-c7cc(S(=O)(=O)[O-])ccc7F)c7ccc4[nH]7)C=C6)C=C5)cc3)C2)c1
REMARK SMILES IDX 20 1 19 2 18 3 16 4 17 5 15 7 14 8 10 9 11 10 88 11 12 12
REMARK SMILES IDX 13 13 9 14 1 15 2 16 3 17 89 18 4 19 5 20 6 21 7 22 8 23
REMARK SMILES IDX 21 24 22 25 23 26 24 28 25 29 26 30 87 31 27 32 86 33 28 34
REMARK SMILES IDX 29 35 30 36 80 37 31 38 85 39 79 40 81 41 32 42 84 43 78 44
REMARK SMILES IDX 77 45 33 47 65 48 45 49 64 50 46 51 49 52 63 53 82 54 47 55
REMARK SMILES IDX 48 56 62 58 83 59 50 60 34 61 35 62 43 63 36 64 42 65 44 66
REMARK SMILES IDX 41 67 37 68 38 69 39 70 40 71 66 72 67 73 75 74 68 75 74 76
REMARK SMILES IDX 76 77 73 78 69 79 70 80 71 81 72 82 51 83 52 84 60 85 53 86
REMARK SMILES IDX 59 87 61 88 58 89 54 90 55 91 56 92 57 93
REMARK H PARENT 18 6 22 27 81 46 49 57
REMARK Flexibility Score: inf
ROOT
ATOM      1  C   UNL A   1      38.282  21.623  25.415  1.00  0.00     0.042 C 
ENDROOT
BRANCH   1   2
ATOM      2  C   UNL A   1      36.782  21.343  25.332  1.00  0.00     0.117 C 
BRANCH   2   3
ATOM      3  N   UNL A   1      36.038  21.937  26.439  1.00  0.00    -0.356 N 
ATOM      4  C   UNL A   1      34.810  22.523  26.453  1.00  0.00     0.220 C 
ATOM      5  O   UNL A   1      34.369  22.971  27.514  1.00  0.00    -0.275 OA
ATOM      6  H   UNL A   1      36.496  21.909  27.309  1.00  0.00     0.163 HD
BRANCH   4   7
ATOM      7  C   UNL A   1      33.988  22.622  25.187  1.00  0.00     0.105 C 
BRANCH   7   8
ATOM      8  C   UNL A   1      34.626  23.565  24.144  1.00  0.00     0.018 C 
ATOM      9  N   UNL A   1      33.111  25.416  24.647  1.00  0.00    -0.366 N 
ATOM     10  C   UNL A   1      32.373  25.340  23.382  1.00  0.00     0.117 C 
ATOM     11  C   UNL A   1      34.522  25.016  24.622  1.00  0.00     0.120 C 
ATOM     12  C   UNL A   1      32.524  23.948  22.765  1.00  0.00     0.022 C 
ATOM     13  C   UNL A   1      33.985  23.487  22.750  1.00  0.00     0.008 C 
BRANCH   9  14
ATOM     14  C   UNL A   1      32.790  26.461  25.506  1.00  0.00     0.116 A 
ATOM     15  C   UNL A   1      34.440  29.667  26.772  1.00  0.00     0.044 C 
ATOM     16  C   UNL A   1      33.446  28.558  26.601  1.00  0.00    -0.049 A 
ATOM     17  C   UNL A   1      32.312  28.496  27.419  1.00  0.00     0.010 A 
ATOM     18  C   UNL A   1      33.670  27.545  25.655  1.00  0.00     0.036 A 
ATOM     19  C   UNL A   1      31.404  27.448  27.277  1.00  0.00     0.088 A 
ATOM     20  C   UNL A   1      31.647  26.453  26.320  1.00  0.00     0.292 A 
BRANCH  20  21
ATOM     21  N   UNL A   1      30.685  25.370  26.229  1.00  0.00     0.064 N 
ATOM     22  O   UNL A   1      29.711  25.553  25.482  1.00  0.00    -0.258 OA
ATOM     23  O   UNL A   1      30.955  24.312  26.815  1.00  0.00    -0.258 OA
ENDBRANCH  20  21
ENDBRANCH   9  14
ENDBRANCH   7   8
ENDBRANCH   4   7
ENDBRANCH   2   3
ENDBRANCH   1   2
BRANCH   1  24
ATOM     24  C   UNL A   1      38.630  22.909  26.155  1.00  0.00     0.118 C 
BRANCH  24  25
ATOM     25  N   UNL A   1      40.077  23.025  26.384  1.00  0.00    -0.352 N 
ATOM     26  C   UNL A   1      40.820  24.138  26.741  1.00  0.00     0.251 C 
ATOM     27  H   UNL A   1      40.591  22.195  26.267  1.00  0.00     0.163 HD
ATOM     28  O   UNL A   1      42.005  24.091  27.004  1.00  0.00    -0.269 OA
BRANCH  26  29
ATOM     29  C   UNL A   1      40.069  25.396  26.913  1.00  0.00     0.039 A 
ATOM     30  C   UNL A   1      40.649  26.543  26.366  1.00  0.00     0.014 A 
ATOM     31  C   UNL A   1      39.099  25.466  27.908  1.00  0.00     0.014 A 
ATOM     32  C   UNL A   1      40.450  27.759  27.006  1.00  0.00     0.010 A 
ATOM     33  C   UNL A   1      38.963  26.660  28.590  1.00  0.00     0.010 A 
ATOM     34  C   UNL A   1      39.704  27.781  28.189  1.00  0.00    -0.014 A 
BRANCH  34  35
ATOM     35  C   UNL A   1      39.816  28.879  29.144  1.00  0.00     0.031 A 
ATOM     36  C   UNL A   1      38.770  29.912  29.224  1.00  0.00     0.074 A 
ATOM     37  C   UNL A   1      40.910  29.008  29.929  1.00  0.00     0.049 A 
ATOM     38  N   UNL A   1      39.014  31.159  29.454  1.00  0.00    -0.248 NA
ATOM     39  C   UNL A   1      37.358  29.623  29.007  1.00  0.00     0.031 C 
ATOM     40  C   UNL A   1      41.101  29.957  31.024  1.00  0.00     0.029 A 
ATOM     41  N   UNL A   1      42.173  28.461  29.725  1.00  0.00    -0.354 N 
ATOM     42  C   UNL A   1      37.810  31.771  29.693  1.00  0.00     0.074 A 
ATOM     43  C   UNL A   1      36.806  30.795  29.332  1.00  0.00     0.031 C 
ATOM     44  C   UNL A   1      42.415  30.125  31.229  1.00  0.00     0.029 A 
ATOM     45  C   UNL A   1      43.122  29.375  30.207  1.00  0.00     0.049 A 
ATOM     46  H   UNL A   1      42.366  27.587  29.314  1.00  0.00     0.167 HD
ATOM     47  C   UNL A   1      37.763  32.983  30.311  1.00  0.00     0.034 A 
ATOM     48  C   UNL A   1      44.117  29.858  29.411  1.00  0.00     0.034 A 
ATOM     49  C   UNL A   1      39.085  33.475  30.678  1.00  0.00     0.049 A 
ATOM     50  C   UNL A   1      44.082  31.360  29.243  1.00  0.00     0.074 A 
ATOM     51  C   UNL A   1      39.788  33.470  31.872  1.00  0.00     0.029 A 
ATOM     52  N   UNL A   1      39.998  33.823  29.689  1.00  0.00    -0.354 N 
ATOM     53  N   UNL A   1      43.073  32.115  29.584  1.00  0.00    -0.248 NA
ATOM     54  C   UNL A   1      45.171  32.127  28.648  1.00  0.00     0.031 C 
ATOM     55  C   UNL A   1      41.140  33.790  31.591  1.00  0.00     0.029 A 
ATOM     56  C   UNL A   1      41.257  34.012  30.230  1.00  0.00     0.049 A 
ATOM     57  H   UNL A   1      39.779  33.921  28.735  1.00  0.00     0.167 HD
ATOM     58  C   UNL A   1      43.325  33.417  29.223  1.00  0.00     0.074 A 
ATOM     59  C   UNL A   1      44.671  33.374  28.678  1.00  0.00     0.031 C 
ATOM     60  C   UNL A   1      42.385  34.400  29.389  1.00  0.00     0.034 A 
BRANCH  47  61
ATOM     61  C   UNL A   1      36.475  33.536  30.859  1.00  0.00     0.023 A 
ATOM     62  C   UNL A   1      35.569  34.191  30.003  1.00  0.00     0.031 A 
ATOM     63  C   UNL A   1      36.112  33.484  32.218  1.00  0.00     0.131 A 
ATOM     64  C   UNL A   1      34.433  34.846  30.510  1.00  0.00     0.055 A 
ATOM     65  C   UNL A   1      35.015  34.186  32.733  1.00  0.00     0.041 A 
ATOM     66  F   UNL A   1      36.807  32.739  33.093  1.00  0.00    -0.206 F 
ATOM     67  C   UNL A   1      34.177  34.887  31.878  1.00  0.00     0.022 A 
BRANCH  64  68
ATOM     68  S   UNL A   1      33.290  35.644  29.349  1.00  0.00     0.124 S 
ATOM     69  O   UNL A   1      32.528  34.512  28.833  1.00  0.00    -0.237 OA
ATOM     70  O   UNL A   1      32.566  36.568  30.216  1.00  0.00    -0.237 OA
ATOM     71  O   UNL A   1      34.181  36.280  28.380  1.00  0.00    -0.744 OA
ENDBRANCH  64  68
ENDBRANCH  47  61
BRANCH  48  72
ATOM     72  C   UNL A   1      44.582  28.879  28.388  1.00  0.00     0.023 A 
ATOM     73  C   UNL A   1      45.299  27.756  28.853  1.00  0.00     0.031 A 
ATOM     74  C   UNL A   1      44.018  28.817  27.108  1.00  0.00     0.131 A 
ATOM     75  C   UNL A   1      45.292  26.561  28.121  1.00  0.00     0.055 A 
ATOM     76  C   UNL A   1      44.067  27.640  26.352  1.00  0.00     0.041 A 
ATOM     77  F   UNL A   1      43.305  29.844  26.624  1.00  0.00    -0.206 F 
ATOM     78  C   UNL A   1      44.663  26.491  26.877  1.00  0.00     0.022 A 
BRANCH  75  79
ATOM     79  S   UNL A   1      45.895  25.029  28.894  1.00  0.00     0.124 S 
ATOM     80  O   UNL A   1      47.339  25.225  28.880  1.00  0.00    -0.237 OA
ATOM     81  O   UNL A   1      45.261  25.046  30.208  1.00  0.00    -0.237 OA
ATOM     82  O   UNL A   1      45.385  23.990  28.000  1.00  0.00    -0.744 OA
ENDBRANCH  75  79
ENDBRANCH  48  72
BRANCH  60  83
ATOM     83  C   UNL A   1      42.453  35.827  28.865  1.00  0.00     0.023 A 
ATOM     84  C   UNL A   1      43.127  36.870  29.513  1.00  0.00     0.031 A 
ATOM     85  C   UNL A   1      41.864  36.177  27.621  1.00  0.00     0.131 A 
ATOM     86  C   UNL A   1      43.139  38.180  28.992  1.00  0.00     0.055 A 
ATOM     87  C   UNL A   1      41.939  37.460  27.067  1.00  0.00     0.041 A 
ATOM     88  F   UNL A   1      41.197  35.286  26.873  1.00  0.00    -0.206 F 
ATOM     89  C   UNL A   1      42.567  38.479  27.761  1.00  0.00     0.022 A 
BRANCH  86  90
ATOM     90  S   UNL A   1      43.877  39.497  29.995  1.00  0.00     0.124 S 
ATOM     91  O   UNL A   1      42.972  40.615  29.736  1.00  0.00    -0.237 OA
ATOM     92  O   UNL A   1      43.818  38.935  31.342  1.00  0.00    -0.237 OA
ATOM     93  O   UNL A   1      45.221  39.645  29.441  1.00  0.00    -0.744 OA
ENDBRANCH  86  90
ENDBRANCH  60  83
ENDBRANCH  34  35
ENDBRANCH  26  29
ENDBRANCH  24  25
ENDBRANCH   1  24
TORSDOF 16
ENDMDL
MODEL 2
REMARK VINA RESULT:     -12.6      4.023     10.507
REMARK SMILES Cc1ccc([N+](=O)[O-])c(N2CCC[C@H](CC(=O)NCCCNC(=O)c3ccc(-c4c5nc(c(-c6cc(S(=O)(=O)[O-])ccc6F)c6ccc([nH]6)c(-c6cc(S(=O)(=O)[O-])ccc6F)c6nc(c(-c7cc(S(=O)(=O)[O-])ccc7F)c7ccc4[nH]7)C=C6)C=C5)cc3)C2)c1
REMARK SMILES IDX 20 1 19 2 18 3 16 4 17 5 15 7 14 8 10 9 11 10 88 11 12 12
REMARK SMILES IDX 13 13 9 14 1 15 2 16 3 17 89 18 4 19 5 20 6 21 7 22 8 23
REMARK SMILES IDX 21 24 22 25 23 26 24 28 25 29 26 30 87 31 27 32 86 33 28 34
REMARK SMILES IDX 29 35 30 36 80 37 31 38 85 39 79 40 81 41 32 42 84 43 78 44
REMARK SMILES IDX 77 45 33 47 65 48 45 49 64 50 46 51 49 52 63 53 82 54 47 55
REMARK SMILES IDX 48 56 62 58 83 59 50 60 34 61 35 62 43 63 36 64 42 65 44 66
REMARK SMILES IDX 41 67 37 68 38 69 39 70 40 71 66 72 67 73 75 74 68 75 74 76
REMARK SMILES IDX 76 77 73 78 69 79 70 80 71 81 72 82 51 83 52 84 60 85 53 86
REMARK SMILES IDX 59 87 61 88 58 89 54 90 55 91 56 92 57 93
REMARK H PARENT 18 6 22 27 81 46 49 57
REMARK Flexibility Score: inf
ROOT
ATOM      1  C   UNL A   1      33.356  31.598  27.320  1.00  0.00     0.042 C 
ENDROOT
BRANCH   1   2
ATOM      2  C   UNL A   1      32.259  30.834  26.581  1.00  0.00     0.117 C 
BRANCH   2   3
ATOM      3  N   UNL A   1      31.757  29.694  27.344  1.00  0.00    -0.356 N 
ATOM      4  C   UNL A   1      31.866  28.360  27.099  1.00  0.00     0.220 C 
ATOM      5  O   UNL A   1      31.354  27.560  27.884  1.00  0.00    -0.275 OA
ATOM      6  H   UNL A   1      31.265  29.928  28.164  1.00  0.00     0.163 HD
BRANCH   4   7
ATOM      7  C   UNL A   1      32.610  27.859  25.880  1.00  0.00     0.105 C 
BRANCH   7   8
ATOM      8  C   UNL A   1      31.680  27.138  24.880  1.00  0.00     0.018 C 
ATOM      9  N   UNL A   1      33.463  25.728  23.983  1.00  0.00    -0.366 N 
ATOM     10  C   UNL A   1      33.522  26.390  22.676  1.00  0.00     0.117 C 
ATOM     11  C   UNL A   1      32.164  25.702  24.662  1.00  0.00     0.120 C 
ATOM     12  C   UNL A   1      32.940  27.802  22.772  1.00  0.00     0.022 C 
ATOM     13  C   UNL A   1      31.594  27.814  23.503  1.00  0.00     0.008 C 
BRANCH   9  14
ATOM     14  C   UNL A   1      34.265  24.606  24.162  1.00  0.00     0.116 A 
ATOM     15  C   UNL A   1      37.378  23.668  26.170  1.00  0.00     0.044 C 
ATOM     16  C   UNL A   1      36.229  23.573  25.212  1.00  0.00    -0.049 A 
ATOM     17  C   UNL A   1      36.084  22.446  24.395  1.00  0.00     0.010 A 
ATOM     18  C   UNL A   1      35.320  24.636  25.089  1.00  0.00     0.036 A 
ATOM     19  C   UNL A   1      35.031  22.372  23.485  1.00  0.00     0.088 A 
ATOM     20  C   UNL A   1      34.132  23.444  23.386  1.00  0.00     0.292 A 
BRANCH  20  21
ATOM     21  N   UNL A   1      33.068  23.330  22.406  1.00  0.00     0.064 N 
ATOM     22  O   UNL A   1      33.380  23.531  21.221  1.00  0.00    -0.258 OA
ATOM     23  O   UNL A   1      31.961  22.943  22.803  1.00  0.00    -0.258 OA
ENDBRANCH  20  21
ENDBRANCH   9  14
ENDBRANCH   7   8
ENDBRANCH   4   7
ENDBRANCH   2   3
ENDBRANCH   1   2
BRANCH   1  24
ATOM     24  C   UNL A   1      34.334  30.703  28.070  1.00  0.00     0.118 C 
BRANCH  24  25
ATOM     25  N   UNL A   1      35.128  31.467  29.044  1.00  0.00    -0.352 N 
ATOM     26  C   UNL A   1      36.352  31.158  29.611  1.00  0.00     0.251 C 
ATOM     27  H   UNL A   1      34.732  32.320  29.334  1.00  0.00     0.163 HD
ATOM     28  O   UNL A   1      36.964  31.919  30.332  1.00  0.00    -0.269 OA
BRANCH  26  29
ATOM     29  C   UNL A   1      36.958  29.878  29.195  1.00  0.00     0.039 A 
ATOM     30  C   UNL A   1      37.293  28.989  30.220  1.00  0.00     0.014 A 
ATOM     31  C   UNL A   1      37.527  29.788  27.928  1.00  0.00     0.014 A 
ATOM     32  C   UNL A   1      38.402  28.170  30.054  1.00  0.00     0.010 A 
ATOM     33  C   UNL A   1      38.674  29.030  27.793  1.00  0.00     0.010 A 
ATOM     34  C   UNL A   1      39.156  28.290  28.882  1.00  0.00    -0.014 A 
BRANCH  34  35
ATOM     35  C   UNL A   1      40.537  27.825  28.811  1.00  0.00     0.031 A 
ATOM     36  C   UNL A   1      40.847  26.463  28.346  1.00  0.00     0.074 A 
ATOM     37  C   UNL A   1      41.557  28.609  29.231  1.00  0.00     0.049 A 
ATOM     38  N   UNL A   1      41.799  25.740  28.835  1.00  0.00    -0.248 NA
ATOM     39  C   UNL A   1      40.073  25.789  27.312  1.00  0.00     0.031 C 
ATOM     40  C   UNL A   1      42.987  28.345  29.088  1.00  0.00     0.029 A 
ATOM     41  N   UNL A   1      41.493  29.695  30.099  1.00  0.00    -0.354 N 
ATOM     42  C   UNL A   1      41.944  24.651  28.014  1.00  0.00     0.074 A 
ATOM     43  C   UNL A   1      40.803  24.686  27.126  1.00  0.00     0.031 C 
ATOM     44  C   UNL A   1      43.653  29.051  30.014  1.00  0.00     0.029 A 
ATOM     45  C   UNL A   1      42.674  29.712  30.856  1.00  0.00     0.049 A 
ATOM     46  H   UNL A   1      40.750  30.337  30.169  1.00  0.00     0.167 HD
ATOM     47  C   UNL A   1      43.081  23.904  28.054  1.00  0.00     0.034 A 
ATOM     48  C   UNL A   1      42.649  29.685  32.219  1.00  0.00     0.034 A 
ATOM     49  C   UNL A   1      44.055  24.420  29.008  1.00  0.00     0.049 A 
ATOM     50  C   UNL A   1      43.352  28.485  32.813  1.00  0.00     0.074 A 
ATOM     51  C   UNL A   1      45.190  25.202  28.857  1.00  0.00     0.029 A 
ATOM     52  N   UNL A   1      43.782  24.387  30.371  1.00  0.00    -0.354 N 
ATOM     53  N   UNL A   1      43.716  27.434  32.130  1.00  0.00    -0.248 NA
ATOM     54  C   UNL A   1      43.669  28.363  34.231  1.00  0.00     0.031 C 
ATOM     55  C   UNL A   1      45.580  25.666  30.139  1.00  0.00     0.029 A 
ATOM     56  C   UNL A   1      44.700  25.147  31.072  1.00  0.00     0.049 A 
ATOM     57  H   UNL A   1      43.037  23.891  30.780  1.00  0.00     0.167 HD
ATOM     58  C   UNL A   1      44.249  26.492  32.978  1.00  0.00     0.074 A 
ATOM     59  C   UNL A   1      44.233  27.144  34.277  1.00  0.00     0.031 C 
ATOM     60  C   UNL A   1      44.630  25.256  32.526  1.00  0.00     0.034 A 
BRANCH  47  61
ATOM     61  C   UNL A   1      43.404  22.904  26.976  1.00  0.00     0.023 A 
ATOM     62  C   UNL A   1      42.838  21.616  27.018  1.00  0.00     0.031 A 
ATOM     63  C   UNL A   1      44.292  23.154  25.913  1.00  0.00     0.131 A 
ATOM     64  C   UNL A   1      43.236  20.617  26.111  1.00  0.00     0.055 A 
ATOM     65  C   UNL A   1      44.734  22.147  25.047  1.00  0.00     0.041 A 
ATOM     66  F   UNL A   1      44.754  24.392  25.672  1.00  0.00    -0.206 F 
ATOM     67  C   UNL A   1      44.217  20.864  25.155  1.00  0.00     0.022 A 
BRANCH  64  68
ATOM     68  S   UNL A   1      42.445  18.987  26.200  1.00  0.00     0.124 S 
ATOM     69  O   UNL A   1      41.092  19.270  25.733  1.00  0.00    -0.237 OA
ATOM     70  O   UNL A   1      43.281  18.190  25.309  1.00  0.00    -0.237 OA
ATOM     71  O   UNL A   1      42.547  18.639  27.617  1.00  0.00    -0.744 OA
ENDBRANCH  64  68
ENDBRANCH  47  61
BRANCH  48  72
ATOM     72  C   UNL A   1      41.465  30.376  32.801  1.00  0.00     0.023 A 
ATOM     73  C   UNL A   1      41.472  31.788  32.784  1.00  0.00     0.031 A 
ATOM     74  C   UNL A   1      40.238  29.726  32.979  1.00  0.00     0.131 A 
ATOM     75  C   UNL A   1      40.266  32.501  32.773  1.00  0.00     0.055 A 
ATOM     76  C   UNL A   1      39.038  30.446  33.029  1.00  0.00     0.041 A 
ATOM     77  F   UNL A   1      40.166  28.388  32.977  1.00  0.00    -0.206 F 
ATOM     78  C   UNL A   1      39.044  31.835  32.877  1.00  0.00     0.022 A 
BRANCH  75  79
ATOM     79  S   UNL A   1      40.274  34.276  32.380  1.00  0.00     0.124 S 
ATOM     80  O   UNL A   1      41.241  34.347  31.292  1.00  0.00    -0.237 OA
ATOM     81  O   UNL A   1      38.885  34.544  32.017  1.00  0.00    -0.237 OA
ATOM     82  O   UNL A   1      40.689  34.888  33.641  1.00  0.00    -0.744 OA
ENDBRANCH  75  79
ENDBRANCH  48  72
BRANCH  60  83
ATOM     83  C   UNL A   1      45.049  24.063  33.372  1.00  0.00     0.023 A 
ATOM     84  C   UNL A   1      46.325  23.906  33.930  1.00  0.00     0.031 A 
ATOM     85  C   UNL A   1      44.122  23.038  33.700  1.00  0.00     0.131 A 
ATOM     86  C   UNL A   1      46.665  22.767  34.689  1.00  0.00     0.055 A 
ATOM     87  C   UNL A   1      44.439  21.945  34.514  1.00  0.00     0.041 A 
ATOM     88  F   UNL A   1      42.857  23.053  33.255  1.00  0.00    -0.206 F 
ATOM     89  C   UNL A   1      45.724  21.794  35.004  1.00  0.00     0.022 A 
BRANCH  86  90
ATOM     90  S   UNL A   1      48.390  22.566  35.208  1.00  0.00     0.124 S 
ATOM     91  O   UNL A   1      48.693  21.220  34.728  1.00  0.00    -0.237 OA
ATOM     92  O   UNL A   1      49.059  23.655  34.502  1.00  0.00    -0.237 OA
ATOM     93  O   UNL A   1      48.334  22.708  36.662  1.00  0.00    -0.744 OA
ENDBRANCH  86  90
ENDBRANCH  60  83
ENDBRANCH  34  35
ENDBRANCH  26  29
ENDBRANCH  24  25
ENDBRANCH   1  24
TORSDOF 16
ENDMDL
MODEL 3
REMARK VINA RESULT:     -12.3      3.753     10.081
REMARK SMILES Cc1ccc([N+](=O)[O-])c(N2CCC[C@H](CC(=O)NCCCNC(=O)c3ccc(-c4c5nc(c(-c6cc(S(=O)(=O)[O-])ccc6F)c6ccc([nH]6)c(-c6cc(S(=O)(=O)[O-])ccc6F)c6nc(c(-c7cc(S(=O)(=O)[O-])ccc7F)c7ccc4[nH]7)C=C6)C=C5)cc3)C2)c1
REMARK SMILES IDX 20 1 19 2 18 3 16 4 17 5 15 7 14 8 10 9 11 10 88 11 12 12
REMARK SMILES IDX 13 13 9 14 1 15 2 16 3 17 89 18 4 19 5 20 6 21 7 22 8 23
REMARK SMILES IDX 21 24 22 25 23 26 24 28 25 29 26 30 87 31 27 32 86 33 28 34
REMARK SMILES IDX 29 35 30 36 80 37 31 38 85 39 79 40 81 41 32 42 84 43 78 44
REMARK SMILES IDX 77 45 33 47 65 48 45 49 64 50 46 51 49 52 63 53 82 54 47 55
REMARK SMILES IDX 48 56 62 58 83 59 50 60 34 61 35 62 43 63 36 64 42 65 44 66
REMARK SMILES IDX 41 67 37 68 38 69 39 70 40 71 66 72 67 73 75 74 68 75 74 76
REMARK SMILES IDX 76 77 73 78 69 79 70 80 71 81 72 82 51 83 52 84 60 85 53 86
REMARK SMILES IDX 59 87 61 88 58 89 54 90 55 91 56 92 57 93
REMARK H PARENT 18 6 22 27 81 46 49 57
REMARK Flexibility Score: inf
ROOT
ATOM      1  C   UNL A   1      32.469  30.142  26.343  1.00  0.00     0.042 C 
ENDROOT
BRANCH   1   2
ATOM      2  C   UNL A   1      32.711  29.675  24.909  1.00  0.00     0.117 C 
BRANCH   2   3
ATOM      3  N   UNL A   1      31.469  29.446  24.176  1.00  0.00    -0.356 N 
ATOM      4  C   UNL A   1      30.921  28.285  23.725  1.00  0.00     0.220 C 
ATOM      5  O   UNL A   1      29.850  28.323  23.114  1.00  0.00    -0.275 OA
ATOM      6  H   UNL A   1      30.949  30.257  23.978  1.00  0.00     0.163 HD
BRANCH   4   7
ATOM      7  C   UNL A   1      31.608  26.961  23.972  1.00  0.00     0.105 C 
BRANCH   7   8
ATOM      8  C   UNL A   1      31.826  26.682  25.475  1.00  0.00     0.018 C 
ATOM      9  N   UNL A   1      33.106  24.638  25.082  1.00  0.00    -0.366 N 
ATOM     10  C   UNL A   1      32.070  23.726  25.578  1.00  0.00     0.117 C 
ATOM     11  C   UNL A   1      33.166  25.974  25.685  1.00  0.00     0.120 C 
ATOM     12  C   UNL A   1      30.699  24.403  25.521  1.00  0.00     0.022 C 
ATOM     13  C   UNL A   1      30.734  25.813  26.117  1.00  0.00     0.008 C 
BRANCH   9  14
ATOM     14  C   UNL A   1      34.327  24.076  24.725  1.00  0.00     0.116 A 
ATOM     15  C   UNL A   1      37.852  23.853  26.183  1.00  0.00     0.044 C 
ATOM     16  C   UNL A   1      36.698  23.705  25.237  1.00  0.00    -0.049 A 
ATOM     17  C   UNL A   1      36.900  23.171  23.960  1.00  0.00     0.010 A 
ATOM     18  C   UNL A   1      35.418  24.147  25.606  1.00  0.00     0.036 A 
ATOM     19  C   UNL A   1      35.832  23.060  23.071  1.00  0.00     0.088 A 
ATOM     20  C   UNL A   1      34.561  23.502  23.466  1.00  0.00     0.292 A 
BRANCH  20  21
ATOM     21  N   UNL A   1      33.488  23.389  22.496  1.00  0.00     0.064 N 
ATOM     22  O   UNL A   1      33.404  24.294  21.651  1.00  0.00    -0.258 OA
ATOM     23  O   UNL A   1      32.804  22.356  22.515  1.00  0.00    -0.258 OA
ENDBRANCH  20  21
ENDBRANCH   9  14
ENDBRANCH   7   8
ENDBRANCH   4   7
ENDBRANCH   2   3
ENDBRANCH   1   2
BRANCH   1  24
ATOM     24  C   UNL A   1      33.535  29.682  27.330  1.00  0.00     0.118 C 
BRANCH  24  25
ATOM     25  N   UNL A   1      33.967  30.779  28.208  1.00  0.00    -0.352 N 
ATOM     26  C   UNL A   1      35.188  30.971  28.833  1.00  0.00     0.251 C 
ATOM     27  H   UNL A   1      33.294  31.477  28.375  1.00  0.00     0.163 HD
ATOM     28  O   UNL A   1      35.466  31.975  29.457  1.00  0.00    -0.269 OA
BRANCH  26  29
ATOM     29  C   UNL A   1      36.209  29.932  28.602  1.00  0.00     0.039 A 
ATOM     30  C   UNL A   1      36.709  29.292  29.739  1.00  0.00     0.014 A 
ATOM     31  C   UNL A   1      36.897  29.927  27.393  1.00  0.00     0.014 A 
ATOM     32  C   UNL A   1      38.033  28.871  29.737  1.00  0.00     0.010 A 
ATOM     33  C   UNL A   1      38.234  29.580  27.417  1.00  0.00     0.010 A 
ATOM     34  C   UNL A   1      38.819  29.133  28.610  1.00  0.00    -0.014 A 
BRANCH  34  35
ATOM     35  C   UNL A   1      40.276  29.144  28.681  1.00  0.00     0.031 A 
ATOM     36  C   UNL A   1      41.064  28.057  28.075  1.00  0.00     0.074 A 
ATOM     37  C   UNL A   1      40.932  30.115  29.357  1.00  0.00     0.049 A 
ATOM     38  N   UNL A   1      42.151  27.590  28.592  1.00  0.00    -0.248 NA
ATOM     39  C   UNL A   1      40.660  27.379  26.850  1.00  0.00     0.031 C 
ATOM     40  C   UNL A   1      42.376  30.341  29.393  1.00  0.00     0.029 A 
ATOM     41  N   UNL A   1      40.429  30.946  30.353  1.00  0.00    -0.354 N 
ATOM     42  C   UNL A   1      42.728  26.771  27.654  1.00  0.00     0.074 A 
ATOM     43  C   UNL A   1      41.730  26.613  26.619  1.00  0.00     0.031 C 
ATOM     44  C   UNL A   1      42.678  31.035  30.501  1.00  0.00     0.029 A 
ATOM     45  C   UNL A   1      41.460  31.189  31.273  1.00  0.00     0.049 A 
ATOM     46  H   UNL A   1      39.512  31.300  30.404  1.00  0.00     0.167 HD
ATOM     47  C   UNL A   1      44.040  26.423  27.755  1.00  0.00     0.034 A 
ATOM     48  C   UNL A   1      41.317  30.905  32.599  1.00  0.00     0.034 A 
ATOM     49  C   UNL A   1      44.692  27.031  28.909  1.00  0.00     0.049 A 
ATOM     50  C   UNL A   1      42.319  29.895  33.112  1.00  0.00     0.074 A 
ATOM     51  C   UNL A   1      45.510  28.141  29.044  1.00  0.00     0.029 A 
ATOM     52  N   UNL A   1      44.317  26.663  30.196  1.00  0.00    -0.354 N 
ATOM     53  N   UNL A   1      43.075  29.156  32.347  1.00  0.00    -0.248 NA
ATOM     54  C   UNL A   1      42.523  29.617  34.529  1.00  0.00     0.031 C 
ATOM     55  C   UNL A   1      45.601  28.458  30.423  1.00  0.00     0.029 A 
ATOM     56  C   UNL A   1      44.859  27.527  31.130  1.00  0.00     0.049 A 
ATOM     57  H   UNL A   1      43.744  25.892  30.413  1.00  0.00     0.167 HD
ATOM     58  C   UNL A   1      43.808  28.287  33.120  1.00  0.00     0.074 A 
ATOM     59  C   UNL A   1      43.453  28.648  34.482  1.00  0.00     0.031 C 
ATOM     60  C   UNL A   1      44.619  27.337  32.556  1.00  0.00     0.034 A 
BRANCH  47  61
ATOM     61  C   UNL A   1      44.776  25.792  26.605  1.00  0.00     0.023 A 
ATOM     62  C   UNL A   1      44.584  24.429  26.308  1.00  0.00     0.031 A 
ATOM     63  C   UNL A   1      45.709  26.474  25.800  1.00  0.00     0.131 A 
ATOM     64  C   UNL A   1      45.367  23.779  25.338  1.00  0.00     0.055 A 
ATOM     65  C   UNL A   1      46.531  25.817  24.876  1.00  0.00     0.041 A 
ATOM     66  F   UNL A   1      45.845  27.808  25.876  1.00  0.00    -0.206 F 
ATOM     67  C   UNL A   1      46.373  24.456  24.653  1.00  0.00     0.022 A 
BRANCH  64  68
ATOM     68  S   UNL A   1      45.047  22.029  24.981  1.00  0.00     0.124 S 
ATOM     69  O   UNL A   1      44.050  21.682  25.989  1.00  0.00    -0.237 OA
ATOM     70  O   UNL A   1      44.577  22.078  23.600  1.00  0.00    -0.237 OA
ATOM     71  O   UNL A   1      46.355  21.401  25.165  1.00  0.00    -0.744 OA
ENDBRANCH  64  68
ENDBRANCH  47  61
BRANCH  48  72
ATOM     72  C   UNL A   1      39.921  31.072  33.090  1.00  0.00     0.023 A 
ATOM     73  C   UNL A   1      39.426  32.390  33.183  1.00  0.00     0.031 A 
ATOM     74  C   UNL A   1      38.995  30.021  33.073  1.00  0.00     0.131 A 
ATOM     75  C   UNL A   1      38.050  32.637  33.086  1.00  0.00     0.055 A 
ATOM     76  C   UNL A   1      37.618  30.269  33.039  1.00  0.00     0.041 A 
ATOM     77  F   UNL A   1      39.406  28.749  32.961  1.00  0.00    -0.206 F 
ATOM     78  C   UNL A   1      37.141  31.581  32.996  1.00  0.00     0.022 A 
BRANCH  75  79
ATOM     79  S   UNL A   1      37.456  34.337  32.834  1.00  0.00     0.124 S 
ATOM     80  O   UNL A   1      38.148  34.727  31.612  1.00  0.00    -0.237 OA
ATOM     81  O   UNL A   1      36.010  34.173  32.724  1.00  0.00    -0.237 OA
ATOM     82  O   UNL A   1      37.888  35.018  34.055  1.00  0.00    -0.744 OA
ENDBRANCH  75  79
ENDBRANCH  48  72
BRANCH  60  83
ATOM     83  C   UNL A   1      45.329  26.200  33.275  1.00  0.00     0.023 A 
ATOM     84  C   UNL A   1      44.673  25.101  33.847  1.00  0.00     0.031 A 
ATOM     85  C   UNL A   1      46.746  26.160  33.360  1.00  0.00     0.131 A 
ATOM     86  C   UNL A   1      45.381  24.086  34.522  1.00  0.00     0.055 A 
ATOM     87  C   UNL A   1      47.454  25.115  33.965  1.00  0.00     0.041 A 
ATOM     88  F   UNL A   1      47.517  27.130  32.847  1.00  0.00    -0.206 F 
ATOM     89  C   UNL A   1      46.770  24.073  34.567  1.00  0.00     0.022 A 
BRANCH  86  90
ATOM     90  S   UNL A   1      44.432  22.808  35.388  1.00  0.00     0.124 S 
ATOM     91  O   UNL A   1      45.050  22.820  36.712  1.00  0.00    -0.237 OA
ATOM     92  O   UNL A   1      43.070  23.330  35.321  1.00  0.00    -0.237 OA
ATOM     93  O   UNL A   1      44.675  21.601  34.601  1.00  0.00    -0.744 OA
ENDBRANCH  86  90
ENDBRANCH  60  83
ENDBRANCH  34  35
ENDBRANCH  26  29
ENDBRANCH  24  25
ENDBRANCH   1  24
TORSDOF 16
ENDMDL
