MODEL 1
REMARK VINA RESULT:     -10.5      0.000      0.000
REMARK SMILES CC(C)COc1ccc(CC(=O)NCCCNC(=O)c2ccc(-c3c4nc(c(-c5cc(S(=O)(=O)[O-])ccc5F)c5ccc([nH]5)c(-c5cc(S(=O)(=O)[O-])ccc5F)c5nc(c(-c6cc(S(=O)(=O)[O-])ccc6F)c6ccc3[nH]6)C=C5)C=C4)cc2)cc1
REMARK SMILES IDX 14 1 13 2 11 3 12 4 10 6 9 7 6 8 7 9 84 10 8 11 83 12 5 13
REMARK SMILES IDX 4 14 2 15 1 16 3 17 15 18 16 19 17 20 18 21 19 23 20 24
REMARK SMILES IDX 21 25 82 26 22 27 81 28 23 29 24 30 25 31 75 32 26 33 80 34
REMARK SMILES IDX 74 35 76 36 27 37 79 38 73 39 72 40 28 42 60 43 40 44 59 45
REMARK SMILES IDX 41 46 44 47 58 48 77 49 42 50 43 51 57 53 78 54 45 55 29 56
REMARK SMILES IDX 30 57 38 58 31 59 37 60 39 61 36 62 32 63 33 64 34 65 35 66
REMARK SMILES IDX 61 67 62 68 70 69 63 70 69 71 71 72 68 73 64 74 65 75 66 76
REMARK SMILES IDX 67 77 46 78 47 79 55 80 48 81 54 82 56 83 53 84 49 85 50 86
REMARK SMILES IDX 51 87 52 88
REMARK H PARENT 13 5 17 22 76 41 44 52
REMARK Flexibility Score: inf
ROOT
ATOM      1  C   UNL A   1      31.530  29.658  25.157  1.00  0.00     0.117 C 
ENDROOT
BRANCH   1   2
ATOM      2  N   UNL A   1      30.890  29.709  23.857  1.00  0.00    -0.356 N 
ATOM      3  C   UNL A   1      30.377  28.695  23.099  1.00  0.00     0.224 C 
ATOM      4  O   UNL A   1      29.910  28.978  21.993  1.00  0.00    -0.275 OA
ATOM      5  H   UNL A   1      30.813  30.607  23.463  1.00  0.00     0.163 HD
BRANCH   3   6
ATOM      6  C   UNL A   1      30.313  27.276  23.635  1.00  0.00     0.135 C 
BRANCH   6   7
ATOM      7  C   UNL A   1      31.494  26.407  23.285  1.00  0.00    -0.038 A 
ATOM      8  C   UNL A   1      33.671  24.749  22.722  1.00  0.00     0.119 A 
ATOM      9  C   UNL A   1      32.795  25.100  21.700  1.00  0.00     0.047 A 
ATOM     10  C   UNL A   1      33.541  25.316  23.978  1.00  0.00     0.047 A 
ATOM     11  C   UNL A   1      31.717  25.952  21.977  1.00  0.00     0.008 A 
ATOM     12  C   UNL A   1      32.406  26.051  24.283  1.00  0.00     0.008 A 
BRANCH   8  13
ATOM     13  O   UNL A   1      34.673  23.846  22.514  1.00  0.00    -0.493 OA
BRANCH  13  14
ATOM     14  C   UNL A   1      34.762  22.894  23.598  1.00  0.00     0.232 C 
BRANCH  14  15
ATOM     15  C   UNL A   1      36.215  22.590  24.045  1.00  0.00     0.020 C 
ATOM     16  C   UNL A   1      36.788  23.674  24.974  1.00  0.00     0.011 C 
ATOM     17  C   UNL A   1      36.287  21.265  24.807  1.00  0.00     0.011 C 
ENDBRANCH  14  15
ENDBRANCH  13  14
ENDBRANCH   8  13
ENDBRANCH   6   7
ENDBRANCH   3   6
ENDBRANCH   1   2
BRANCH   1  18
ATOM     18  C   UNL A   1      33.039  29.446  25.048  1.00  0.00     0.042 C 
BRANCH  18  19
ATOM     19  C   UNL A   1      33.773  29.548  26.376  1.00  0.00     0.118 C 
BRANCH  19  20
ATOM     20  N   UNL A   1      33.691  30.885  26.945  1.00  0.00    -0.352 N 
ATOM     21  C   UNL A   1      34.436  31.465  27.935  1.00  0.00     0.251 C 
ATOM     22  H   UNL A   1      32.992  31.459  26.557  1.00  0.00     0.163 HD
ATOM     23  O   UNL A   1      34.050  32.535  28.416  1.00  0.00    -0.269 OA
BRANCH  21  24
ATOM     24  C   UNL A   1      35.671  30.827  28.439  1.00  0.00     0.039 A 
ATOM     25  C   UNL A   1      36.905  31.274  27.955  1.00  0.00     0.014 A 
ATOM     26  C   UNL A   1      35.628  29.766  29.348  1.00  0.00     0.014 A 
ATOM     27  C   UNL A   1      38.087  30.688  28.411  1.00  0.00     0.010 A 
ATOM     28  C   UNL A   1      36.809  29.240  29.864  1.00  0.00     0.010 A 
ATOM     29  C   UNL A   1      38.052  29.684  29.391  1.00  0.00    -0.014 A 
BRANCH  29  30
ATOM     30  C   UNL A   1      39.302  29.066  29.908  1.00  0.00     0.031 A 
ATOM     31  C   UNL A   1      39.980  29.645  31.121  1.00  0.00     0.074 A 
ATOM     32  C   UNL A   1      39.850  28.021  29.257  1.00  0.00     0.049 A 
ATOM     33  N   UNL A   1      41.115  29.304  31.677  1.00  0.00    -0.248 NA
ATOM     34  C   UNL A   1      39.306  30.775  31.778  1.00  0.00     0.031 C 
ATOM     35  C   UNL A   1      39.300  27.393  28.052  1.00  0.00     0.029 A 
ATOM     36  N   UNL A   1      40.994  27.306  29.508  1.00  0.00    -0.354 N 
ATOM     37  C   UNL A   1      41.297  30.187  32.738  1.00  0.00     0.074 A 
ATOM     38  C   UNL A   1      40.187  31.114  32.707  1.00  0.00     0.031 C 
ATOM     39  C   UNL A   1      40.094  26.374  27.686  1.00  0.00     0.029 A 
ATOM     40  C   UNL A   1      41.235  26.306  28.593  1.00  0.00     0.049 A 
ATOM     41  H   UNL A   1      41.588  27.491  30.271  1.00  0.00     0.167 HD
ATOM     42  C   UNL A   1      42.287  30.206  33.664  1.00  0.00     0.034 A 
ATOM     43  C   UNL A   1      42.266  25.444  28.488  1.00  0.00     0.034 A 
ATOM     44  C   UNL A   1      43.380  29.265  33.687  1.00  0.00     0.049 A 
ATOM     45  C   UNL A   1      43.372  25.507  29.513  1.00  0.00     0.074 A 
ATOM     46  C   UNL A   1      44.411  29.162  34.606  1.00  0.00     0.029 A 
ATOM     47  N   UNL A   1      43.592  28.266  32.743  1.00  0.00    -0.354 N 
ATOM     48  N   UNL A   1      43.507  26.319  30.536  1.00  0.00    -0.248 NA
ATOM     49  C   UNL A   1      44.458  24.528  29.375  1.00  0.00     0.031 C 
ATOM     50  C   UNL A   1      45.281  28.154  34.179  1.00  0.00     0.029 A 
ATOM     51  C   UNL A   1      44.750  27.566  33.042  1.00  0.00     0.049 A 
ATOM     52  H   UNL A   1      43.004  28.083  31.975  1.00  0.00     0.167 HD
ATOM     53  C   UNL A   1      44.673  25.922  31.184  1.00  0.00     0.074 A 
ATOM     54  C   UNL A   1      45.194  24.790  30.444  1.00  0.00     0.031 C 
ATOM     55  C   UNL A   1      45.260  26.440  32.293  1.00  0.00     0.034 A 
BRANCH  42  56
ATOM     56  C   UNL A   1      42.244  31.296  34.711  1.00  0.00     0.023 A 
ATOM     57  C   UNL A   1      42.838  32.551  34.498  1.00  0.00     0.031 A 
ATOM     58  C   UNL A   1      41.613  31.071  35.947  1.00  0.00     0.131 A 
ATOM     59  C   UNL A   1      42.853  33.505  35.527  1.00  0.00     0.055 A 
ATOM     60  C   UNL A   1      41.557  32.053  36.937  1.00  0.00     0.041 A 
ATOM     61  F   UNL A   1      41.046  29.883  36.219  1.00  0.00    -0.206 F 
ATOM     62  C   UNL A   1      42.193  33.275  36.737  1.00  0.00     0.022 A 
BRANCH  59  63
ATOM     63  S   UNL A   1      43.869  34.992  35.317  1.00  0.00     0.124 S 
ATOM     64  O   UNL A   1      44.084  35.402  36.703  1.00  0.00    -0.237 OA
ATOM     65  O   UNL A   1      45.039  34.479  34.614  1.00  0.00    -0.237 OA
ATOM     66  O   UNL A   1      43.014  35.886  34.537  1.00  0.00    -0.744 OA
ENDBRANCH  59  63
ENDBRANCH  42  56
BRANCH  43  67
ATOM     67  C   UNL A   1      42.319  24.457  27.370  1.00  0.00     0.023 A 
ATOM     68  C   UNL A   1      41.598  23.254  27.431  1.00  0.00     0.031 A 
ATOM     69  C   UNL A   1      43.137  24.677  26.247  1.00  0.00     0.131 A 
ATOM     70  C   UNL A   1      41.752  22.293  26.420  1.00  0.00     0.055 A 
ATOM     71  C   UNL A   1      43.238  23.745  25.213  1.00  0.00     0.041 A 
ATOM     72  F   UNL A   1      43.847  25.811  26.134  1.00  0.00    -0.206 F 
ATOM     73  C   UNL A   1      42.555  22.536  25.304  1.00  0.00     0.022 A 
BRANCH  70  74
ATOM     74  S   UNL A   1      40.965  20.673  26.636  1.00  0.00     0.124 S 
ATOM     75  O   UNL A   1      39.694  20.867  25.945  1.00  0.00    -0.237 OA
ATOM     76  O   UNL A   1      41.919  19.783  25.985  1.00  0.00    -0.237 OA
ATOM     77  O   UNL A   1      40.871  20.531  28.087  1.00  0.00    -0.744 OA
ENDBRANCH  70  74
ENDBRANCH  43  67
BRANCH  55  78
ATOM     78  C   UNL A   1      46.500  25.746  32.806  1.00  0.00     0.023 A 
ATOM     79  C   UNL A   1      47.772  25.995  32.261  1.00  0.00     0.031 A 
ATOM     80  C   UNL A   1      46.401  24.813  33.854  1.00  0.00     0.131 A 
ATOM     81  C   UNL A   1      48.883  25.275  32.725  1.00  0.00     0.055 A 
ATOM     82  C   UNL A   1      47.520  24.150  34.357  1.00  0.00     0.041 A 
ATOM     83  F   UNL A   1      45.210  24.534  34.411  1.00  0.00    -0.206 F 
ATOM     84  C   UNL A   1      48.768  24.369  33.783  1.00  0.00     0.022 A 
BRANCH  81  85
ATOM     85  S   UNL A   1      50.467  25.465  31.862  1.00  0.00     0.124 S 
ATOM     86  O   UNL A   1      50.768  24.091  31.474  1.00  0.00    -0.237 OA
ATOM     87  O   UNL A   1      50.123  26.374  30.775  1.00  0.00    -0.237 OA
ATOM     88  O   UNL A   1      51.349  26.027  32.884  1.00  0.00    -0.744 OA
ENDBRANCH  81  85
ENDBRANCH  55  78
ENDBRANCH  29  30
ENDBRANCH  21  24
ENDBRANCH  19  20
ENDBRANCH  18  19
ENDBRANCH   1  18
TORSDOF 17
ENDMDL
MODEL 2
REMARK VINA RESULT:     -10.5      1.892      2.177
REMARK SMILES CC(C)COc1ccc(CC(=O)NCCCNC(=O)c2ccc(-c3c4nc(c(-c5cc(S(=O)(=O)[O-])ccc5F)c5ccc([nH]5)c(-c5cc(S(=O)(=O)[O-])ccc5F)c5nc(c(-c6cc(S(=O)(=O)[O-])ccc6F)c6ccc3[nH]6)C=C5)C=C4)cc2)cc1
REMARK SMILES IDX 14 1 13 2 11 3 12 4 10 6 9 7 6 8 7 9 84 10 8 11 83 12 5 13
REMARK SMILES IDX 4 14 2 15 1 16 3 17 15 18 16 19 17 20 18 21 19 23 20 24
REMARK SMILES IDX 21 25 82 26 22 27 81 28 23 29 24 30 25 31 75 32 26 33 80 34
REMARK SMILES IDX 74 35 76 36 27 37 79 38 73 39 72 40 28 42 60 43 40 44 59 45
REMARK SMILES IDX 41 46 44 47 58 48 77 49 42 50 43 51 57 53 78 54 45 55 29 56
REMARK SMILES IDX 30 57 38 58 31 59 37 60 39 61 36 62 32 63 33 64 34 65 35 66
REMARK SMILES IDX 61 67 62 68 70 69 63 70 69 71 71 72 68 73 64 74 65 75 66 76
REMARK SMILES IDX 67 77 46 78 47 79 55 80 48 81 54 82 56 83 53 84 49 85 50 86
REMARK SMILES IDX 51 87 52 88
REMARK H PARENT 13 5 17 22 76 41 44 52
REMARK Flexibility Score: inf
ROOT
ATOM      1  C   UNL A   1      31.404  29.689  25.101  1.00  0.00     0.117 C 
ENDROOT
BRANCH   1   2
ATOM      2  N   UNL A   1      30.816  29.824  23.783  1.00  0.00    -0.356 N 
ATOM      3  C   UNL A   1      30.298  28.866  22.957  1.00  0.00     0.224 C 
ATOM      4  O   UNL A   1      29.883  29.217  21.850  1.00  0.00    -0.275 OA
ATOM      5  H   UNL A   1      30.784  30.742  23.430  1.00  0.00     0.163 HD
BRANCH   3   6
ATOM      6  C   UNL A   1      30.166  27.426  23.421  1.00  0.00     0.135 C 
BRANCH   6   7
ATOM      7  C   UNL A   1      31.394  26.575  23.220  1.00  0.00    -0.038 A 
ATOM      8  C   UNL A   1      33.638  24.938  22.919  1.00  0.00     0.119 A 
ATOM      9  C   UNL A   1      33.047  25.505  21.794  1.00  0.00     0.047 A 
ATOM     10  C   UNL A   1      33.199  25.282  24.186  1.00  0.00     0.047 A 
ATOM     11  C   UNL A   1      31.937  26.346  21.947  1.00  0.00     0.008 A 
ATOM     12  C   UNL A   1      32.026  26.007  24.331  1.00  0.00     0.008 A 
BRANCH   8  13
ATOM     13  O   UNL A   1      34.657  24.038  22.804  1.00  0.00    -0.493 OA
BRANCH  13  14
ATOM     14  C   UNL A   1      34.483  22.921  23.704  1.00  0.00     0.232 C 
BRANCH  14  15
ATOM     15  C   UNL A   1      35.762  22.556  24.502  1.00  0.00     0.020 C 
ATOM     16  C   UNL A   1      36.977  22.310  23.593  1.00  0.00     0.011 C 
ATOM     17  C   UNL A   1      36.145  23.681  25.465  1.00  0.00     0.011 C 
ENDBRANCH  14  15
ENDBRANCH  13  14
ENDBRANCH   8  13
ENDBRANCH   6   7
ENDBRANCH   3   6
ENDBRANCH   1   2
BRANCH   1  18
ATOM     18  C   UNL A   1      32.908  29.427  25.036  1.00  0.00     0.042 C 
BRANCH  18  19
ATOM     19  C   UNL A   1      33.618  29.578  26.372  1.00  0.00     0.118 C 
BRANCH  19  20
ATOM     20  N   UNL A   1      33.562  30.944  26.870  1.00  0.00    -0.352 N 
ATOM     21  C   UNL A   1      34.332  31.567  27.814  1.00  0.00     0.251 C 
ATOM     22  H   UNL A   1      32.862  31.506  26.465  1.00  0.00     0.163 HD
ATOM     23  O   UNL A   1      33.967  32.666  28.244  1.00  0.00    -0.269 OA
BRANCH  21  24
ATOM     24  C   UNL A   1      35.569  30.943  28.328  1.00  0.00     0.039 A 
ATOM     25  C   UNL A   1      36.803  31.443  27.900  1.00  0.00     0.014 A 
ATOM     26  C   UNL A   1      35.530  29.843  29.190  1.00  0.00     0.014 A 
ATOM     27  C   UNL A   1      37.988  30.870  28.367  1.00  0.00     0.010 A 
ATOM     28  C   UNL A   1      36.710  29.328  29.720  1.00  0.00     0.010 A 
ATOM     29  C   UNL A   1      37.953  29.825  29.303  1.00  0.00    -0.014 A 
BRANCH  29  30
ATOM     30  C   UNL A   1      39.204  29.220  29.831  1.00  0.00     0.031 A 
ATOM     31  C   UNL A   1      39.885  29.826  31.030  1.00  0.00     0.074 A 
ATOM     32  C   UNL A   1      39.752  28.161  29.203  1.00  0.00     0.049 A 
ATOM     33  N   UNL A   1      41.020  29.499  31.591  1.00  0.00    -0.248 NA
ATOM     34  C   UNL A   1      39.211  30.970  31.662  1.00  0.00     0.031 C 
ATOM     35  C   UNL A   1      39.200  27.505  28.014  1.00  0.00     0.029 A 
ATOM     36  N   UNL A   1      40.897  27.452  29.468  1.00  0.00    -0.354 N 
ATOM     37  C   UNL A   1      41.204  30.406  32.631  1.00  0.00     0.074 A 
ATOM     38  C   UNL A   1      40.093  31.331  32.581  1.00  0.00     0.031 C 
ATOM     39  C   UNL A   1      39.994  26.478  27.670  1.00  0.00     0.029 A 
ATOM     40  C   UNL A   1      41.137  26.432  28.576  1.00  0.00     0.049 A 
ATOM     41  H   UNL A   1      41.492  27.655  30.226  1.00  0.00     0.167 HD
ATOM     42  C   UNL A   1      42.196  30.447  33.555  1.00  0.00     0.034 A 
ATOM     43  C   UNL A   1      42.168  25.568  28.489  1.00  0.00     0.034 A 
ATOM     44  C   UNL A   1      43.290  29.507  33.597  1.00  0.00     0.049 A 
ATOM     45  C   UNL A   1      43.276  25.655  29.509  1.00  0.00     0.074 A 
ATOM     46  C   UNL A   1      44.322  29.426  34.516  1.00  0.00     0.029 A 
ATOM     47  N   UNL A   1      43.500  28.487  32.676  1.00  0.00    -0.354 N 
ATOM     48  N   UNL A   1      43.412  26.490  30.514  1.00  0.00    -0.248 NA
ATOM     49  C   UNL A   1      44.363  24.674  29.392  1.00  0.00     0.031 C 
ATOM     50  C   UNL A   1      45.192  28.409  34.111  1.00  0.00     0.029 A 
ATOM     51  C   UNL A   1      44.660  27.795  32.989  1.00  0.00     0.049 A 
ATOM     52  H   UNL A   1      42.911  28.286  31.913  1.00  0.00     0.167 HD
ATOM     53  C   UNL A   1      44.580  26.109  31.169  1.00  0.00     0.074 A 
ATOM     54  C   UNL A   1      45.101  24.961  30.453  1.00  0.00     0.031 C 
ATOM     55  C   UNL A   1      45.168  26.653  32.264  1.00  0.00     0.034 A 
BRANCH  42  56
ATOM     56  C   UNL A   1      42.154  31.560  34.576  1.00  0.00     0.023 A 
ATOM     57  C   UNL A   1      41.255  31.541  35.656  1.00  0.00     0.031 A 
ATOM     58  C   UNL A   1      43.015  32.666  34.460  1.00  0.00     0.131 A 
ATOM     59  C   UNL A   1      41.186  32.635  36.532  1.00  0.00     0.055 A 
ATOM     60  C   UNL A   1      43.000  33.713  35.384  1.00  0.00     0.041 A 
ATOM     61  F   UNL A   1      43.881  32.754  33.437  1.00  0.00    -0.206 F 
ATOM     62  C   UNL A   1      42.071  33.710  36.419  1.00  0.00     0.022 A 
BRANCH  59  63
ATOM     63  S   UNL A   1      39.828  32.700  37.733  1.00  0.00     0.124 S 
ATOM     64  O   UNL A   1      39.392  34.089  37.611  1.00  0.00    -0.237 OA
ATOM     65  O   UNL A   1      38.905  31.694  37.221  1.00  0.00    -0.237 OA
ATOM     66  O   UNL A   1      40.474  32.367  39.001  1.00  0.00    -0.744 OA
ENDBRANCH  59  63
ENDBRANCH  42  56
BRANCH  43  67
ATOM     67  C   UNL A   1      42.220  24.556  27.393  1.00  0.00     0.023 A 
ATOM     68  C   UNL A   1      41.469  23.372  27.465  1.00  0.00     0.031 A 
ATOM     69  C   UNL A   1      43.065  24.732  26.283  1.00  0.00     0.131 A 
ATOM     70  C   UNL A   1      41.619  22.386  26.478  1.00  0.00     0.055 A 
ATOM     71  C   UNL A   1      43.164  23.775  25.272  1.00  0.00     0.041 A 
ATOM     72  F   UNL A   1      43.805  25.846  26.161  1.00  0.00    -0.206 F 
ATOM     73  C   UNL A   1      42.450  22.585  25.374  1.00  0.00     0.022 A 
BRANCH  70  74
ATOM     74  S   UNL A   1      40.788  20.790  26.712  1.00  0.00     0.124 S 
ATOM     75  O   UNL A   1      39.486  21.043  26.104  1.00  0.00    -0.237 OA
ATOM     76  O   UNL A   1      41.669  19.881  25.987  1.00  0.00    -0.237 OA
ATOM     77  O   UNL A   1      40.778  20.621  28.163  1.00  0.00    -0.744 OA
ENDBRANCH  70  74
ENDBRANCH  43  67
BRANCH  55  78
ATOM     78  C   UNL A   1      46.410  25.971  32.790  1.00  0.00     0.023 A 
ATOM     79  C   UNL A   1      46.346  24.922  33.724  1.00  0.00     0.031 A 
ATOM     80  C   UNL A   1      47.680  26.388  32.351  1.00  0.00     0.131 A 
ATOM     81  C   UNL A   1      47.530  24.367  34.233  1.00  0.00     0.055 A 
ATOM     82  C   UNL A   1      48.851  25.787  32.811  1.00  0.00     0.041 A 
ATOM     83  F   UNL A   1      47.802  27.388  31.462  1.00  0.00    -0.206 F 
ATOM     84  C   UNL A   1      48.781  24.780  33.768  1.00  0.00     0.022 A 
BRANCH  81  85
ATOM     85  S   UNL A   1      47.416  23.166  35.587  1.00  0.00     0.124 S 
ATOM     86  O   UNL A   1      48.730  22.533  35.542  1.00  0.00    -0.237 OA
ATOM     87  O   UNL A   1      47.158  24.019  36.741  1.00  0.00    -0.237 OA
ATOM     88  O   UNL A   1      46.302  22.306  35.190  1.00  0.00    -0.744 OA
ENDBRANCH  81  85
ENDBRANCH  55  78
ENDBRANCH  29  30
ENDBRANCH  21  24
ENDBRANCH  19  20
ENDBRANCH  18  19
ENDBRANCH   1  18
TORSDOF 17
ENDMDL
MODEL 3
REMARK VINA RESULT:     -10.4      2.711      8.948
REMARK SMILES CC(C)COc1ccc(CC(=O)NCCCNC(=O)c2ccc(-c3c4nc(c(-c5cc(S(=O)(=O)[O-])ccc5F)c5ccc([nH]5)c(-c5cc(S(=O)(=O)[O-])ccc5F)c5nc(c(-c6cc(S(=O)(=O)[O-])ccc6F)c6ccc3[nH]6)C=C5)C=C4)cc2)cc1
REMARK SMILES IDX 14 1 13 2 11 3 12 4 10 6 9 7 6 8 7 9 84 10 8 11 83 12 5 13
REMARK SMILES IDX 4 14 2 15 1 16 3 17 15 18 16 19 17 20 18 21 19 23 20 24
REMARK SMILES IDX 21 25 82 26 22 27 81 28 23 29 24 30 25 31 75 32 26 33 80 34
REMARK SMILES IDX 74 35 76 36 27 37 79 38 73 39 72 40 28 42 60 43 40 44 59 45
REMARK SMILES IDX 41 46 44 47 58 48 77 49 42 50 43 51 57 53 78 54 45 55 29 56
REMARK SMILES IDX 30 57 38 58 31 59 37 60 39 61 36 62 32 63 33 64 34 65 35 66
REMARK SMILES IDX 61 67 62 68 70 69 63 70 69 71 71 72 68 73 64 74 65 75 66 76
REMARK SMILES IDX 67 77 46 78 47 79 55 80 48 81 54 82 56 83 53 84 49 85 50 86
REMARK SMILES IDX 51 87 52 88
REMARK H PARENT 13 5 17 22 76 41 44 52
REMARK Flexibility Score: inf
ROOT
ATOM      1  C   UNL A   1      32.553  26.627  26.185  1.00  0.00     0.117 C 
ENDROOT
BRANCH   1   2
ATOM      2  N   UNL A   1      33.283  26.402  24.953  1.00  0.00    -0.356 N 
ATOM      3  C   UNL A   1      32.898  25.744  23.819  1.00  0.00     0.224 C 
ATOM      4  O   UNL A   1      33.714  25.644  22.901  1.00  0.00    -0.275 OA
ATOM      5  H   UNL A   1      34.191  26.781  24.928  1.00  0.00     0.163 HD
BRANCH   3   6
ATOM      6  C   UNL A   1      31.482  25.218  23.667  1.00  0.00     0.135 C 
BRANCH   6   7
ATOM      7  C   UNL A   1      30.429  26.274  23.441  1.00  0.00    -0.038 A 
ATOM      8  C   UNL A   1      28.449  28.220  23.118  1.00  0.00     0.119 A 
ATOM      9  C   UNL A   1      29.689  28.395  22.510  1.00  0.00     0.047 A 
ATOM     10  C   UNL A   1      28.154  27.035  23.770  1.00  0.00     0.047 A 
ATOM     11  C   UNL A   1      30.673  27.408  22.651  1.00  0.00     0.008 A 
ATOM     12  C   UNL A   1      29.166  26.121  24.020  1.00  0.00     0.008 A 
BRANCH   8  13
ATOM     13  O   UNL A   1      27.502  29.200  23.084  1.00  0.00    -0.493 OA
BRANCH  13  14
ATOM     14  C   UNL A   1      27.908  30.303  22.243  1.00  0.00     0.232 C 
BRANCH  14  15
ATOM     15  C   UNL A   1      28.029  31.653  22.998  1.00  0.00     0.020 C 
ATOM     16  C   UNL A   1      29.133  31.637  24.068  1.00  0.00     0.011 C 
ATOM     17  C   UNL A   1      28.360  32.791  22.031  1.00  0.00     0.011 C 
ENDBRANCH  14  15
ENDBRANCH  13  14
ENDBRANCH   8  13
ENDBRANCH   6   7
ENDBRANCH   3   6
ENDBRANCH   1   2
BRANCH   1  18
ATOM     18  C   UNL A   1      31.962  28.034  26.256  1.00  0.00     0.042 C 
BRANCH  18  19
ATOM     19  C   UNL A   1      32.823  29.097  25.591  1.00  0.00     0.118 C 
BRANCH  19  20
ATOM     20  N   UNL A   1      32.397  30.443  25.942  1.00  0.00    -0.352 N 
ATOM     21  C   UNL A   1      32.872  31.292  26.905  1.00  0.00     0.251 C 
ATOM     22  H   UNL A   1      31.653  30.798  25.403  1.00  0.00     0.163 HD
ATOM     23  O   UNL A   1      32.216  32.303  27.178  1.00  0.00    -0.269 OA
BRANCH  21  24
ATOM     24  C   UNL A   1      34.134  31.009  27.621  1.00  0.00     0.039 A 
ATOM     25  C   UNL A   1      35.059  32.045  27.789  1.00  0.00     0.014 A 
ATOM     26  C   UNL A   1      34.438  29.727  28.088  1.00  0.00     0.014 A 
ATOM     27  C   UNL A   1      36.260  31.805  28.459  1.00  0.00     0.010 A 
ATOM     28  C   UNL A   1      35.598  29.510  28.829  1.00  0.00     0.010 A 
ATOM     29  C   UNL A   1      36.529  30.542  29.010  1.00  0.00    -0.014 A 
BRANCH  29  30
ATOM     30  C   UNL A   1      37.791  30.275  29.748  1.00  0.00     0.031 A 
ATOM     31  C   UNL A   1      38.819  29.341  29.166  1.00  0.00     0.074 A 
ATOM     32  C   UNL A   1      37.988  30.832  30.960  1.00  0.00     0.049 A 
ATOM     33  N   UNL A   1      39.941  28.916  29.687  1.00  0.00    -0.248 NA
ATOM     34  C   UNL A   1      38.530  28.790  27.834  1.00  0.00     0.031 C 
ATOM     35  C   UNL A   1      37.051  31.729  31.640  1.00  0.00     0.029 A 
ATOM     36  N   UNL A   1      39.035  30.720  31.841  1.00  0.00    -0.354 N 
ATOM     37  C   UNL A   1      40.484  28.037  28.754  1.00  0.00     0.074 A 
ATOM     38  C   UNL A   1      39.536  27.946  27.665  1.00  0.00     0.031 C 
ATOM     39  C   UNL A   1      37.576  32.104  32.817  1.00  0.00     0.029 A 
ATOM     40  C   UNL A   1      38.860  31.435  33.003  1.00  0.00     0.049 A 
ATOM     41  H   UNL A   1      39.836  30.178  31.658  1.00  0.00     0.167 HD
ATOM     42  C   UNL A   1      41.673  27.386  28.793  1.00  0.00     0.034 A 
ATOM     43  C   UNL A   1      39.637  31.529  34.100  1.00  0.00     0.034 A 
ATOM     44  C   UNL A   1      42.612  27.500  29.883  1.00  0.00     0.049 A 
ATOM     45  C   UNL A   1      40.941  30.770  34.134  1.00  0.00     0.074 A 
ATOM     46  C   UNL A   1      43.865  26.925  30.004  1.00  0.00     0.029 A 
ATOM     47  N   UNL A   1      42.400  28.234  31.044  1.00  0.00    -0.354 N 
ATOM     48  N   UNL A   1      41.461  29.978  33.223  1.00  0.00    -0.248 NA
ATOM     49  C   UNL A   1      41.768  30.927  35.336  1.00  0.00     0.031 C 
ATOM     50  C   UNL A   1      44.377  27.248  31.265  1.00  0.00     0.029 A 
ATOM     51  C   UNL A   1      43.484  28.099  31.897  1.00  0.00     0.049 A 
ATOM     52  H   UNL A   1      41.596  28.771  31.233  1.00  0.00     0.167 HD
ATOM     53  C   UNL A   1      42.693  29.575  33.730  1.00  0.00     0.074 A 
ATOM     54  C   UNL A   1      42.843  30.222  35.018  1.00  0.00     0.031 C 
ATOM     55  C   UNL A   1      43.619  28.749  33.181  1.00  0.00     0.034 A 
BRANCH  42  56
ATOM     56  C   UNL A   1      42.009  26.475  27.636  1.00  0.00     0.023 A 
ATOM     57  C   UNL A   1      41.655  25.115  27.637  1.00  0.00     0.031 A 
ATOM     58  C   UNL A   1      42.708  26.969  26.520  1.00  0.00     0.131 A 
ATOM     59  C   UNL A   1      42.063  24.282  26.584  1.00  0.00     0.055 A 
ATOM     60  C   UNL A   1      43.038  26.154  25.435  1.00  0.00     0.041 A 
ATOM     61  F   UNL A   1      43.093  28.255  26.469  1.00  0.00    -0.206 F 
ATOM     62  C   UNL A   1      42.729  24.798  25.469  1.00  0.00     0.022 A 
BRANCH  59  63
ATOM     63  S   UNL A   1      41.838  22.491  26.758  1.00  0.00     0.124 S 
ATOM     64  O   UNL A   1      42.282  22.009  25.452  1.00  0.00    -0.237 OA
ATOM     65  O   UNL A   1      42.706  22.171  27.885  1.00  0.00    -0.237 OA
ATOM     66  O   UNL A   1      40.405  22.347  27.012  1.00  0.00    -0.744 OA
ENDBRANCH  59  63
ENDBRANCH  42  56
BRANCH  43  67
ATOM     67  C   UNL A   1      39.209  32.357  35.266  1.00  0.00     0.023 A 
ATOM     68  C   UNL A   1      39.648  33.682  35.414  1.00  0.00     0.031 A 
ATOM     69  C   UNL A   1      38.398  31.816  36.280  1.00  0.00     0.131 A 
ATOM     70  C   UNL A   1      39.324  34.403  36.574  1.00  0.00     0.055 A 
ATOM     71  C   UNL A   1      38.026  32.558  37.402  1.00  0.00     0.041 A 
ATOM     72  F   UNL A   1      37.947  30.554  36.190  1.00  0.00    -0.206 F 
ATOM     73  C   UNL A   1      38.503  33.855  37.562  1.00  0.00     0.022 A 
BRANCH  70  74
ATOM     74  S   UNL A   1      40.076  36.034  36.821  1.00  0.00     0.124 S 
ATOM     75  O   UNL A   1      39.741  36.707  35.570  1.00  0.00    -0.237 OA
ATOM     76  O   UNL A   1      39.383  36.511  38.012  1.00  0.00    -0.237 OA
ATOM     77  O   UNL A   1      41.494  35.731  37.006  1.00  0.00    -0.744 OA
ENDBRANCH  70  74
ENDBRANCH  43  67
BRANCH  55  78
ATOM     78  C   UNL A   1      44.906  28.549  33.948  1.00  0.00     0.023 A 
ATOM     79  C   UNL A   1      45.065  27.505  34.876  1.00  0.00     0.031 A 
ATOM     80  C   UNL A   1      45.987  29.428  33.749  1.00  0.00     0.131 A 
ATOM     81  C   UNL A   1      46.255  27.402  35.613  1.00  0.00     0.055 A 
ATOM     82  C   UNL A   1      47.191  29.279  34.437  1.00  0.00     0.041 A 
ATOM     83  F   UNL A   1      45.890  30.445  32.877  1.00  0.00    -0.206 F 
ATOM     84  C   UNL A   1      47.326  28.271  35.385  1.00  0.00     0.022 A 
BRANCH  81  85
ATOM     85  S   UNL A   1      46.349  26.177  36.947  1.00  0.00     0.124 S 
ATOM     86  O   UNL A   1      46.201  24.922  36.218  1.00  0.00    -0.237 OA
ATOM     87  O   UNL A   1      47.669  26.433  37.514  1.00  0.00    -0.237 OA
ATOM     88  O   UNL A   1      45.225  26.526  37.814  1.00  0.00    -0.744 OA
ENDBRANCH  81  85
ENDBRANCH  55  78
ENDBRANCH  29  30
ENDBRANCH  21  24
ENDBRANCH  19  20
ENDBRANCH  18  19
ENDBRANCH   1  18
TORSDOF 17
ENDMDL
