MODEL 1
REMARK VINA RESULT:     -12.4      0.000      0.000
REMARK SMILES CC(=O)N1[C@@H](c2c(F)cccc2Cl)SC[C@H]1C(=O)NCCCNC(=O)c1ccc(-c2c3nc(c(-c4cc(S(=O)(=O)[O-])ccc4F)c4ccc([nH]4)c(-c4cc(S(=O)(=O)[O-])ccc4F)c4nc(c(-c5cc(S(=O)(=O)[O-])ccc5F)c5ccc2[nH]5)C=C4)C=C3)cc1
REMARK SMILES IDX 22 1 21 2 20 3 19 4 17 5 18 6 16 8 4 9 5 10 14 11 15 12 2 13
REMARK SMILES IDX 1 14 3 15 6 16 7 17 12 18 8 19 9 20 11 21 13 22 10 23 23 24
REMARK SMILES IDX 24 25 25 27 26 28 27 29 88 30 28 31 87 32 29 33 30 34 31 35
REMARK SMILES IDX 81 36 32 37 86 38 80 39 82 40 33 41 85 42 79 43 78 44 34 46
REMARK SMILES IDX 66 47 46 48 65 49 47 50 50 51 64 52 83 53 48 54 49 55 63 57
REMARK SMILES IDX 84 58 51 59 35 60 36 61 44 62 37 63 43 64 45 65 42 66 38 67
REMARK SMILES IDX 39 68 40 69 41 70 67 71 68 72 76 73 69 74 75 75 77 76 74 77
REMARK SMILES IDX 70 78 71 79 72 80 73 81 52 82 53 83 61 84 54 85 60 86 62 87
REMARK SMILES IDX 59 88 55 89 56 90 57 91 58 92
REMARK H PARENT 19 7 23 26 82 45 50 56
REMARK Flexibility Score: inf
ROOT
ATOM      1  C   UNL A   1      35.836  22.084  25.714  1.00  0.00     0.118 C 
ENDROOT
BRANCH   1   2
ATOM      2  C   UNL A   1      34.817  21.747  26.799  1.00  0.00     0.042 C 
BRANCH   2   3
ATOM      3  C   UNL A   1      33.384  21.643  26.298  1.00  0.00     0.117 C 
BRANCH   3   4
ATOM      4  N   UNL A   1      32.454  22.510  26.978  1.00  0.00    -0.354 N 
ATOM      5  C   UNL A   1      32.038  23.764  26.652  1.00  0.00     0.243 C 
ATOM      6  O   UNL A   1      30.957  24.126  27.137  1.00  0.00    -0.273 OA
ATOM      7  H   UNL A   1      32.061  22.140  27.800  1.00  0.00     0.163 HD
BRANCH   5   8
ATOM      8  C   UNL A   1      32.730  24.650  25.586  1.00  0.00     0.185 C 
ATOM      9  N   UNL A   1      32.116  24.839  24.257  1.00  0.00    -0.314 N 
ATOM     10  C   UNL A   1      32.187  26.217  23.716  1.00  0.00     0.179 C 
ATOM     11  S   UNL A   1      33.430  27.062  24.758  1.00  0.00    -0.129 SA
ATOM     12  C   UNL A   1      33.123  25.989  26.189  1.00  0.00     0.107 C 
BRANCH   9  13
ATOM     13  C   UNL A   1      32.096  23.665  23.511  1.00  0.00     0.221 C 
ATOM     14  C   UNL A   1      33.352  23.181  22.843  1.00  0.00     0.114 C 
ATOM     15  O   UNL A   1      31.090  22.953  23.471  1.00  0.00    -0.275 OA
ENDBRANCH   9  13
BRANCH  10  16
ATOM     16  C   UNL A   1      30.839  26.932  23.609  1.00  0.00     0.039 A 
ATOM     17  C   UNL A   1      29.642  26.395  24.122  1.00  0.00     0.130 A 
ATOM     18  C   UNL A   1      30.692  28.163  22.933  1.00  0.00     0.050 A 
ATOM     19  F   UNL A   1      29.640  25.274  24.853  1.00  0.00    -0.207 F 
ATOM     20  C   UNL A   1      28.383  26.951  23.876  1.00  0.00     0.040 A 
ATOM     21  C   UNL A   1      29.427  28.717  22.661  1.00  0.00     0.021 A 
ATOM     22  Cl  UNL A   1      32.035  29.143  22.466  1.00  0.00    -0.084 Cl
ATOM     23  C   UNL A   1      28.269  28.098  23.112  1.00  0.00     0.005 A 
ENDBRANCH  10  16
ENDBRANCH   5   8
ENDBRANCH   3   4
ENDBRANCH   2   3
ENDBRANCH   1   2
BRANCH   1  24
ATOM     24  N   UNL A   1      36.880  21.079  25.544  1.00  0.00    -0.352 N 
ATOM     25  C   UNL A   1      38.244  21.123  25.696  1.00  0.00     0.251 C 
ATOM     26  H   UNL A   1      36.540  20.198  25.267  1.00  0.00     0.163 HD
ATOM     27  O   UNL A   1      38.887  20.121  25.377  1.00  0.00    -0.269 OA
BRANCH  25  28
ATOM     28  C   UNL A   1      38.959  22.330  26.178  1.00  0.00     0.039 A 
ATOM     29  C   UNL A   1      40.127  22.152  26.934  1.00  0.00     0.014 A 
ATOM     30  C   UNL A   1      38.497  23.624  25.944  1.00  0.00     0.014 A 
ATOM     31  C   UNL A   1      40.859  23.258  27.377  1.00  0.00     0.010 A 
ATOM     32  C   UNL A   1      39.279  24.722  26.294  1.00  0.00     0.010 A 
ATOM     33  C   UNL A   1      40.467  24.555  27.023  1.00  0.00    -0.014 A 
BRANCH  33  34
ATOM     34  C   UNL A   1      41.247  25.757  27.423  1.00  0.00     0.031 A 
ATOM     35  C   UNL A   1      40.594  26.825  28.263  1.00  0.00     0.074 A 
ATOM     36  C   UNL A   1      42.498  25.938  26.957  1.00  0.00     0.049 A 
ATOM     37  N   UNL A   1      41.022  28.024  28.566  1.00  0.00    -0.248 NA
ATOM     38  C   UNL A   1      39.260  26.510  28.795  1.00  0.00     0.031 C 
ATOM     39  C   UNL A   1      43.233  24.994  26.111  1.00  0.00     0.029 A 
ATOM     40  N   UNL A   1      43.370  26.987  27.113  1.00  0.00    -0.354 N 
ATOM     41  C   UNL A   1      39.993  28.622  29.288  1.00  0.00     0.074 A 
ATOM     42  C   UNL A   1      38.902  27.670  29.322  1.00  0.00     0.031 C 
ATOM     43  C   UNL A   1      44.446  25.499  25.837  1.00  0.00     0.029 A 
ATOM     44  C   UNL A   1      44.558  26.824  26.440  1.00  0.00     0.049 A 
ATOM     45  H   UNL A   1      43.163  27.783  27.654  1.00  0.00     0.167 HD
ATOM     46  C   UNL A   1      39.967  29.840  29.884  1.00  0.00     0.034 A 
ATOM     47  C   UNL A   1      45.610  27.656  26.303  1.00  0.00     0.034 A 
ATOM     48  C   UNL A   1      41.079  30.760  29.869  1.00  0.00     0.049 A 
ATOM     49  C   UNL A   1      45.562  29.008  26.968  1.00  0.00     0.074 A 
ATOM     50  C   UNL A   1      41.191  31.991  30.491  1.00  0.00     0.029 A 
ATOM     51  N   UNL A   1      42.275  30.548  29.193  1.00  0.00    -0.354 N 
ATOM     52  N   UNL A   1      44.594  29.549  27.672  1.00  0.00    -0.248 NA
ATOM     53  C   UNL A   1      46.751  29.857  26.827  1.00  0.00     0.031 C 
ATOM     54  C   UNL A   1      42.427  32.549  30.144  1.00  0.00     0.029 A 
ATOM     55  C   UNL A   1      43.120  31.636  29.364  1.00  0.00     0.049 A 
ATOM     56  H   UNL A   1      42.493  29.743  28.671  1.00  0.00     0.167 HD
ATOM     57  C   UNL A   1      45.070  30.791  28.079  1.00  0.00     0.074 A 
ATOM     58  C   UNL A   1      46.415  30.912  27.555  1.00  0.00     0.031 C 
ATOM     59  C   UNL A   1      44.455  31.745  28.824  1.00  0.00     0.034 A 
BRANCH  46  60
ATOM     60  C   UNL A   1      38.686  30.246  30.577  1.00  0.00     0.023 A 
ATOM     61  C   UNL A   1      37.662  30.929  29.897  1.00  0.00     0.031 A 
ATOM     62  C   UNL A   1      38.505  29.993  31.948  1.00  0.00     0.131 A 
ATOM     63  C   UNL A   1      36.558  31.424  30.606  1.00  0.00     0.055 A 
ATOM     64  C   UNL A   1      37.357  30.406  32.629  1.00  0.00     0.041 A 
ATOM     65  F   UNL A   1      39.453  29.360  32.658  1.00  0.00    -0.206 F 
ATOM     66  C   UNL A   1      36.385  31.145  31.963  1.00  0.00     0.022 A 
BRANCH  63  67
ATOM     67  S   UNL A   1      35.445  32.586  29.767  1.00  0.00     0.124 S 
ATOM     68  O   UNL A   1      36.319  33.740  29.569  1.00  0.00    -0.237 OA
ATOM     69  O   UNL A   1      35.074  31.852  28.562  1.00  0.00    -0.237 OA
ATOM     70  O   UNL A   1      34.368  32.789  30.733  1.00  0.00    -0.744 OA
ENDBRANCH  63  67
ENDBRANCH  46  60
BRANCH  47  71
ATOM     71  C   UNL A   1      46.795  27.245  25.499  1.00  0.00     0.023 A 
ATOM     72  C   UNL A   1      46.985  27.733  24.196  1.00  0.00     0.031 A 
ATOM     73  C   UNL A   1      47.741  26.337  26.008  1.00  0.00     0.131 A 
ATOM     74  C   UNL A   1      48.072  27.282  23.432  1.00  0.00     0.055 A 
ATOM     75  C   UNL A   1      48.847  25.928  25.260  1.00  0.00     0.041 A 
ATOM     76  F   UNL A   1      47.611  25.848  27.252  1.00  0.00    -0.206 F 
ATOM     77  C   UNL A   1      49.011  26.393  23.959  1.00  0.00     0.022 A 
BRANCH  74  78
ATOM     78  S   UNL A   1      48.205  27.828  21.707  1.00  0.00     0.124 S 
ATOM     79  O   UNL A   1      46.970  28.585  21.539  1.00  0.00    -0.237 OA
ATOM     80  O   UNL A   1      49.438  28.609  21.732  1.00  0.00    -0.237 OA
ATOM     81  O   UNL A   1      48.278  26.575  20.959  1.00  0.00    -0.744 OA
ENDBRANCH  74  78
ENDBRANCH  47  71
BRANCH  59  82
ATOM     82  C   UNL A   1      45.256  32.980  29.150  1.00  0.00     0.023 A 
ATOM     83  C   UNL A   1      45.280  34.095  28.294  1.00  0.00     0.031 A 
ATOM     84  C   UNL A   1      46.017  33.036  30.331  1.00  0.00     0.131 A 
ATOM     85  C   UNL A   1      46.092  35.197  28.604  1.00  0.00     0.055 A 
ATOM     86  C   UNL A   1      46.777  34.158  30.664  1.00  0.00     0.041 A 
ATOM     87  F   UNL A   1      46.032  31.999  31.183  1.00  0.00    -0.206 F 
ATOM     88  C   UNL A   1      46.827  35.242  29.792  1.00  0.00     0.022 A 
BRANCH  85  89
ATOM     89  S   UNL A   1      46.244  36.537  27.391  1.00  0.00     0.124 S 
ATOM     90  O   UNL A   1      46.013  35.834  26.133  1.00  0.00    -0.237 OA
ATOM     91  O   UNL A   1      45.193  37.458  27.810  1.00  0.00    -0.237 OA
ATOM     92  O   UNL A   1      47.609  37.024  27.589  1.00  0.00    -0.744 OA
ENDBRANCH  85  89
ENDBRANCH  59  82
ENDBRANCH  33  34
ENDBRANCH  25  28
ENDBRANCH   1  24
TORSDOF 15
ENDMDL
MODEL 2
REMARK VINA RESULT:     -12.4      5.911     10.888
REMARK SMILES CC(=O)N1[C@@H](c2c(F)cccc2Cl)SC[C@H]1C(=O)NCCCNC(=O)c1ccc(-c2c3nc(c(-c4cc(S(=O)(=O)[O-])ccc4F)c4ccc([nH]4)c(-c4cc(S(=O)(=O)[O-])ccc4F)c4nc(c(-c5cc(S(=O)(=O)[O-])ccc5F)c5ccc2[nH]5)C=C4)C=C3)cc1
REMARK SMILES IDX 22 1 21 2 20 3 19 4 17 5 18 6 16 8 4 9 5 10 14 11 15 12 2 13
REMARK SMILES IDX 1 14 3 15 6 16 7 17 12 18 8 19 9 20 11 21 13 22 10 23 23 24
REMARK SMILES IDX 24 25 25 27 26 28 27 29 88 30 28 31 87 32 29 33 30 34 31 35
REMARK SMILES IDX 81 36 32 37 86 38 80 39 82 40 33 41 85 42 79 43 78 44 34 46
REMARK SMILES IDX 66 47 46 48 65 49 47 50 50 51 64 52 83 53 48 54 49 55 63 57
REMARK SMILES IDX 84 58 51 59 35 60 36 61 44 62 37 63 43 64 45 65 42 66 38 67
REMARK SMILES IDX 39 68 40 69 41 70 67 71 68 72 76 73 69 74 75 75 77 76 74 77
REMARK SMILES IDX 70 78 71 79 72 80 73 81 52 82 53 83 61 84 54 85 60 86 62 87
REMARK SMILES IDX 59 88 55 89 56 90 57 91 58 92
REMARK H PARENT 19 7 23 26 82 45 50 56
REMARK Flexibility Score: inf
ROOT
ATOM      1  C   UNL A   1      32.677  32.411  27.233  1.00  0.00     0.118 C 
ENDROOT
BRANCH   1   2
ATOM      2  C   UNL A   1      31.462  31.816  26.526  1.00  0.00     0.042 C 
BRANCH   2   3
ATOM      3  C   UNL A   1      31.707  30.445  25.912  1.00  0.00     0.117 C 
BRANCH   3   4
ATOM      4  N   UNL A   1      32.828  29.735  26.476  1.00  0.00    -0.354 N 
ATOM      5  C   UNL A   1      33.267  28.471  26.231  1.00  0.00     0.243 C 
ATOM      6  O   UNL A   1      34.453  28.240  26.507  1.00  0.00    -0.273 OA
ATOM      7  H   UNL A   1      33.355  30.241  27.134  1.00  0.00     0.163 HD
BRANCH   5   8
ATOM      8  C   UNL A   1      32.441  27.405  25.470  1.00  0.00     0.185 C 
ATOM      9  N   UNL A   1      32.963  26.797  24.230  1.00  0.00    -0.314 N 
ATOM     10  C   UNL A   1      32.735  25.339  24.094  1.00  0.00     0.179 C 
ATOM     11  S   UNL A   1      31.476  24.945  25.361  1.00  0.00    -0.129 SA
ATOM     12  C   UNL A   1      31.957  26.330  26.431  1.00  0.00     0.107 C 
BRANCH   9  13
ATOM     13  C   UNL A   1      33.052  27.714  23.189  1.00  0.00     0.221 C 
ATOM     14  C   UNL A   1      31.833  28.479  22.758  1.00  0.00     0.114 C 
ATOM     15  O   UNL A   1      34.139  27.991  22.675  1.00  0.00    -0.275 OA
ENDBRANCH   9  13
BRANCH  10  16
ATOM     16  C   UNL A   1      34.004  24.486  24.155  1.00  0.00     0.039 A 
ATOM     17  C   UNL A   1      34.928  24.557  25.216  1.00  0.00     0.130 A 
ATOM     18  C   UNL A   1      34.365  23.601  23.116  1.00  0.00     0.050 A 
ATOM     19  F   UNL A   1      34.680  25.295  26.305  1.00  0.00    -0.207 F 
ATOM     20  C   UNL A   1      36.170  23.917  25.197  1.00  0.00     0.040 A 
ATOM     21  C   UNL A   1      35.624  22.972  23.078  1.00  0.00     0.021 A 
ATOM     22  Cl  UNL A   1      33.277  23.136  21.858  1.00  0.00    -0.084 Cl
ATOM     23  C   UNL A   1      36.537  23.148  24.107  1.00  0.00     0.005 A 
ENDBRANCH  10  16
ENDBRANCH   5   8
ENDBRANCH   3   4
ENDBRANCH   2   3
ENDBRANCH   1   2
BRANCH   1  24
ATOM     24  N   UNL A   1      32.499  33.796  27.657  1.00  0.00    -0.352 N 
ATOM     25  C   UNL A   1      33.165  34.580  28.566  1.00  0.00     0.251 C 
ATOM     26  H   UNL A   1      31.756  34.257  27.205  1.00  0.00     0.163 HD
ATOM     27  O   UNL A   1      32.713  35.705  28.791  1.00  0.00    -0.269 OA
BRANCH  25  28
ATOM     28  C   UNL A   1      34.361  34.111  29.308  1.00  0.00     0.039 A 
ATOM     29  C   UNL A   1      34.169  33.273  30.416  1.00  0.00     0.014 A 
ATOM     30  C   UNL A   1      35.657  34.499  28.971  1.00  0.00     0.014 A 
ATOM     31  C   UNL A   1      35.266  32.771  31.123  1.00  0.00     0.010 A 
ATOM     32  C   UNL A   1      36.751  33.917  29.608  1.00  0.00     0.010 A 
ATOM     33  C   UNL A   1      36.571  33.052  30.698  1.00  0.00    -0.014 A 
BRANCH  33  34
ATOM     34  C   UNL A   1      37.767  32.493  31.385  1.00  0.00     0.031 A 
ATOM     35  C   UNL A   1      38.535  31.365  30.746  1.00  0.00     0.074 A 
ATOM     36  C   UNL A   1      38.105  32.926  32.616  1.00  0.00     0.049 A 
ATOM     37  N   UNL A   1      39.481  30.613  31.248  1.00  0.00    -0.248 NA
ATOM     38  C   UNL A   1      38.150  31.010  29.372  1.00  0.00     0.031 C 
ATOM     39  C   UNL A   1      37.424  33.992  33.356  1.00  0.00     0.029 A 
ATOM     40  N   UNL A   1      39.095  32.511  33.471  1.00  0.00    -0.354 N 
ATOM     41  C   UNL A   1      39.775  29.671  30.266  1.00  0.00     0.074 A 
ATOM     42  C   UNL A   1      38.864  29.914  29.169  1.00  0.00     0.031 C 
ATOM     43  C   UNL A   1      38.027  34.157  34.544  1.00  0.00     0.029 A 
ATOM     44  C   UNL A   1      39.099  33.176  34.676  1.00  0.00     0.049 A 
ATOM     45  H   UNL A   1      39.740  31.804  33.244  1.00  0.00     0.167 HD
ATOM     46  C   UNL A   1      40.731  28.707  30.270  1.00  0.00     0.034 A 
ATOM     47  C   UNL A   1      39.864  32.999  35.771  1.00  0.00     0.034 A 
ATOM     48  C   UNL A   1      41.655  28.503  31.361  1.00  0.00     0.049 A 
ATOM     49  C   UNL A   1      40.916  31.920  35.760  1.00  0.00     0.074 A 
ATOM     50  C   UNL A   1      42.702  27.602  31.448  1.00  0.00     0.029 A 
ATOM     51  N   UNL A   1      41.640  29.211  32.556  1.00  0.00    -0.354 N 
ATOM     52  N   UNL A   1      41.203  31.054  34.814  1.00  0.00    -0.248 NA
ATOM     53  C   UNL A   1      41.752  31.799  36.961  1.00  0.00     0.031 C 
ATOM     54  C   UNL A   1      43.282  27.725  32.717  1.00  0.00     0.029 A 
ATOM     55  C   UNL A   1      42.644  28.752  33.396  1.00  0.00     0.049 A 
ATOM     56  H   UNL A   1      41.010  29.935  32.775  1.00  0.00     0.167 HD
ATOM     57  C   UNL A   1      42.271  30.305  35.298  1.00  0.00     0.074 A 
ATOM     58  C   UNL A   1      42.586  30.829  36.611  1.00  0.00     0.031 C 
ATOM     59  C   UNL A   1      42.937  29.279  34.708  1.00  0.00     0.034 A 
BRANCH  46  60
ATOM     60  C   UNL A   1      40.798  27.793  29.068  1.00  0.00     0.023 A 
ATOM     61  C   UNL A   1      41.736  27.991  28.040  1.00  0.00     0.031 A 
ATOM     62  C   UNL A   1      39.879  26.739  28.920  1.00  0.00     0.131 A 
ATOM     63  C   UNL A   1      41.669  27.220  26.870  1.00  0.00     0.055 A 
ATOM     64  C   UNL A   1      39.879  25.912  27.794  1.00  0.00     0.041 A 
ATOM     65  F   UNL A   1      38.947  26.508  29.858  1.00  0.00    -0.206 F 
ATOM     66  C   UNL A   1      40.764  26.164  26.751  1.00  0.00     0.022 A 
BRANCH  63  67
ATOM     67  S   UNL A   1      42.664  27.732  25.442  1.00  0.00     0.124 S 
ATOM     68  O   UNL A   1      42.783  26.478  24.701  1.00  0.00    -0.237 OA
ATOM     69  O   UNL A   1      41.829  28.759  24.828  1.00  0.00    -0.237 OA
ATOM     70  O   UNL A   1      43.906  28.213  26.043  1.00  0.00    -0.744 OA
ENDBRANCH  63  67
ENDBRANCH  46  60
BRANCH  47  71
ATOM     71  C   UNL A   1      39.662  33.852  36.976  1.00  0.00     0.023 A 
ATOM     72  C   UNL A   1      39.027  33.345  38.120  1.00  0.00     0.031 A 
ATOM     73  C   UNL A   1      40.076  35.197  36.993  1.00  0.00     0.131 A 
ATOM     74  C   UNL A   1      38.787  34.185  39.218  1.00  0.00     0.055 A 
ATOM     75  C   UNL A   1      39.878  36.015  38.106  1.00  0.00     0.041 A 
ATOM     76  F   UNL A   1      40.697  35.729  35.928  1.00  0.00    -0.206 F 
ATOM     77  C   UNL A   1      39.219  35.513  39.224  1.00  0.00     0.022 A 
BRANCH  74  78
ATOM     78  S   UNL A   1      37.841  33.530  40.620  1.00  0.00     0.124 S 
ATOM     79  O   UNL A   1      38.751  32.521  41.149  1.00  0.00    -0.237 OA
ATOM     80  O   UNL A   1      37.656  34.722  41.443  1.00  0.00    -0.237 OA
ATOM     81  O   UNL A   1      36.625  33.012  39.997  1.00  0.00    -0.744 OA
ENDBRANCH  74  78
ENDBRANCH  47  71
BRANCH  59  82
ATOM     82  C   UNL A   1      44.100  28.693  35.468  1.00  0.00     0.023 A 
ATOM     83  C   UNL A   1      43.934  27.634  36.377  1.00  0.00     0.031 A 
ATOM     84  C   UNL A   1      45.394  29.214  35.288  1.00  0.00     0.131 A 
ATOM     85  C   UNL A   1      45.034  27.164  37.111  1.00  0.00     0.055 A 
ATOM     86  C   UNL A   1      46.495  28.703  35.977  1.00  0.00     0.041 A 
ATOM     87  F   UNL A   1      45.610  30.227  34.434  1.00  0.00    -0.206 F 
ATOM     88  C   UNL A   1      46.315  27.680  36.905  1.00  0.00     0.022 A 
BRANCH  85  89
ATOM     89  S   UNL A   1      44.752  25.926  38.407  1.00  0.00     0.124 S 
ATOM     90  O   UNL A   1      46.113  25.608  38.823  1.00  0.00    -0.237 OA
ATOM     91  O   UNL A   1      43.945  26.664  39.373  1.00  0.00    -0.237 OA
ATOM     92  O   UNL A   1      44.050  24.852  37.706  1.00  0.00    -0.744 OA
ENDBRANCH  85  89
ENDBRANCH  59  82
ENDBRANCH  33  34
ENDBRANCH  25  28
ENDBRANCH   1  24
TORSDOF 15
ENDMDL
MODEL 3
REMARK VINA RESULT:     -12.3      5.336     10.262
REMARK SMILES CC(=O)N1[C@@H](c2c(F)cccc2Cl)SC[C@H]1C(=O)NCCCNC(=O)c1ccc(-c2c3nc(c(-c4cc(S(=O)(=O)[O-])ccc4F)c4ccc([nH]4)c(-c4cc(S(=O)(=O)[O-])ccc4F)c4nc(c(-c5cc(S(=O)(=O)[O-])ccc5F)c5ccc2[nH]5)C=C4)C=C3)cc1
REMARK SMILES IDX 22 1 21 2 20 3 19 4 17 5 18 6 16 8 4 9 5 10 14 11 15 12 2 13
REMARK SMILES IDX 1 14 3 15 6 16 7 17 12 18 8 19 9 20 11 21 13 22 10 23 23 24
REMARK SMILES IDX 24 25 25 27 26 28 27 29 88 30 28 31 87 32 29 33 30 34 31 35
REMARK SMILES IDX 81 36 32 37 86 38 80 39 82 40 33 41 85 42 79 43 78 44 34 46
REMARK SMILES IDX 66 47 46 48 65 49 47 50 50 51 64 52 83 53 48 54 49 55 63 57
REMARK SMILES IDX 84 58 51 59 35 60 36 61 44 62 37 63 43 64 45 65 42 66 38 67
REMARK SMILES IDX 39 68 40 69 41 70 67 71 68 72 76 73 69 74 75 75 77 76 74 77
REMARK SMILES IDX 70 78 71 79 72 80 73 81 52 82 53 83 61 84 54 85 60 86 62 87
REMARK SMILES IDX 59 88 55 89 56 90 57 91 58 92
REMARK H PARENT 19 7 23 26 82 45 50 56
REMARK Flexibility Score: inf
ROOT
ATOM      1  C   UNL A   1      32.329  29.304  25.745  1.00  0.00     0.118 C 
ENDROOT
BRANCH   1   2
ATOM      2  C   UNL A   1      33.054  29.178  24.407  1.00  0.00     0.042 C 
BRANCH   2   3
ATOM      3  C   UNL A   1      32.242  28.486  23.322  1.00  0.00     0.117 C 
BRANCH   3   4
ATOM      4  N   UNL A   1      33.007  27.594  22.488  1.00  0.00    -0.354 N 
ATOM      5  C   UNL A   1      33.411  26.316  22.724  1.00  0.00     0.243 C 
ATOM      6  O   UNL A   1      33.680  25.633  21.726  1.00  0.00    -0.273 OA
ATOM      7  H   UNL A   1      33.277  27.963  21.617  1.00  0.00     0.163 HD
BRANCH   5   8
ATOM      8  C   UNL A   1      33.360  25.642  24.118  1.00  0.00     0.185 C 
ATOM      9  N   UNL A   1      32.296  24.671  24.442  1.00  0.00    -0.314 N 
ATOM     10  C   UNL A   1      32.736  23.481  25.207  1.00  0.00     0.179 C 
ATOM     11  S   UNL A   1      34.396  23.918  25.835  1.00  0.00    -0.129 SA
ATOM     12  C   UNL A   1      34.726  25.080  24.480  1.00  0.00     0.107 C 
BRANCH   9  13
ATOM     13  C   UNL A   1      31.039  25.264  24.497  1.00  0.00     0.221 C 
ATOM     14  C   UNL A   1      30.623  26.026  25.723  1.00  0.00     0.114 C 
ATOM     15  O   UNL A   1      30.292  25.265  23.516  1.00  0.00    -0.275 OA
ENDBRANCH   9  13
BRANCH  10  16
ATOM     16  C   UNL A   1      32.663  22.162  24.433  1.00  0.00     0.039 A 
ATOM     17  C   UNL A   1      32.389  22.095  23.053  1.00  0.00     0.130 A 
ATOM     18  C   UNL A   1      32.813  20.909  25.067  1.00  0.00     0.050 A 
ATOM     19  F   UNL A   1      32.299  23.203  22.308  1.00  0.00    -0.207 F 
ATOM     20  C   UNL A   1      32.146  20.897  22.376  1.00  0.00     0.040 A 
ATOM     21  C   UNL A   1      32.548  19.700  24.398  1.00  0.00     0.021 A 
ATOM     22  Cl  UNL A   1      33.423  20.738  26.674  1.00  0.00    -0.084 Cl
ATOM     23  C   UNL A   1      32.190  19.694  23.057  1.00  0.00     0.005 A 
ENDBRANCH  10  16
ENDBRANCH   5   8
ENDBRANCH   3   4
ENDBRANCH   2   3
ENDBRANCH   1   2
BRANCH   1  24
ATOM     24  N   UNL A   1      32.045  30.680  26.140  1.00  0.00    -0.352 N 
ATOM     25  C   UNL A   1      32.689  31.556  26.978  1.00  0.00     0.251 C 
ATOM     26  H   UNL A   1      31.234  31.052  25.725  1.00  0.00     0.163 HD
ATOM     27  O   UNL A   1      32.145  32.641  27.199  1.00  0.00    -0.269 OA
BRANCH  25  28
ATOM     28  C   UNL A   1      33.970  31.229  27.651  1.00  0.00     0.039 A 
ATOM     29  C   UNL A   1      34.826  32.284  27.998  1.00  0.00     0.014 A 
ATOM     30  C   UNL A   1      34.371  29.920  27.914  1.00  0.00     0.014 A 
ATOM     31  C   UNL A   1      36.027  32.030  28.670  1.00  0.00     0.010 A 
ATOM     32  C   UNL A   1      35.512  29.674  28.674  1.00  0.00     0.010 A 
ATOM     33  C   UNL A   1      36.361  30.725  29.055  1.00  0.00    -0.014 A 
BRANCH  33  34
ATOM     34  C   UNL A   1      37.598  30.416  29.820  1.00  0.00     0.031 A 
ATOM     35  C   UNL A   1      38.643  29.512  29.218  1.00  0.00     0.074 A 
ATOM     36  C   UNL A   1      37.741  30.863  31.084  1.00  0.00     0.049 A 
ATOM     37  N   UNL A   1      39.694  28.968  29.775  1.00  0.00    -0.248 NA
ATOM     38  C   UNL A   1      38.446  29.138  27.810  1.00  0.00     0.031 C 
ATOM     39  C   UNL A   1      36.789  31.721  31.794  1.00  0.00     0.029 A 
ATOM     40  N   UNL A   1      38.735  30.642  32.006  1.00  0.00    -0.354 N 
ATOM     41  C   UNL A   1      40.261  28.155  28.798  1.00  0.00     0.074 A 
ATOM     42  C   UNL A   1      39.399  28.236  27.638  1.00  0.00     0.031 C 
ATOM     43  C   UNL A   1      37.253  31.966  33.030  1.00  0.00     0.029 A 
ATOM     44  C   UNL A   1      38.505  31.241  33.222  1.00  0.00     0.049 A 
ATOM     45  H   UNL A   1      39.537  30.104  31.813  1.00  0.00     0.167 HD
ATOM     46  C   UNL A   1      41.405  27.426  28.855  1.00  0.00     0.034 A 
ATOM     47  C   UNL A   1      39.208  31.192  34.370  1.00  0.00     0.034 A 
ATOM     48  C   UNL A   1      42.270  27.386  30.010  1.00  0.00     0.049 A 
ATOM     49  C   UNL A   1      40.473  30.373  34.417  1.00  0.00     0.074 A 
ATOM     50  C   UNL A   1      43.482  26.737  30.159  1.00  0.00     0.029 A 
ATOM     51  N   UNL A   1      42.011  28.025  31.217  1.00  0.00    -0.354 N 
ATOM     52  N   UNL A   1      41.013  29.632  33.476  1.00  0.00    -0.248 NA
ATOM     53  C   UNL A   1      41.226  30.391  35.677  1.00  0.00     0.031 C 
ATOM     54  C   UNL A   1      43.927  26.932  31.472  1.00  0.00     0.029 A 
ATOM     55  C   UNL A   1      43.030  27.765  32.122  1.00  0.00     0.049 A 
ATOM     56  H   UNL A   1      41.222  28.582  31.402  1.00  0.00     0.167 HD
ATOM     57  C   UNL A   1      42.183  29.117  34.025  1.00  0.00     0.074 A 
ATOM     58  C   UNL A   1      42.278  29.644  35.371  1.00  0.00     0.031 C 
ATOM     59  C   UNL A   1      43.102  28.289  33.466  1.00  0.00     0.034 A 
BRANCH  46  60
ATOM     60  C   UNL A   1      41.760  26.599  27.640  1.00  0.00     0.023 A 
ATOM     61  C   UNL A   1      41.457  25.228  27.563  1.00  0.00     0.031 A 
ATOM     62  C   UNL A   1      42.460  27.175  26.564  1.00  0.00     0.131 A 
ATOM     63  C   UNL A   1      41.937  24.461  26.492  1.00  0.00     0.055 A 
ATOM     64  C   UNL A   1      42.852  26.424  25.453  1.00  0.00     0.041 A 
ATOM     65  F   UNL A   1      42.795  28.474  26.584  1.00  0.00    -0.206 F 
ATOM     66  C   UNL A   1      42.610  25.055  25.422  1.00  0.00     0.022 A 
BRANCH  63  67
ATOM     67  S   UNL A   1      41.821  22.654  26.605  1.00  0.00     0.124 S 
ATOM     68  O   UNL A   1      40.380  22.461  26.755  1.00  0.00    -0.237 OA
ATOM     69  O   UNL A   1      42.394  22.221  25.336  1.00  0.00    -0.237 OA
ATOM     70  O   UNL A   1      42.612  22.333  27.791  1.00  0.00    -0.744 OA
ENDBRANCH  63  67
ENDBRANCH  46  60
BRANCH  47  71
ATOM     71  C   UNL A   1      38.735  31.931  35.575  1.00  0.00     0.023 A 
ATOM     72  C   UNL A   1      38.160  31.248  36.658  1.00  0.00     0.031 A 
ATOM     73  C   UNL A   1      38.824  33.332  35.651  1.00  0.00     0.131 A 
ATOM     74  C   UNL A   1      37.660  31.968  37.754  1.00  0.00     0.055 A 
ATOM     75  C   UNL A   1      38.369  34.041  36.765  1.00  0.00     0.041 A 
ATOM     76  F   UNL A   1      39.374  34.033  34.646  1.00  0.00    -0.206 F 
ATOM     77  C   UNL A   1      37.772  33.358  37.821  1.00  0.00     0.022 A 
BRANCH  74  78
ATOM     78  S   UNL A   1      36.800  31.061  39.068  1.00  0.00     0.124 S 
ATOM     79  O   UNL A   1      37.762  31.138  40.162  1.00  0.00    -0.237 OA
ATOM     80  O   UNL A   1      35.580  31.846  39.229  1.00  0.00    -0.237 OA
ATOM     81  O   UNL A   1      36.610  29.730  38.495  1.00  0.00    -0.744 OA
ENDBRANCH  74  78
ENDBRANCH  47  71
BRANCH  59  82
ATOM     82  C   UNL A   1      44.309  27.944  34.301  1.00  0.00     0.023 A 
ATOM     83  C   UNL A   1      44.369  26.765  35.065  1.00  0.00     0.031 A 
ATOM     84  C   UNL A   1      45.411  28.817  34.343  1.00  0.00     0.131 A 
ATOM     85  C   UNL A   1      45.485  26.516  35.879  1.00  0.00     0.055 A 
ATOM     86  C   UNL A   1      46.544  28.535  35.109  1.00  0.00     0.041 A 
ATOM     87  F   UNL A   1      45.406  29.957  33.634  1.00  0.00    -0.206 F 
ATOM     88  C   UNL A   1      46.579  27.386  35.893  1.00  0.00     0.022 A 
BRANCH  85  89
ATOM     89  S   UNL A   1      45.450  25.083  36.991  1.00  0.00     0.124 S 
ATOM     90  O   UNL A   1      46.727  25.208  37.686  1.00  0.00    -0.237 OA
ATOM     91  O   UNL A   1      44.259  25.340  37.794  1.00  0.00    -0.237 OA
ATOM     92  O   UNL A   1      45.348  23.945  36.078  1.00  0.00    -0.744 OA
ENDBRANCH  85  89
ENDBRANCH  59  82
ENDBRANCH  33  34
ENDBRANCH  25  28
ENDBRANCH   1  24
TORSDOF 15
ENDMDL
