MODEL 1
REMARK VINA RESULT:      -9.6      0.000      0.000
REMARK SMILES C[C@@H](C(=O)NCCCNC(=O)c1ccc(-c2c3nc(c(-c4cc(S(=O)(=O)[O-])ccc4F)c4ccc([nH]4)c(-c4cc(S(=O)(=O)[O-])ccc4F)c4nc(c(-c5cc(S(=O)(=O)[O-])ccc5F)c5ccc2[nH]5)C=C4)C=C3)cc1)c1ccc(-c2cccc(OC(=O)Nc3ccccc3)c2)c(F)c1
REMARK SMILES IDX 6 1 5 2 3 3 4 4 2 6 1 7 75 8 76 9 97 10 77 11 95 12 78 13
REMARK SMILES IDX 96 14 79 15 80 16 94 17 81 18 83 19 82 20 84 21 85 22 86 23
REMARK SMILES IDX 87 24 88 26 89 27 93 28 90 29 92 30 91 31 7 32 8 33 9 34
REMARK SMILES IDX 10 35 11 37 12 38 13 39 74 40 14 41 73 42 15 43 16 44 17 45
REMARK SMILES IDX 67 46 18 47 72 48 66 49 68 50 19 51 71 52 65 53 64 54 20 56
REMARK SMILES IDX 52 57 32 58 51 59 33 60 36 61 50 62 69 63 34 64 35 65 49 67
REMARK SMILES IDX 70 68 37 69 21 70 22 71 30 72 23 73 29 74 31 75 28 76 24 77
REMARK SMILES IDX 25 78 26 79 27 80 53 81 54 82 62 83 55 84 61 85 63 86 60 87
REMARK SMILES IDX 56 88 57 89 58 90 59 91 38 92 39 93 47 94 40 95 46 96 48 97
REMARK SMILES IDX 45 98 41 99 42 100 43 101 44 102
REMARK H PARENT 5 5 87 25 9 36 68 55 36 66
REMARK Flexibility Score: inf
ROOT
ATOM      1  C   UNL A   1      45.041  21.666  25.852  1.00  0.00     0.117 C 
ENDROOT
BRANCH   1   2
ATOM      2  N   UNL A   1      43.947  20.942  25.238  1.00  0.00    -0.356 N 
ATOM      3  C   UNL A   1      42.801  20.429  25.770  1.00  0.00     0.227 C 
ATOM      4  O   UNL A   1      42.201  19.630  25.049  1.00  0.00    -0.274 OA
ATOM      5  H   UNL A   1      44.048  20.796  24.269  1.00  0.00     0.163 HD
BRANCH   3   6
ATOM      6  C   UNL A   1      42.347  20.849  27.179  1.00  0.00     0.105 C 
ATOM      7  C   UNL A   1      41.156  19.991  27.622  1.00  0.00     0.023 C 
BRANCH   6   8
ATOM      8  C   UNL A   1      42.001  22.325  27.407  1.00  0.00    -0.033 A 
ATOM      9  C   UNL A   1      42.782  23.226  28.142  1.00  0.00     0.005 A 
ATOM     10  C   UNL A   1      40.843  22.835  26.793  1.00  0.00     0.044 A 
ATOM     11  C   UNL A   1      42.429  24.576  28.256  1.00  0.00     0.012 A 
ATOM     12  C   UNL A   1      40.506  24.185  26.894  1.00  0.00     0.131 A 
ATOM     13  C   UNL A   1      41.287  25.085  27.628  1.00  0.00     0.018 A 
ATOM     14  F   UNL A   1      39.403  24.606  26.255  1.00  0.00    -0.206 F 
BRANCH  13  15
ATOM     15  C   UNL A   1      40.905  26.495  27.795  1.00  0.00    -0.012 A 
ATOM     16  C   UNL A   1      40.761  27.357  26.694  1.00  0.00     0.009 A 
ATOM     17  C   UNL A   1      40.729  27.023  29.084  1.00  0.00     0.056 A 
ATOM     18  C   UNL A   1      40.457  28.708  26.876  1.00  0.00     0.004 A 
ATOM     19  C   UNL A   1      40.450  28.373  29.264  1.00  0.00     0.133 A 
ATOM     20  C   UNL A   1      40.305  29.219  28.164  1.00  0.00     0.047 A 
BRANCH  19  21
ATOM     21  O   UNL A   1      40.323  28.995  30.529  1.00  0.00    -0.410 OA
BRANCH  21  22
ATOM     22  C   UNL A   1      39.300  28.779  31.450  1.00  0.00     0.417 C 
ATOM     23  O   UNL A   1      39.210  27.825  32.219  1.00  0.00    -0.224 OA
ATOM     24  N   UNL A   1      38.388  29.797  31.546  1.00  0.00    -0.291 N 
ATOM     25  H   UNL A   1      37.737  29.697  32.277  1.00  0.00     0.173 HD
BRANCH  24  26
ATOM     26  C   UNL A   1      38.228  30.957  30.775  1.00  0.00     0.044 A 
ATOM     27  C   UNL A   1      37.442  30.844  29.623  1.00  0.00     0.026 A 
ATOM     28  C   UNL A   1      38.817  32.186  31.078  1.00  0.00     0.026 A 
ATOM     29  C   UNL A   1      37.210  31.954  28.810  1.00  0.00     0.002 A 
ATOM     30  C   UNL A   1      38.597  33.294  30.254  1.00  0.00     0.002 A 
ATOM     31  C   UNL A   1      37.785  33.181  29.128  1.00  0.00     0.000 A 
ENDBRANCH  24  26
ENDBRANCH  21  22
ENDBRANCH  19  21
ENDBRANCH  13  15
ENDBRANCH   6   8
ENDBRANCH   3   6
ENDBRANCH   1   2
BRANCH   1  32
ATOM     32  C   UNL A   1      45.332  22.979  25.124  1.00  0.00     0.042 C 
BRANCH  32  33
ATOM     33  C   UNL A   1      46.440  23.825  25.743  1.00  0.00     0.118 C 
BRANCH  33  34
ATOM     34  N   UNL A   1      46.944  24.842  24.835  1.00  0.00    -0.352 N 
ATOM     35  C   UNL A   1      46.738  26.200  24.842  1.00  0.00     0.251 C 
ATOM     36  H   UNL A   1      47.517  24.508  24.108  1.00  0.00     0.163 HD
ATOM     37  O   UNL A   1      47.102  26.866  23.877  1.00  0.00    -0.269 OA
BRANCH  35  38
ATOM     38  C   UNL A   1      46.057  26.853  25.985  1.00  0.00     0.039 A 
ATOM     39  C   UNL A   1      46.833  27.333  27.042  1.00  0.00     0.014 A 
ATOM     40  C   UNL A   1      44.664  26.974  26.030  1.00  0.00     0.014 A 
ATOM     41  C   UNL A   1      46.221  27.990  28.113  1.00  0.00     0.010 A 
ATOM     42  C   UNL A   1      44.062  27.689  27.065  1.00  0.00     0.010 A 
ATOM     43  C   UNL A   1      44.833  28.205  28.118  1.00  0.00    -0.014 A 
BRANCH  43  44
ATOM     44  C   UNL A   1      44.175  28.959  29.217  1.00  0.00     0.031 A 
ATOM     45  C   UNL A   1      43.879  30.426  29.057  1.00  0.00     0.074 A 
ATOM     46  C   UNL A   1      43.893  28.338  30.379  1.00  0.00     0.049 A 
ATOM     47  N   UNL A   1      43.386  31.272  29.925  1.00  0.00    -0.248 NA
ATOM     48  C   UNL A   1      44.209  31.025  27.754  1.00  0.00     0.031 C 
ATOM     49  C   UNL A   1      44.158  26.926  30.668  1.00  0.00     0.029 A 
ATOM     50  N   UNL A   1      43.328  28.810  31.537  1.00  0.00    -0.354 N 
ATOM     51  C   UNL A   1      43.356  32.504  29.281  1.00  0.00     0.074 A 
ATOM     52  C   UNL A   1      43.934  32.303  27.968  1.00  0.00     0.031 C 
ATOM     53  C   UNL A   1      43.733  26.643  31.910  1.00  0.00     0.029 A 
ATOM     54  C   UNL A   1      43.210  27.859  32.524  1.00  0.00     0.049 A 
ATOM     55  H   UNL A   1      43.035  29.743  31.651  1.00  0.00     0.167 HD
ATOM     56  C   UNL A   1      42.872  33.689  29.733  1.00  0.00     0.034 A 
ATOM     57  C   UNL A   1      42.743  27.958  33.785  1.00  0.00     0.034 A 
ATOM     58  C   UNL A   1      42.287  33.873  31.039  1.00  0.00     0.049 A 
ATOM     59  C   UNL A   1      42.237  29.290  34.275  1.00  0.00     0.074 A 
ATOM     60  C   UNL A   1      41.727  35.017  31.582  1.00  0.00     0.029 A 
ATOM     61  N   UNL A   1      42.189  32.887  32.013  1.00  0.00    -0.354 N 
ATOM     62  N   UNL A   1      42.186  30.438  33.641  1.00  0.00    -0.248 NA
ATOM     63  C   UNL A   1      41.716  29.336  35.648  1.00  0.00     0.031 C 
ATOM     64  C   UNL A   1      41.348  34.741  32.900  1.00  0.00     0.029 A 
ATOM     65  C   UNL A   1      41.603  33.404  33.159  1.00  0.00     0.049 A 
ATOM     66  H   UNL A   1      42.492  31.957  31.906  1.00  0.00     0.167 HD
ATOM     67  C   UNL A   1      41.599  31.335  34.530  1.00  0.00     0.074 A 
ATOM     68  C   UNL A   1      41.303  30.590  35.737  1.00  0.00     0.031 C 
ATOM     69  C   UNL A   1      41.323  32.654  34.361  1.00  0.00     0.034 A 
BRANCH  56  70
ATOM     70  C   UNL A   1      42.982  34.881  28.811  1.00  0.00     0.023 A 
ATOM     71  C   UNL A   1      44.213  35.515  28.568  1.00  0.00     0.031 A 
ATOM     72  C   UNL A   1      41.838  35.405  28.186  1.00  0.00     0.131 A 
ATOM     73  C   UNL A   1      44.260  36.679  27.786  1.00  0.00     0.055 A 
ATOM     74  C   UNL A   1      41.904  36.518  27.343  1.00  0.00     0.041 A 
ATOM     75  F   UNL A   1      40.631  34.856  28.395  1.00  0.00    -0.206 F 
ATOM     76  C   UNL A   1      43.117  37.169  27.151  1.00  0.00     0.022 A 
BRANCH  73  77
ATOM     77  S   UNL A   1      45.810  37.617  27.724  1.00  0.00     0.124 S 
ATOM     78  O   UNL A   1      46.803  36.545  27.686  1.00  0.00    -0.237 OA
ATOM     79  O   UNL A   1      45.662  38.394  26.499  1.00  0.00    -0.237 OA
ATOM     80  O   UNL A   1      45.790  38.394  28.962  1.00  0.00    -0.744 OA
ENDBRANCH  73  77
ENDBRANCH  56  70
BRANCH  57  81
ATOM     81  C   UNL A   1      42.735  26.767  34.682  1.00  0.00     0.023 A 
ATOM     82  C   UNL A   1      43.919  26.305  35.278  1.00  0.00     0.031 A 
ATOM     83  C   UNL A   1      41.551  26.047  34.921  1.00  0.00     0.131 A 
ATOM     84  C   UNL A   1      43.903  25.133  36.049  1.00  0.00     0.055 A 
ATOM     85  C   UNL A   1      41.530  24.908  35.729  1.00  0.00     0.041 A 
ATOM     86  F   UNL A   1      40.389  26.450  34.380  1.00  0.00    -0.206 F 
ATOM     87  C   UNL A   1      42.715  24.438  36.288  1.00  0.00     0.022 A 
BRANCH  84  88
ATOM     88  S   UNL A   1      45.477  24.482  36.672  1.00  0.00     0.124 S 
ATOM     89  O   UNL A   1      46.422  24.994  35.685  1.00  0.00    -0.237 OA
ATOM     90  O   UNL A   1      45.547  25.083  38.000  1.00  0.00    -0.237 OA
ATOM     91  O   UNL A   1      45.277  23.035  36.655  1.00  0.00    -0.744 OA
ENDBRANCH  84  88
ENDBRANCH  57  81
BRANCH  69  92
ATOM     92  C   UNL A   1      40.624  33.357  35.497  1.00  0.00     0.023 A 
ATOM     93  C   UNL A   1      41.338  34.032  36.502  1.00  0.00     0.031 A 
ATOM     94  C   UNL A   1      39.221  33.336  35.582  1.00  0.00     0.131 A 
ATOM     95  C   UNL A   1      40.649  34.614  37.577  1.00  0.00     0.055 A 
ATOM     96  C   UNL A   1      38.538  33.965  36.623  1.00  0.00     0.041 A 
ATOM     97  F   UNL A   1      38.489  32.704  34.650  1.00  0.00    -0.206 F 
ATOM     98  C   UNL A   1      39.253  34.597  37.636  1.00  0.00     0.022 A 
BRANCH  95  99
ATOM     99  S   UNL A   1      41.607  35.318  38.947  1.00  0.00     0.124 S 
ATOM    100  O   UNL A   1      42.592  34.271  39.200  1.00  0.00    -0.237 OA
ATOM    101  O   UNL A   1      42.124  36.552  38.365  1.00  0.00    -0.237 OA
ATOM    102  O   UNL A   1      40.612  35.501  40.003  1.00  0.00    -0.744 OA
ENDBRANCH  95  99
ENDBRANCH  69  92
ENDBRANCH  43  44
ENDBRANCH  35  38
ENDBRANCH  33  34
ENDBRANCH  32  33
ENDBRANCH   1  32
TORSDOF 18
ENDMDL
MODEL 2
REMARK VINA RESULT:      -9.5      3.528     10.208
REMARK SMILES C[C@@H](C(=O)NCCCNC(=O)c1ccc(-c2c3nc(c(-c4cc(S(=O)(=O)[O-])ccc4F)c4ccc([nH]4)c(-c4cc(S(=O)(=O)[O-])ccc4F)c4nc(c(-c5cc(S(=O)(=O)[O-])ccc5F)c5ccc2[nH]5)C=C4)C=C3)cc1)c1ccc(-c2cccc(OC(=O)Nc3ccccc3)c2)c(F)c1
REMARK SMILES IDX 6 1 5 2 3 3 4 4 2 6 1 7 75 8 76 9 97 10 77 11 95 12 78 13
REMARK SMILES IDX 96 14 79 15 80 16 94 17 81 18 83 19 82 20 84 21 85 22 86 23
REMARK SMILES IDX 87 24 88 26 89 27 93 28 90 29 92 30 91 31 7 32 8 33 9 34
REMARK SMILES IDX 10 35 11 37 12 38 13 39 74 40 14 41 73 42 15 43 16 44 17 45
REMARK SMILES IDX 67 46 18 47 72 48 66 49 68 50 19 51 71 52 65 53 64 54 20 56
REMARK SMILES IDX 52 57 32 58 51 59 33 60 36 61 50 62 69 63 34 64 35 65 49 67
REMARK SMILES IDX 70 68 37 69 21 70 22 71 30 72 23 73 29 74 31 75 28 76 24 77
REMARK SMILES IDX 25 78 26 79 27 80 53 81 54 82 62 83 55 84 61 85 63 86 60 87
REMARK SMILES IDX 56 88 57 89 58 90 59 91 38 92 39 93 47 94 40 95 46 96 48 97
REMARK SMILES IDX 45 98 41 99 42 100 43 101 44 102
REMARK H PARENT 5 5 87 25 9 36 68 55 36 66
REMARK Flexibility Score: inf
ROOT
ATOM      1  C   UNL A   1      34.966  34.807  28.721  1.00  0.00     0.117 C 
ENDROOT
BRANCH   1   2
ATOM      2  N   UNL A   1      34.599  35.215  30.063  1.00  0.00    -0.356 N 
ATOM      3  C   UNL A   1      34.691  34.559  31.255  1.00  0.00     0.227 C 
ATOM      4  O   UNL A   1      34.044  35.058  32.177  1.00  0.00    -0.274 OA
ATOM      5  H   UNL A   1      34.218  36.121  30.123  1.00  0.00     0.163 HD
BRANCH   3   6
ATOM      6  C   UNL A   1      35.548  33.287  31.374  1.00  0.00     0.105 C 
ATOM      7  C   UNL A   1      35.458  32.727  32.798  1.00  0.00     0.023 C 
BRANCH   6   8
ATOM      8  C   UNL A   1      37.026  33.384  30.977  1.00  0.00    -0.033 A 
ATOM      9  C   UNL A   1      37.543  33.030  29.725  1.00  0.00     0.005 A 
ATOM     10  C   UNL A   1      37.930  33.914  31.916  1.00  0.00     0.044 A 
ATOM     11  C   UNL A   1      38.898  33.203  29.417  1.00  0.00     0.012 A 
ATOM     12  C   UNL A   1      39.275  34.101  31.598  1.00  0.00     0.131 A 
ATOM     13  C   UNL A   1      39.791  33.749  30.346  1.00  0.00     0.018 A 
ATOM     14  F   UNL A   1      40.072  34.641  32.534  1.00  0.00    -0.206 F 
BRANCH  13  15
ATOM     15  C   UNL A   1      41.219  33.880  30.024  1.00  0.00    -0.012 A 
ATOM     16  C   UNL A   1      41.848  35.136  29.955  1.00  0.00     0.009 A 
ATOM     17  C   UNL A   1      41.977  32.737  29.724  1.00  0.00     0.056 A 
ATOM     18  C   UNL A   1      43.192  35.245  29.588  1.00  0.00     0.004 A 
ATOM     19  C   UNL A   1      43.306  32.850  29.336  1.00  0.00     0.133 A 
ATOM     20  C   UNL A   1      43.922  34.101  29.274  1.00  0.00     0.047 A 
BRANCH  19  21
ATOM     21  O   UNL A   1      44.117  31.755  28.954  1.00  0.00    -0.410 OA
BRANCH  21  22
ATOM     22  C   UNL A   1      44.409  30.639  29.736  1.00  0.00     0.417 C 
ATOM     23  O   UNL A   1      44.949  30.652  30.840  1.00  0.00    -0.224 OA
ATOM     24  N   UNL A   1      43.943  29.450  29.240  1.00  0.00    -0.291 N 
ATOM     25  H   UNL A   1      44.045  28.683  29.848  1.00  0.00     0.173 HD
BRANCH  24  26
ATOM     26  C   UNL A   1      43.346  29.144  28.009  1.00  0.00     0.044 A 
ATOM     27  C   UNL A   1      44.022  28.232  27.190  1.00  0.00     0.026 A 
ATOM     28  C   UNL A   1      42.151  29.706  27.557  1.00  0.00     0.026 A 
ATOM     29  C   UNL A   1      43.488  27.852  25.959  1.00  0.00     0.002 A 
ATOM     30  C   UNL A   1      41.624  29.337  26.316  1.00  0.00     0.002 A 
ATOM     31  C   UNL A   1      42.286  28.402  25.522  1.00  0.00     0.000 A 
ENDBRANCH  24  26
ENDBRANCH  21  22
ENDBRANCH  19  21
ENDBRANCH  13  15
ENDBRANCH   6   8
ENDBRANCH   3   6
ENDBRANCH   1   2
BRANCH   1  32
ATOM     32  C   UNL A   1      33.978  33.791  28.147  1.00  0.00     0.042 C 
BRANCH  32  33
ATOM     33  C   UNL A   1      34.139  32.369  28.677  1.00  0.00     0.118 C 
BRANCH  33  34
ATOM     34  N   UNL A   1      33.714  31.362  27.719  1.00  0.00    -0.352 N 
ATOM     35  C   UNL A   1      34.398  30.274  27.233  1.00  0.00     0.251 C 
ATOM     36  H   UNL A   1      32.803  31.477  27.366  1.00  0.00     0.163 HD
ATOM     37  O   UNL A   1      33.930  29.646  26.288  1.00  0.00    -0.269 OA
BRANCH  35  38
ATOM     38  C   UNL A   1      35.700  29.878  27.821  1.00  0.00     0.039 A 
ATOM     39  C   UNL A   1      35.715  29.324  29.103  1.00  0.00     0.014 A 
ATOM     40  C   UNL A   1      36.900  30.070  27.128  1.00  0.00     0.014 A 
ATOM     41  C   UNL A   1      36.924  28.903  29.665  1.00  0.00     0.010 A 
ATOM     42  C   UNL A   1      38.094  29.587  27.662  1.00  0.00     0.010 A 
ATOM     43  C   UNL A   1      38.120  28.999  28.936  1.00  0.00    -0.014 A 
BRANCH  43  44
ATOM     44  C   UNL A   1      39.403  28.496  29.494  1.00  0.00     0.031 A 
ATOM     45  C   UNL A   1      40.043  29.190  30.666  1.00  0.00     0.074 A 
ATOM     46  C   UNL A   1      40.020  27.449  28.912  1.00  0.00     0.049 A 
ATOM     47  N   UNL A   1      41.194  28.954  31.243  1.00  0.00    -0.248 NA
ATOM     48  C   UNL A   1      39.299  30.318  31.249  1.00  0.00     0.031 C 
ATOM     49  C   UNL A   1      39.516  26.710  27.752  1.00  0.00     0.029 A 
ATOM     50  N   UNL A   1      41.206  26.827  29.209  1.00  0.00    -0.354 N 
ATOM     51  C   UNL A   1      41.319  29.908  32.247  1.00  0.00     0.074 A 
ATOM     52  C   UNL A   1      40.151  30.759  32.162  1.00  0.00     0.031 C 
ATOM     53  C   UNL A   1      40.373  25.721  27.453  1.00  0.00     0.029 A 
ATOM     54  C   UNL A   1      41.510  25.782  28.367  1.00  0.00     0.049 A 
ATOM     55  H   UNL A   1      41.787  27.102  29.955  1.00  0.00     0.167 HD
ATOM     56  C   UNL A   1      42.306  30.048  33.169  1.00  0.00     0.034 A 
ATOM     57  C   UNL A   1      42.587  24.972  28.327  1.00  0.00     0.034 A 
ATOM     58  C   UNL A   1      43.459  29.183  33.250  1.00  0.00     0.049 A 
ATOM     59  C   UNL A   1      43.684  25.163  29.343  1.00  0.00     0.074 A 
ATOM     60  C   UNL A   1      44.493  29.208  34.170  1.00  0.00     0.029 A 
ATOM     61  N   UNL A   1      43.734  28.139  32.376  1.00  0.00    -0.354 N 
ATOM     62  N   UNL A   1      43.771  26.051  30.306  1.00  0.00    -0.248 NA
ATOM     63  C   UNL A   1      44.821  24.238  29.271  1.00  0.00     0.031 C 
ATOM     64  C   UNL A   1      45.421  28.222  33.818  1.00  0.00     0.029 A 
ATOM     65  C   UNL A   1      44.932  27.532  32.720  1.00  0.00     0.049 A 
ATOM     66  H   UNL A   1      43.161  27.869  31.622  1.00  0.00     0.167 HD
ATOM     67  C   UNL A   1      44.960  25.768  30.974  1.00  0.00     0.074 A 
ATOM     68  C   UNL A   1      45.547  24.623  30.310  1.00  0.00     0.031 C 
ATOM     69  C   UNL A   1      45.513  26.396  32.043  1.00  0.00     0.034 A 
BRANCH  56  70
ATOM     70  C   UNL A   1      42.186  31.195  34.144  1.00  0.00     0.023 A 
ATOM     71  C   UNL A   1      41.247  31.180  35.189  1.00  0.00     0.031 A 
ATOM     72  C   UNL A   1      43.005  32.330  34.012  1.00  0.00     0.131 A 
ATOM     73  C   UNL A   1      41.097  32.306  36.014  1.00  0.00     0.055 A 
ATOM     74  C   UNL A   1      42.906  33.416  34.886  1.00  0.00     0.041 A 
ATOM     75  F   UNL A   1      43.907  32.412  33.022  1.00  0.00    -0.206 F 
ATOM     76  C   UNL A   1      41.937  33.413  35.885  1.00  0.00     0.022 A 
BRANCH  73  77
ATOM     77  S   UNL A   1      39.696  32.354  37.164  1.00  0.00     0.124 S 
ATOM     78  O   UNL A   1      38.970  31.141  36.797  1.00  0.00    -0.237 OA
ATOM     79  O   UNL A   1      40.354  32.336  38.465  1.00  0.00    -0.237 OA
ATOM     80  O   UNL A   1      39.017  33.604  36.826  1.00  0.00    -0.744 OA
ENDBRANCH  73  77
ENDBRANCH  56  70
BRANCH  57  81
ATOM     81  C   UNL A   1      42.693  23.907  27.289  1.00  0.00     0.023 A 
ATOM     82  C   UNL A   1      41.940  22.726  27.389  1.00  0.00     0.031 A 
ATOM     83  C   UNL A   1      43.579  24.035  26.205  1.00  0.00     0.131 A 
ATOM     84  C   UNL A   1      42.119  21.701  26.447  1.00  0.00     0.055 A 
ATOM     85  C   UNL A   1      43.717  23.033  25.243  1.00  0.00     0.041 A 
ATOM     86  F   UNL A   1      44.317  25.147  26.059  1.00  0.00    -0.206 F 
ATOM     87  C   UNL A   1      42.993  21.851  25.369  1.00  0.00     0.022 A 
BRANCH  84  88
ATOM     88  S   UNL A   1      41.246  20.131  26.698  1.00  0.00     0.124 S 
ATOM     89  O   UNL A   1      41.521  19.434  25.447  1.00  0.00    -0.237 OA
ATOM     90  O   UNL A   1      41.908  19.604  27.886  1.00  0.00    -0.237 OA
ATOM     91  O   UNL A   1      39.857  20.542  26.893  1.00  0.00    -0.744 OA
ENDBRANCH  84  88
ENDBRANCH  57  81
BRANCH  69  92
ATOM     92  C   UNL A   1      46.796  25.819  32.585  1.00  0.00     0.023 A 
ATOM     93  C   UNL A   1      48.042  26.096  31.995  1.00  0.00     0.031 A 
ATOM     94  C   UNL A   1      46.769  24.965  33.702  1.00  0.00     0.131 A 
ATOM     95  C   UNL A   1      49.202  25.483  32.490  1.00  0.00     0.055 A 
ATOM     96  C   UNL A   1      47.934  24.403  34.226  1.00  0.00     0.041 A 
ATOM     97  F   UNL A   1      45.607  24.665  34.305  1.00  0.00    -0.206 F 
ATOM     98  C   UNL A   1      49.158  24.650  33.612  1.00  0.00     0.022 A 
BRANCH  95  99
ATOM     99  S   UNL A   1      50.763  25.719  31.596  1.00  0.00     0.124 S 
ATOM    100  O   UNL A   1      51.596  24.658  32.155  1.00  0.00    -0.237 OA
ATOM    101  O   UNL A   1      50.356  25.544  30.206  1.00  0.00    -0.237 OA
ATOM    102  O   UNL A   1      51.164  27.077  31.958  1.00  0.00    -0.744 OA
ENDBRANCH  95  99
ENDBRANCH  69  92
ENDBRANCH  43  44
ENDBRANCH  35  38
ENDBRANCH  33  34
ENDBRANCH  32  33
ENDBRANCH   1  32
TORSDOF 18
ENDMDL
MODEL 3
REMARK VINA RESULT:      -9.5      1.051      7.262
REMARK SMILES C[C@@H](C(=O)NCCCNC(=O)c1ccc(-c2c3nc(c(-c4cc(S(=O)(=O)[O-])ccc4F)c4ccc([nH]4)c(-c4cc(S(=O)(=O)[O-])ccc4F)c4nc(c(-c5cc(S(=O)(=O)[O-])ccc5F)c5ccc2[nH]5)C=C4)C=C3)cc1)c1ccc(-c2cccc(OC(=O)Nc3ccccc3)c2)c(F)c1
REMARK SMILES IDX 6 1 5 2 3 3 4 4 2 6 1 7 75 8 76 9 97 10 77 11 95 12 78 13
REMARK SMILES IDX 96 14 79 15 80 16 94 17 81 18 83 19 82 20 84 21 85 22 86 23
REMARK SMILES IDX 87 24 88 26 89 27 93 28 90 29 92 30 91 31 7 32 8 33 9 34
REMARK SMILES IDX 10 35 11 37 12 38 13 39 74 40 14 41 73 42 15 43 16 44 17 45
REMARK SMILES IDX 67 46 18 47 72 48 66 49 68 50 19 51 71 52 65 53 64 54 20 56
REMARK SMILES IDX 52 57 32 58 51 59 33 60 36 61 50 62 69 63 34 64 35 65 49 67
REMARK SMILES IDX 70 68 37 69 21 70 22 71 30 72 23 73 29 74 31 75 28 76 24 77
REMARK SMILES IDX 25 78 26 79 27 80 53 81 54 82 62 83 55 84 61 85 63 86 60 87
REMARK SMILES IDX 56 88 57 89 58 90 59 91 38 92 39 93 47 94 40 95 46 96 48 97
REMARK SMILES IDX 45 98 41 99 42 100 43 101 44 102
REMARK H PARENT 5 5 87 25 9 36 68 55 36 66
REMARK Flexibility Score: inf
ROOT
ATOM      1  C   UNL A   1      44.142  23.706  24.721  1.00  0.00     0.117 C 
ENDROOT
BRANCH   1   2
ATOM      2  N   UNL A   1      43.060  22.741  24.722  1.00  0.00    -0.356 N 
ATOM      3  C   UNL A   1      42.411  22.123  25.750  1.00  0.00     0.227 C 
ATOM      4  O   UNL A   1      41.727  21.151  25.427  1.00  0.00    -0.274 OA
ATOM      5  H   UNL A   1      42.739  22.489  23.826  1.00  0.00     0.163 HD
BRANCH   3   6
ATOM      6  C   UNL A   1      42.570  22.644  27.189  1.00  0.00     0.105 C 
ATOM      7  C   UNL A   1      42.244  21.527  28.187  1.00  0.00     0.023 C 
BRANCH   6   8
ATOM      8  C   UNL A   1      41.785  23.901  27.583  1.00  0.00    -0.033 A 
ATOM      9  C   UNL A   1      42.308  24.974  28.316  1.00  0.00     0.005 A 
ATOM     10  C   UNL A   1      40.456  24.017  27.138  1.00  0.00     0.044 A 
ATOM     11  C   UNL A   1      41.545  26.115  28.587  1.00  0.00     0.012 A 
ATOM     12  C   UNL A   1      39.706  25.165  27.395  1.00  0.00     0.131 A 
ATOM     13  C   UNL A   1      40.229  26.238  28.126  1.00  0.00     0.018 A 
ATOM     14  F   UNL A   1      38.455  25.218  26.911  1.00  0.00    -0.206 F 
BRANCH  13  15
ATOM     15  C   UNL A   1      39.426  27.423  28.458  1.00  0.00    -0.012 A 
ATOM     16  C   UNL A   1      39.430  28.570  27.646  1.00  0.00     0.009 A 
ATOM     17  C   UNL A   1      38.671  27.446  29.642  1.00  0.00     0.056 A 
ATOM     18  C   UNL A   1      38.707  29.709  28.010  1.00  0.00     0.004 A 
ATOM     19  C   UNL A   1      37.972  28.588  30.014  1.00  0.00     0.133 A 
ATOM     20  C   UNL A   1      37.980  29.720  29.198  1.00  0.00     0.047 A 
BRANCH  19  21
ATOM     21  O   UNL A   1      37.242  28.714  31.220  1.00  0.00    -0.410 OA
BRANCH  21  22
ATOM     22  C   UNL A   1      37.776  28.702  32.506  1.00  0.00     0.417 C 
ATOM     23  O   UNL A   1      38.110  27.703  33.140  1.00  0.00    -0.224 OA
ATOM     24  N   UNL A   1      38.033  29.939  33.035  1.00  0.00    -0.291 N 
ATOM     25  H   UNL A   1      38.518  29.927  33.891  1.00  0.00     0.173 HD
BRANCH  24  26
ATOM     26  C   UNL A   1      37.719  31.220  32.560  1.00  0.00     0.044 A 
ATOM     27  C   UNL A   1      36.388  31.631  32.691  1.00  0.00     0.026 A 
ATOM     28  C   UNL A   1      38.638  32.079  31.955  1.00  0.00     0.026 A 
ATOM     29  C   UNL A   1      35.991  32.900  32.267  1.00  0.00     0.002 A 
ATOM     30  C   UNL A   1      38.237  33.344  31.516  1.00  0.00     0.002 A 
ATOM     31  C   UNL A   1      36.917  33.758  31.682  1.00  0.00     0.000 A 
ENDBRANCH  24  26
ENDBRANCH  21  22
ENDBRANCH  19  21
ENDBRANCH  13  15
ENDBRANCH   6   8
ENDBRANCH   3   6
ENDBRANCH   1   2
BRANCH   1  32
ATOM     32  C   UNL A   1      45.462  23.077  25.167  1.00  0.00     0.042 C 
BRANCH  32  33
ATOM     33  C   UNL A   1      46.465  24.052  25.777  1.00  0.00     0.118 C 
BRANCH  33  34
ATOM     34  N   UNL A   1      46.908  25.064  24.834  1.00  0.00    -0.352 N 
ATOM     35  C   UNL A   1      46.698  26.422  24.845  1.00  0.00     0.251 C 
ATOM     36  H   UNL A   1      47.438  24.728  24.076  1.00  0.00     0.163 HD
ATOM     37  O   UNL A   1      47.000  27.082  23.856  1.00  0.00    -0.269 OA
BRANCH  35  38
ATOM     38  C   UNL A   1      46.084  27.079  26.023  1.00  0.00     0.039 A 
ATOM     39  C   UNL A   1      46.920  27.538  27.045  1.00  0.00     0.014 A 
ATOM     40  C   UNL A   1      44.698  27.226  26.136  1.00  0.00     0.014 A 
ATOM     41  C   UNL A   1      46.372  28.199  28.148  1.00  0.00     0.010 A 
ATOM     42  C   UNL A   1      44.160  27.945  27.202  1.00  0.00     0.010 A 
ATOM     43  C   UNL A   1      44.990  28.439  28.221  1.00  0.00    -0.014 A 
BRANCH  43  44
ATOM     44  C   UNL A   1      44.400  29.198  29.354  1.00  0.00     0.031 A 
ATOM     45  C   UNL A   1      44.081  28.500  30.649  1.00  0.00     0.074 A 
ATOM     46  C   UNL A   1      44.101  30.504  29.202  1.00  0.00     0.049 A 
ATOM     47  N   UNL A   1      43.494  28.967  31.721  1.00  0.00    -0.248 NA
ATOM     48  C   UNL A   1      44.450  27.078  30.737  1.00  0.00     0.031 C 
ATOM     49  C   UNL A   1      44.335  31.287  27.986  1.00  0.00     0.029 A 
ATOM     50  N   UNL A   1      43.530  31.402  30.067  1.00  0.00    -0.354 N 
ATOM     51  C   UNL A   1      43.410  27.898  32.606  1.00  0.00     0.074 A 
ATOM     52  C   UNL A   1      43.958  26.746  31.921  1.00  0.00     0.031 C 
ATOM     53  C   UNL A   1      43.935  32.551  28.193  1.00  0.00     0.029 A 
ATOM     54  C   UNL A   1      43.374  32.661  29.536  1.00  0.00     0.049 A 
ATOM     55  H   UNL A   1      43.258  31.167  30.984  1.00  0.00     0.167 HD
ATOM     56  C   UNL A   1      42.940  27.882  33.879  1.00  0.00     0.034 A 
ATOM     57  C   UNL A   1      42.830  33.776  30.066  1.00  0.00     0.034 A 
ATOM     58  C   UNL A   1      42.409  29.042  34.554  1.00  0.00     0.049 A 
ATOM     59  C   UNL A   1      42.289  33.728  31.472  1.00  0.00     0.074 A 
ATOM     60  C   UNL A   1      41.948  29.148  35.856  1.00  0.00     0.029 A 
ATOM     61  N   UNL A   1      42.262  30.299  33.981  1.00  0.00    -0.354 N 
ATOM     62  N   UNL A   1      42.247  32.716  32.306  1.00  0.00    -0.248 NA
ATOM     63  C   UNL A   1      41.731  34.975  32.009  1.00  0.00     0.031 C 
ATOM     64  C   UNL A   1      41.467  30.447  36.050  1.00  0.00     0.029 A 
ATOM     65  C   UNL A   1      41.694  31.176  34.893  1.00  0.00     0.049 A 
ATOM     66  H   UNL A   1      42.523  30.533  33.061  1.00  0.00     0.167 HD
ATOM     67  C   UNL A   1      41.686  33.215  33.478  1.00  0.00     0.074 A 
ATOM     68  C   UNL A   1      41.418  34.619  33.245  1.00  0.00     0.031 C 
ATOM     69  C   UNL A   1      41.422  32.572  34.645  1.00  0.00     0.034 A 
BRANCH  56  70
ATOM     70  C   UNL A   1      42.960  26.560  34.610  1.00  0.00     0.023 A 
ATOM     71  C   UNL A   1      44.162  25.978  35.050  1.00  0.00     0.031 A 
ATOM     72  C   UNL A   1      41.765  25.860  34.848  1.00  0.00     0.131 A 
ATOM     73  C   UNL A   1      44.151  24.704  35.635  1.00  0.00     0.055 A 
ATOM     74  C   UNL A   1      41.753  24.626  35.504  1.00  0.00     0.041 A 
ATOM     75  F   UNL A   1      40.588  26.354  34.434  1.00  0.00    -0.206 F 
ATOM     76  C   UNL A   1      42.952  24.035  35.888  1.00  0.00     0.022 A 
BRANCH  73  77
ATOM     77  S   UNL A   1      45.736  23.876  35.935  1.00  0.00     0.124 S 
ATOM     78  O   UNL A   1      46.173  23.575  34.573  1.00  0.00    -0.237 OA
ATOM     79  O   UNL A   1      46.499  24.898  36.640  1.00  0.00    -0.237 OA
ATOM     80  O   UNL A   1      45.368  22.709  36.735  1.00  0.00    -0.744 OA
ENDBRANCH  73  77
ENDBRANCH  56  70
BRANCH  57  81
ATOM     81  C   UNL A   1      42.760  35.034  29.269  1.00  0.00     0.023 A 
ATOM     82  C   UNL A   1      43.886  35.860  29.127  1.00  0.00     0.031 A 
ATOM     83  C   UNL A   1      41.557  35.449  28.672  1.00  0.00     0.131 A 
ATOM     84  C   UNL A   1      43.775  37.082  28.445  1.00  0.00     0.055 A 
ATOM     85  C   UNL A   1      41.463  36.642  27.953  1.00  0.00     0.041 A 
ATOM     86  F   UNL A   1      40.452  34.692  28.772  1.00  0.00    -0.206 F 
ATOM     87  C   UNL A   1      42.575  37.472  27.847  1.00  0.00     0.022 A 
BRANCH  84  88
ATOM     88  S   UNL A   1      45.209  38.194  28.419  1.00  0.00     0.124 S 
ATOM     89  O   UNL A   1      45.503  38.334  29.840  1.00  0.00    -0.237 OA
ATOM     90  O   UNL A   1      46.171  37.426  27.636  1.00  0.00    -0.237 OA
ATOM     91  O   UNL A   1      44.694  39.395  27.765  1.00  0.00    -0.744 OA
ENDBRANCH  84  88
ENDBRANCH  57  81
BRANCH  69  92
ATOM     92  C   UNL A   1      40.856  33.402  35.769  1.00  0.00     0.023 A 
ATOM     93  C   UNL A   1      41.684  34.097  36.668  1.00  0.00     0.031 A 
ATOM     94  C   UNL A   1      39.464  33.485  35.953  1.00  0.00     0.131 A 
ATOM     95  C   UNL A   1      41.117  34.801  37.740  1.00  0.00     0.055 A 
ATOM     96  C   UNL A   1      38.903  34.234  36.988  1.00  0.00     0.041 A 
ATOM     97  F   UNL A   1      38.626  32.841  35.125  1.00  0.00    -0.206 F 
ATOM     98  C   UNL A   1      39.730  34.886  37.897  1.00  0.00     0.022 A 
BRANCH  95  99
ATOM     99  S   UNL A   1      42.217  35.534  38.982  1.00  0.00     0.124 S 
ATOM    100  O   UNL A   1      41.613  36.847  39.187  1.00  0.00    -0.237 OA
ATOM    101  O   UNL A   1      42.099  34.597  40.095  1.00  0.00    -0.237 OA
ATOM    102  O   UNL A   1      43.521  35.548  38.320  1.00  0.00    -0.744 OA
ENDBRANCH  95  99
ENDBRANCH  69  92
ENDBRANCH  43  44
ENDBRANCH  35  38
ENDBRANCH  33  34
ENDBRANCH  32  33
ENDBRANCH   1  32
TORSDOF 18
ENDMDL
