MODEL 1
REMARK VINA RESULT:     -12.3      0.000      0.000
REMARK SMILES [NH3+][C@H](CS[C@@H]1CC(=O)N(c2ccc3ccccc3c2)C1=O)C(=O)NCCCNC(=O)c1ccc(-c2c3nc(c(-c4cc(S(=O)(=O)[O-])ccc4F)c4ccc([nH]4)c(-c4cc(S(=O)(=O)[O-])ccc4F)c4nc(c(-c5cc(S(=O)(=O)[O-])ccc5F)c5ccc2[nH]5)C=C4)C=C3)cc1
REMARK SMILES IDX 25 1 24 2 22 3 23 4 2 6 1 7 3 11 4 12 5 13 6 14 20 15 7 16
REMARK SMILES IDX 9 17 21 18 8 19 10 20 11 21 19 22 12 23 18 24 13 25 17 26
REMARK SMILES IDX 14 27 16 28 15 29 26 30 27 31 28 32 29 33 30 35 31 36 32 37
REMARK SMILES IDX 93 38 33 39 92 40 34 41 35 42 36 43 86 44 37 45 91 46 85 47
REMARK SMILES IDX 87 48 38 49 90 50 84 51 83 52 39 54 71 55 51 56 70 57 52 58
REMARK SMILES IDX 55 59 69 60 88 61 53 62 54 63 68 65 89 66 56 67 40 68 41 69
REMARK SMILES IDX 49 70 42 71 48 72 50 73 47 74 43 75 44 76 45 77 46 78 72 79
REMARK SMILES IDX 73 80 81 81 74 82 80 83 82 84 79 85 75 86 76 87 77 88 78 89
REMARK SMILES IDX 57 90 58 91 66 92 59 93 65 94 67 95 64 96 60 97 61 98 62 99
REMARK SMILES IDX 63 100
REMARK H PARENT 24 5 1 8 1 9 1 10 28 34 87 53 55 64
REMARK Flexibility Score: inf
ROOT
ATOM      1  C   UNL A   1      32.583  30.113  26.445  1.00  0.00     0.118 C 
ENDROOT
BRANCH   1   2
ATOM      2  N   UNL A   1      32.494  29.917  25.008  1.00  0.00    -0.351 N 
ATOM      3  C   UNL A   1      31.921  28.807  24.447  1.00  0.00     0.279 C 
ATOM      4  O   UNL A   1      30.855  28.981  23.849  1.00  0.00    -0.268 OA
ATOM      5  H   UNL A   1      32.862  30.610  24.413  1.00  0.00     0.163 HD
BRANCH   3   6
ATOM      6  C   UNL A   1      32.511  27.384  24.605  1.00  0.00     0.280 C 
BRANCH   6   7
ATOM      7  N   UNL A   1      33.712  27.228  23.749  1.00  0.00    -0.347 N 
ATOM      8  H   UNL A   1      33.902  26.236  23.607  1.00  0.00     0.345 HD
ATOM      9  H   UNL A   1      34.513  27.664  24.205  1.00  0.00     0.345 HD
ATOM     10  H   UNL A   1      33.548  27.675  22.848  1.00  0.00     0.345 HD
ENDBRANCH   6   7
BRANCH   6  11
ATOM     11  C   UNL A   1      31.589  26.139  24.568  1.00  0.00     0.145 C 
BRANCH  11  12
ATOM     12  S   UNL A   1      31.276  25.225  23.024  1.00  0.00    -0.141 SA
BRANCH  12  13
ATOM     13  C   UNL A   1      32.233  23.677  23.170  1.00  0.00     0.146 C 
ATOM     14  C   UNL A   1      31.745  22.941  24.403  1.00  0.00     0.125 C 
ATOM     15  C   UNL A   1      33.725  23.775  23.365  1.00  0.00     0.247 C 
ATOM     16  C   UNL A   1      32.987  22.487  25.098  1.00  0.00     0.235 C 
ATOM     17  N   UNL A   1      34.082  23.003  24.451  1.00  0.00    -0.250 N 
ATOM     18  O   UNL A   1      34.462  24.359  22.580  1.00  0.00    -0.273 OA
ATOM     19  O   UNL A   1      32.951  21.842  26.137  1.00  0.00    -0.274 OA
BRANCH  17  20
ATOM     20  C   UNL A   1      35.424  22.748  24.853  1.00  0.00     0.052 A 
ATOM     21  C   UNL A   1      36.216  23.758  25.412  1.00  0.00     0.027 A 
ATOM     22  C   UNL A   1      35.987  21.475  24.722  1.00  0.00     0.035 A 
ATOM     23  C   UNL A   1      37.505  23.481  25.890  1.00  0.00     0.011 A 
ATOM     24  C   UNL A   1      37.303  21.197  25.125  1.00  0.00    -0.016 A 
ATOM     25  C   UNL A   1      38.060  22.200  25.762  1.00  0.00    -0.018 A 
ATOM     26  C   UNL A   1      37.872  19.932  24.908  1.00  0.00     0.009 A 
ATOM     27  C   UNL A   1      39.340  21.884  26.247  1.00  0.00     0.009 A 
ATOM     28  C   UNL A   1      39.154  19.640  25.371  1.00  0.00     0.001 A 
ATOM     29  C   UNL A   1      39.877  20.608  26.061  1.00  0.00     0.001 A 
ENDBRANCH  17  20
ENDBRANCH  12  13
ENDBRANCH  11  12
ENDBRANCH   6  11
ENDBRANCH   3   6
ENDBRANCH   1   2
BRANCH   1  30
ATOM     30  C   UNL A   1      32.039  31.431  26.971  1.00  0.00     0.042 C 
BRANCH  30  31
ATOM     31  C   UNL A   1      33.073  32.472  27.381  1.00  0.00     0.118 C 
BRANCH  31  32
ATOM     32  N   UNL A   1      32.546  33.781  27.715  1.00  0.00    -0.352 N 
ATOM     33  C   UNL A   1      33.093  34.720  28.572  1.00  0.00     0.251 C 
ATOM     34  H   UNL A   1      31.699  34.032  27.281  1.00  0.00     0.163 HD
ATOM     35  O   UNL A   1      32.567  35.806  28.713  1.00  0.00    -0.269 OA
BRANCH  33  36
ATOM     36  C   UNL A   1      34.287  34.347  29.371  1.00  0.00     0.039 A 
ATOM     37  C   UNL A   1      34.079  33.764  30.622  1.00  0.00     0.014 A 
ATOM     38  C   UNL A   1      35.582  34.494  28.865  1.00  0.00     0.014 A 
ATOM     39  C   UNL A   1      35.165  33.249  31.334  1.00  0.00     0.010 A 
ATOM     40  C   UNL A   1      36.660  33.936  29.558  1.00  0.00     0.010 A 
ATOM     41  C   UNL A   1      36.459  33.290  30.790  1.00  0.00    -0.014 A 
BRANCH  41  42
ATOM     42  C   UNL A   1      37.594  32.627  31.490  1.00  0.00     0.031 A 
ATOM     43  C   UNL A   1      38.302  31.459  30.861  1.00  0.00     0.074 A 
ATOM     44  C   UNL A   1      37.968  33.055  32.714  1.00  0.00     0.049 A 
ATOM     45  N   UNL A   1      39.282  30.734  31.334  1.00  0.00    -0.248 NA
ATOM     46  C   UNL A   1      37.829  31.044  29.533  1.00  0.00     0.031 C 
ATOM     47  C   UNL A   1      37.347  34.161  33.446  1.00  0.00     0.029 A 
ATOM     48  N   UNL A   1      38.952  32.609  33.562  1.00  0.00    -0.354 N 
ATOM     49  C   UNL A   1      39.547  29.772  30.365  1.00  0.00     0.074 A 
ATOM     50  C   UNL A   1      38.584  29.978  29.302  1.00  0.00     0.031 C 
ATOM     51  C   UNL A   1      37.975  34.316  34.624  1.00  0.00     0.029 A 
ATOM     52  C   UNL A   1      39.015  33.298  34.752  1.00  0.00     0.049 A 
ATOM     53  H   UNL A   1      39.557  31.865  33.339  1.00  0.00     0.167 HD
ATOM     54  C   UNL A   1      40.514  28.820  30.354  1.00  0.00     0.034 A 
ATOM     55  C   UNL A   1      39.808  33.126  35.828  1.00  0.00     0.034 A 
ATOM     56  C   UNL A   1      41.471  28.625  31.416  1.00  0.00     0.049 A 
ATOM     57  C   UNL A   1      40.849  32.034  35.811  1.00  0.00     0.074 A 
ATOM     58  C   UNL A   1      42.516  27.718  31.477  1.00  0.00     0.029 A 
ATOM     59  N   UNL A   1      41.496  29.336  32.608  1.00  0.00    -0.354 N 
ATOM     60  N   UNL A   1      41.113  31.162  34.866  1.00  0.00    -0.248 NA
ATOM     61  C   UNL A   1      41.704  31.908  37.000  1.00  0.00     0.031 C 
ATOM     62  C   UNL A   1      43.131  27.837  32.729  1.00  0.00     0.029 A 
ATOM     63  C   UNL A   1      42.518  28.867  33.422  1.00  0.00     0.049 A 
ATOM     64  H   UNL A   1      40.879  30.067  32.842  1.00  0.00     0.167 HD
ATOM     65  C   UNL A   1      42.188  30.411  35.333  1.00  0.00     0.074 A 
ATOM     66  C   UNL A   1      42.524  30.931  36.642  1.00  0.00     0.031 C 
ATOM     67  C   UNL A   1      42.846  29.390  34.726  1.00  0.00     0.034 A 
BRANCH  54  68
ATOM     68  C   UNL A   1      40.560  27.898  29.160  1.00  0.00     0.023 A 
ATOM     69  C   UNL A   1      41.508  28.065  28.136  1.00  0.00     0.031 A 
ATOM     70  C   UNL A   1      39.631  26.850  29.033  1.00  0.00     0.131 A 
ATOM     71  C   UNL A   1      41.460  27.248  26.997  1.00  0.00     0.055 A 
ATOM     72  C   UNL A   1      39.638  25.990  27.933  1.00  0.00     0.041 A 
ATOM     73  F   UNL A   1      38.690  26.653  29.970  1.00  0.00    -0.206 F 
ATOM     74  C   UNL A   1      40.546  26.196  26.899  1.00  0.00     0.022 A 
BRANCH  71  75
ATOM     75  S   UNL A   1      42.513  27.671  25.583  1.00  0.00     0.124 S 
ATOM     76  O   UNL A   1      41.840  28.858  25.060  1.00  0.00    -0.237 OA
ATOM     77  O   UNL A   1      43.809  27.896  26.213  1.00  0.00    -0.237 OA
ATOM     78  O   UNL A   1      42.431  26.489  24.728  1.00  0.00    -0.744 OA
ENDBRANCH  71  75
ENDBRANCH  54  68
BRANCH  55  79
ATOM     79  C   UNL A   1      39.645  33.992  37.031  1.00  0.00     0.023 A 
ATOM     80  C   UNL A   1      39.028  33.509  38.196  1.00  0.00     0.031 A 
ATOM     81  C   UNL A   1      40.064  35.334  37.016  1.00  0.00     0.131 A 
ATOM     82  C   UNL A   1      38.806  34.372  39.279  1.00  0.00     0.055 A 
ATOM     83  C   UNL A   1      39.887  36.176  38.114  1.00  0.00     0.041 A 
ATOM     84  F   UNL A   1      40.664  35.845  35.928  1.00  0.00    -0.206 F 
ATOM     85  C   UNL A   1      39.243  35.699  39.252  1.00  0.00     0.022 A 
BRANCH  82  86
ATOM     86  S   UNL A   1      37.864  33.757  40.703  1.00  0.00     0.124 S 
ATOM     87  O   UNL A   1      38.828  32.861  41.331  1.00  0.00    -0.237 OA
ATOM     88  O   UNL A   1      37.566  34.990  41.424  1.00  0.00    -0.237 OA
ATOM     89  O   UNL A   1      36.710  33.102  40.089  1.00  0.00    -0.744 OA
ENDBRANCH  82  86
ENDBRANCH  55  79
BRANCH  67  90
ATOM     90  C   UNL A   1      44.036  28.808  35.447  1.00  0.00     0.023 A 
ATOM     91  C   UNL A   1      43.910  27.748  36.361  1.00  0.00     0.031 A 
ATOM     92  C   UNL A   1      45.323  29.319  35.199  1.00  0.00     0.131 A 
ATOM     93  C   UNL A   1      45.047  27.257  37.022  1.00  0.00     0.055 A 
ATOM     94  C   UNL A   1      46.456  28.795  35.823  1.00  0.00     0.041 A 
ATOM     95  F   UNL A   1      45.500  30.333  34.336  1.00  0.00    -0.206 F 
ATOM     96  C   UNL A   1      46.320  27.764  36.746  1.00  0.00     0.022 A 
BRANCH  93  97
ATOM     97  S   UNL A   1      44.837  25.980  38.294  1.00  0.00     0.124 S 
ATOM     98  O   UNL A   1      44.468  24.815  37.497  1.00  0.00    -0.237 OA
ATOM     99  O   UNL A   1      46.158  25.935  38.914  1.00  0.00    -0.237 OA
ATOM    100  O   UNL A   1      43.774  26.512  39.145  1.00  0.00    -0.744 OA
ENDBRANCH  93  97
ENDBRANCH  67  90
ENDBRANCH  41  42
ENDBRANCH  33  36
ENDBRANCH  31  32
ENDBRANCH  30  31
ENDBRANCH   1  30
TORSDOF 18
ENDMDL
MODEL 2
REMARK VINA RESULT:     -12.2      3.382      8.553
REMARK SMILES [NH3+][C@H](CS[C@@H]1CC(=O)N(c2ccc3ccccc3c2)C1=O)C(=O)NCCCNC(=O)c1ccc(-c2c3nc(c(-c4cc(S(=O)(=O)[O-])ccc4F)c4ccc([nH]4)c(-c4cc(S(=O)(=O)[O-])ccc4F)c4nc(c(-c5cc(S(=O)(=O)[O-])ccc5F)c5ccc2[nH]5)C=C4)C=C3)cc1
REMARK SMILES IDX 25 1 24 2 22 3 23 4 2 6 1 7 3 11 4 12 5 13 6 14 20 15 7 16
REMARK SMILES IDX 9 17 21 18 8 19 10 20 11 21 19 22 12 23 18 24 13 25 17 26
REMARK SMILES IDX 14 27 16 28 15 29 26 30 27 31 28 32 29 33 30 35 31 36 32 37
REMARK SMILES IDX 93 38 33 39 92 40 34 41 35 42 36 43 86 44 37 45 91 46 85 47
REMARK SMILES IDX 87 48 38 49 90 50 84 51 83 52 39 54 71 55 51 56 70 57 52 58
REMARK SMILES IDX 55 59 69 60 88 61 53 62 54 63 68 65 89 66 56 67 40 68 41 69
REMARK SMILES IDX 49 70 42 71 48 72 50 73 47 74 43 75 44 76 45 77 46 78 72 79
REMARK SMILES IDX 73 80 81 81 74 82 80 83 82 84 79 85 75 86 76 87 77 88 78 89
REMARK SMILES IDX 57 90 58 91 66 92 59 93 65 94 67 95 64 96 60 97 61 98 62 99
REMARK SMILES IDX 63 100
REMARK H PARENT 24 5 1 8 1 9 1 10 28 34 87 53 55 64
REMARK Flexibility Score: inf
ROOT
ATOM      1  C   UNL A   1      31.525  29.967  25.266  1.00  0.00     0.118 C 
ENDROOT
BRANCH   1   2
ATOM      2  N   UNL A   1      31.082  29.879  23.884  1.00  0.00    -0.351 N 
ATOM      3  C   UNL A   1      30.422  28.787  23.387  1.00  0.00     0.279 C 
ATOM      4  O   UNL A   1      29.234  28.951  23.092  1.00  0.00    -0.268 OA
ATOM      5  H   UNL A   1      31.265  30.635  23.281  1.00  0.00     0.163 HD
BRANCH   3   6
ATOM      6  C   UNL A   1      31.077  27.390  23.266  1.00  0.00     0.280 C 
BRANCH   6   7
ATOM      7  N   UNL A   1      31.221  27.012  21.839  1.00  0.00    -0.347 N 
ATOM      8  H   UNL A   1      31.855  26.217  21.760  1.00  0.00     0.345 HD
ATOM      9  H   UNL A   1      31.599  27.802  21.316  1.00  0.00     0.345 HD
ATOM     10  H   UNL A   1      30.309  26.759  21.461  1.00  0.00     0.345 HD
ENDBRANCH   6   7
BRANCH   6  11
ATOM     11  C   UNL A   1      30.590  26.212  24.147  1.00  0.00     0.145 C 
BRANCH  11  12
ATOM     12  S   UNL A   1      30.720  26.256  25.963  1.00  0.00    -0.141 SA
BRANCH  12  13
ATOM     13  C   UNL A   1      32.172  25.229  26.375  1.00  0.00     0.146 C 
ATOM     14  C   UNL A   1      33.334  25.700  25.521  1.00  0.00     0.125 C 
ATOM     15  C   UNL A   1      32.097  23.747  26.110  1.00  0.00     0.247 C 
ATOM     16  C   UNL A   1      33.967  24.449  25.007  1.00  0.00     0.235 C 
ATOM     17  N   UNL A   1      33.205  23.370  25.379  1.00  0.00    -0.250 N 
ATOM     18  O   UNL A   1      31.234  23.026  26.597  1.00  0.00    -0.273 OA
ATOM     19  O   UNL A   1      34.955  24.470  24.285  1.00  0.00    -0.274 OA
BRANCH  17  20
ATOM     20  C   UNL A   1      33.541  22.024  25.059  1.00  0.00     0.052 A 
ATOM     21  C   UNL A   1      34.677  21.413  25.605  1.00  0.00     0.027 A 
ATOM     22  C   UNL A   1      32.737  21.262  24.206  1.00  0.00     0.035 A 
ATOM     23  C   UNL A   1      34.955  20.061  25.361  1.00  0.00     0.011 A 
ATOM     24  C   UNL A   1      33.042  19.928  23.888  1.00  0.00    -0.016 A 
ATOM     25  C   UNL A   1      34.139  19.301  24.509  1.00  0.00    -0.018 A 
ATOM     26  C   UNL A   1      32.264  19.211  22.966  1.00  0.00     0.009 A 
ATOM     27  C   UNL A   1      34.378  17.939  24.258  1.00  0.00     0.009 A 
ATOM     28  C   UNL A   1      32.528  17.867  22.706  1.00  0.00     0.001 A 
ATOM     29  C   UNL A   1      33.569  17.226  23.370  1.00  0.00     0.001 A 
ENDBRANCH  17  20
ENDBRANCH  12  13
ENDBRANCH  11  12
ENDBRANCH   6  11
ENDBRANCH   3   6
ENDBRANCH   1   2
BRANCH   1  30
ATOM     30  C   UNL A   1      32.980  29.608  25.522  1.00  0.00     0.042 C 
BRANCH  30  31
ATOM     31  C   UNL A   1      33.427  29.603  26.978  1.00  0.00     0.118 C 
BRANCH  31  32
ATOM     32  N   UNL A   1      33.379  30.886  27.653  1.00  0.00    -0.352 N 
ATOM     33  C   UNL A   1      34.383  31.494  28.386  1.00  0.00     0.251 C 
ATOM     34  H   UNL A   1      32.533  31.382  27.582  1.00  0.00     0.163 HD
ATOM     35  O   UNL A   1      34.221  32.604  28.851  1.00  0.00    -0.269 OA
BRANCH  33  36
ATOM     36  C   UNL A   1      35.630  30.734  28.656  1.00  0.00     0.039 A 
ATOM     37  C   UNL A   1      36.757  31.039  27.891  1.00  0.00     0.014 A 
ATOM     38  C   UNL A   1      35.708  29.799  29.692  1.00  0.00     0.014 A 
ATOM     39  C   UNL A   1      37.990  30.468  28.220  1.00  0.00     0.010 A 
ATOM     40  C   UNL A   1      36.951  29.265  30.046  1.00  0.00     0.010 A 
ATOM     41  C   UNL A   1      38.108  29.612  29.326  1.00  0.00    -0.014 A 
BRANCH  41  42
ATOM     42  C   UNL A   1      39.442  29.106  29.752  1.00  0.00     0.031 A 
ATOM     43  C   UNL A   1      40.207  29.798  30.846  1.00  0.00     0.074 A 
ATOM     44  C   UNL A   1      39.986  28.041  29.126  1.00  0.00     0.049 A 
ATOM     45  N   UNL A   1      41.394  29.526  31.324  1.00  0.00    -0.248 NA
ATOM     46  C   UNL A   1      39.555  30.957  31.470  1.00  0.00     0.031 C 
ATOM     47  C   UNL A   1      39.360  27.296  28.032  1.00  0.00     0.029 A 
ATOM     48  N   UNL A   1      41.189  27.404  29.313  1.00  0.00    -0.354 N 
ATOM     49  C   UNL A   1      41.637  30.481  32.305  1.00  0.00     0.074 A 
ATOM     50  C   UNL A   1      40.492  31.369  32.312  1.00  0.00     0.031 C 
ATOM     51  C   UNL A   1      40.176  26.296  27.658  1.00  0.00     0.029 A 
ATOM     52  C   UNL A   1      41.399  26.351  28.453  1.00  0.00     0.049 A 
ATOM     53  H   UNL A   1      41.839  27.677  29.999  1.00  0.00     0.167 HD
ATOM     54  C   UNL A   1      42.705  30.595  33.135  1.00  0.00     0.034 A 
ATOM     55  C   UNL A   1      42.458  25.529  28.310  1.00  0.00     0.034 A 
ATOM     56  C   UNL A   1      43.839  29.704  33.122  1.00  0.00     0.049 A 
ATOM     57  C   UNL A   1      43.653  25.700  29.215  1.00  0.00     0.074 A 
ATOM     58  C   UNL A   1      44.948  29.709  33.952  1.00  0.00     0.029 A 
ATOM     59  N   UNL A   1      44.020  28.655  32.231  1.00  0.00    -0.354 N 
ATOM     60  N   UNL A   1      43.845  26.583  30.167  1.00  0.00    -0.248 NA
ATOM     61  C   UNL A   1      44.768  24.760  29.033  1.00  0.00     0.031 C 
ATOM     62  C   UNL A   1      45.826  28.707  33.522  1.00  0.00     0.029 A 
ATOM     63  C   UNL A   1      45.235  28.028  32.471  1.00  0.00     0.049 A 
ATOM     64  H   UNL A   1      43.380  28.394  31.529  1.00  0.00     0.167 HD
ATOM     65  C   UNL A   1      45.086  26.279  30.721  1.00  0.00     0.074 A 
ATOM     66  C   UNL A   1      45.597  25.133  29.998  1.00  0.00     0.031 C 
ATOM     67  C   UNL A   1      45.737  26.887  31.745  1.00  0.00     0.034 A 
BRANCH  54  68
ATOM     68  C   UNL A   1      42.703  31.749  34.107  1.00  0.00     0.023 A 
ATOM     69  C   UNL A   1      42.207  31.610  35.415  1.00  0.00     0.031 A 
ATOM     70  C   UNL A   1      43.184  33.012  33.716  1.00  0.00     0.131 A 
ATOM     71  C   UNL A   1      42.133  32.728  36.259  1.00  0.00     0.055 A 
ATOM     72  C   UNL A   1      43.181  34.102  34.587  1.00  0.00     0.041 A 
ATOM     73  F   UNL A   1      43.653  33.209  32.474  1.00  0.00    -0.206 F 
ATOM     74  C   UNL A   1      42.639  33.969  35.862  1.00  0.00     0.022 A 
BRANCH  71  75
ATOM     75  S   UNL A   1      41.237  32.571  37.827  1.00  0.00     0.124 S 
ATOM     76  O   UNL A   1      41.237  33.952  38.305  1.00  0.00    -0.237 OA
ATOM     77  O   UNL A   1      39.946  32.042  37.400  1.00  0.00    -0.237 OA
ATOM     78  O   UNL A   1      42.063  31.650  38.603  1.00  0.00    -0.744 OA
ENDBRANCH  71  75
ENDBRANCH  54  68
BRANCH  55  79
ATOM     79  C   UNL A   1      42.458  24.475  27.254  1.00  0.00     0.023 A 
ATOM     80  C   UNL A   1      41.669  23.320  27.382  1.00  0.00     0.031 A 
ATOM     81  C   UNL A   1      43.283  24.588  26.123  1.00  0.00     0.131 A 
ATOM     82  C   UNL A   1      41.756  22.305  26.418  1.00  0.00     0.055 A 
ATOM     83  C   UNL A   1      43.330  23.597  25.140  1.00  0.00     0.041 A 
ATOM     84  F   UNL A   1      44.054  25.674  25.950  1.00  0.00    -0.206 F 
ATOM     85  C   UNL A   1      42.572  22.440  25.292  1.00  0.00     0.022 A 
BRANCH  82  86
ATOM     86  S   UNL A   1      40.845  20.760  26.698  1.00  0.00     0.124 S 
ATOM     87  O   UNL A   1      40.884  20.652  28.151  1.00  0.00    -0.237 OA
ATOM     88  O   UNL A   1      39.545  21.067  26.109  1.00  0.00    -0.237 OA
ATOM     89  O   UNL A   1      41.634  19.765  25.974  1.00  0.00    -0.744 OA
ENDBRANCH  82  86
ENDBRANCH  55  79
BRANCH  67  90
ATOM     90  C   UNL A   1      47.050  26.286  32.185  1.00  0.00     0.023 A 
ATOM     91  C   UNL A   1      47.123  25.317  33.200  1.00  0.00     0.031 A 
ATOM     92  C   UNL A   1      48.246  26.686  31.562  1.00  0.00     0.131 A 
ATOM     93  C   UNL A   1      48.371  24.806  33.588  1.00  0.00     0.055 A 
ATOM     94  C   UNL A   1      49.480  26.138  31.919  1.00  0.00     0.041 A 
ATOM     95  F   UNL A   1      48.233  27.609  30.588  1.00  0.00    -0.206 F 
ATOM     96  C   UNL A   1      49.547  25.199  32.943  1.00  0.00     0.022 A 
BRANCH  93  97
ATOM     97  S   UNL A   1      48.450  23.657  34.990  1.00  0.00     0.124 S 
ATOM     98  O   UNL A   1      48.903  22.426  34.349  1.00  0.00    -0.237 OA
ATOM     99  O   UNL A   1      49.414  24.305  35.874  1.00  0.00    -0.237 OA
ATOM    100  O   UNL A   1      47.077  23.627  35.489  1.00  0.00    -0.744 OA
ENDBRANCH  93  97
ENDBRANCH  67  90
ENDBRANCH  41  42
ENDBRANCH  33  36
ENDBRANCH  31  32
ENDBRANCH  30  31
ENDBRANCH   1  30
TORSDOF 18
ENDMDL
MODEL 3
REMARK VINA RESULT:     -12.1      1.685      7.869
REMARK SMILES [NH3+][C@H](CS[C@@H]1CC(=O)N(c2ccc3ccccc3c2)C1=O)C(=O)NCCCNC(=O)c1ccc(-c2c3nc(c(-c4cc(S(=O)(=O)[O-])ccc4F)c4ccc([nH]4)c(-c4cc(S(=O)(=O)[O-])ccc4F)c4nc(c(-c5cc(S(=O)(=O)[O-])ccc5F)c5ccc2[nH]5)C=C4)C=C3)cc1
REMARK SMILES IDX 25 1 24 2 22 3 23 4 2 6 1 7 3 11 4 12 5 13 6 14 20 15 7 16
REMARK SMILES IDX 9 17 21 18 8 19 10 20 11 21 19 22 12 23 18 24 13 25 17 26
REMARK SMILES IDX 14 27 16 28 15 29 26 30 27 31 28 32 29 33 30 35 31 36 32 37
REMARK SMILES IDX 93 38 33 39 92 40 34 41 35 42 36 43 86 44 37 45 91 46 85 47
REMARK SMILES IDX 87 48 38 49 90 50 84 51 83 52 39 54 71 55 51 56 70 57 52 58
REMARK SMILES IDX 55 59 69 60 88 61 53 62 54 63 68 65 89 66 56 67 40 68 41 69
REMARK SMILES IDX 49 70 42 71 48 72 50 73 47 74 43 75 44 76 45 77 46 78 72 79
REMARK SMILES IDX 73 80 81 81 74 82 80 83 82 84 79 85 75 86 76 87 77 88 78 89
REMARK SMILES IDX 57 90 58 91 66 92 59 93 65 94 67 95 64 96 60 97 61 98 62 99
REMARK SMILES IDX 63 100
REMARK H PARENT 24 5 1 8 1 9 1 10 28 34 87 53 55 64
REMARK Flexibility Score: inf
ROOT
ATOM      1  C   UNL A   1      31.754  29.642  27.160  1.00  0.00     0.118 C 
ENDROOT
BRANCH   1   2
ATOM      2  N   UNL A   1      32.852  28.809  27.624  1.00  0.00    -0.351 N 
ATOM      3  C   UNL A   1      33.673  28.124  26.768  1.00  0.00     0.279 C 
ATOM      4  O   UNL A   1      34.841  28.518  26.694  1.00  0.00    -0.268 OA
ATOM      5  H   UNL A   1      33.011  28.733  28.592  1.00  0.00     0.163 HD
BRANCH   3   6
ATOM      6  C   UNL A   1      33.174  26.967  25.868  1.00  0.00     0.280 C 
BRANCH   6   7
ATOM      7  N   UNL A   1      34.219  25.920  25.753  1.00  0.00    -0.347 N 
ATOM      8  H   UNL A   1      33.791  25.044  25.450  1.00  0.00     0.345 HD
ATOM      9  H   UNL A   1      34.665  25.784  26.660  1.00  0.00     0.345 HD
ATOM     10  H   UNL A   1      34.917  26.211  25.070  1.00  0.00     0.345 HD
ENDBRANCH   6   7
BRANCH   6  11
ATOM     11  C   UNL A   1      32.478  27.263  24.517  1.00  0.00     0.145 C 
BRANCH  11  12
ATOM     12  S   UNL A   1      30.687  27.025  24.290  1.00  0.00    -0.141 SA
BRANCH  12  13
ATOM     13  C   UNL A   1      30.403  25.232  24.481  1.00  0.00     0.146 C 
ATOM     14  C   UNL A   1      30.293  24.932  25.964  1.00  0.00     0.125 C 
ATOM     15  C   UNL A   1      31.468  24.284  23.992  1.00  0.00     0.247 C 
ATOM     16  C   UNL A   1      31.128  23.711  26.174  1.00  0.00     0.235 C 
ATOM     17  N   UNL A   1      31.774  23.399  25.005  1.00  0.00    -0.250 N 
ATOM     18  O   UNL A   1      31.868  24.272  22.833  1.00  0.00    -0.273 OA
ATOM     19  O   UNL A   1      31.247  23.187  27.273  1.00  0.00    -0.274 OA
BRANCH  17  20
ATOM     20  C   UNL A   1      32.640  22.277  24.862  1.00  0.00     0.052 A 
ATOM     21  C   UNL A   1      34.000  22.368  25.184  1.00  0.00     0.027 A 
ATOM     22  C   UNL A   1      32.157  21.043  24.416  1.00  0.00     0.035 A 
ATOM     23  C   UNL A   1      34.830  21.240  25.130  1.00  0.00     0.011 A 
ATOM     24  C   UNL A   1      32.990  19.921  24.281  1.00  0.00    -0.016 A 
ATOM     25  C   UNL A   1      34.336  20.004  24.688  1.00  0.00    -0.018 A 
ATOM     26  C   UNL A   1      32.497  18.717  23.755  1.00  0.00     0.009 A 
ATOM     27  C   UNL A   1      35.135  18.850  24.640  1.00  0.00     0.009 A 
ATOM     28  C   UNL A   1      33.309  17.586  23.687  1.00  0.00     0.001 A 
ATOM     29  C   UNL A   1      34.619  17.646  24.152  1.00  0.00     0.001 A 
ENDBRANCH  17  20
ENDBRANCH  12  13
ENDBRANCH  11  12
ENDBRANCH   6  11
ENDBRANCH   3   6
ENDBRANCH   1   2
BRANCH   1  30
ATOM     30  C   UNL A   1      32.146  30.975  26.544  1.00  0.00     0.042 C 
BRANCH  30  31
ATOM     31  C   UNL A   1      33.157  31.806  27.324  1.00  0.00     0.118 C 
BRANCH  31  32
ATOM     32  N   UNL A   1      32.748  33.163  27.631  1.00  0.00    -0.352 N 
ATOM     33  C   UNL A   1      33.381  34.071  28.463  1.00  0.00     0.251 C 
ATOM     34  H   UNL A   1      31.921  33.476  27.199  1.00  0.00     0.163 HD
ATOM     35  O   UNL A   1      32.952  35.200  28.582  1.00  0.00    -0.269 OA
BRANCH  33  36
ATOM     36  C   UNL A   1      34.547  33.614  29.260  1.00  0.00     0.039 A 
ATOM     37  C   UNL A   1      34.309  32.733  30.317  1.00  0.00     0.014 A 
ATOM     38  C   UNL A   1      35.854  33.981  28.925  1.00  0.00     0.014 A 
ATOM     39  C   UNL A   1      35.388  32.151  30.987  1.00  0.00     0.010 A 
ATOM     40  C   UNL A   1      36.930  33.363  29.567  1.00  0.00     0.010 A 
ATOM     41  C   UNL A   1      36.707  32.425  30.590  1.00  0.00    -0.014 A 
BRANCH  41  42
ATOM     42  C   UNL A   1      37.850  31.707  31.219  1.00  0.00     0.031 A 
ATOM     43  C   UNL A   1      38.342  32.102  32.584  1.00  0.00     0.074 A 
ATOM     44  C   UNL A   1      38.474  30.720  30.543  1.00  0.00     0.049 A 
ATOM     45  N   UNL A   1      39.344  31.619  33.273  1.00  0.00    -0.248 NA
ATOM     46  C   UNL A   1      37.620  33.194  33.250  1.00  0.00     0.031 C 
ATOM     47  C   UNL A   1      38.112  30.257  29.202  1.00  0.00     0.029 A 
ATOM     48  N   UNL A   1      39.545  29.931  30.887  1.00  0.00    -0.354 N 
ATOM     49  C   UNL A   1      39.378  32.350  34.456  1.00  0.00     0.074 A 
ATOM     50  C   UNL A   1      38.327  33.342  34.362  1.00  0.00     0.031 C 
ATOM     51  C   UNL A   1      38.936  29.258  28.845  1.00  0.00     0.029 A 
ATOM     52  C   UNL A   1      39.910  29.033  29.910  1.00  0.00     0.049 A 
ATOM     53  H   UNL A   1      40.009  30.002  31.752  1.00  0.00     0.167 HD
ATOM     54  C   UNL A   1      40.196  32.194  35.528  1.00  0.00     0.034 A 
ATOM     55  C   UNL A   1      40.918  28.139  29.867  1.00  0.00     0.034 A 
ATOM     56  C   UNL A   1      41.239  31.200  35.614  1.00  0.00     0.049 A 
ATOM     57  C   UNL A   1      41.842  28.012  31.053  1.00  0.00     0.074 A 
ATOM     58  C   UNL A   1      42.090  30.934  36.673  1.00  0.00     0.029 A 
ATOM     59  N   UNL A   1      41.583  30.316  34.600  1.00  0.00    -0.354 N 
ATOM     60  N   UNL A   1      41.831  28.681  32.182  1.00  0.00    -0.248 NA
ATOM     61  C   UNL A   1      42.907  27.003  30.964  1.00  0.00     0.031 C 
ATOM     62  C   UNL A   1      42.988  29.936  36.278  1.00  0.00     0.029 A 
ATOM     63  C   UNL A   1      42.653  29.526  34.999  1.00  0.00     0.049 A 
ATOM     64  H   UNL A   1      41.135  30.257  33.725  1.00  0.00     0.167 HD
ATOM     65  C   UNL A   1      42.863  28.148  32.950  1.00  0.00     0.074 A 
ATOM     66  C   UNL A   1      43.475  27.102  32.157  1.00  0.00     0.031 C 
ATOM     67  C   UNL A   1      43.259  28.486  34.203  1.00  0.00     0.034 A 
BRANCH  54  68
ATOM     68  C   UNL A   1      40.009  33.147  36.683  1.00  0.00     0.023 A 
ATOM     69  C   UNL A   1      39.330  32.764  37.852  1.00  0.00     0.031 A 
ATOM     70  C   UNL A   1      40.498  34.464  36.607  1.00  0.00     0.131 A 
ATOM     71  C   UNL A   1      39.092  33.705  38.864  1.00  0.00     0.055 A 
ATOM     72  C   UNL A   1      40.328  35.373  37.652  1.00  0.00     0.041 A 
ATOM     73  F   UNL A   1      41.139  34.892  35.508  1.00  0.00    -0.206 F 
ATOM     74  C   UNL A   1      39.607  35.001  38.784  1.00  0.00     0.022 A 
BRANCH  71  75
ATOM     75  S   UNL A   1      37.979  33.252  40.222  1.00  0.00     0.124 S 
ATOM     76  O   UNL A   1      36.726  33.016  39.509  1.00  0.00    -0.237 OA
ATOM     77  O   UNL A   1      38.628  32.072  40.782  1.00  0.00    -0.237 OA
ATOM     78  O   UNL A   1      37.987  34.435  41.080  1.00  0.00    -0.744 OA
ENDBRANCH  71  75
ENDBRANCH  54  68
BRANCH  55  79
ATOM     79  C   UNL A   1      41.130  27.299  28.653  1.00  0.00     0.023 A 
ATOM     80  C   UNL A   1      42.153  27.593  27.737  1.00  0.00     0.031 A 
ATOM     81  C   UNL A   1      40.282  26.215  28.369  1.00  0.00     0.131 A 
ATOM     82  C   UNL A   1      42.272  26.841  26.558  1.00  0.00     0.055 A 
ATOM     83  C   UNL A   1      40.435  25.438  27.220  1.00  0.00     0.041 A 
ATOM     84  F   UNL A   1      39.291  25.888  29.215  1.00  0.00    -0.206 F 
ATOM     85  C   UNL A   1      41.429  25.758  26.299  1.00  0.00     0.022 A 
BRANCH  82  86
ATOM     86  S   UNL A   1      43.501  27.349  25.323  1.00  0.00     0.124 S 
ATOM     87  O   UNL A   1      42.653  27.854  24.251  1.00  0.00    -0.237 OA
ATOM     88  O   UNL A   1      44.273  28.346  26.059  1.00  0.00    -0.237 OA
ATOM     89  O   UNL A   1      44.215  26.109  25.025  1.00  0.00    -0.744 OA
ENDBRANCH  82  86
ENDBRANCH  55  79
BRANCH  67  90
ATOM     90  C   UNL A   1      44.371  27.675  34.820  1.00  0.00     0.023 A 
ATOM     91  C   UNL A   1      44.176  26.354  35.259  1.00  0.00     0.031 A 
ATOM     92  C   UNL A   1      45.654  28.237  34.957  1.00  0.00     0.131 A 
ATOM     93  C   UNL A   1      45.239  25.651  35.848  1.00  0.00     0.055 A 
ATOM     94  C   UNL A   1      46.719  27.516  35.499  1.00  0.00     0.041 A 
ATOM     95  F   UNL A   1      45.894  29.495  34.556  1.00  0.00    -0.206 F 
ATOM     96  C   UNL A   1      46.512  26.218  35.955  1.00  0.00     0.022 A 
BRANCH  93  97
ATOM     97  S   UNL A   1      44.926  23.997  36.525  1.00  0.00     0.124 S 
ATOM     98  O   UNL A   1      44.850  24.264  37.958  1.00  0.00    -0.237 OA
ATOM     99  O   UNL A   1      43.670  23.626  35.880  1.00  0.00    -0.237 OA
ATOM    100  O   UNL A   1      46.091  23.224  36.099  1.00  0.00    -0.744 OA
ENDBRANCH  93  97
ENDBRANCH  67  90
ENDBRANCH  41  42
ENDBRANCH  33  36
ENDBRANCH  31  32
ENDBRANCH  30  31
ENDBRANCH   1  30
TORSDOF 18
ENDMDL
