MODEL 1
REMARK VINA RESULT:     -12.4      0.000      0.000
REMARK SMILES COc1ccc(S(=O)(=O)N2C[C@H](C)C[C@H](C)C2)cc1C(=O)NCCCNC(=O)c1ccc(-c2c3nc(c(-c4cc(S(=O)(=O)[O-])ccc4F)c4ccc([nH]4)c(-c4cc(S(=O)(=O)[O-])ccc4F)c4nc(c(-c5cc(S(=O)(=O)[O-])ccc5F)c5ccc2[nH]5)C=C4)C=C3)cc1
REMARK SMILES IDX 24 1 23 2 22 3 20 4 21 5 19 7 3 8 4 9 5 10 18 11 6 12 2 13
REMARK SMILES IDX 1 14 7 15 8 16 9 17 10 18 11 19 17 20 12 21 15 22 13 23
REMARK SMILES IDX 14 24 16 25 25 26 26 27 27 28 28 30 29 31 30 32 91 33 31 34
REMARK SMILES IDX 90 35 32 36 33 37 34 38 84 39 35 40 89 41 83 42 85 43 36 44
REMARK SMILES IDX 88 45 82 46 81 47 37 49 69 50 49 51 68 52 50 53 53 54 67 55
REMARK SMILES IDX 86 56 51 57 52 58 66 60 87 61 54 62 38 63 39 64 47 65 40 66
REMARK SMILES IDX 46 67 48 68 45 69 41 70 42 71 43 72 44 73 70 74 71 75 79 76
REMARK SMILES IDX 72 77 78 78 80 79 77 80 73 81 74 82 75 83 76 84 55 85 56 86
REMARK SMILES IDX 64 87 57 88 63 89 65 90 62 91 58 92 59 93 60 94 61 95
REMARK H PARENT 22 6 26 29 85 48 53 59
REMARK Flexibility Score: inf
ROOT
ATOM      1  C   UNL A   1      32.318  29.804  25.267  1.00  0.00     0.042 C 
ENDROOT
BRANCH   1   2
ATOM      2  C   UNL A   1      33.572  28.958  25.101  1.00  0.00     0.118 C 
BRANCH   2   3
ATOM      3  N   UNL A   1      33.983  28.841  23.716  1.00  0.00    -0.352 N 
ATOM      4  C   UNL A   1      33.609  27.966  22.745  1.00  0.00     0.255 C 
ATOM      5  O   UNL A   1      34.126  28.093  21.634  1.00  0.00    -0.269 OA
ATOM      6  H   UNL A   1      34.645  29.511  23.430  1.00  0.00     0.163 HD
BRANCH   4   7
ATOM      7  C   UNL A   1      32.640  26.866  22.957  1.00  0.00     0.083 A 
ATOM      8  C   UNL A   1      31.251  26.981  22.979  1.00  0.00     0.131 A 
ATOM      9  C   UNL A   1      30.464  25.825  23.080  1.00  0.00     0.048 A 
ATOM     10  C   UNL A   1      31.050  24.552  23.036  1.00  0.00     0.025 A 
ATOM     11  C   UNL A   1      33.211  25.586  22.970  1.00  0.00     0.039 A 
ATOM     12  C   UNL A   1      32.437  24.434  22.951  1.00  0.00     0.083 A 
BRANCH   8  13
ATOM     13  O   UNL A   1      30.585  28.172  22.947  1.00  0.00    -0.496 OA
ATOM     14  C   UNL A   1      29.282  28.071  23.525  1.00  0.00     0.278 C 
ENDBRANCH   8  13
BRANCH  12  15
ATOM     15  S   UNL A   1      33.169  22.822  22.712  1.00  0.00     0.243 S 
ATOM     16  O   UNL A   1      32.075  21.900  22.550  1.00  0.00    -0.207 OA
ATOM     17  O   UNL A   1      34.167  23.000  21.666  1.00  0.00    -0.207 OA
BRANCH  15  18
ATOM     18  N   UNL A   1      34.007  22.438  24.123  1.00  0.00    -0.197 NA
ATOM     19  C   UNL A   1      35.466  22.576  24.248  1.00  0.00     0.105 C 
ATOM     20  C   UNL A   1      33.323  22.006  25.352  1.00  0.00     0.105 C 
ATOM     21  C   UNL A   1      35.796  23.623  25.317  1.00  0.00     0.001 C 
ATOM     22  C   UNL A   1      33.528  23.046  26.455  1.00  0.00     0.001 C 
ATOM     23  C   UNL A   1      37.298  23.712  25.580  1.00  0.00     0.009 C 
ATOM     24  C   UNL A   1      35.019  23.400  26.634  1.00  0.00     0.009 C 
ATOM     25  C   UNL A   1      32.909  22.588  27.775  1.00  0.00     0.009 C 
ENDBRANCH  15  18
ENDBRANCH  12  15
ENDBRANCH   4   7
ENDBRANCH   2   3
ENDBRANCH   1   2
BRANCH   1  26
ATOM     26  C   UNL A   1      32.038  30.269  26.693  1.00  0.00     0.118 C 
BRANCH  26  27
ATOM     27  N   UNL A   1      32.107  31.715  26.865  1.00  0.00    -0.352 N 
ATOM     28  C   UNL A   1      33.052  32.510  27.472  1.00  0.00     0.251 C 
ATOM     29  H   UNL A   1      31.347  32.207  26.480  1.00  0.00     0.163 HD
ATOM     30  O   UNL A   1      32.818  33.706  27.626  1.00  0.00    -0.269 OA
BRANCH  28  31
ATOM     31  C   UNL A   1      34.312  31.925  27.980  1.00  0.00     0.039 A 
ATOM     32  C   UNL A   1      35.409  32.761  28.204  1.00  0.00     0.014 A 
ATOM     33  C   UNL A   1      34.417  30.562  28.251  1.00  0.00     0.014 A 
ATOM     34  C   UNL A   1      36.566  32.245  28.795  1.00  0.00     0.010 A 
ATOM     35  C   UNL A   1      35.515  30.078  28.952  1.00  0.00     0.010 A 
ATOM     36  C   UNL A   1      36.608  30.910  29.229  1.00  0.00    -0.014 A 
BRANCH  36  37
ATOM     37  C   UNL A   1      37.782  30.355  29.958  1.00  0.00     0.031 A 
ATOM     38  C   UNL A   1      38.037  30.755  31.389  1.00  0.00     0.074 A 
ATOM     39  C   UNL A   1      38.666  29.572  29.308  1.00  0.00     0.049 A 
ATOM     40  N   UNL A   1      39.069  30.502  32.151  1.00  0.00    -0.248 NA
ATOM     41  C   UNL A   1      37.016  31.601  32.027  1.00  0.00     0.031 C 
ATOM     42  C   UNL A   1      38.574  29.170  27.903  1.00  0.00     0.029 A 
ATOM     43  N   UNL A   1      39.827  28.980  29.742  1.00  0.00    -0.354 N 
ATOM     44  C   UNL A   1      38.842  31.194  33.338  1.00  0.00     0.074 A 
ATOM     45  C   UNL A   1      37.610  31.931  33.162  1.00  0.00     0.031 C 
ATOM     46  C   UNL A   1      39.609  28.367  27.602  1.00  0.00     0.029 A 
ATOM     47  C   UNL A   1      40.464  28.233  28.777  1.00  0.00     0.049 A 
ATOM     48  H   UNL A   1      40.171  29.079  30.660  1.00  0.00     0.167 HD
ATOM     49  C   UNL A   1      39.576  31.191  34.480  1.00  0.00     0.034 A 
ATOM     50  C   UNL A   1      41.608  27.525  28.831  1.00  0.00     0.034 A 
ATOM     51  C   UNL A   1      40.772  30.405  34.658  1.00  0.00     0.049 A 
ATOM     52  C   UNL A   1      42.376  27.485  30.127  1.00  0.00     0.074 A 
ATOM     53  C   UNL A   1      41.557  30.266  35.789  1.00  0.00     0.029 A 
ATOM     54  N   UNL A   1      41.351  29.612  33.674  1.00  0.00    -0.354 N 
ATOM     55  N   UNL A   1      42.124  28.109  31.255  1.00  0.00    -0.248 NA
ATOM     56  C   UNL A   1      43.571  26.633  30.162  1.00  0.00     0.031 C 
ATOM     57  C   UNL A   1      42.633  29.426  35.478  1.00  0.00     0.029 A 
ATOM     58  C   UNL A   1      42.486  28.991  34.170  1.00  0.00     0.049 A 
ATOM     59  H   UNL A   1      41.005  29.507  32.759  1.00  0.00     0.167 HD
ATOM     60  C   UNL A   1      43.115  27.702  32.142  1.00  0.00     0.074 A 
ATOM     61  C   UNL A   1      43.956  26.767  31.422  1.00  0.00     0.031 C 
ATOM     62  C   UNL A   1      43.314  28.065  33.434  1.00  0.00     0.034 A 
BRANCH  49  63
ATOM     63  C   UNL A   1      39.099  32.072  35.612  1.00  0.00     0.023 A 
ATOM     64  C   UNL A   1      39.506  33.414  35.724  1.00  0.00     0.031 A 
ATOM     65  C   UNL A   1      38.272  31.554  36.623  1.00  0.00     0.131 A 
ATOM     66  C   UNL A   1      39.172  34.156  36.866  1.00  0.00     0.055 A 
ATOM     67  C   UNL A   1      37.863  32.328  37.712  1.00  0.00     0.041 A 
ATOM     68  F   UNL A   1      37.863  30.275  36.584  1.00  0.00    -0.206 F 
ATOM     69  C   UNL A   1      38.331  33.632  37.849  1.00  0.00     0.022 A 
BRANCH  66  70
ATOM     70  S   UNL A   1      39.990  35.755  37.125  1.00  0.00     0.124 S 
ATOM     71  O   UNL A   1      39.657  36.457  35.887  1.00  0.00    -0.237 OA
ATOM     72  O   UNL A   1      39.344  36.249  38.334  1.00  0.00    -0.237 OA
ATOM     73  O   UNL A   1      41.400  35.398  37.270  1.00  0.00    -0.744 OA
ENDBRANCH  66  70
ENDBRANCH  49  63
BRANCH  50  74
ATOM     74  C   UNL A   1      42.095  26.781  27.635  1.00  0.00     0.023 A 
ATOM     75  C   UNL A   1      41.839  25.408  27.490  1.00  0.00     0.031 A 
ATOM     76  C   UNL A   1      42.848  27.422  26.636  1.00  0.00     0.131 A 
ATOM     77  C   UNL A   1      42.371  24.709  26.396  1.00  0.00     0.055 A 
ATOM     78  C   UNL A   1      43.336  26.731  25.525  1.00  0.00     0.041 A 
ATOM     79  F   UNL A   1      43.109  28.737  26.721  1.00  0.00    -0.206 F 
ATOM     80  C   UNL A   1      43.109  25.363  25.407  1.00  0.00     0.022 A 
BRANCH  77  81
ATOM     81  S   UNL A   1      42.146  22.910  26.324  1.00  0.00     0.124 S 
ATOM     82  O   UNL A   1      42.648  22.600  24.990  1.00  0.00    -0.237 OA
ATOM     83  O   UNL A   1      42.970  22.458  27.440  1.00  0.00    -0.237 OA
ATOM     84  O   UNL A   1      40.706  22.740  26.505  1.00  0.00    -0.744 OA
ENDBRANCH  77  81
ENDBRANCH  50  74
BRANCH  62  85
ATOM     85  C   UNL A   1      44.459  27.403  34.158  1.00  0.00     0.023 A 
ATOM     86  C   UNL A   1      44.276  26.236  34.918  1.00  0.00     0.031 A 
ATOM     87  C   UNL A   1      45.747  27.964  34.100  1.00  0.00     0.131 A 
ATOM     88  C   UNL A   1      45.352  25.698  35.639  1.00  0.00     0.055 A 
ATOM     89  C   UNL A   1      46.826  27.392  34.775  1.00  0.00     0.041 A 
ATOM     90  F   UNL A   1      45.975  29.079  33.389  1.00  0.00    -0.206 F 
ATOM     91  C   UNL A   1      46.629  26.260  35.561  1.00  0.00     0.022 A 
BRANCH  88  92
ATOM     92  S   UNL A   1      45.040  24.303  36.755  1.00  0.00     0.124 S 
ATOM     93  O   UNL A   1      44.514  23.294  35.841  1.00  0.00    -0.237 OA
ATOM     94  O   UNL A   1      46.366  24.037  37.302  1.00  0.00    -0.237 OA
ATOM     95  O   UNL A   1      44.071  24.838  37.711  1.00  0.00    -0.744 OA
ENDBRANCH  88  92
ENDBRANCH  62  85
ENDBRANCH  36  37
ENDBRANCH  28  31
ENDBRANCH  26  27
ENDBRANCH   1  26
TORSDOF 16
ENDMDL
MODEL 2
REMARK VINA RESULT:     -12.2      1.843      2.530
REMARK SMILES COc1ccc(S(=O)(=O)N2C[C@H](C)C[C@H](C)C2)cc1C(=O)NCCCNC(=O)c1ccc(-c2c3nc(c(-c4cc(S(=O)(=O)[O-])ccc4F)c4ccc([nH]4)c(-c4cc(S(=O)(=O)[O-])ccc4F)c4nc(c(-c5cc(S(=O)(=O)[O-])ccc5F)c5ccc2[nH]5)C=C4)C=C3)cc1
REMARK SMILES IDX 24 1 23 2 22 3 20 4 21 5 19 7 3 8 4 9 5 10 18 11 6 12 2 13
REMARK SMILES IDX 1 14 7 15 8 16 9 17 10 18 11 19 17 20 12 21 15 22 13 23
REMARK SMILES IDX 14 24 16 25 25 26 26 27 27 28 28 30 29 31 30 32 91 33 31 34
REMARK SMILES IDX 90 35 32 36 33 37 34 38 84 39 35 40 89 41 83 42 85 43 36 44
REMARK SMILES IDX 88 45 82 46 81 47 37 49 69 50 49 51 68 52 50 53 53 54 67 55
REMARK SMILES IDX 86 56 51 57 52 58 66 60 87 61 54 62 38 63 39 64 47 65 40 66
REMARK SMILES IDX 46 67 48 68 45 69 41 70 42 71 43 72 44 73 70 74 71 75 79 76
REMARK SMILES IDX 72 77 78 78 80 79 77 80 73 81 74 82 75 83 76 84 55 85 56 86
REMARK SMILES IDX 64 87 57 88 63 89 65 90 62 91 58 92 59 93 60 94 61 95
REMARK H PARENT 22 6 26 29 85 48 53 59
REMARK Flexibility Score: inf
ROOT
ATOM      1  C   UNL A   1      32.224  28.903  27.097  1.00  0.00     0.042 C 
ENDROOT
BRANCH   1   2
ATOM      2  C   UNL A   1      32.496  27.428  26.842  1.00  0.00     0.118 C 
BRANCH   2   3
ATOM      3  N   UNL A   1      31.306  26.612  26.979  1.00  0.00    -0.352 N 
ATOM      4  C   UNL A   1      30.603  25.898  26.061  1.00  0.00     0.255 C 
ATOM      5  O   UNL A   1      29.610  25.285  26.454  1.00  0.00    -0.269 OA
ATOM      6  H   UNL A   1      30.947  26.567  27.895  1.00  0.00     0.163 HD
BRANCH   4   7
ATOM      7  C   UNL A   1      30.952  25.838  24.622  1.00  0.00     0.083 A 
ATOM      8  C   UNL A   1      30.954  26.907  23.727  1.00  0.00     0.131 A 
ATOM      9  C   UNL A   1      31.416  26.710  22.418  1.00  0.00     0.048 A 
ATOM     10  C   UNL A   1      31.990  25.489  22.035  1.00  0.00     0.025 A 
ATOM     11  C   UNL A   1      31.478  24.608  24.204  1.00  0.00     0.039 A 
ATOM     12  C   UNL A   1      32.046  24.437  22.949  1.00  0.00     0.083 A 
BRANCH   8  13
ATOM     13  O   UNL A   1      30.489  28.154  24.029  1.00  0.00    -0.496 OA
ATOM     14  C   UNL A   1      29.987  28.831  22.875  1.00  0.00     0.278 C 
ENDBRANCH   8  13
BRANCH  12  15
ATOM     15  S   UNL A   1      32.936  22.948  22.523  1.00  0.00     0.243 S 
ATOM     16  O   UNL A   1      31.981  22.072  21.897  1.00  0.00    -0.207 OA
ATOM     17  O   UNL A   1      34.127  23.397  21.814  1.00  0.00    -0.207 OA
BRANCH  15  18
ATOM     18  N   UNL A   1      33.462  22.249  23.963  1.00  0.00    -0.197 NA
ATOM     19  C   UNL A   1      32.748  21.145  24.622  1.00  0.00     0.105 C 
ATOM     20  C   UNL A   1      34.716  22.649  24.621  1.00  0.00     0.105 C 
ATOM     21  C   UNL A   1      33.639  19.898  24.652  1.00  0.00     0.001 C 
ATOM     22  C   UNL A   1      35.703  21.482  24.616  1.00  0.00     0.001 C 
ATOM     23  C   UNL A   1      32.995  18.760  25.442  1.00  0.00     0.009 C 
ATOM     24  C   UNL A   1      35.063  20.192  25.173  1.00  0.00     0.009 C 
ATOM     25  C   UNL A   1      36.983  21.831  25.373  1.00  0.00     0.009 C 
ENDBRANCH  15  18
ENDBRANCH  12  15
ENDBRANCH   4   7
ENDBRANCH   2   3
ENDBRANCH   1   2
BRANCH   1  26
ATOM     26  C   UNL A   1      33.131  29.868  26.339  1.00  0.00     0.118 C 
BRANCH  26  27
ATOM     27  N   UNL A   1      33.116  31.227  26.865  1.00  0.00    -0.352 N 
ATOM     28  C   UNL A   1      33.986  31.882  27.705  1.00  0.00     0.251 C 
ATOM     29  H   UNL A   1      32.351  31.770  26.566  1.00  0.00     0.163 HD
ATOM     30  O   UNL A   1      33.682  32.993  28.133  1.00  0.00    -0.269 OA
BRANCH  28  31
ATOM     31  C   UNL A   1      35.248  31.238  28.131  1.00  0.00     0.039 A 
ATOM     32  C   UNL A   1      36.424  31.992  28.151  1.00  0.00     0.014 A 
ATOM     33  C   UNL A   1      35.278  29.902  28.525  1.00  0.00     0.014 A 
ATOM     34  C   UNL A   1      37.599  31.433  28.663  1.00  0.00     0.010 A 
ATOM     35  C   UNL A   1      36.409  29.390  29.149  1.00  0.00     0.010 A 
ATOM     36  C   UNL A   1      37.587  30.145  29.222  1.00  0.00    -0.014 A 
BRANCH  36  37
ATOM     37  C   UNL A   1      38.792  29.559  29.873  1.00  0.00     0.031 A 
ATOM     38  C   UNL A   1      39.218  30.037  31.238  1.00  0.00     0.074 A 
ATOM     39  C   UNL A   1      39.552  28.670  29.201  1.00  0.00     0.049 A 
ATOM     40  N   UNL A   1      40.304  29.763  31.912  1.00  0.00    -0.248 NA
ATOM     41  C   UNL A   1      38.325  30.996  31.906  1.00  0.00     0.031 C 
ATOM     42  C   UNL A   1      39.290  28.180  27.846  1.00  0.00     0.029 A 
ATOM     43  N   UNL A   1      40.710  28.028  29.563  1.00  0.00    -0.354 N 
ATOM     44  C   UNL A   1      40.246  30.550  33.060  1.00  0.00     0.074 A 
ATOM     45  C   UNL A   1      39.053  31.360  32.949  1.00  0.00     0.031 C 
ATOM     46  C   UNL A   1      40.234  27.286  27.508  1.00  0.00     0.029 A 
ATOM     47  C   UNL A   1      41.195  27.173  28.600  1.00  0.00     0.049 A 
ATOM     48  H   UNL A   1      41.152  28.166  30.432  1.00  0.00     0.167 HD
ATOM     49  C   UNL A   1      41.091  30.573  34.122  1.00  0.00     0.034 A 
ATOM     50  C   UNL A   1      42.290  26.389  28.595  1.00  0.00     0.034 A 
ATOM     51  C   UNL A   1      42.245  29.717  34.240  1.00  0.00     0.049 A 
ATOM     52  C   UNL A   1      43.183  26.384  29.810  1.00  0.00     0.074 A 
ATOM     53  C   UNL A   1      43.132  29.601  35.296  1.00  0.00     0.029 A 
ATOM     54  N   UNL A   1      42.668  28.819  33.267  1.00  0.00    -0.354 N 
ATOM     55  N   UNL A   1      43.089  27.101  30.906  1.00  0.00    -0.248 NA
ATOM     56  C   UNL A   1      44.317  25.452  29.792  1.00  0.00     0.031 C 
ATOM     57  C   UNL A   1      44.113  28.665  34.946  1.00  0.00     0.029 A 
ATOM     58  C   UNL A   1      43.806  28.153  33.696  1.00  0.00     0.049 A 
ATOM     59  H   UNL A   1      42.224  28.675  32.401  1.00  0.00     0.167 HD
ATOM     60  C   UNL A   1      44.138  26.685  31.720  1.00  0.00     0.074 A 
ATOM     61  C   UNL A   1      44.838  25.644  30.995  1.00  0.00     0.031 C 
ATOM     62  C   UNL A   1      44.492  27.121  32.956  1.00  0.00     0.034 A 
BRANCH  49  63
ATOM     63  C   UNL A   1      40.791  31.563  35.224  1.00  0.00     0.023 A 
ATOM     64  C   UNL A   1      39.680  31.408  36.072  1.00  0.00     0.031 A 
ATOM     65  C   UNL A   1      41.593  32.705  35.397  1.00  0.00     0.131 A 
ATOM     66  C   UNL A   1      39.343  32.423  36.980  1.00  0.00     0.055 A 
ATOM     67  C   UNL A   1      41.305  33.667  36.369  1.00  0.00     0.041 A 
ATOM     68  F   UNL A   1      42.657  32.919  34.608  1.00  0.00    -0.206 F 
ATOM     69  C   UNL A   1      40.163  33.540  37.153  1.00  0.00     0.022 A 
BRANCH  66  70
ATOM     70  S   UNL A   1      37.731  32.339  37.806  1.00  0.00     0.124 S 
ATOM     71  O   UNL A   1      37.469  30.901  37.791  1.00  0.00    -0.237 OA
ATOM     72  O   UNL A   1      38.013  32.923  39.112  1.00  0.00    -0.237 OA
ATOM     73  O   UNL A   1      36.860  33.133  36.942  1.00  0.00    -0.744 OA
ENDBRANCH  66  70
ENDBRANCH  49  63
BRANCH  50  74
ATOM     74  C   UNL A   1      42.603  25.532  27.418  1.00  0.00     0.023 A 
ATOM     75  C   UNL A   1      42.161  24.200  27.361  1.00  0.00     0.031 A 
ATOM     76  C   UNL A   1      43.371  26.018  26.346  1.00  0.00     0.131 A 
ATOM     77  C   UNL A   1      42.530  23.385  26.280  1.00  0.00     0.055 A 
ATOM     78  C   UNL A   1      43.697  25.217  25.249  1.00  0.00     0.041 A 
ATOM     79  F   UNL A   1      43.807  27.289  26.345  1.00  0.00    -0.206 F 
ATOM     80  C   UNL A   1      43.287  23.887  25.219  1.00  0.00     0.022 A 
BRANCH  77  81
ATOM     81  S   UNL A   1      42.067  21.631  26.318  1.00  0.00     0.124 S 
ATOM     82  O   UNL A   1      40.668  21.684  25.909  1.00  0.00    -0.237 OA
ATOM     83  O   UNL A   1      42.996  21.053  25.352  1.00  0.00    -0.237 OA
ATOM     84  O   UNL A   1      42.298  21.249  27.709  1.00  0.00    -0.744 OA
ENDBRANCH  77  81
ENDBRANCH  50  74
BRANCH  62  85
ATOM     85  C   UNL A   1      45.660  26.430  33.612  1.00  0.00     0.023 A 
ATOM     86  C   UNL A   1      45.490  25.274  34.392  1.00  0.00     0.031 A 
ATOM     87  C   UNL A   1      46.958  26.951  33.469  1.00  0.00     0.131 A 
ATOM     88  C   UNL A   1      46.593  24.709  35.049  1.00  0.00     0.055 A 
ATOM     89  C   UNL A   1      48.059  26.351  34.080  1.00  0.00     0.041 A 
ATOM     90  F   UNL A   1      47.174  28.053  32.734  1.00  0.00    -0.206 F 
ATOM     91  C   UNL A   1      47.878  25.232  34.886  1.00  0.00     0.022 A 
BRANCH  88  92
ATOM     92  S   UNL A   1      46.309  23.332  36.195  1.00  0.00     0.124 S 
ATOM     93  O   UNL A   1      46.472  23.978  37.493  1.00  0.00    -0.237 OA
ATOM     94  O   UNL A   1      44.952  22.917  35.856  1.00  0.00    -0.237 OA
ATOM     95  O   UNL A   1      47.356  22.373  35.845  1.00  0.00    -0.744 OA
ENDBRANCH  88  92
ENDBRANCH  62  85
ENDBRANCH  36  37
ENDBRANCH  28  31
ENDBRANCH  26  27
ENDBRANCH   1  26
TORSDOF 16
ENDMDL
MODEL 3
REMARK VINA RESULT:     -12.2      2.545      7.939
REMARK SMILES COc1ccc(S(=O)(=O)N2C[C@H](C)C[C@H](C)C2)cc1C(=O)NCCCNC(=O)c1ccc(-c2c3nc(c(-c4cc(S(=O)(=O)[O-])ccc4F)c4ccc([nH]4)c(-c4cc(S(=O)(=O)[O-])ccc4F)c4nc(c(-c5cc(S(=O)(=O)[O-])ccc5F)c5ccc2[nH]5)C=C4)C=C3)cc1
REMARK SMILES IDX 24 1 23 2 22 3 20 4 21 5 19 7 3 8 4 9 5 10 18 11 6 12 2 13
REMARK SMILES IDX 1 14 7 15 8 16 9 17 10 18 11 19 17 20 12 21 15 22 13 23
REMARK SMILES IDX 14 24 16 25 25 26 26 27 27 28 28 30 29 31 30 32 91 33 31 34
REMARK SMILES IDX 90 35 32 36 33 37 34 38 84 39 35 40 89 41 83 42 85 43 36 44
REMARK SMILES IDX 88 45 82 46 81 47 37 49 69 50 49 51 68 52 50 53 53 54 67 55
REMARK SMILES IDX 86 56 51 57 52 58 66 60 87 61 54 62 38 63 39 64 47 65 40 66
REMARK SMILES IDX 46 67 48 68 45 69 41 70 42 71 43 72 44 73 70 74 71 75 79 76
REMARK SMILES IDX 72 77 78 78 80 79 77 80 73 81 74 82 75 83 76 84 55 85 56 86
REMARK SMILES IDX 64 87 57 88 63 89 65 90 62 91 58 92 59 93 60 94 61 95
REMARK H PARENT 22 6 26 29 85 48 53 59
REMARK Flexibility Score: inf
ROOT
ATOM      1  C   UNL A   1      31.761  31.620  26.826  1.00  0.00     0.042 C 
ENDROOT
BRANCH   1   2
ATOM      2  C   UNL A   1      32.115  30.304  26.147  1.00  0.00     0.118 C 
BRANCH   2   3
ATOM      3  N   UNL A   1      33.288  29.679  26.726  1.00  0.00    -0.352 N 
ATOM      4  C   UNL A   1      33.874  28.479  26.476  1.00  0.00     0.255 C 
ATOM      5  O   UNL A   1      34.880  28.190  27.126  1.00  0.00    -0.269 OA
ATOM      6  H   UNL A   1      33.736  30.218  27.419  1.00  0.00     0.163 HD
BRANCH   4   7
ATOM      7  C   UNL A   1      33.360  27.501  25.490  1.00  0.00     0.083 A 
ATOM      8  C   UNL A   1      33.560  27.536  24.110  1.00  0.00     0.131 A 
ATOM      9  C   UNL A   1      33.101  26.474  23.319  1.00  0.00     0.048 A 
ATOM     10  C   UNL A   1      32.556  25.324  23.908  1.00  0.00     0.025 A 
ATOM     11  C   UNL A   1      32.763  26.367  26.055  1.00  0.00     0.039 A 
ATOM     12  C   UNL A   1      32.413  25.260  25.293  1.00  0.00     0.083 A 
BRANCH   8  13
ATOM     13  O   UNL A   1      34.151  28.577  23.453  1.00  0.00    -0.496 OA
ATOM     14  C   UNL A   1      34.068  28.428  22.034  1.00  0.00     0.278 C 
ENDBRANCH   8  13
BRANCH  12  15
ATOM     15  S   UNL A   1      31.890  23.731  26.054  1.00  0.00     0.243 S 
ATOM     16  O   UNL A   1      31.405  24.076  27.365  1.00  0.00    -0.207 OA
ATOM     17  O   UNL A   1      31.025  23.086  25.075  1.00  0.00    -0.207 OA
BRANCH  15  18
ATOM     18  N   UNL A   1      33.257  22.757  26.213  1.00  0.00    -0.197 NA
ATOM     19  C   UNL A   1      33.228  21.301  26.006  1.00  0.00     0.105 C 
ATOM     20  C   UNL A   1      34.590  23.311  26.497  1.00  0.00     0.105 C 
ATOM     21  C   UNL A   1      34.114  20.931  24.812  1.00  0.00     0.001 C 
ATOM     22  C   UNL A   1      35.522  23.062  25.310  1.00  0.00     0.001 C 
ATOM     23  C   UNL A   1      34.223  19.418  24.635  1.00  0.00     0.009 C 
ATOM     24  C   UNL A   1      35.514  21.579  24.883  1.00  0.00     0.009 C 
ATOM     25  C   UNL A   1      36.941  23.542  25.606  1.00  0.00     0.009 C 
ENDBRANCH  15  18
ENDBRANCH  12  15
ENDBRANCH   4   7
ENDBRANCH   2   3
ENDBRANCH   1   2
BRANCH   1  26
ATOM     26  C   UNL A   1      32.954  32.453  27.282  1.00  0.00     0.118 C 
BRANCH  26  27
ATOM     27  N   UNL A   1      32.620  33.835  27.603  1.00  0.00    -0.352 N 
ATOM     28  C   UNL A   1      33.126  34.691  28.553  1.00  0.00     0.251 C 
ATOM     29  H   UNL A   1      31.910  34.222  27.042  1.00  0.00     0.163 HD
ATOM     30  O   UNL A   1      32.576  35.774  28.737  1.00  0.00    -0.269 OA
BRANCH  28  31
ATOM     31  C   UNL A   1      34.285  34.294  29.382  1.00  0.00     0.039 A 
ATOM     32  C   UNL A   1      34.062  33.647  30.599  1.00  0.00     0.014 A 
ATOM     33  C   UNL A   1      35.591  34.543  28.961  1.00  0.00     0.014 A 
ATOM     34  C   UNL A   1      35.147  33.161  31.336  1.00  0.00     0.010 A 
ATOM     35  C   UNL A   1      36.657  33.951  29.627  1.00  0.00     0.010 A 
ATOM     36  C   UNL A   1      36.452  33.256  30.827  1.00  0.00    -0.014 A 
BRANCH  36  37
ATOM     37  C   UNL A   1      37.618  32.655  31.531  1.00  0.00     0.031 A 
ATOM     38  C   UNL A   1      38.382  31.523  30.893  1.00  0.00     0.074 A 
ATOM     39  C   UNL A   1      37.930  33.060  32.779  1.00  0.00     0.049 A 
ATOM     40  N   UNL A   1      39.329  30.773  31.394  1.00  0.00    -0.248 NA
ATOM     41  C   UNL A   1      37.986  31.152  29.525  1.00  0.00     0.031 C 
ATOM     42  C   UNL A   1      37.224  34.096  33.538  1.00  0.00     0.029 A 
ATOM     43  N   UNL A   1      38.917  32.642  33.637  1.00  0.00    -0.354 N 
ATOM     44  C   UNL A   1      39.607  29.815  30.422  1.00  0.00     0.074 A 
ATOM     45  C   UNL A   1      38.678  30.041  29.336  1.00  0.00     0.031 C 
ATOM     46  C   UNL A   1      37.825  34.259  34.729  1.00  0.00     0.029 A 
ATOM     47  C   UNL A   1      38.928  33.311  34.840  1.00  0.00     0.049 A 
ATOM     48  H   UNL A   1      39.559  31.930  33.411  1.00  0.00     0.167 HD
ATOM     49  C   UNL A   1      40.568  28.856  30.420  1.00  0.00     0.034 A 
ATOM     50  C   UNL A   1      39.731  33.172  35.912  1.00  0.00     0.034 A 
ATOM     51  C   UNL A   1      41.523  28.683  31.487  1.00  0.00     0.049 A 
ATOM     52  C   UNL A   1      40.831  32.143  35.865  1.00  0.00     0.074 A 
ATOM     53  C   UNL A   1      42.581  27.795  31.565  1.00  0.00     0.029 A 
ATOM     54  N   UNL A   1      41.538  29.422  32.664  1.00  0.00    -0.354 N 
ATOM     55  N   UNL A   1      41.110  31.275  34.920  1.00  0.00    -0.248 NA
ATOM     56  C   UNL A   1      41.733  32.087  37.022  1.00  0.00     0.031 C 
ATOM     57  C   UNL A   1      43.211  27.969  32.804  1.00  0.00     0.029 A 
ATOM     58  C   UNL A   1      42.582  29.006  33.475  1.00  0.00     0.049 A 
ATOM     59  H   UNL A   1      40.901  30.139  32.888  1.00  0.00     0.167 HD
ATOM     60  C   UNL A   1      42.238  30.589  35.358  1.00  0.00     0.074 A 
ATOM     61  C   UNL A   1      42.596  31.156  36.642  1.00  0.00     0.031 C 
ATOM     62  C   UNL A   1      42.919  29.582  34.755  1.00  0.00     0.034 A 
BRANCH  49  63
ATOM     63  C   UNL A   1      40.617  27.927  29.229  1.00  0.00     0.023 A 
ATOM     64  C   UNL A   1      41.573  28.084  28.209  1.00  0.00     0.031 A 
ATOM     65  C   UNL A   1      39.663  26.904  29.080  1.00  0.00     0.131 A 
ATOM     66  C   UNL A   1      41.493  27.305  27.046  1.00  0.00     0.055 A 
ATOM     67  C   UNL A   1      39.648  26.068  27.961  1.00  0.00     0.041 A 
ATOM     68  F   UNL A   1      38.714  26.715  30.010  1.00  0.00    -0.206 F 
ATOM     69  C   UNL A   1      40.553  26.279  26.926  1.00  0.00     0.022 A 
BRANCH  66  70
ATOM     70  S   UNL A   1      42.527  27.765  25.628  1.00  0.00     0.124 S 
ATOM     71  O   UNL A   1      41.758  28.867  25.052  1.00  0.00    -0.237 OA
ATOM     72  O   UNL A   1      43.789  28.129  26.261  1.00  0.00    -0.237 OA
ATOM     73  O   UNL A   1      42.560  26.548  24.819  1.00  0.00    -0.744 OA
ENDBRANCH  66  70
ENDBRANCH  49  63
BRANCH  50  74
ATOM     74  C   UNL A   1      39.546  34.034  37.113  1.00  0.00     0.023 A 
ATOM     75  C   UNL A   1      38.935  33.530  38.272  1.00  0.00     0.031 A 
ATOM     76  C   UNL A   1      39.948  35.381  37.111  1.00  0.00     0.131 A 
ATOM     77  C   UNL A   1      38.700  34.378  39.365  1.00  0.00     0.055 A 
ATOM     78  C   UNL A   1      39.755  36.209  38.219  1.00  0.00     0.041 A 
ATOM     79  F   UNL A   1      40.550  35.909  36.032  1.00  0.00    -0.206 F 
ATOM     80  C   UNL A   1      39.115  35.711  39.350  1.00  0.00     0.022 A 
BRANCH  77  81
ATOM     81  S   UNL A   1      37.774  33.729  40.783  1.00  0.00     0.124 S 
ATOM     82  O   UNL A   1      38.722  32.773  41.346  1.00  0.00    -0.237 OA
ATOM     83  O   UNL A   1      37.540  34.936  41.569  1.00  0.00    -0.237 OA
ATOM     84  O   UNL A   1      36.583  33.143  40.173  1.00  0.00    -0.744 OA
ENDBRANCH  77  81
ENDBRANCH  50  74
BRANCH  62  85
ATOM     85  C   UNL A   1      44.148  29.072  35.464  1.00  0.00     0.023 A 
ATOM     86  C   UNL A   1      44.079  28.031  36.404  1.00  0.00     0.031 A 
ATOM     87  C   UNL A   1      45.402  29.655  35.207  1.00  0.00     0.131 A 
ATOM     88  C   UNL A   1      45.234  27.642  37.099  1.00  0.00     0.055 A 
ATOM     89  C   UNL A   1      46.557  29.225  35.860  1.00  0.00     0.041 A 
ATOM     90  F   UNL A   1      45.522  30.653  34.318  1.00  0.00    -0.206 F 
ATOM     91  C   UNL A   1      46.475  28.223  36.822  1.00  0.00     0.022 A 
BRANCH  88  92
ATOM     92  S   UNL A   1      45.076  26.427  38.436  1.00  0.00     0.124 S 
ATOM     93  O   UNL A   1      45.960  26.981  39.456  1.00  0.00    -0.237 OA
ATOM     94  O   UNL A   1      43.649  26.475  38.735  1.00  0.00    -0.237 OA
ATOM     95  O   UNL A   1      45.540  25.182  37.825  1.00  0.00    -0.744 OA
ENDBRANCH  88  92
ENDBRANCH  62  85
ENDBRANCH  36  37
ENDBRANCH  28  31
ENDBRANCH  26  27
ENDBRANCH   1  26
TORSDOF 16
ENDMDL
