MODEL 1
REMARK VINA RESULT:     -12.5      0.000      0.000
REMARK SMILES NS(=O)(=O)c1ccc(-n2nc(C(=O)NCCCNC(=O)c3ccc(-c4c5nc(c(-c6cc(S(=O)(=O)[O-])ccc6F)c6ccc([nH]6)c(-c6cc(S(=O)(=O)[O-])ccc6F)c6nc(c(-c7cc(S(=O)(=O)[O-])ccc7F)c7ccc4[nH]7)C=C6)C=C5)cc3)cc2-c2ccc(Cl)s2)cc1
REMARK SMILES IDX 16 1 15 2 14 3 12 4 13 5 11 7 9 8 10 9 85 10 84 11 8 12 5 13
REMARK SMILES IDX 6 14 93 15 7 16 92 17 2 18 3 19 4 20 1 21 86 24 87 25 91 26
REMARK SMILES IDX 88 27 89 28 90 29 17 30 18 31 19 32 20 34 21 35 22 36 83 37
REMARK SMILES IDX 23 38 82 39 24 40 25 41 26 42 76 43 27 44 81 45 75 46 77 47
REMARK SMILES IDX 28 48 80 49 74 50 73 51 29 53 61 54 41 55 60 56 42 57 45 58
REMARK SMILES IDX 59 59 78 60 43 61 44 62 58 64 79 65 46 66 30 67 31 68 39 69
REMARK SMILES IDX 32 70 38 71 40 72 37 73 33 74 34 75 35 76 36 77 62 78 63 79
REMARK SMILES IDX 71 80 64 81 70 82 72 83 69 84 65 85 66 86 67 87 68 88 47 89
REMARK SMILES IDX 48 90 56 91 49 92 55 93 57 94 54 95 50 96 51 97 52 98 53 99
REMARK H PARENT 14 6 1 22 1 23 18 33 77 52 45 63
REMARK Flexibility Score: inf
ROOT
ATOM      1  C   UNL A   1      37.328  23.201  25.747  1.00  0.00     0.042 C 
ENDROOT
BRANCH   1   2
ATOM      2  C   UNL A   1      36.580  23.698  24.503  1.00  0.00     0.118 C 
BRANCH   2   3
ATOM      3  N   UNL A   1      35.490  22.812  24.125  1.00  0.00    -0.351 N 
ATOM      4  C   UNL A   1      34.126  22.990  24.017  1.00  0.00     0.271 C 
ATOM      5  O   UNL A   1      33.484  22.026  23.594  1.00  0.00    -0.267 OA
ATOM      6  H   UNL A   1      35.786  21.900  23.901  1.00  0.00     0.163 HD
BRANCH   4   7
ATOM      7  C   UNL A   1      33.483  24.279  24.360  1.00  0.00     0.151 A 
ATOM      8  N   UNL A   1      32.240  26.019  24.100  1.00  0.00    -0.231 N 
ATOM      9  N   UNL A   1      32.485  24.788  23.600  1.00  0.00    -0.162 NA
ATOM     10  C   UNL A   1      32.969  26.267  25.241  1.00  0.00     0.085 A 
ATOM     11  C   UNL A   1      33.721  25.140  25.455  1.00  0.00     0.066 A 
BRANCH   8  12
ATOM     12  C   UNL A   1      31.276  26.878  23.527  1.00  0.00     0.065 A 
ATOM     13  C   UNL A   1      29.438  28.810  22.770  1.00  0.00     0.082 A 
ATOM     14  C   UNL A   1      30.774  28.950  22.383  1.00  0.00     0.024 A 
ATOM     15  C   UNL A   1      29.013  27.700  23.512  1.00  0.00     0.024 A 
ATOM     16  C   UNL A   1      31.698  27.980  22.768  1.00  0.00     0.030 A 
ATOM     17  C   UNL A   1      29.931  26.711  23.871  1.00  0.00     0.030 A 
BRANCH  13  18
ATOM     18  S   UNL A   1      28.272  30.049  22.292  1.00  0.00     0.238 S 
ATOM     19  O   UNL A   1      27.114  29.946  23.171  1.00  0.00    -0.207 OA
ATOM     20  O   UNL A   1      28.158  30.074  20.866  1.00  0.00    -0.207 OA
BRANCH  18  21
ATOM     21  N   UNL A   1      29.033  31.489  22.708  1.00  0.00    -0.225 NA
ATOM     22  H   UNL A   1      28.414  32.041  23.300  1.00  0.00     0.137 HD
ATOM     23  H   UNL A   1      29.252  32.015  21.861  1.00  0.00     0.137 HD
ENDBRANCH  18  21
ENDBRANCH  13  18
ENDBRANCH   8  12
BRANCH  10  24
ATOM     24  C   UNL A   1      32.874  27.406  26.095  1.00  0.00     0.054 A 
ATOM     25  C   UNL A   1      31.849  27.683  26.980  1.00  0.00     0.024 A 
ATOM     26  S   UNL A   1      34.032  28.668  26.041  1.00  0.00    -0.122 S 
ATOM     27  C   UNL A   1      32.032  28.941  27.628  1.00  0.00     0.033 A 
ATOM     28  C   UNL A   1      33.178  29.557  27.196  1.00  0.00     0.094 A 
ATOM     29  Cl  UNL A   1      33.775  31.086  27.698  1.00  0.00    -0.072 Cl
ENDBRANCH  10  24
ENDBRANCH   4   7
ENDBRANCH   2   3
ENDBRANCH   1   2
BRANCH   1  30
ATOM     30  C   UNL A   1      38.011  24.356  26.468  1.00  0.00     0.118 C 
BRANCH  30  31
ATOM     31  N   UNL A   1      39.443  24.452  26.155  1.00  0.00    -0.352 N 
ATOM     32  C   UNL A   1      40.312  25.512  26.381  1.00  0.00     0.251 C 
ATOM     33  H   UNL A   1      39.840  23.659  25.729  1.00  0.00     0.163 HD
ATOM     34  O   UNL A   1      41.340  25.602  25.718  1.00  0.00    -0.269 OA
BRANCH  32  35
ATOM     35  C   UNL A   1      40.006  26.488  27.456  1.00  0.00     0.039 A 
ATOM     36  C   UNL A   1      39.714  26.140  28.776  1.00  0.00     0.014 A 
ATOM     37  C   UNL A   1      40.022  27.829  27.113  1.00  0.00     0.014 A 
ATOM     38  C   UNL A   1      39.418  27.170  29.697  1.00  0.00     0.010 A 
ATOM     39  C   UNL A   1      40.129  28.771  28.101  1.00  0.00     0.010 A 
ATOM     40  C   UNL A   1      39.594  28.529  29.343  1.00  0.00    -0.014 A 
BRANCH  40  41
ATOM     41  C   UNL A   1      39.704  29.651  30.314  1.00  0.00     0.031 A 
ATOM     42  C   UNL A   1      38.337  30.243  30.421  1.00  0.00     0.074 A 
ATOM     43  C   UNL A   1      40.787  29.979  31.101  1.00  0.00     0.049 A 
ATOM     44  N   UNL A   1      37.882  31.185  29.658  1.00  0.00    -0.248 NA
ATOM     45  C   UNL A   1      37.241  29.508  31.098  1.00  0.00     0.031 C 
ATOM     46  C   UNL A   1      42.107  29.325  31.163  1.00  0.00     0.029 A 
ATOM     47  N   UNL A   1      40.966  30.993  32.045  1.00  0.00    -0.354 N 
ATOM     48  C   UNL A   1      36.610  31.450  30.147  1.00  0.00     0.074 A 
ATOM     49  C   UNL A   1      36.169  30.217  30.721  1.00  0.00     0.031 C 
ATOM     50  C   UNL A   1      42.853  29.805  32.200  1.00  0.00     0.029 A 
ATOM     51  C   UNL A   1      42.160  30.914  32.845  1.00  0.00     0.049 A 
ATOM     52  H   UNL A   1      40.312  31.720  32.156  1.00  0.00     0.167 HD
ATOM     53  C   UNL A   1      36.314  32.738  30.484  1.00  0.00     0.034 A 
ATOM     54  C   UNL A   1      42.599  31.766  33.857  1.00  0.00     0.034 A 
ATOM     55  C   UNL A   1      37.312  33.614  29.893  1.00  0.00     0.049 A 
ATOM     56  C   UNL A   1      41.914  33.046  33.604  1.00  0.00     0.074 A 
ATOM     57  C   UNL A   1      37.720  33.952  28.619  1.00  0.00     0.029 A 
ATOM     58  N   UNL A   1      38.386  33.812  30.725  1.00  0.00    -0.354 N 
ATOM     59  N   UNL A   1      42.198  33.792  32.576  1.00  0.00    -0.248 NA
ATOM     60  C   UNL A   1      40.591  33.226  34.175  1.00  0.00     0.031 C 
ATOM     61  C   UNL A   1      39.127  34.188  28.706  1.00  0.00     0.029 A 
ATOM     62  C   UNL A   1      39.516  34.152  30.043  1.00  0.00     0.049 A 
ATOM     63  H   UNL A   1      38.345  33.720  31.704  1.00  0.00     0.167 HD
ATOM     64  C   UNL A   1      40.962  34.146  32.073  1.00  0.00     0.074 A 
ATOM     65  C   UNL A   1      40.019  33.900  33.172  1.00  0.00     0.031 C 
ATOM     66  C   UNL A   1      40.794  34.252  30.720  1.00  0.00     0.034 A 
BRANCH  53  67
ATOM     67  C   UNL A   1      35.603  33.158  31.772  1.00  0.00     0.023 A 
ATOM     68  C   UNL A   1      34.557  34.095  31.634  1.00  0.00     0.031 A 
ATOM     69  C   UNL A   1      36.058  32.957  33.096  1.00  0.00     0.131 A 
ATOM     70  C   UNL A   1      34.081  34.828  32.736  1.00  0.00     0.055 A 
ATOM     71  C   UNL A   1      35.549  33.655  34.197  1.00  0.00     0.041 A 
ATOM     72  F   UNL A   1      37.070  32.143  33.409  1.00  0.00    -0.206 F 
ATOM     73  C   UNL A   1      34.569  34.613  34.020  1.00  0.00     0.022 A 
BRANCH  70  74
ATOM     74  S   UNL A   1      32.914  36.180  32.436  1.00  0.00     0.124 S 
ATOM     75  O   UNL A   1      33.339  36.646  31.122  1.00  0.00    -0.237 OA
ATOM     76  O   UNL A   1      31.632  35.487  32.495  1.00  0.00    -0.237 OA
ATOM     77  O   UNL A   1      33.174  37.099  33.542  1.00  0.00    -0.744 OA
ENDBRANCH  70  74
ENDBRANCH  53  67
BRANCH  54  78
ATOM     78  C   UNL A   1      43.292  31.569  35.214  1.00  0.00     0.023 A 
ATOM     79  C   UNL A   1      44.434  32.297  35.728  1.00  0.00     0.031 A 
ATOM     80  C   UNL A   1      42.562  30.858  36.182  1.00  0.00     0.131 A 
ATOM     81  C   UNL A   1      44.762  32.281  37.129  1.00  0.00     0.055 A 
ATOM     82  C   UNL A   1      42.867  30.881  37.552  1.00  0.00     0.041 A 
ATOM     83  F   UNL A   1      41.451  30.190  35.837  1.00  0.00    -0.206 F 
ATOM     84  C   UNL A   1      43.953  31.596  38.032  1.00  0.00     0.022 A 
BRANCH  81  85
ATOM     85  S   UNL A   1      46.214  33.167  37.878  1.00  0.00     0.124 S 
ATOM     86  O   UNL A   1      47.137  32.079  38.180  1.00  0.00    -0.237 OA
ATOM     87  O   UNL A   1      46.618  34.092  36.827  1.00  0.00    -0.237 OA
ATOM     88  O   UNL A   1      45.649  33.818  39.065  1.00  0.00    -0.744 OA
ENDBRANCH  81  85
ENDBRANCH  54  78
BRANCH  66  89
ATOM     89  C   UNL A   1      42.031  34.472  29.879  1.00  0.00     0.023 A 
ATOM     90  C   UNL A   1      42.627  35.713  29.556  1.00  0.00     0.031 A 
ATOM     91  C   UNL A   1      42.639  33.305  29.388  1.00  0.00     0.131 A 
ATOM     92  C   UNL A   1      43.776  35.742  28.736  1.00  0.00     0.055 A 
ATOM     93  C   UNL A   1      43.789  33.336  28.610  1.00  0.00     0.041 A 
ATOM     94  F   UNL A   1      42.122  32.098  29.673  1.00  0.00    -0.206 F 
ATOM     95  C   UNL A   1      44.355  34.557  28.270  1.00  0.00     0.022 A 
BRANCH  92  96
ATOM     96  S   UNL A   1      44.506  37.323  28.186  1.00  0.00     0.124 S 
ATOM     97  O   UNL A   1      43.720  37.668  27.007  1.00  0.00    -0.237 OA
ATOM     98  O   UNL A   1      44.314  38.181  29.353  1.00  0.00    -0.237 OA
ATOM     99  O   UNL A   1      45.902  36.976  27.910  1.00  0.00    -0.744 OA
ENDBRANCH  92  96
ENDBRANCH  66  89
ENDBRANCH  40  41
ENDBRANCH  32  35
ENDBRANCH  30  31
ENDBRANCH   1  30
TORSDOF 17
ENDMDL
MODEL 2
REMARK VINA RESULT:     -11.9      5.367     12.014
REMARK SMILES NS(=O)(=O)c1ccc(-n2nc(C(=O)NCCCNC(=O)c3ccc(-c4c5nc(c(-c6cc(S(=O)(=O)[O-])ccc6F)c6ccc([nH]6)c(-c6cc(S(=O)(=O)[O-])ccc6F)c6nc(c(-c7cc(S(=O)(=O)[O-])ccc7F)c7ccc4[nH]7)C=C6)C=C5)cc3)cc2-c2ccc(Cl)s2)cc1
REMARK SMILES IDX 16 1 15 2 14 3 12 4 13 5 11 7 9 8 10 9 85 10 84 11 8 12 5 13
REMARK SMILES IDX 6 14 93 15 7 16 92 17 2 18 3 19 4 20 1 21 86 24 87 25 91 26
REMARK SMILES IDX 88 27 89 28 90 29 17 30 18 31 19 32 20 34 21 35 22 36 83 37
REMARK SMILES IDX 23 38 82 39 24 40 25 41 26 42 76 43 27 44 81 45 75 46 77 47
REMARK SMILES IDX 28 48 80 49 74 50 73 51 29 53 61 54 41 55 60 56 42 57 45 58
REMARK SMILES IDX 59 59 78 60 43 61 44 62 58 64 79 65 46 66 30 67 31 68 39 69
REMARK SMILES IDX 32 70 38 71 40 72 37 73 33 74 34 75 35 76 36 77 62 78 63 79
REMARK SMILES IDX 71 80 64 81 70 82 72 83 69 84 65 85 66 86 67 87 68 88 47 89
REMARK SMILES IDX 48 90 56 91 49 92 55 93 57 94 54 95 50 96 51 97 52 98 53 99
REMARK H PARENT 14 6 1 22 1 23 18 33 77 52 45 63
REMARK Flexibility Score: inf
ROOT
ATOM      1  C   UNL A   1      34.454  30.541  27.649  1.00  0.00     0.042 C 
ENDROOT
BRANCH   1   2
ATOM      2  C   UNL A   1      35.032  31.963  27.651  1.00  0.00     0.118 C 
BRANCH   2   3
ATOM      3  N   UNL A   1      34.248  32.873  28.471  1.00  0.00    -0.351 N 
ATOM      4  C   UNL A   1      34.478  33.479  29.690  1.00  0.00     0.271 C 
ATOM      5  O   UNL A   1      33.613  34.267  30.077  1.00  0.00    -0.267 OA
ATOM      6  H   UNL A   1      33.376  33.105  28.077  1.00  0.00     0.163 HD
BRANCH   4   7
ATOM      7  C   UNL A   1      35.713  33.217  30.464  1.00  0.00     0.151 A 
ATOM      8  N   UNL A   1      36.997  33.098  32.188  1.00  0.00    -0.231 N 
ATOM      9  N   UNL A   1      35.704  33.217  31.817  1.00  0.00    -0.162 NA
ATOM     10  C   UNL A   1      37.828  32.896  31.109  1.00  0.00     0.085 A 
ATOM     11  C   UNL A   1      37.013  32.907  30.006  1.00  0.00     0.066 A 
BRANCH   8  12
ATOM     12  C   UNL A   1      37.387  33.104  33.547  1.00  0.00     0.065 A 
ATOM     13  C   UNL A   1      38.558  33.016  36.058  1.00  0.00     0.082 A 
ATOM     14  C   UNL A   1      38.504  34.233  35.371  1.00  0.00     0.024 A 
ATOM     15  C   UNL A   1      38.010  31.850  35.506  1.00  0.00     0.024 A 
ATOM     16  C   UNL A   1      37.919  34.274  34.107  1.00  0.00     0.030 A 
ATOM     17  C   UNL A   1      37.394  31.897  34.254  1.00  0.00     0.030 A 
BRANCH  13  18
ATOM     18  S   UNL A   1      39.313  32.965  37.654  1.00  0.00     0.238 S 
ATOM     19  O   UNL A   1      39.344  34.322  38.186  1.00  0.00    -0.207 OA
ATOM     20  O   UNL A   1      40.472  32.127  37.609  1.00  0.00    -0.207 OA
BRANCH  18  21
ATOM     21  N   UNL A   1      38.194  32.134  38.594  1.00  0.00    -0.225 NA
ATOM     22  H   UNL A   1      38.551  32.040  39.544  1.00  0.00     0.137 HD
ATOM     23  H   UNL A   1      38.037  31.207  38.197  1.00  0.00     0.137 HD
ENDBRANCH  18  21
ENDBRANCH  13  18
ENDBRANCH   8  12
BRANCH  10  24
ATOM     24  C   UNL A   1      39.226  32.609  31.138  1.00  0.00     0.054 A 
ATOM     25  C   UNL A   1      39.809  31.410  31.497  1.00  0.00     0.024 A 
ATOM     26  S   UNL A   1      40.395  33.817  30.807  1.00  0.00    -0.122 S 
ATOM     27  C   UNL A   1      41.234  31.487  31.483  1.00  0.00     0.033 A 
ATOM     28  C   UNL A   1      41.657  32.740  31.124  1.00  0.00     0.094 A 
ATOM     29  Cl  UNL A   1      43.281  33.277  30.994  1.00  0.00    -0.072 Cl
ENDBRANCH  10  24
ENDBRANCH   4   7
ENDBRANCH   2   3
ENDBRANCH   1   2
BRANCH   1  30
ATOM     30  C   UNL A   1      35.468  29.543  28.194  1.00  0.00     0.118 C 
BRANCH  30  31
ATOM     31  N   UNL A   1      35.786  29.772  29.609  1.00  0.00    -0.352 N 
ATOM     32  C   UNL A   1      36.848  29.273  30.353  1.00  0.00     0.251 C 
ATOM     33  H   UNL A   1      35.164  30.359  30.096  1.00  0.00     0.163 HD
ATOM     34  O   UNL A   1      36.757  29.219  31.575  1.00  0.00    -0.269 OA
BRANCH  32  35
ATOM     35  C   UNL A   1      38.094  28.863  29.658  1.00  0.00     0.039 A 
ATOM     36  C   UNL A   1      38.584  29.466  28.499  1.00  0.00     0.014 A 
ATOM     37  C   UNL A   1      38.809  27.817  30.214  1.00  0.00     0.014 A 
ATOM     38  C   UNL A   1      39.773  28.961  27.926  1.00  0.00     0.010 A 
ATOM     39  C   UNL A   1      40.122  27.643  29.865  1.00  0.00     0.010 A 
ATOM     40  C   UNL A   1      40.551  27.994  28.608  1.00  0.00    -0.014 A 
BRANCH  40  41
ATOM     41  C   UNL A   1      41.978  27.694  28.314  1.00  0.00     0.031 A 
ATOM     42  C   UNL A   1      41.990  26.363  27.636  1.00  0.00     0.074 A 
ATOM     43  C   UNL A   1      43.062  28.532  28.461  1.00  0.00     0.049 A 
ATOM     44  N   UNL A   1      42.063  25.225  28.251  1.00  0.00    -0.248 NA
ATOM     45  C   UNL A   1      41.472  26.208  26.255  1.00  0.00     0.031 C 
ATOM     46  C   UNL A   1      43.088  29.918  28.966  1.00  0.00     0.029 A 
ATOM     47  N   UNL A   1      44.419  28.339  28.192  1.00  0.00    -0.354 N 
ATOM     48  C   UNL A   1      42.098  24.279  27.236  1.00  0.00     0.074 A 
ATOM     49  C   UNL A   1      41.388  24.876  26.148  1.00  0.00     0.031 C 
ATOM     50  C   UNL A   1      44.312  30.492  28.780  1.00  0.00     0.029 A 
ATOM     51  C   UNL A   1      45.254  29.510  28.261  1.00  0.00     0.049 A 
ATOM     52  H   UNL A   1      44.783  27.452  27.969  1.00  0.00     0.167 HD
ATOM     53  C   UNL A   1      43.128  23.385  27.235  1.00  0.00     0.034 A 
ATOM     54  C   UNL A   1      46.625  29.626  28.039  1.00  0.00     0.034 A 
ATOM     55  C   UNL A   1      43.765  23.409  28.540  1.00  0.00     0.049 A 
ATOM     56  C   UNL A   1      47.164  28.271  28.250  1.00  0.00     0.074 A 
ATOM     57  C   UNL A   1      43.401  23.116  29.839  1.00  0.00     0.029 A 
ATOM     58  N   UNL A   1      44.779  24.334  28.607  1.00  0.00    -0.354 N 
ATOM     59  N   UNL A   1      47.198  27.715  29.426  1.00  0.00    -0.248 NA
ATOM     60  C   UNL A   1      47.167  27.363  27.117  1.00  0.00     0.031 C 
ATOM     61  C   UNL A   1      44.119  24.035  30.667  1.00  0.00     0.029 A 
ATOM     62  C   UNL A   1      45.020  24.751  29.882  1.00  0.00     0.049 A 
ATOM     63  H   UNL A   1      45.276  24.658  27.821  1.00  0.00     0.167 HD
ATOM     64  C   UNL A   1      46.724  26.438  29.202  1.00  0.00     0.074 A 
ATOM     65  C   UNL A   1      46.863  26.229  27.755  1.00  0.00     0.031 C 
ATOM     66  C   UNL A   1      45.941  25.837  30.149  1.00  0.00     0.034 A 
BRANCH  53  67
ATOM     67  C   UNL A   1      43.944  23.002  25.999  1.00  0.00     0.023 A 
ATOM     68  C   UNL A   1      44.078  21.621  25.739  1.00  0.00     0.031 A 
ATOM     69  C   UNL A   1      44.823  23.837  25.270  1.00  0.00     0.131 A 
ATOM     70  C   UNL A   1      45.079  21.131  24.881  1.00  0.00     0.055 A 
ATOM     71  C   UNL A   1      45.787  23.348  24.381  1.00  0.00     0.041 A 
ATOM     72  F   UNL A   1      44.869  25.164  25.421  1.00  0.00    -0.206 F 
ATOM     73  C   UNL A   1      45.935  21.987  24.196  1.00  0.00     0.022 A 
BRANCH  70  74
ATOM     74  S   UNL A   1      45.341  19.342  24.791  1.00  0.00     0.124 S 
ATOM     75  O   UNL A   1      45.137  19.088  23.371  1.00  0.00    -0.237 OA
ATOM     76  O   UNL A   1      46.709  19.215  25.283  1.00  0.00    -0.237 OA
ATOM     77  O   UNL A   1      44.311  18.807  25.679  1.00  0.00    -0.744 OA
ENDBRANCH  70  74
ENDBRANCH  53  67
BRANCH  54  78
ATOM     78  C   UNL A   1      47.528  30.669  27.363  1.00  0.00     0.023 A 
ATOM     79  C   UNL A   1      47.126  31.940  26.795  1.00  0.00     0.031 A 
ATOM     80  C   UNL A   1      48.906  30.543  27.607  1.00  0.00     0.131 A 
ATOM     81  C   UNL A   1      48.086  32.976  26.524  1.00  0.00     0.055 A 
ATOM     82  C   UNL A   1      49.830  31.574  27.376  1.00  0.00     0.041 A 
ATOM     83  F   UNL A   1      49.393  29.434  28.182  1.00  0.00    -0.206 F 
ATOM     84  C   UNL A   1      49.429  32.792  26.850  1.00  0.00     0.022 A 
BRANCH  81  85
ATOM     85  S   UNL A   1      47.670  34.629  25.783  1.00  0.00     0.124 S 
ATOM     86  O   UNL A   1      46.414  34.366  25.090  1.00  0.00    -0.237 OA
ATOM     87  O   UNL A   1      47.602  35.506  26.945  1.00  0.00    -0.237 OA
ATOM     88  O   UNL A   1      48.799  34.904  24.889  1.00  0.00    -0.744 OA
ENDBRANCH  81  85
ENDBRANCH  54  78
BRANCH  66  89
ATOM     89  C   UNL A   1      46.038  26.357  31.565  1.00  0.00     0.023 A 
ATOM     90  C   UNL A   1      45.097  27.173  32.236  1.00  0.00     0.031 A 
ATOM     91  C   UNL A   1      47.189  25.968  32.271  1.00  0.00     0.131 A 
ATOM     92  C   UNL A   1      45.355  27.590  33.561  1.00  0.00     0.055 A 
ATOM     93  C   UNL A   1      47.422  26.352  33.585  1.00  0.00     0.041 A 
ATOM     94  F   UNL A   1      48.111  25.184  31.687  1.00  0.00    -0.206 F 
ATOM     95  C   UNL A   1      46.511  27.176  34.231  1.00  0.00     0.022 A 
BRANCH  92  96
ATOM     96  S   UNL A   1      44.234  28.745  34.422  1.00  0.00     0.124 S 
ATOM     97  O   UNL A   1      43.547  29.428  33.333  1.00  0.00    -0.237 OA
ATOM     98  O   UNL A   1      43.413  27.845  35.229  1.00  0.00    -0.237 OA
ATOM     99  O   UNL A   1      45.146  29.591  35.196  1.00  0.00    -0.744 OA
ENDBRANCH  92  96
ENDBRANCH  66  89
ENDBRANCH  40  41
ENDBRANCH  32  35
ENDBRANCH  30  31
ENDBRANCH   1  30
TORSDOF 17
ENDMDL
MODEL 3
REMARK VINA RESULT:     -11.9      4.089      8.885
REMARK SMILES NS(=O)(=O)c1ccc(-n2nc(C(=O)NCCCNC(=O)c3ccc(-c4c5nc(c(-c6cc(S(=O)(=O)[O-])ccc6F)c6ccc([nH]6)c(-c6cc(S(=O)(=O)[O-])ccc6F)c6nc(c(-c7cc(S(=O)(=O)[O-])ccc7F)c7ccc4[nH]7)C=C6)C=C5)cc3)cc2-c2ccc(Cl)s2)cc1
REMARK SMILES IDX 16 1 15 2 14 3 12 4 13 5 11 7 9 8 10 9 85 10 84 11 8 12 5 13
REMARK SMILES IDX 6 14 93 15 7 16 92 17 2 18 3 19 4 20 1 21 86 24 87 25 91 26
REMARK SMILES IDX 88 27 89 28 90 29 17 30 18 31 19 32 20 34 21 35 22 36 83 37
REMARK SMILES IDX 23 38 82 39 24 40 25 41 26 42 76 43 27 44 81 45 75 46 77 47
REMARK SMILES IDX 28 48 80 49 74 50 73 51 29 53 61 54 41 55 60 56 42 57 45 58
REMARK SMILES IDX 59 59 78 60 43 61 44 62 58 64 79 65 46 66 30 67 31 68 39 69
REMARK SMILES IDX 32 70 38 71 40 72 37 73 33 74 34 75 35 76 36 77 62 78 63 79
REMARK SMILES IDX 71 80 64 81 70 82 72 83 69 84 65 85 66 86 67 87 68 88 47 89
REMARK SMILES IDX 48 90 56 91 49 92 55 93 57 94 54 95 50 96 51 97 52 98 53 99
REMARK H PARENT 14 6 1 22 1 23 18 33 77 52 45 63
REMARK Flexibility Score: inf
ROOT
ATOM      1  C   UNL A   1      32.177  29.205  27.210  1.00  0.00     0.042 C 
ENDROOT
BRANCH   1   2
ATOM      2  C   UNL A   1      32.254  27.724  26.815  1.00  0.00     0.118 C 
BRANCH   2   3
ATOM      3  N   UNL A   1      31.006  27.240  26.249  1.00  0.00    -0.351 N 
ATOM      4  C   UNL A   1      30.658  26.078  25.590  1.00  0.00     0.271 C 
ATOM      5  O   UNL A   1      29.467  25.955  25.296  1.00  0.00    -0.267 OA
ATOM      6  H   UNL A   1      30.256  27.868  26.356  1.00  0.00     0.163 HD
BRANCH   4   7
ATOM      7  C   UNL A   1      31.660  25.030  25.288  1.00  0.00     0.151 A 
ATOM      8  N   UNL A   1      32.444  23.044  25.003  1.00  0.00    -0.231 N 
ATOM      9  N   UNL A   1      31.291  23.740  25.106  1.00  0.00    -0.162 NA
ATOM     10  C   UNL A   1      33.546  23.869  24.988  1.00  0.00     0.085 A 
ATOM     11  C   UNL A   1      33.056  25.145  25.106  1.00  0.00     0.066 A 
BRANCH   8  12
ATOM     12  C   UNL A   1      32.455  21.640  24.846  1.00  0.00     0.065 A 
ATOM     13  C   UNL A   1      32.917  18.932  24.470  1.00  0.00     0.082 A 
ATOM     14  C   UNL A   1      32.976  19.462  25.762  1.00  0.00     0.024 A 
ATOM     15  C   UNL A   1      32.607  19.743  23.370  1.00  0.00     0.024 A 
ATOM     16  C   UNL A   1      32.748  20.824  25.949  1.00  0.00     0.030 A 
ATOM     17  C   UNL A   1      32.346  21.101  23.559  1.00  0.00     0.030 A 
BRANCH  13  18
ATOM     18  S   UNL A   1      33.220  17.207  24.236  1.00  0.00     0.238 S 
ATOM     19  O   UNL A   1      33.204  16.934  22.804  1.00  0.00    -0.207 OA
ATOM     20  O   UNL A   1      32.445  16.453  25.173  1.00  0.00    -0.207 OA
BRANCH  18  21
ATOM     21  N   UNL A   1      34.819  17.018  24.718  1.00  0.00    -0.225 NA
ATOM     22  H   UNL A   1      34.848  16.753  25.702  1.00  0.00     0.137 HD
ATOM     23  H   UNL A   1      35.320  17.897  24.587  1.00  0.00     0.137 HD
ENDBRANCH  18  21
ENDBRANCH  13  18
ENDBRANCH   8  12
BRANCH  10  24
ATOM     24  C   UNL A   1      34.904  23.491  24.770  1.00  0.00     0.054 A 
ATOM     25  C   UNL A   1      35.498  23.235  23.549  1.00  0.00     0.024 A 
ATOM     26  S   UNL A   1      35.975  23.203  26.075  1.00  0.00    -0.122 S 
ATOM     27  C   UNL A   1      36.852  22.812  23.694  1.00  0.00     0.033 A 
ATOM     28  C   UNL A   1      37.214  22.760  25.016  1.00  0.00     0.094 A 
ATOM     29  Cl  UNL A   1      38.739  22.290  25.645  1.00  0.00    -0.072 Cl
ENDBRANCH  10  24
ENDBRANCH   4   7
ENDBRANCH   2   3
ENDBRANCH   1   2
BRANCH   1  30
ATOM     30  C   UNL A   1      33.568  29.820  27.284  1.00  0.00     0.118 C 
BRANCH  30  31
ATOM     31  N   UNL A   1      33.537  31.283  27.410  1.00  0.00    -0.352 N 
ATOM     32  C   UNL A   1      34.406  32.114  28.105  1.00  0.00     0.251 C 
ATOM     33  H   UNL A   1      32.800  31.735  26.939  1.00  0.00     0.163 HD
ATOM     34  O   UNL A   1      34.030  33.230  28.448  1.00  0.00    -0.269 OA
BRANCH  32  35
ATOM     35  C   UNL A   1      35.792  31.656  28.375  1.00  0.00     0.039 A 
ATOM     36  C   UNL A   1      36.647  32.242  29.308  1.00  0.00     0.014 A 
ATOM     37  C   UNL A   1      36.248  30.570  27.649  1.00  0.00     0.014 A 
ATOM     38  C   UNL A   1      37.953  31.721  29.450  1.00  0.00     0.010 A 
ATOM     39  C   UNL A   1      37.336  29.872  28.101  1.00  0.00     0.010 A 
ATOM     40  C   UNL A   1      38.326  30.519  28.800  1.00  0.00    -0.014 A 
BRANCH  40  41
ATOM     41  C   UNL A   1      39.494  29.678  29.178  1.00  0.00     0.031 A 
ATOM     42  C   UNL A   1      39.579  29.732  30.668  1.00  0.00     0.074 A 
ATOM     43  C   UNL A   1      40.244  28.863  28.357  1.00  0.00     0.049 A 
ATOM     44  N   UNL A   1      40.236  30.628  31.334  1.00  0.00    -0.248 NA
ATOM     45  C   UNL A   1      38.570  29.050  31.513  1.00  0.00     0.031 C 
ATOM     46  C   UNL A   1      40.098  28.638  26.907  1.00  0.00     0.029 A 
ATOM     47  N   UNL A   1      41.332  28.032  28.630  1.00  0.00    -0.354 N 
ATOM     48  C   UNL A   1      40.083  30.259  32.664  1.00  0.00     0.074 A 
ATOM     49  C   UNL A   1      38.827  29.577  32.717  1.00  0.00     0.031 C 
ATOM     50  C   UNL A   1      40.893  27.615  26.479  1.00  0.00     0.029 A 
ATOM     51  C   UNL A   1      41.742  27.150  27.569  1.00  0.00     0.049 A 
ATOM     52  H   UNL A   1      41.793  28.050  29.500  1.00  0.00     0.167 HD
ATOM     53  C   UNL A   1      41.211  30.093  33.412  1.00  0.00     0.034 A 
ATOM     54  C   UNL A   1      42.776  26.216  27.552  1.00  0.00     0.034 A 
ATOM     55  C   UNL A   1      42.326  30.712  32.715  1.00  0.00     0.049 A 
ATOM     56  C   UNL A   1      43.712  26.660  28.600  1.00  0.00     0.074 A 
ATOM     57  C   UNL A   1      42.676  31.986  32.317  1.00  0.00     0.029 A 
ATOM     58  N   UNL A   1      42.955  29.838  31.863  1.00  0.00    -0.354 N 
ATOM     59  N   UNL A   1      44.420  27.746  28.482  1.00  0.00    -0.248 NA
ATOM     60  C   UNL A   1      43.468  26.204  29.957  1.00  0.00     0.031 C 
ATOM     61  C   UNL A   1      43.393  31.833  31.090  1.00  0.00     0.029 A 
ATOM     62  C   UNL A   1      43.608  30.477  30.851  1.00  0.00     0.049 A 
ATOM     63  H   UNL A   1      42.938  28.860  31.971  1.00  0.00     0.167 HD
ATOM     64  C   UNL A   1      44.278  28.368  29.706  1.00  0.00     0.074 A 
ATOM     65  C   UNL A   1      43.813  27.314  30.617  1.00  0.00     0.031 C 
ATOM     66  C   UNL A   1      44.203  29.732  29.760  1.00  0.00     0.034 A 
BRANCH  53  67
ATOM     67  C   UNL A   1      41.465  28.913  34.352  1.00  0.00     0.023 A 
ATOM     68  C   UNL A   1      42.360  29.142  35.418  1.00  0.00     0.031 A 
ATOM     69  C   UNL A   1      41.154  27.554  34.109  1.00  0.00     0.131 A 
ATOM     70  C   UNL A   1      42.956  28.074  36.116  1.00  0.00     0.055 A 
ATOM     71  C   UNL A   1      41.713  26.497  34.837  1.00  0.00     0.041 A 
ATOM     72  F   UNL A   1      40.362  27.147  33.113  1.00  0.00    -0.206 F 
ATOM     73  C   UNL A   1      42.636  26.751  35.834  1.00  0.00     0.022 A 
BRANCH  70  74
ATOM     74  S   UNL A   1      44.273  28.445  37.301  1.00  0.00     0.124 S 
ATOM     75  O   UNL A   1      45.458  28.354  36.458  1.00  0.00    -0.237 OA
ATOM     76  O   UNL A   1      43.900  29.781  37.754  1.00  0.00    -0.237 OA
ATOM     77  O   UNL A   1      44.131  27.389  38.302  1.00  0.00    -0.744 OA
ENDBRANCH  70  74
ENDBRANCH  53  67
BRANCH  54  78
ATOM     78  C   UNL A   1      42.949  24.802  26.976  1.00  0.00     0.023 A 
ATOM     79  C   UNL A   1      43.925  24.367  25.999  1.00  0.00     0.031 A 
ATOM     80  C   UNL A   1      42.333  23.763  27.696  1.00  0.00     0.131 A 
ATOM     81  C   UNL A   1      44.226  22.972  25.812  1.00  0.00     0.055 A 
ATOM     82  C   UNL A   1      42.662  22.409  27.534  1.00  0.00     0.041 A 
ATOM     83  F   UNL A   1      41.450  24.044  28.667  1.00  0.00    -0.206 F 
ATOM     84  C   UNL A   1      43.612  22.008  26.607  1.00  0.00     0.022 A 
BRANCH  81  85
ATOM     85  S   UNL A   1      45.449  22.317  24.575  1.00  0.00     0.124 S 
ATOM     86  O   UNL A   1      45.946  23.531  23.937  1.00  0.00    -0.237 OA
ATOM     87  O   UNL A   1      46.396  21.580  25.401  1.00  0.00    -0.237 OA
ATOM     88  O   UNL A   1      44.635  21.471  23.696  1.00  0.00    -0.744 OA
ENDBRANCH  81  85
ENDBRANCH  54  78
BRANCH  66  89
ATOM     89  C   UNL A   1      44.767  30.508  28.592  1.00  0.00     0.023 A 
ATOM     90  C   UNL A   1      46.123  30.851  28.376  1.00  0.00     0.031 A 
ATOM     91  C   UNL A   1      43.828  30.910  27.627  1.00  0.00     0.131 A 
ATOM     92  C   UNL A   1      46.479  31.602  27.235  1.00  0.00     0.055 A 
ATOM     93  C   UNL A   1      44.188  31.620  26.489  1.00  0.00     0.041 A 
ATOM     94  F   UNL A   1      42.529  30.602  27.775  1.00  0.00    -0.206 F 
ATOM     95  C   UNL A   1      45.514  31.980  26.295  1.00  0.00     0.022 A 
BRANCH  92  96
ATOM     96  S   UNL A   1      48.192  32.178  26.979  1.00  0.00     0.124 S 
ATOM     97  O   UNL A   1      48.055  33.211  25.960  1.00  0.00    -0.237 OA
ATOM     98  O   UNL A   1      48.571  32.644  28.311  1.00  0.00    -0.237 OA
ATOM     99  O   UNL A   1      48.894  30.971  26.536  1.00  0.00    -0.744 OA
ENDBRANCH  92  96
ENDBRANCH  66  89
ENDBRANCH  40  41
ENDBRANCH  32  35
ENDBRANCH  30  31
ENDBRANCH   1  30
TORSDOF 17
ENDMDL
