MODEL 1
REMARK VINA RESULT:     -13.3      0.000      0.000
REMARK SMILES COC(=O)c1c(NC(=O)[C@@H]2[C@H]3CC[C@H](CC3)[C@H]2C(=O)NCCCNC(=O)c2ccc(-c3c4nc(c(-c5cc(S(=O)(=O)[O-])ccc5F)c5ccc([nH]5)c(-c5cc(S(=O)(=O)[O-])ccc5F)c5nc(c(-c6cc(S(=O)(=O)[O-])ccc6F)c6ccc3[nH]6)C=C5)C=C4)cc2)sc(C)c1-c1ccc(C)cc1
REMARK SMILES IDX 21 1 20 2 18 3 19 4 17 6 10 7 11 8 16 9 12 10 14 11 15 12
REMARK SMILES IDX 13 13 8 14 7 15 9 17 6 18 5 19 93 20 90 21 91 22 92 23 3 24
REMARK SMILES IDX 4 25 2 26 1 27 94 28 95 29 100 30 96 31 99 32 97 33 98 34
REMARK SMILES IDX 22 35 23 36 24 37 25 38 26 40 27 41 28 42 89 43 29 44 88 45
REMARK SMILES IDX 30 46 31 47 32 48 82 49 33 50 87 51 81 52 83 53 34 54 86 55
REMARK SMILES IDX 80 56 79 57 35 59 67 60 47 61 66 62 48 63 51 64 65 65 84 66
REMARK SMILES IDX 49 67 50 68 64 70 85 71 52 72 36 73 37 74 45 75 38 76 44 77
REMARK SMILES IDX 46 78 43 79 39 80 40 81 41 82 42 83 68 84 69 85 77 86 70 87
REMARK SMILES IDX 76 88 78 89 75 90 71 91 72 92 73 93 74 94 53 95 54 96 62 97
REMARK SMILES IDX 55 98 61 99 63 100 60 101 56 102 57 103 58 104 59 105
REMARK H PARENT 20 5 7 16 24 39 83 58 51 69
REMARK Flexibility Score: inf
ROOT
ATOM      1  C   UNL A   1      31.842  30.662  25.999  1.00  0.00     0.117 C 
ENDROOT
BRANCH   1   2
ATOM      2  N   UNL A   1      31.406  29.449  26.653  1.00  0.00    -0.356 N 
ATOM      3  C   UNL A   1      31.253  28.180  26.202  1.00  0.00     0.224 C 
ATOM      4  O   UNL A   1      31.048  27.324  27.072  1.00  0.00    -0.275 OA
ATOM      5  H   UNL A   1      31.175  29.566  27.604  1.00  0.00     0.163 HD
BRANCH   3   6
ATOM      6  C   UNL A   1      31.366  27.746  24.734  1.00  0.00     0.094 C 
ATOM      7  C   UNL A   1      32.106  26.413  24.451  1.00  0.00     0.094 C 
ATOM      8  C   UNL A   1      31.389  25.715  23.251  1.00  0.00     0.002 C 
ATOM      9  C   UNL A   1      29.965  25.310  23.674  1.00  0.00     0.005 C 
ATOM     10  C   UNL A   1      31.268  26.685  22.059  1.00  0.00     0.005 C 
ATOM     11  C   UNL A   1      30.033  27.819  23.938  1.00  0.00     0.002 C 
ATOM     12  C   UNL A   1      29.165  26.557  24.073  1.00  0.00     0.005 C 
ATOM     13  C   UNL A   1      30.421  27.907  22.444  1.00  0.00     0.005 C 
BRANCH   7  14
ATOM     14  C   UNL A   1      33.611  26.610  24.175  1.00  0.00     0.229 C 
ATOM     15  N   UNL A   1      34.520  25.600  24.342  1.00  0.00    -0.317 N 
ATOM     16  H   UNL A   1      35.433  25.820  24.044  1.00  0.00     0.170 HD
ATOM     17  O   UNL A   1      34.044  27.676  23.725  1.00  0.00    -0.274 OA
BRANCH  15  18
ATOM     18  C   UNL A   1      34.375  24.327  24.857  1.00  0.00     0.111 A 
ATOM     19  C   UNL A   1      34.422  23.135  24.150  1.00  0.00     0.102 A 
ATOM     20  C   UNL A   1      34.074  22.025  25.019  1.00  0.00     0.012 A 
ATOM     21  S   UNL A   1      34.216  24.079  26.525  1.00  0.00    -0.122 S 
ATOM     22  C   UNL A   1      33.822  22.436  26.320  1.00  0.00     0.012 A 
ATOM     23  C   UNL A   1      33.306  21.677  27.500  1.00  0.00     0.057 C 
BRANCH  19  24
ATOM     24  C   UNL A   1      34.680  23.104  22.711  1.00  0.00     0.341 C 
ATOM     25  O   UNL A   1      33.812  23.351  21.877  1.00  0.00    -0.246 OA
BRANCH  24  26
ATOM     26  O   UNL A   1      35.944  22.708  22.395  1.00  0.00    -0.465 OA
ATOM     27  C   UNL A   1      36.921  22.919  23.412  1.00  0.00     0.282 C 
ENDBRANCH  24  26
ENDBRANCH  19  24
BRANCH  20  28
ATOM     28  C   UNL A   1      33.982  20.620  24.653  1.00  0.00    -0.016 A 
ATOM     29  C   UNL A   1      35.085  19.785  24.861  1.00  0.00     0.009 A 
ATOM     30  C   UNL A   1      32.805  20.096  24.112  1.00  0.00     0.009 A 
ATOM     31  C   UNL A   1      35.005  18.430  24.543  1.00  0.00     0.004 A 
ATOM     32  C   UNL A   1      32.724  18.737  23.800  1.00  0.00     0.004 A 
ATOM     33  C   UNL A   1      33.821  17.894  24.020  1.00  0.00    -0.051 A 
ATOM     34  C   UNL A   1      33.746  16.429  23.710  1.00  0.00     0.044 C 
ENDBRANCH  20  28
ENDBRANCH  15  18
ENDBRANCH   7  14
ENDBRANCH   3   6
ENDBRANCH   1   2
BRANCH   1  35
ATOM     35  C   UNL A   1      31.600  31.918  26.818  1.00  0.00     0.042 C 
BRANCH  35  36
ATOM     36  C   UNL A   1      32.883  32.608  27.255  1.00  0.00     0.118 C 
BRANCH  36  37
ATOM     37  N   UNL A   1      32.657  33.988  27.674  1.00  0.00    -0.352 N 
ATOM     38  C   UNL A   1      33.189  34.724  28.707  1.00  0.00     0.251 C 
ATOM     39  H   UNL A   1      32.011  34.480  27.118  1.00  0.00     0.163 HD
ATOM     40  O   UNL A   1      32.663  35.795  29.003  1.00  0.00    -0.269 OA
BRANCH  38  41
ATOM     41  C   UNL A   1      34.358  34.236  29.473  1.00  0.00     0.039 A 
ATOM     42  C   UNL A   1      34.152  33.437  30.602  1.00  0.00     0.014 A 
ATOM     43  C   UNL A   1      35.656  34.592  29.109  1.00  0.00     0.014 A 
ATOM     44  C   UNL A   1      35.248  32.932  31.309  1.00  0.00     0.010 A 
ATOM     45  C   UNL A   1      36.743  34.001  29.743  1.00  0.00     0.010 A 
ATOM     46  C   UNL A   1      36.554  33.171  30.858  1.00  0.00    -0.014 A 
BRANCH  46  47
ATOM     47  C   UNL A   1      37.746  32.596  31.537  1.00  0.00     0.031 A 
ATOM     48  C   UNL A   1      38.504  31.468  30.885  1.00  0.00     0.074 A 
ATOM     49  C   UNL A   1      38.078  33.011  32.776  1.00  0.00     0.049 A 
ATOM     50  N   UNL A   1      39.454  30.715  31.374  1.00  0.00    -0.248 NA
ATOM     51  C   UNL A   1      38.101  31.112  29.516  1.00  0.00     0.031 C 
ATOM     52  C   UNL A   1      37.387  34.058  33.533  1.00  0.00     0.029 A 
ATOM     53  N   UNL A   1      39.070  32.591  33.625  1.00  0.00    -0.354 N 
ATOM     54  C   UNL A   1      39.731  29.769  30.390  1.00  0.00     0.074 A 
ATOM     55  C   UNL A   1      38.806  30.012  29.305  1.00  0.00     0.031 C 
ATOM     56  C   UNL A   1      37.988  34.211  34.724  1.00  0.00     0.029 A 
ATOM     57  C   UNL A   1      39.074  33.242  34.837  1.00  0.00     0.049 A 
ATOM     58  H   UNL A   1      39.719  31.888  33.390  1.00  0.00     0.167 HD
ATOM     59  C   UNL A   1      40.684  28.804  30.383  1.00  0.00     0.034 A 
ATOM     60  C   UNL A   1      39.853  33.069  35.923  1.00  0.00     0.034 A 
ATOM     61  C   UNL A   1      41.628  28.609  31.457  1.00  0.00     0.049 A 
ATOM     62  C   UNL A   1      40.927  32.011  35.882  1.00  0.00     0.074 A 
ATOM     63  C   UNL A   1      42.684  27.718  31.527  1.00  0.00     0.029 A 
ATOM     64  N   UNL A   1      41.630  29.323  32.648  1.00  0.00    -0.354 N 
ATOM     65  N   UNL A   1      41.206  31.155  34.926  1.00  0.00    -0.248 NA
ATOM     66  C   UNL A   1      41.796  31.905  37.060  1.00  0.00     0.031 C 
ATOM     67  C   UNL A   1      43.292  27.856  32.780  1.00  0.00     0.029 A 
ATOM     68  C   UNL A   1      42.656  28.879  33.468  1.00  0.00     0.049 A 
ATOM     69  H   UNL A   1      40.996  30.039  32.879  1.00  0.00     0.167 HD
ATOM     70  C   UNL A   1      42.302  30.427  35.378  1.00  0.00     0.074 A 
ATOM     71  C   UNL A   1      42.639  30.954  36.684  1.00  0.00     0.031 C 
ATOM     72  C   UNL A   1      42.972  29.416  34.770  1.00  0.00     0.034 A 
BRANCH  59  73
ATOM     73  C   UNL A   1      40.733  27.882  29.187  1.00  0.00     0.023 A 
ATOM     74  C   UNL A   1      41.666  28.065  28.151  1.00  0.00     0.031 A 
ATOM     75  C   UNL A   1      39.807  26.831  29.058  1.00  0.00     0.131 A 
ATOM     76  C   UNL A   1      41.596  27.272  26.996  1.00  0.00     0.055 A 
ATOM     77  C   UNL A   1      39.799  25.989  27.944  1.00  0.00     0.041 A 
ATOM     78  F   UNL A   1      38.879  26.617  30.005  1.00  0.00    -0.206 F 
ATOM     79  C   UNL A   1      40.685  26.217  26.896  1.00  0.00     0.022 A 
BRANCH  76  80
ATOM     80  S   UNL A   1      42.610  27.737  25.566  1.00  0.00     0.124 S 
ATOM     81  O   UNL A   1      41.881  28.898  25.056  1.00  0.00    -0.237 OA
ATOM     82  O   UNL A   1      43.906  28.014  26.173  1.00  0.00    -0.237 OA
ATOM     83  O   UNL A   1      42.560  26.554  24.710  1.00  0.00    -0.744 OA
ENDBRANCH  76  80
ENDBRANCH  59  73
BRANCH  60  84
ATOM     84  C   UNL A   1      39.649  33.904  37.140  1.00  0.00     0.023 A 
ATOM     85  C   UNL A   1      39.018  33.377  38.278  1.00  0.00     0.031 A 
ATOM     86  C   UNL A   1      40.056  35.249  37.173  1.00  0.00     0.131 A 
ATOM     87  C   UNL A   1      38.773  34.203  39.387  1.00  0.00     0.055 A 
ATOM     88  C   UNL A   1      39.852  36.054  38.296  1.00  0.00     0.041 A 
ATOM     89  F   UNL A   1      40.674  35.799  36.115  1.00  0.00    -0.206 F 
ATOM     90  C   UNL A   1      39.196  35.534  39.407  1.00  0.00     0.022 A 
BRANCH  87  91
ATOM     91  S   UNL A   1      37.826  33.528  40.778  1.00  0.00     0.124 S 
ATOM     92  O   UNL A   1      38.610  32.350  41.129  1.00  0.00    -0.237 OA
ATOM     93  O   UNL A   1      37.861  34.632  41.731  1.00  0.00    -0.237 OA
ATOM     94  O   UNL A   1      36.514  33.254  40.194  1.00  0.00    -0.744 OA
ENDBRANCH  87  91
ENDBRANCH  60  84
BRANCH  72  95
ATOM     95  C   UNL A   1      44.164  28.853  35.499  1.00  0.00     0.023 A 
ATOM     96  C   UNL A   1      44.038  27.794  36.415  1.00  0.00     0.031 A 
ATOM     97  C   UNL A   1      45.444  29.393  35.280  1.00  0.00     0.131 A 
ATOM     98  C   UNL A   1      45.165  27.341  37.116  1.00  0.00     0.055 A 
ATOM     99  C   UNL A   1      46.571  28.901  35.939  1.00  0.00     0.041 A 
ATOM    100  F   UNL A   1      45.619  30.406  34.416  1.00  0.00    -0.206 F 
ATOM    101  C   UNL A   1      46.433  27.877  36.872  1.00  0.00     0.022 A 
BRANCH  98 102
ATOM    102  S   UNL A   1      44.940  26.094  38.413  1.00  0.00     0.124 S 
ATOM    103  O   UNL A   1      46.112  26.316  39.255  1.00  0.00    -0.237 OA
ATOM    104  O   UNL A   1      43.657  26.476  38.994  1.00  0.00    -0.237 OA
ATOM    105  O   UNL A   1      44.935  24.831  37.678  1.00  0.00    -0.744 OA
ENDBRANCH  98 102
ENDBRANCH  72  95
ENDBRANCH  46  47
ENDBRANCH  38  41
ENDBRANCH  36  37
ENDBRANCH  35  36
ENDBRANCH   1  35
TORSDOF 18
ENDMDL
MODEL 2
REMARK VINA RESULT:     -13.0      1.491      1.927
REMARK SMILES COC(=O)c1c(NC(=O)[C@@H]2[C@H]3CC[C@H](CC3)[C@H]2C(=O)NCCCNC(=O)c2ccc(-c3c4nc(c(-c5cc(S(=O)(=O)[O-])ccc5F)c5ccc([nH]5)c(-c5cc(S(=O)(=O)[O-])ccc5F)c5nc(c(-c6cc(S(=O)(=O)[O-])ccc6F)c6ccc3[nH]6)C=C5)C=C4)cc2)sc(C)c1-c1ccc(C)cc1
REMARK SMILES IDX 21 1 20 2 18 3 19 4 17 6 10 7 11 8 16 9 12 10 14 11 15 12
REMARK SMILES IDX 13 13 8 14 7 15 9 17 6 18 5 19 93 20 90 21 91 22 92 23 3 24
REMARK SMILES IDX 4 25 2 26 1 27 94 28 95 29 100 30 96 31 99 32 97 33 98 34
REMARK SMILES IDX 22 35 23 36 24 37 25 38 26 40 27 41 28 42 89 43 29 44 88 45
REMARK SMILES IDX 30 46 31 47 32 48 82 49 33 50 87 51 81 52 83 53 34 54 86 55
REMARK SMILES IDX 80 56 79 57 35 59 67 60 47 61 66 62 48 63 51 64 65 65 84 66
REMARK SMILES IDX 49 67 50 68 64 70 85 71 52 72 36 73 37 74 45 75 38 76 44 77
REMARK SMILES IDX 46 78 43 79 39 80 40 81 41 82 42 83 68 84 69 85 77 86 70 87
REMARK SMILES IDX 76 88 78 89 75 90 71 91 72 92 73 93 74 94 53 95 54 96 62 97
REMARK SMILES IDX 55 98 61 99 63 100 60 101 56 102 57 103 58 104 59 105
REMARK H PARENT 20 5 7 16 24 39 83 58 51 69
REMARK Flexibility Score: inf
ROOT
ATOM      1  C   UNL A   1      32.569  30.136  26.929  1.00  0.00     0.117 C 
ENDROOT
BRANCH   1   2
ATOM      2  N   UNL A   1      31.746  29.003  27.288  1.00  0.00    -0.356 N 
ATOM      3  C   UNL A   1      31.285  27.953  26.567  1.00  0.00     0.224 C 
ATOM      4  O   UNL A   1      30.763  27.042  27.223  1.00  0.00    -0.275 OA
ATOM      5  H   UNL A   1      31.468  28.994  28.233  1.00  0.00     0.163 HD
BRANCH   3   6
ATOM      6  C   UNL A   1      31.411  27.804  25.045  1.00  0.00     0.094 C 
ATOM      7  C   UNL A   1      32.101  26.518  24.520  1.00  0.00     0.094 C 
ATOM      8  C   UNL A   1      31.382  26.096  23.198  1.00  0.00     0.002 C 
ATOM      9  C   UNL A   1      29.934  25.683  23.517  1.00  0.00     0.005 C 
ATOM     10  C   UNL A   1      31.327  27.282  22.215  1.00  0.00     0.005 C 
ATOM     11  C   UNL A   1      30.101  28.089  24.260  1.00  0.00     0.002 C 
ATOM     12  C   UNL A   1      29.177  26.865  24.138  1.00  0.00     0.005 C 
ATOM     13  C   UNL A   1      30.525  28.444  22.816  1.00  0.00     0.005 C 
BRANCH   7  14
ATOM     14  C   UNL A   1      33.618  26.696  24.308  1.00  0.00     0.229 C 
ATOM     15  N   UNL A   1      34.507  25.675  24.513  1.00  0.00    -0.317 N 
ATOM     16  H   UNL A   1      35.434  25.883  24.254  1.00  0.00     0.170 HD
ATOM     17  O   UNL A   1      34.084  27.755  23.875  1.00  0.00    -0.274 OA
BRANCH  15  18
ATOM     18  C   UNL A   1      34.325  24.405  25.023  1.00  0.00     0.111 A 
ATOM     19  C   UNL A   1      34.544  23.206  24.362  1.00  0.00     0.102 A 
ATOM     20  C   UNL A   1      34.093  22.094  25.180  1.00  0.00     0.012 A 
ATOM     21  S   UNL A   1      33.885  24.175  26.642  1.00  0.00    -0.122 S 
ATOM     22  C   UNL A   1      33.599  22.513  26.407  1.00  0.00     0.012 A 
ATOM     23  C   UNL A   1      32.914  21.750  27.495  1.00  0.00     0.057 C 
BRANCH  19  24
ATOM     24  C   UNL A   1      35.052  23.164  22.991  1.00  0.00     0.341 C 
ATOM     25  O   UNL A   1      36.219  22.887  22.725  1.00  0.00    -0.246 OA
BRANCH  24  26
ATOM     26  O   UNL A   1      34.129  23.531  22.060  1.00  0.00    -0.465 OA
ATOM     27  C   UNL A   1      32.847  22.921  22.197  1.00  0.00     0.282 C 
ENDBRANCH  24  26
ENDBRANCH  19  24
BRANCH  20  28
ATOM     28  C   UNL A   1      34.123  20.681  24.835  1.00  0.00    -0.016 A 
ATOM     29  C   UNL A   1      32.970  20.077  24.324  1.00  0.00     0.009 A 
ATOM     30  C   UNL A   1      35.291  19.930  24.993  1.00  0.00     0.009 A 
ATOM     31  C   UNL A   1      32.989  18.731  23.960  1.00  0.00     0.004 A 
ATOM     32  C   UNL A   1      35.310  18.584  24.622  1.00  0.00     0.004 A 
ATOM     33  C   UNL A   1      34.162  17.978  24.097  1.00  0.00    -0.051 A 
ATOM     34  C   UNL A   1      34.170  16.538  23.675  1.00  0.00     0.044 C 
ENDBRANCH  20  28
ENDBRANCH  15  18
ENDBRANCH   7  14
ENDBRANCH   3   6
ENDBRANCH   1   2
BRANCH   1  35
ATOM     35  C   UNL A   1      31.836  31.465  26.983  1.00  0.00     0.042 C 
BRANCH  35  36
ATOM     36  C   UNL A   1      32.680  32.638  26.508  1.00  0.00     0.118 C 
BRANCH  36  37
ATOM     37  N   UNL A   1      32.464  33.839  27.310  1.00  0.00    -0.352 N 
ATOM     38  C   UNL A   1      33.045  34.268  28.480  1.00  0.00     0.251 C 
ATOM     39  H   UNL A   1      31.783  34.450  26.948  1.00  0.00     0.163 HD
ATOM     40  O   UNL A   1      32.526  35.200  29.092  1.00  0.00    -0.269 OA
BRANCH  38  41
ATOM     41  C   UNL A   1      34.260  33.615  29.017  1.00  0.00     0.039 A 
ATOM     42  C   UNL A   1      35.517  34.144  28.704  1.00  0.00     0.014 A 
ATOM     43  C   UNL A   1      34.173  32.461  29.796  1.00  0.00     0.014 A 
ATOM     44  C   UNL A   1      36.671  33.565  29.241  1.00  0.00     0.010 A 
ATOM     45  C   UNL A   1      35.309  31.955  30.418  1.00  0.00     0.010 A 
ATOM     46  C   UNL A   1      36.574  32.493  30.141  1.00  0.00    -0.014 A 
BRANCH  46  47
ATOM     47  C   UNL A   1      37.769  31.892  30.791  1.00  0.00     0.031 A 
ATOM     48  C   UNL A   1      38.567  30.843  30.060  1.00  0.00     0.074 A 
ATOM     49  C   UNL A   1      38.070  32.208  32.066  1.00  0.00     0.049 A 
ATOM     50  N   UNL A   1      39.529  30.074  30.500  1.00  0.00    -0.248 NA
ATOM     51  C   UNL A   1      38.196  30.595  28.658  1.00  0.00     0.031 C 
ATOM     52  C   UNL A   1      37.340  33.169  32.897  1.00  0.00     0.029 A 
ATOM     53  N   UNL A   1      39.059  31.742  32.895  1.00  0.00    -0.354 N 
ATOM     54  C   UNL A   1      39.846  29.223  29.445  1.00  0.00     0.074 A 
ATOM     55  C   UNL A   1      38.933  29.535  28.368  1.00  0.00     0.031 C 
ATOM     56  C   UNL A   1      37.917  33.234  34.107  1.00  0.00     0.029 A 
ATOM     57  C   UNL A   1      39.026  32.287  34.158  1.00  0.00     0.049 A 
ATOM     58  H   UNL A   1      39.730  31.078  32.613  1.00  0.00     0.167 HD
ATOM     59  C   UNL A   1      40.825  28.286  29.374  1.00  0.00     0.034 A 
ATOM     60  C   UNL A   1      39.792  32.041  35.239  1.00  0.00     0.034 A 
ATOM     61  C   UNL A   1      41.755  28.024  30.445  1.00  0.00     0.049 A 
ATOM     62  C   UNL A   1      40.893  31.018  35.128  1.00  0.00     0.074 A 
ATOM     63  C   UNL A   1      42.833  27.156  30.458  1.00  0.00     0.029 A 
ATOM     64  N   UNL A   1      41.720  28.633  31.692  1.00  0.00    -0.354 N 
ATOM     65  N   UNL A   1      41.210  30.254  34.108  1.00  0.00    -0.248 NA
ATOM     66  C   UNL A   1      41.746  30.833  36.309  1.00  0.00     0.031 C 
ATOM     67  C   UNL A   1      43.417  27.202  31.730  1.00  0.00     0.029 A 
ATOM     68  C   UNL A   1      42.744  28.147  32.490  1.00  0.00     0.049 A 
ATOM     69  H   UNL A   1      41.063  29.312  31.971  1.00  0.00     0.167 HD
ATOM     70  C   UNL A   1      42.317  29.517  34.517  1.00  0.00     0.074 A 
ATOM     71  C   UNL A   1      42.620  29.939  35.870  1.00  0.00     0.031 C 
ATOM     72  C   UNL A   1      43.024  28.578  33.839  1.00  0.00     0.034 A 
BRANCH  59  73
ATOM     73  C   UNL A   1      40.917  27.471  28.105  1.00  0.00     0.023 A 
ATOM     74  C   UNL A   1      40.477  26.137  28.050  1.00  0.00     0.031 A 
ATOM     75  C   UNL A   1      41.488  28.022  26.944  1.00  0.00     0.131 A 
ATOM     76  C   UNL A   1      40.699  25.372  26.895  1.00  0.00     0.055 A 
ATOM     77  C   UNL A   1      41.626  27.280  25.768  1.00  0.00     0.041 A 
ATOM     78  F   UNL A   1      41.942  29.285  26.938  1.00  0.00    -0.206 F 
ATOM     79  C   UNL A   1      41.247  25.942  25.744  1.00  0.00     0.022 A 
BRANCH  76  80
ATOM     80  S   UNL A   1      40.402  23.585  26.973  1.00  0.00     0.124 S 
ATOM     81  O   UNL A   1      40.632  23.310  28.391  1.00  0.00    -0.237 OA
ATOM     82  O   UNL A   1      39.021  23.473  26.517  1.00  0.00    -0.237 OA
ATOM     83  O   UNL A   1      41.406  23.030  26.068  1.00  0.00    -0.744 OA
ENDBRANCH  76  80
ENDBRANCH  59  73
BRANCH  60  84
ATOM     84  C   UNL A   1      39.546  32.764  36.518  1.00  0.00     0.023 A 
ATOM     85  C   UNL A   1      38.587  32.304  37.434  1.00  0.00     0.031 A 
ATOM     86  C   UNL A   1      40.246  33.943  36.832  1.00  0.00     0.131 A 
ATOM     87  C   UNL A   1      38.322  33.040  38.600  1.00  0.00     0.055 A 
ATOM     88  C   UNL A   1      40.013  34.647  38.014  1.00  0.00     0.041 A 
ATOM     89  F   UNL A   1      41.182  34.420  35.996  1.00  0.00    -0.206 F 
ATOM     90  C   UNL A   1      39.036  34.202  38.901  1.00  0.00     0.022 A 
BRANCH  87  91
ATOM     91  S   UNL A   1      36.975  32.493  39.684  1.00  0.00     0.124 S 
ATOM     92  O   UNL A   1      37.383  31.130  40.001  1.00  0.00    -0.237 OA
ATOM     93  O   UNL A   1      37.055  33.458  40.775  1.00  0.00    -0.237 OA
ATOM     94  O   UNL A   1      35.790  32.610  38.837  1.00  0.00    -0.744 OA
ENDBRANCH  87  91
ENDBRANCH  60  84
BRANCH  72  95
ATOM     95  C   UNL A   1      44.219  27.985  34.539  1.00  0.00     0.023 A 
ATOM     96  C   UNL A   1      44.121  26.802  35.292  1.00  0.00     0.031 A 
ATOM     97  C   UNL A   1      45.470  28.620  34.458  1.00  0.00     0.131 A 
ATOM     98  C   UNL A   1      45.245  26.318  35.978  1.00  0.00     0.055 A 
ATOM     99  C   UNL A   1      46.598  28.104  35.096  1.00  0.00     0.041 A 
ATOM    100  F   UNL A   1      45.617  29.753  33.752  1.00  0.00    -0.206 F 
ATOM    101  C   UNL A   1      46.486  26.953  35.871  1.00  0.00     0.022 A 
BRANCH  98 102
ATOM    102  S   UNL A   1      45.046  24.890  37.078  1.00  0.00     0.124 S 
ATOM    103  O   UNL A   1      44.146  25.417  38.099  1.00  0.00    -0.237 OA
ATOM    104  O   UNL A   1      44.478  23.885  36.185  1.00  0.00    -0.237 OA
ATOM    105  O   UNL A   1      46.408  24.615  37.533  1.00  0.00    -0.744 OA
ENDBRANCH  98 102
ENDBRANCH  72  95
ENDBRANCH  46  47
ENDBRANCH  38  41
ENDBRANCH  36  37
ENDBRANCH  35  36
ENDBRANCH   1  35
TORSDOF 18
ENDMDL
MODEL 3
REMARK VINA RESULT:     -12.9      3.324      8.153
REMARK SMILES COC(=O)c1c(NC(=O)[C@@H]2[C@H]3CC[C@H](CC3)[C@H]2C(=O)NCCCNC(=O)c2ccc(-c3c4nc(c(-c5cc(S(=O)(=O)[O-])ccc5F)c5ccc([nH]5)c(-c5cc(S(=O)(=O)[O-])ccc5F)c5nc(c(-c6cc(S(=O)(=O)[O-])ccc6F)c6ccc3[nH]6)C=C5)C=C4)cc2)sc(C)c1-c1ccc(C)cc1
REMARK SMILES IDX 21 1 20 2 18 3 19 4 17 6 10 7 11 8 16 9 12 10 14 11 15 12
REMARK SMILES IDX 13 13 8 14 7 15 9 17 6 18 5 19 93 20 90 21 91 22 92 23 3 24
REMARK SMILES IDX 4 25 2 26 1 27 94 28 95 29 100 30 96 31 99 32 97 33 98 34
REMARK SMILES IDX 22 35 23 36 24 37 25 38 26 40 27 41 28 42 89 43 29 44 88 45
REMARK SMILES IDX 30 46 31 47 32 48 82 49 33 50 87 51 81 52 83 53 34 54 86 55
REMARK SMILES IDX 80 56 79 57 35 59 67 60 47 61 66 62 48 63 51 64 65 65 84 66
REMARK SMILES IDX 49 67 50 68 64 70 85 71 52 72 36 73 37 74 45 75 38 76 44 77
REMARK SMILES IDX 46 78 43 79 39 80 40 81 41 82 42 83 68 84 69 85 77 86 70 87
REMARK SMILES IDX 76 88 78 89 75 90 71 91 72 92 73 93 74 94 53 95 54 96 62 97
REMARK SMILES IDX 55 98 61 99 63 100 60 101 56 102 57 103 58 104 59 105
REMARK H PARENT 20 5 7 16 24 39 83 58 51 69
REMARK Flexibility Score: inf
ROOT
ATOM      1  C   UNL A   1      32.151  28.714  27.594  1.00  0.00     0.117 C 
ENDROOT
BRANCH   1   2
ATOM      2  N   UNL A   1      31.353  27.510  27.519  1.00  0.00    -0.356 N 
ATOM      3  C   UNL A   1      30.980  26.733  26.473  1.00  0.00     0.224 C 
ATOM      4  O   UNL A   1      30.456  25.652  26.771  1.00  0.00    -0.275 OA
ATOM      5  H   UNL A   1      31.017  27.197  28.391  1.00  0.00     0.163 HD
BRANCH   3   6
ATOM      6  C   UNL A   1      31.207  27.076  24.995  1.00  0.00     0.094 C 
ATOM      7  C   UNL A   1      32.068  26.084  24.169  1.00  0.00     0.094 C 
ATOM      8  C   UNL A   1      31.476  26.028  22.723  1.00  0.00     0.002 C 
ATOM      9  C   UNL A   1      30.069  25.406  22.774  1.00  0.00     0.005 C 
ATOM     10  C   UNL A   1      31.341  27.450  22.143  1.00  0.00     0.005 C 
ATOM     11  C   UNL A   1      29.918  27.468  24.221  1.00  0.00     0.002 C 
ATOM     12  C   UNL A   1      29.149  26.263  23.654  1.00  0.00     0.005 C 
ATOM     13  C   UNL A   1      30.379  28.290  22.994  1.00  0.00     0.005 C 
BRANCH   7  14
ATOM     14  C   UNL A   1      33.564  26.457  24.154  1.00  0.00     0.229 C 
ATOM     15  N   UNL A   1      34.540  25.568  24.517  1.00  0.00    -0.317 N 
ATOM     16  H   UNL A   1      35.459  25.891  24.375  1.00  0.00     0.170 HD
ATOM     17  O   UNL A   1      33.944  27.559  23.746  1.00  0.00    -0.274 OA
BRANCH  15  18
ATOM     18  C   UNL A   1      34.454  24.295  25.047  1.00  0.00     0.111 A 
ATOM     19  C   UNL A   1      34.640  23.100  24.370  1.00  0.00     0.102 A 
ATOM     20  C   UNL A   1      34.315  21.980  25.234  1.00  0.00     0.012 A 
ATOM     21  S   UNL A   1      34.197  24.062  26.704  1.00  0.00    -0.122 S 
ATOM     22  C   UNL A   1      33.941  22.390  26.506  1.00  0.00     0.012 A 
ATOM     23  C   UNL A   1      33.401  21.613  27.663  1.00  0.00     0.057 C 
BRANCH  19  24
ATOM     24  C   UNL A   1      35.000  23.066  22.952  1.00  0.00     0.341 C 
ATOM     25  O   UNL A   1      36.120  22.747  22.561  1.00  0.00    -0.246 OA
BRANCH  24  26
ATOM     26  O   UNL A   1      34.002  23.489  22.129  1.00  0.00    -0.465 OA
ATOM     27  C   UNL A   1      32.821  22.691  22.142  1.00  0.00     0.282 C 
ENDBRANCH  24  26
ENDBRANCH  19  24
BRANCH  20  28
ATOM     28  C   UNL A   1      34.354  20.566  24.892  1.00  0.00    -0.016 A 
ATOM     29  C   UNL A   1      33.174  19.925  24.499  1.00  0.00     0.009 A 
ATOM     30  C   UNL A   1      35.553  19.851  24.938  1.00  0.00     0.009 A 
ATOM     31  C   UNL A   1      33.199  18.578  24.139  1.00  0.00     0.004 A 
ATOM     32  C   UNL A   1      35.577  18.504  24.571  1.00  0.00     0.004 A 
ATOM     33  C   UNL A   1      34.401  17.861  24.162  1.00  0.00    -0.051 A 
ATOM     34  C   UNL A   1      34.411  16.420  23.746  1.00  0.00     0.044 C 
ENDBRANCH  20  28
ENDBRANCH  15  18
ENDBRANCH   7  14
ENDBRANCH   3   6
ENDBRANCH   1   2
BRANCH   1  35
ATOM     35  C   UNL A   1      33.617  28.497  27.259  1.00  0.00     0.042 C 
BRANCH  35  36
ATOM     36  C   UNL A   1      34.221  29.628  26.443  1.00  0.00     0.118 C 
BRANCH  36  37
ATOM     37  N   UNL A   1      34.016  30.934  27.064  1.00  0.00    -0.352 N 
ATOM     38  C   UNL A   1      34.642  31.543  28.126  1.00  0.00     0.251 C 
ATOM     39  H   UNL A   1      33.305  31.473  26.649  1.00  0.00     0.163 HD
ATOM     40  O   UNL A   1      34.131  32.549  28.616  1.00  0.00    -0.269 OA
BRANCH  38  41
ATOM     41  C   UNL A   1      35.895  30.998  28.694  1.00  0.00     0.039 A 
ATOM     42  C   UNL A   1      35.828  29.952  29.621  1.00  0.00     0.014 A 
ATOM     43  C   UNL A   1      37.136  31.534  28.350  1.00  0.00     0.014 A 
ATOM     44  C   UNL A   1      37.006  29.396  30.132  1.00  0.00     0.010 A 
ATOM     45  C   UNL A   1      38.304  30.909  28.771  1.00  0.00     0.010 A 
ATOM     46  C   UNL A   1      38.255  29.839  29.676  1.00  0.00    -0.014 A 
BRANCH  46  47
ATOM     47  C   UNL A   1      39.530  29.229  30.138  1.00  0.00     0.031 A 
ATOM     48  C   UNL A   1      40.287  29.857  31.281  1.00  0.00     0.074 A 
ATOM     49  C   UNL A   1      40.057  28.185  29.467  1.00  0.00     0.049 A 
ATOM     50  N   UNL A   1      41.487  29.595  31.726  1.00  0.00    -0.248 NA
ATOM     51  C   UNL A   1      39.616  30.963  31.982  1.00  0.00     0.031 C 
ATOM     52  C   UNL A   1      39.446  27.523  28.312  1.00  0.00     0.029 A 
ATOM     53  N   UNL A   1      41.236  27.506  29.649  1.00  0.00    -0.354 N 
ATOM     54  C   UNL A   1      41.733  30.530  32.728  1.00  0.00     0.074 A 
ATOM     55  C   UNL A   1      40.577  31.399  32.780  1.00  0.00     0.031 C 
ATOM     56  C   UNL A   1      40.244  26.525  27.902  1.00  0.00     0.029 A 
ATOM     57  C   UNL A   1      41.444  26.503  28.731  1.00  0.00     0.049 A 
ATOM     58  H   UNL A   1      41.873  27.717  30.370  1.00  0.00     0.167 HD
ATOM     59  C   UNL A   1      42.810  30.638  33.544  1.00  0.00     0.034 A 
ATOM     60  C   UNL A   1      42.491  25.671  28.565  1.00  0.00     0.034 A 
ATOM     61  C   UNL A   1      43.932  29.731  33.507  1.00  0.00     0.049 A 
ATOM     62  C   UNL A   1      43.665  25.788  29.503  1.00  0.00     0.074 A 
ATOM     63  C   UNL A   1      45.040  29.694  34.334  1.00  0.00     0.029 A 
ATOM     64  N   UNL A   1      44.083  28.696  32.593  1.00  0.00    -0.354 N 
ATOM     65  N   UNL A   1      43.861  26.648  30.476  1.00  0.00    -0.248 NA
ATOM     66  C   UNL A   1      44.751  24.815  29.329  1.00  0.00     0.031 C 
ATOM     67  C   UNL A   1      45.886  28.672  33.888  1.00  0.00     0.029 A 
ATOM     68  C   UNL A   1      45.276  28.028  32.823  1.00  0.00     0.049 A 
ATOM     69  H   UNL A   1      43.439  28.470  31.885  1.00  0.00     0.167 HD
ATOM     70  C   UNL A   1      45.082  26.302  31.047  1.00  0.00     0.074 A 
ATOM     71  C   UNL A   1      45.568  25.147  30.319  1.00  0.00     0.031 C 
ATOM     72  C   UNL A   1      45.743  26.882  32.081  1.00  0.00     0.034 A 
BRANCH  59  73
ATOM     73  C   UNL A   1      42.827  31.786  34.526  1.00  0.00     0.023 A 
ATOM     74  C   UNL A   1      42.242  31.677  35.800  1.00  0.00     0.031 A 
ATOM     75  C   UNL A   1      43.399  33.021  34.170  1.00  0.00     0.131 A 
ATOM     76  C   UNL A   1      42.161  32.804  36.633  1.00  0.00     0.055 A 
ATOM     77  C   UNL A   1      43.392  34.114  35.040  1.00  0.00     0.041 A 
ATOM     78  F   UNL A   1      43.957  33.193  32.961  1.00  0.00    -0.206 F 
ATOM     79  C   UNL A   1      42.755  34.015  36.273  1.00  0.00     0.022 A 
BRANCH  76  80
ATOM     80  S   UNL A   1      41.134  32.702  38.125  1.00  0.00     0.124 S 
ATOM     81  O   UNL A   1      41.938  31.823  38.974  1.00  0.00    -0.237 OA
ATOM     82  O   UNL A   1      41.049  34.095  38.547  1.00  0.00    -0.237 OA
ATOM     83  O   UNL A   1      39.885  32.117  37.643  1.00  0.00    -0.744 OA
ENDBRANCH  76  80
ENDBRANCH  59  73
BRANCH  60  84
ATOM     84  C   UNL A   1      42.486  24.661  27.470  1.00  0.00     0.023 A 
ATOM     85  C   UNL A   1      41.784  23.453  27.607  1.00  0.00     0.031 A 
ATOM     86  C   UNL A   1      43.206  24.874  26.282  1.00  0.00     0.131 A 
ATOM     87  C   UNL A   1      41.851  22.485  26.592  1.00  0.00     0.055 A 
ATOM     88  C   UNL A   1      43.232  23.929  25.255  1.00  0.00     0.041 A 
ATOM     89  F   UNL A   1      43.886  26.017  26.095  1.00  0.00    -0.206 F 
ATOM     90  C   UNL A   1      42.561  22.720  25.413  1.00  0.00     0.022 A 
BRANCH  87  91
ATOM     91  S   UNL A   1      41.053  20.880  26.869  1.00  0.00     0.124 S 
ATOM     92  O   UNL A   1      42.090  19.953  26.434  1.00  0.00    -0.237 OA
ATOM     93  O   UNL A   1      40.785  20.919  28.302  1.00  0.00    -0.237 OA
ATOM     94  O   UNL A   1      39.868  20.939  26.014  1.00  0.00    -0.744 OA
ENDBRANCH  87  91
ENDBRANCH  60  84
BRANCH  72  95
ATOM     95  C   UNL A   1      47.038  26.240  32.508  1.00  0.00     0.023 A 
ATOM     96  C   UNL A   1      48.275  26.658  31.989  1.00  0.00     0.031 A 
ATOM     97  C   UNL A   1      47.029  25.189  33.441  1.00  0.00     0.131 A 
ATOM     98  C   UNL A   1      49.451  25.992  32.369  1.00  0.00     0.055 A 
ATOM     99  C   UNL A   1      48.206  24.567  33.857  1.00  0.00     0.041 A 
ATOM    100  F   UNL A   1      45.873  24.751  33.966  1.00  0.00    -0.206 F 
ATOM    101  C   UNL A   1      49.425  24.961  33.311  1.00  0.00     0.022 A 
BRANCH  98 102
ATOM    102  S   UNL A   1      51.007  26.440  31.553  1.00  0.00     0.124 S 
ATOM    103  O   UNL A   1      51.427  25.164  30.980  1.00  0.00    -0.237 OA
ATOM    104  O   UNL A   1      50.577  27.456  30.597  1.00  0.00    -0.237 OA
ATOM    105  O   UNL A   1      51.839  26.933  32.648  1.00  0.00    -0.744 OA
ENDBRANCH  98 102
ENDBRANCH  72  95
ENDBRANCH  46  47
ENDBRANCH  38  41
ENDBRANCH  36  37
ENDBRANCH  35  36
ENDBRANCH   1  35
TORSDOF 18
ENDMDL
