MODEL 1
REMARK VINA RESULT:     -10.4      0.000      0.000
REMARK SMILES C=CC[N@@H+](CC(=O)NCCCNC(=O)c1ccc(-c2c3nc(c(-c4cc(S(=O)(=O)[O-])ccc4F)c4ccc([nH]4)c(-c4cc(S(=O)(=O)[O-])ccc4F)c4nc(c(-c5cc(S(=O)(=O)[O-])ccc5F)c5ccc2[nH]5)C=C4)C=C3)cc1)C[C@H]1CNC(=O)O1
REMARK SMILES IDX 10 1 9 2 8 3 6 4 7 5 5 7 4 8 3 10 2 11 1 12 78 13 79 14
REMARK SMILES IDX 80 15 84 16 81 17 82 18 83 20 11 21 12 22 13 23 14 25 15 26
REMARK SMILES IDX 16 27 77 28 17 29 76 30 18 31 19 32 20 33 70 34 21 35 75 36
REMARK SMILES IDX 69 37 71 38 22 39 74 40 68 41 67 42 23 44 55 45 35 46 54 47
REMARK SMILES IDX 36 48 39 49 53 50 72 51 37 52 38 53 52 55 73 56 40 57 24 58
REMARK SMILES IDX 25 59 33 60 26 61 32 62 34 63 31 64 27 65 28 66 29 67 30 68
REMARK SMILES IDX 56 69 57 70 65 71 58 72 64 73 66 74 63 75 59 76 60 77 61 78
REMARK SMILES IDX 62 79 41 80 42 81 50 82 43 83 49 84 51 85 48 86 44 87 45 88
REMARK SMILES IDX 46 89 47 90
REMARK H PARENT 8 6 4 9 81 19 12 24 71 43 39 54
REMARK Flexibility Score: inf
ROOT
ATOM      1  C   UNL A   1      32.926  28.161  27.046  1.00  0.00     0.042 C 
ENDROOT
BRANCH   1   2
ATOM      2  C   UNL A   1      31.709  27.569  26.326  1.00  0.00     0.118 C 
BRANCH   2   3
ATOM      3  N   UNL A   1      31.243  26.297  26.860  1.00  0.00    -0.351 N 
ATOM      4  C   UNL A   1      31.365  25.019  26.399  1.00  0.00     0.275 C 
ATOM      5  O   UNL A   1      31.212  24.120  27.233  1.00  0.00    -0.269 OA
ATOM      6  H   UNL A   1      30.750  26.372  27.709  1.00  0.00     0.163 HD
BRANCH   4   7
ATOM      7  C   UNL A   1      31.661  24.666  24.937  1.00  0.00     0.363 C 
BRANCH   7   8
ATOM      8  N   UNL A   1      33.091  24.536  24.552  1.00  0.00    -0.321 N 
ATOM      9  H   UNL A   1      33.553  25.376  24.899  1.00  0.00     0.348 HD
BRANCH   8  10
ATOM     10  C   UNL A   1      33.260  24.564  23.116  1.00  0.00     0.290 C 
BRANCH  10  11
ATOM     11  C   UNL A   1      32.866  25.808  22.388  1.00  0.00     0.025 C 
ATOM     12  C   UNL A   1      33.550  26.958  22.500  1.00  0.00     0.010 C 
ENDBRANCH  10  11
ENDBRANCH   8  10
BRANCH   8  13
ATOM     13  C   UNL A   1      33.863  23.506  25.279  1.00  0.00     0.310 C 
BRANCH  13  14
ATOM     14  C   UNL A   1      33.939  22.044  24.793  1.00  0.00     0.252 C 
ATOM     15  C   UNL A   1      35.029  21.172  25.376  1.00  0.00     0.170 C 
ATOM     16  O   UNL A   1      32.735  21.328  25.149  1.00  0.00    -0.438 OA
ATOM     17  N   UNL A   1      34.430  19.885  25.293  1.00  0.00    -0.318 N 
ATOM     18  C   UNL A   1      33.072  20.005  25.225  1.00  0.00     0.407 C 
ATOM     19  H   UNL A   1      34.923  19.033  25.284  1.00  0.00     0.167 HD
ATOM     20  O   UNL A   1      32.275  19.082  25.250  1.00  0.00    -0.225 OA
ENDBRANCH  13  14
ENDBRANCH   8  13
ENDBRANCH   7   8
ENDBRANCH   4   7
ENDBRANCH   2   3
ENDBRANCH   1   2
BRANCH   1  21
ATOM     21  C   UNL A   1      33.834  29.031  26.186  1.00  0.00     0.118 C 
BRANCH  21  22
ATOM     22  N   UNL A   1      33.732  30.422  26.571  1.00  0.00    -0.352 N 
ATOM     23  C   UNL A   1      34.382  31.087  27.584  1.00  0.00     0.251 C 
ATOM     24  H   UNL A   1      33.113  30.968  26.033  1.00  0.00     0.163 HD
ATOM     25  O   UNL A   1      33.892  32.131  28.008  1.00  0.00    -0.269 OA
BRANCH  23  26
ATOM     26  C   UNL A   1      35.640  30.559  28.175  1.00  0.00     0.039 A 
ATOM     27  C   UNL A   1      36.857  30.895  27.576  1.00  0.00     0.014 A 
ATOM     28  C   UNL A   1      35.633  29.675  29.260  1.00  0.00     0.014 A 
ATOM     29  C   UNL A   1      38.055  30.369  28.073  1.00  0.00     0.010 A 
ATOM     30  C   UNL A   1      36.834  29.229  29.813  1.00  0.00     0.010 A 
ATOM     31  C   UNL A   1      38.059  29.546  29.210  1.00  0.00    -0.014 A 
BRANCH  31  32
ATOM     32  C   UNL A   1      39.328  28.973  29.742  1.00  0.00     0.031 A 
ATOM     33  C   UNL A   1      39.957  29.544  30.988  1.00  0.00     0.074 A 
ATOM     34  C   UNL A   1      39.931  27.955  29.097  1.00  0.00     0.049 A 
ATOM     35  N   UNL A   1      41.069  29.202  31.589  1.00  0.00    -0.248 NA
ATOM     36  C   UNL A   1      39.255  30.667  31.624  1.00  0.00     0.031 C 
ATOM     37  C   UNL A   1      39.437  27.326  27.871  1.00  0.00     0.029 A 
ATOM     38  N   UNL A   1      41.082  27.265  29.383  1.00  0.00    -0.354 N 
ATOM     39  C   UNL A   1      41.202  30.070  32.670  1.00  0.00     0.074 A 
ATOM     40  C   UNL A   1      40.099  31.005  32.584  1.00  0.00     0.031 C 
ATOM     41  C   UNL A   1      40.254  26.314  27.538  1.00  0.00     0.029 A 
ATOM     42  C   UNL A   1      41.359  26.257  28.491  1.00  0.00     0.049 A 
ATOM     43  H   UNL A   1      41.657  27.474  30.155  1.00  0.00     0.167 HD
ATOM     44  C   UNL A   1      42.134  30.071  33.657  1.00  0.00     0.034 A 
ATOM     45  C   UNL A   1      42.387  25.385  28.438  1.00  0.00     0.034 A 
ATOM     46  C   UNL A   1      43.231  29.135  33.723  1.00  0.00     0.049 A 
ATOM     47  C   UNL A   1      43.452  25.448  29.504  1.00  0.00     0.074 A 
ATOM     48  C   UNL A   1      44.213  29.025  34.693  1.00  0.00     0.029 A 
ATOM     49  N   UNL A   1      43.503  28.157  32.775  1.00  0.00    -0.354 N 
ATOM     50  N   UNL A   1      43.543  26.251  30.539  1.00  0.00    -0.248 NA
ATOM     51  C   UNL A   1      44.550  24.479  29.395  1.00  0.00     0.031 C 
ATOM     52  C   UNL A   1      45.123  28.043  34.286  1.00  0.00     0.029 A 
ATOM     53  C   UNL A   1      44.659  27.469  33.113  1.00  0.00     0.049 A 
ATOM     54  H   UNL A   1      42.956  27.979  31.976  1.00  0.00     0.167 HD
ATOM     55  C   UNL A   1      44.688  25.855  31.227  1.00  0.00     0.074 A 
ATOM     56  C   UNL A   1      45.246  24.739  30.492  1.00  0.00     0.031 C 
ATOM     57  C   UNL A   1      45.223  26.366  32.367  1.00  0.00     0.034 A 
BRANCH  44  58
ATOM     58  C   UNL A   1      42.014  31.145  34.718  1.00  0.00     0.023 A 
ATOM     59  C   UNL A   1      40.959  31.149  35.648  1.00  0.00     0.031 A 
ATOM     60  C   UNL A   1      42.929  32.213  34.766  1.00  0.00     0.131 A 
ATOM     61  C   UNL A   1      40.778  32.246  36.502  1.00  0.00     0.055 A 
ATOM     62  C   UNL A   1      42.803  33.251  35.692  1.00  0.00     0.041 A 
ATOM     63  F   UNL A   1      43.947  32.282  33.894  1.00  0.00    -0.206 F 
ATOM     64  C   UNL A   1      41.710  33.284  36.552  1.00  0.00     0.022 A 
BRANCH  61  65
ATOM     65  S   UNL A   1      39.204  32.392  37.393  1.00  0.00     0.124 S 
ATOM     66  O   UNL A   1      38.616  33.571  36.759  1.00  0.00    -0.237 OA
ATOM     67  O   UNL A   1      38.557  31.119  37.102  1.00  0.00    -0.237 OA
ATOM     68  O   UNL A   1      39.614  32.584  38.783  1.00  0.00    -0.744 OA
ENDBRANCH  61  65
ENDBRANCH  44  58
BRANCH  45  69
ATOM     69  C   UNL A   1      42.460  24.375  27.344  1.00  0.00     0.023 A 
ATOM     70  C   UNL A   1      41.676  23.211  27.385  1.00  0.00     0.031 A 
ATOM     71  C   UNL A   1      43.329  24.545  26.253  1.00  0.00     0.131 A 
ATOM     72  C   UNL A   1      41.805  22.244  26.376  1.00  0.00     0.055 A 
ATOM     73  C   UNL A   1      43.413  23.609  25.222  1.00  0.00     0.041 A 
ATOM     74  F   UNL A   1      44.099  25.642  26.162  1.00  0.00    -0.206 F 
ATOM     75  C   UNL A   1      42.655  22.443  25.286  1.00  0.00     0.022 A 
BRANCH  72  76
ATOM     76  S   UNL A   1      40.896  20.685  26.545  1.00  0.00     0.124 S 
ATOM     77  O   UNL A   1      39.592  21.041  25.999  1.00  0.00    -0.237 OA
ATOM     78  O   UNL A   1      41.703  19.774  25.739  1.00  0.00    -0.237 OA
ATOM     79  O   UNL A   1      40.924  20.430  27.984  1.00  0.00    -0.744 OA
ENDBRANCH  72  76
ENDBRANCH  45  69
BRANCH  57  80
ATOM     80  C   UNL A   1      46.453  25.682  32.919  1.00  0.00     0.023 A 
ATOM     81  C   UNL A   1      47.749  26.015  32.485  1.00  0.00     0.031 A 
ATOM     82  C   UNL A   1      46.324  24.670  33.888  1.00  0.00     0.131 A 
ATOM     83  C   UNL A   1      48.854  25.299  32.969  1.00  0.00     0.055 A 
ATOM     84  C   UNL A   1      47.433  24.013  34.421  1.00  0.00     0.041 A 
ATOM     85  F   UNL A   1      45.112  24.304  34.337  1.00  0.00    -0.206 F 
ATOM     86  C   UNL A   1      48.707  24.316  33.950  1.00  0.00     0.022 A 
BRANCH  83  87
ATOM     87  S   UNL A   1      50.478  25.590  32.214  1.00  0.00     0.124 S 
ATOM     88  O   UNL A   1      50.428  27.020  31.930  1.00  0.00    -0.237 OA
ATOM     89  O   UNL A   1      51.393  25.182  33.275  1.00  0.00    -0.237 OA
ATOM     90  O   UNL A   1      50.469  24.723  31.036  1.00  0.00    -0.744 OA
ENDBRANCH  83  87
ENDBRANCH  57  80
ENDBRANCH  31  32
ENDBRANCH  23  26
ENDBRANCH  21  22
ENDBRANCH   1  21
TORSDOF 18
ENDMDL
MODEL 2
REMARK VINA RESULT:     -10.3      4.904      7.369
REMARK SMILES C=CC[N@@H+](CC(=O)NCCCNC(=O)c1ccc(-c2c3nc(c(-c4cc(S(=O)(=O)[O-])ccc4F)c4ccc([nH]4)c(-c4cc(S(=O)(=O)[O-])ccc4F)c4nc(c(-c5cc(S(=O)(=O)[O-])ccc5F)c5ccc2[nH]5)C=C4)C=C3)cc1)C[C@H]1CNC(=O)O1
REMARK SMILES IDX 10 1 9 2 8 3 6 4 7 5 5 7 4 8 3 10 2 11 1 12 78 13 79 14
REMARK SMILES IDX 80 15 84 16 81 17 82 18 83 20 11 21 12 22 13 23 14 25 15 26
REMARK SMILES IDX 16 27 77 28 17 29 76 30 18 31 19 32 20 33 70 34 21 35 75 36
REMARK SMILES IDX 69 37 71 38 22 39 74 40 68 41 67 42 23 44 55 45 35 46 54 47
REMARK SMILES IDX 36 48 39 49 53 50 72 51 37 52 38 53 52 55 73 56 40 57 24 58
REMARK SMILES IDX 25 59 33 60 26 61 32 62 34 63 31 64 27 65 28 66 29 67 30 68
REMARK SMILES IDX 56 69 57 70 65 71 58 72 64 73 66 74 63 75 59 76 60 77 61 78
REMARK SMILES IDX 62 79 41 80 42 81 50 82 43 83 49 84 51 85 48 86 44 87 45 88
REMARK SMILES IDX 46 89 47 90
REMARK H PARENT 8 6 4 9 81 19 12 24 71 43 39 54
REMARK Flexibility Score: inf
ROOT
ATOM      1  C   UNL A   1      35.447  21.991  24.357  1.00  0.00     0.042 C 
ENDROOT
BRANCH   1   2
ATOM      2  C   UNL A   1      35.499  23.409  23.776  1.00  0.00     0.118 C 
BRANCH   2   3
ATOM      3  N   UNL A   1      34.418  23.732  22.855  1.00  0.00    -0.351 N 
ATOM      4  C   UNL A   1      33.743  24.893  22.619  1.00  0.00     0.275 C 
ATOM      5  O   UNL A   1      33.153  24.972  21.535  1.00  0.00    -0.269 OA
ATOM      6  H   UNL A   1      34.120  22.974  22.302  1.00  0.00     0.163 HD
BRANCH   4   7
ATOM      7  C   UNL A   1      33.679  26.058  23.613  1.00  0.00     0.363 C 
BRANCH   7   8
ATOM      8  N   UNL A   1      32.374  26.300  24.283  1.00  0.00    -0.321 N 
ATOM      9  H   UNL A   1      31.666  25.892  23.674  1.00  0.00     0.348 HD
BRANCH   8  10
ATOM     10  C   UNL A   1      32.064  27.712  24.347  1.00  0.00     0.290 C 
BRANCH  10  11
ATOM     11  C   UNL A   1      30.895  28.210  23.559  1.00  0.00     0.025 C 
ATOM     12  C   UNL A   1      29.710  27.581  23.550  1.00  0.00     0.010 C 
ENDBRANCH  10  11
ENDBRANCH   8  10
BRANCH   8  13
ATOM     13  C   UNL A   1      32.127  25.522  25.515  1.00  0.00     0.310 C 
BRANCH  13  14
ATOM     14  C   UNL A   1      31.174  24.310  25.541  1.00  0.00     0.252 C 
ATOM     15  C   UNL A   1      31.798  22.932  25.492  1.00  0.00     0.170 C 
ATOM     16  O   UNL A   1      30.429  24.277  26.779  1.00  0.00    -0.438 OA
ATOM     17  N   UNL A   1      30.826  22.163  26.191  1.00  0.00    -0.318 N 
ATOM     18  C   UNL A   1      30.075  22.974  26.992  1.00  0.00     0.407 C 
ATOM     19  H   UNL A   1      30.713  21.188  26.108  1.00  0.00     0.167 HD
ATOM     20  O   UNL A   1      29.234  22.600  27.791  1.00  0.00    -0.225 OA
ENDBRANCH  13  14
ENDBRANCH   8  13
ENDBRANCH   7   8
ENDBRANCH   4   7
ENDBRANCH   2   3
ENDBRANCH   1   2
BRANCH   1  21
ATOM     21  C   UNL A   1      36.030  21.836  25.755  1.00  0.00     0.118 C 
BRANCH  21  22
ATOM     22  N   UNL A   1      37.006  20.768  25.793  1.00  0.00    -0.352 N 
ATOM     23  C   UNL A   1      38.378  20.853  25.796  1.00  0.00     0.251 C 
ATOM     24  H   UNL A   1      36.636  19.855  25.821  1.00  0.00     0.163 HD
ATOM     25  O   UNL A   1      39.026  19.872  25.436  1.00  0.00    -0.269 OA
BRANCH  23  26
ATOM     26  C   UNL A   1      39.076  22.100  26.205  1.00  0.00     0.039 A 
ATOM     27  C   UNL A   1      38.540  23.330  25.813  1.00  0.00     0.014 A 
ATOM     28  C   UNL A   1      40.290  22.074  26.899  1.00  0.00     0.014 A 
ATOM     29  C   UNL A   1      39.203  24.520  26.133  1.00  0.00     0.010 A 
ATOM     30  C   UNL A   1      40.899  23.263  27.301  1.00  0.00     0.010 A 
ATOM     31  C   UNL A   1      40.380  24.502  26.899  1.00  0.00    -0.014 A 
BRANCH  31  32
ATOM     32  C   UNL A   1      41.097  25.763  27.237  1.00  0.00     0.031 A 
ATOM     33  C   UNL A   1      40.433  26.810  28.096  1.00  0.00     0.074 A 
ATOM     34  C   UNL A   1      42.338  25.982  26.758  1.00  0.00     0.049 A 
ATOM     35  N   UNL A   1      40.881  27.980  28.476  1.00  0.00    -0.248 NA
ATOM     36  C   UNL A   1      39.072  26.510  28.562  1.00  0.00     0.031 C 
ATOM     37  C   UNL A   1      43.084  25.060  25.901  1.00  0.00     0.029 A 
ATOM     38  N   UNL A   1      43.192  27.043  26.927  1.00  0.00    -0.354 N 
ATOM     39  C   UNL A   1      39.857  28.557  29.222  1.00  0.00     0.074 A 
ATOM     40  C   UNL A   1      38.737  27.640  29.164  1.00  0.00     0.031 C 
ATOM     41  C   UNL A   1      44.301  25.574  25.659  1.00  0.00     0.029 A 
ATOM     42  C   UNL A   1      44.403  26.885  26.295  1.00  0.00     0.049 A 
ATOM     43  H   UNL A   1      42.960  27.843  27.453  1.00  0.00     0.167 HD
ATOM     44  C   UNL A   1      39.857  29.724  29.916  1.00  0.00     0.034 A 
ATOM     45  C   UNL A   1      45.473  27.701  26.226  1.00  0.00     0.034 A 
ATOM     46  C   UNL A   1      40.980  30.630  29.959  1.00  0.00     0.049 A 
ATOM     47  C   UNL A   1      45.429  29.026  26.945  1.00  0.00     0.074 A 
ATOM     48  C   UNL A   1      41.101  31.821  30.653  1.00  0.00     0.029 A 
ATOM     49  N   UNL A   1      42.172  30.456  29.266  1.00  0.00    -0.354 N 
ATOM     50  N   UNL A   1      44.467  29.540  27.676  1.00  0.00    -0.248 NA
ATOM     51  C   UNL A   1      46.620  29.877  26.833  1.00  0.00     0.031 C 
ATOM     52  C   UNL A   1      42.326  32.406  30.313  1.00  0.00     0.029 A 
ATOM     53  C   UNL A   1      43.015  31.536  29.483  1.00  0.00     0.049 A 
ATOM     54  H   UNL A   1      42.387  29.678  28.702  1.00  0.00     0.167 HD
ATOM     55  C   UNL A   1      44.955  30.758  28.144  1.00  0.00     0.074 A 
ATOM     56  C   UNL A   1      46.297  30.894  27.618  1.00  0.00     0.031 C 
ATOM     57  C   UNL A   1      44.349  31.675  28.942  1.00  0.00     0.034 A 
BRANCH  44  58
ATOM     58  C   UNL A   1      38.585  30.090  30.651  1.00  0.00     0.023 A 
ATOM     59  C   UNL A   1      37.542  30.791  30.017  1.00  0.00     0.031 A 
ATOM     60  C   UNL A   1      38.433  29.793  32.018  1.00  0.00     0.131 A 
ATOM     61  C   UNL A   1      36.457  31.267  30.766  1.00  0.00     0.055 A 
ATOM     62  C   UNL A   1      37.298  30.178  32.735  1.00  0.00     0.041 A 
ATOM     63  F   UNL A   1      39.397  29.145  32.689  1.00  0.00    -0.206 F 
ATOM     64  C   UNL A   1      36.312  30.940  32.116  1.00  0.00     0.022 A 
BRANCH  61  65
ATOM     65  S   UNL A   1      35.353  32.487  30.002  1.00  0.00     0.124 S 
ATOM     66  O   UNL A   1      36.282  33.572  29.694  1.00  0.00    -0.237 OA
ATOM     67  O   UNL A   1      34.820  31.757  28.857  1.00  0.00    -0.237 OA
ATOM     68  O   UNL A   1      34.388  32.786  31.058  1.00  0.00    -0.744 OA
ENDBRANCH  61  65
ENDBRANCH  44  58
BRANCH  45  69
ATOM     69  C   UNL A   1      46.682  27.291  25.455  1.00  0.00     0.023 A 
ATOM     70  C   UNL A   1      46.905  27.770  24.155  1.00  0.00     0.031 A 
ATOM     71  C   UNL A   1      47.621  26.397  25.998  1.00  0.00     0.131 A 
ATOM     72  C   UNL A   1      48.018  27.323  23.426  1.00  0.00     0.055 A 
ATOM     73  C   UNL A   1      48.757  25.999  25.291  1.00  0.00     0.041 A 
ATOM     74  F   UNL A   1      47.459  25.910  27.239  1.00  0.00    -0.206 F 
ATOM     75  C   UNL A   1      48.954  26.455  23.991  1.00  0.00     0.022 A 
BRANCH  72  76
ATOM     76  S   UNL A   1      48.187  27.839  21.695  1.00  0.00     0.124 S 
ATOM     77  O   UNL A   1      48.422  26.564  21.028  1.00  0.00    -0.237 OA
ATOM     78  O   UNL A   1      46.896  28.469  21.439  1.00  0.00    -0.237 OA
ATOM     79  O   UNL A   1      49.328  28.750  21.723  1.00  0.00    -0.744 OA
ENDBRANCH  72  76
ENDBRANCH  45  69
BRANCH  57  80
ATOM     80  C   UNL A   1      45.159  32.889  29.339  1.00  0.00     0.023 A 
ATOM     81  C   UNL A   1      45.133  34.079  28.590  1.00  0.00     0.031 A 
ATOM     82  C   UNL A   1      45.982  32.846  30.479  1.00  0.00     0.131 A 
ATOM     83  C   UNL A   1      45.962  35.152  28.954  1.00  0.00     0.055 A 
ATOM     84  C   UNL A   1      46.747  33.942  30.878  1.00  0.00     0.041 A 
ATOM     85  F   UNL A   1      46.054  31.735  31.229  1.00  0.00    -0.206 F 
ATOM     86  C   UNL A   1      46.752  35.100  30.104  1.00  0.00     0.022 A 
BRANCH  83  87
ATOM     87  S   UNL A   1      46.082  36.576  27.837  1.00  0.00     0.124 S 
ATOM     88  O   UNL A   1      47.404  36.389  27.249  1.00  0.00    -0.237 OA
ATOM     89  O   UNL A   1      44.950  36.367  26.940  1.00  0.00    -0.237 OA
ATOM     90  O   UNL A   1      45.960  37.726  28.732  1.00  0.00    -0.744 OA
ENDBRANCH  83  87
ENDBRANCH  57  80
ENDBRANCH  31  32
ENDBRANCH  23  26
ENDBRANCH  21  22
ENDBRANCH   1  21
TORSDOF 18
ENDMDL
MODEL 3
REMARK VINA RESULT:     -10.3      5.077     10.873
REMARK SMILES C=CC[N@@H+](CC(=O)NCCCNC(=O)c1ccc(-c2c3nc(c(-c4cc(S(=O)(=O)[O-])ccc4F)c4ccc([nH]4)c(-c4cc(S(=O)(=O)[O-])ccc4F)c4nc(c(-c5cc(S(=O)(=O)[O-])ccc5F)c5ccc2[nH]5)C=C4)C=C3)cc1)C[C@H]1CNC(=O)O1
REMARK SMILES IDX 10 1 9 2 8 3 6 4 7 5 5 7 4 8 3 10 2 11 1 12 78 13 79 14
REMARK SMILES IDX 80 15 84 16 81 17 82 18 83 20 11 21 12 22 13 23 14 25 15 26
REMARK SMILES IDX 16 27 77 28 17 29 76 30 18 31 19 32 20 33 70 34 21 35 75 36
REMARK SMILES IDX 69 37 71 38 22 39 74 40 68 41 67 42 23 44 55 45 35 46 54 47
REMARK SMILES IDX 36 48 39 49 53 50 72 51 37 52 38 53 52 55 73 56 40 57 24 58
REMARK SMILES IDX 25 59 33 60 26 61 32 62 34 63 31 64 27 65 28 66 29 67 30 68
REMARK SMILES IDX 56 69 57 70 65 71 58 72 64 73 66 74 63 75 59 76 60 77 61 78
REMARK SMILES IDX 62 79 41 80 42 81 50 82 43 83 49 84 51 85 48 86 44 87 45 88
REMARK SMILES IDX 46 89 47 90
REMARK H PARENT 8 6 4 9 81 19 12 24 71 43 39 54
REMARK Flexibility Score: inf
ROOT
ATOM      1  C   UNL A   1      42.037  21.459  26.846  1.00  0.00     0.042 C 
ENDROOT
BRANCH   1   2
ATOM      2  C   UNL A   1      42.310  22.521  25.774  1.00  0.00     0.118 C 
BRANCH   2   3
ATOM      3  N   UNL A   1      43.224  22.105  24.720  1.00  0.00    -0.351 N 
ATOM      4  C   UNL A   1      44.519  21.680  24.758  1.00  0.00     0.275 C 
ATOM      5  O   UNL A   1      44.913  21.038  23.777  1.00  0.00    -0.269 OA
ATOM      6  H   UNL A   1      42.836  22.134  23.816  1.00  0.00     0.163 HD
BRANCH   4   7
ATOM      7  C   UNL A   1      45.477  21.967  25.920  1.00  0.00     0.363 C 
BRANCH   7   8
ATOM      8  N   UNL A   1      45.974  23.361  26.054  1.00  0.00    -0.321 N 
ATOM      9  H   UNL A   1      46.952  23.339  25.768  1.00  0.00     0.348 HD
BRANCH   8  10
ATOM     10  C   UNL A   1      45.982  23.792  27.435  1.00  0.00     0.290 C 
BRANCH  10  11
ATOM     11  C   UNL A   1      44.948  23.226  28.353  1.00  0.00     0.025 C 
ATOM     12  C   UNL A   1      44.405  23.935  29.355  1.00  0.00     0.010 C 
ENDBRANCH  10  11
ENDBRANCH   8  10
BRANCH   8  13
ATOM     13  C   UNL A   1      45.446  24.331  25.072  1.00  0.00     0.310 C 
BRANCH  13  14
ATOM     14  C   UNL A   1      44.984  25.745  25.483  1.00  0.00     0.252 C 
ATOM     15  C   UNL A   1      45.794  26.917  24.973  1.00  0.00     0.170 C 
ATOM     16  O   UNL A   1      43.664  26.019  24.962  1.00  0.00    -0.438 OA
ATOM     17  N   UNL A   1      44.803  27.937  24.921  1.00  0.00    -0.318 N 
ATOM     18  C   UNL A   1      43.559  27.377  24.850  1.00  0.00     0.407 C 
ATOM     19  H   UNL A   1      44.988  28.904  24.936  1.00  0.00     0.167 HD
ATOM     20  O   UNL A   1      42.515  27.986  24.690  1.00  0.00    -0.225 OA
ENDBRANCH  13  14
ENDBRANCH   8  13
ENDBRANCH   7   8
ENDBRANCH   4   7
ENDBRANCH   2   3
ENDBRANCH   1   2
BRANCH   1  21
ATOM     21  C   UNL A   1      40.643  21.493  27.458  1.00  0.00     0.118 C 
BRANCH  21  22
ATOM     22  N   UNL A   1      39.643  21.773  26.451  1.00  0.00    -0.352 N 
ATOM     23  C   UNL A   1      38.863  22.895  26.298  1.00  0.00     0.251 C 
ATOM     24  H   UNL A   1      39.501  21.063  25.783  1.00  0.00     0.163 HD
ATOM     25  O   UNL A   1      37.822  22.801  25.652  1.00  0.00    -0.269 OA
BRANCH  23  26
ATOM     26  C   UNL A   1      39.249  24.195  26.907  1.00  0.00     0.039 A 
ATOM     27  C   UNL A   1      39.927  25.132  26.121  1.00  0.00     0.014 A 
ATOM     28  C   UNL A   1      39.024  24.473  28.260  1.00  0.00     0.014 A 
ATOM     29  C   UNL A   1      40.354  26.341  26.679  1.00  0.00     0.010 A 
ATOM     30  C   UNL A   1      39.365  25.718  28.790  1.00  0.00     0.010 A 
ATOM     31  C   UNL A   1      40.060  26.658  28.015  1.00  0.00    -0.014 A 
BRANCH  31  32
ATOM     32  C   UNL A   1      40.518  27.940  28.621  1.00  0.00     0.031 A 
ATOM     33  C   UNL A   1      41.990  28.206  28.817  1.00  0.00     0.074 A 
ATOM     34  C   UNL A   1      39.616  28.860  29.016  1.00  0.00     0.049 A 
ATOM     35  N   UNL A   1      42.583  29.245  29.348  1.00  0.00    -0.248 NA
ATOM     36  C   UNL A   1      42.912  27.148  28.382  1.00  0.00     0.031 C 
ATOM     37  C   UNL A   1      38.164  28.717  28.902  1.00  0.00     0.029 A 
ATOM     38  N   UNL A   1      39.784  30.097  29.587  1.00  0.00    -0.354 N 
ATOM     39  C   UNL A   1      43.947  28.964  29.316  1.00  0.00     0.074 A 
ATOM     40  C   UNL A   1      44.078  27.621  28.791  1.00  0.00     0.031 C 
ATOM     41  C   UNL A   1      37.577  29.841  29.343  1.00  0.00     0.029 A 
ATOM     42  C   UNL A   1      38.604  30.761  29.824  1.00  0.00     0.049 A 
ATOM     43  H   UNL A   1      40.667  30.472  29.807  1.00  0.00     0.167 HD
ATOM     44  C   UNL A   1      44.992  29.758  29.661  1.00  0.00     0.034 A 
ATOM     45  C   UNL A   1      38.370  31.971  30.371  1.00  0.00     0.034 A 
ATOM     46  C   UNL A   1      44.843  31.093  30.190  1.00  0.00     0.049 A 
ATOM     47  C   UNL A   1      39.541  32.811  30.814  1.00  0.00     0.074 A 
ATOM     48  C   UNL A   1      45.831  31.996  30.543  1.00  0.00     0.029 A 
ATOM     49  N   UNL A   1      43.629  31.713  30.459  1.00  0.00    -0.354 N 
ATOM     50  N   UNL A   1      40.825  32.546  30.743  1.00  0.00    -0.248 NA
ATOM     51  C   UNL A   1      39.229  34.117  31.406  1.00  0.00     0.031 C 
ATOM     52  C   UNL A   1      45.217  33.122  31.103  1.00  0.00     0.029 A 
ATOM     53  C   UNL A   1      43.843  32.968  31.011  1.00  0.00     0.049 A 
ATOM     54  H   UNL A   1      42.744  31.319  30.283  1.00  0.00     0.167 HD
ATOM     55  C   UNL A   1      41.474  33.672  31.245  1.00  0.00     0.074 A 
ATOM     56  C   UNL A   1      40.439  34.618  31.606  1.00  0.00     0.031 C 
ATOM     57  C   UNL A   1      42.806  33.903  31.386  1.00  0.00     0.034 A 
BRANCH  44  58
ATOM     58  C   UNL A   1      46.382  29.177  29.506  1.00  0.00     0.023 A 
ATOM     59  C   UNL A   1      47.126  29.349  28.324  1.00  0.00     0.031 A 
ATOM     60  C   UNL A   1      46.949  28.388  30.524  1.00  0.00     0.131 A 
ATOM     61  C   UNL A   1      48.331  28.655  28.145  1.00  0.00     0.055 A 
ATOM     62  C   UNL A   1      48.201  27.786  30.380  1.00  0.00     0.041 A 
ATOM     63  F   UNL A   1      46.284  28.166  31.669  1.00  0.00    -0.206 F 
ATOM     64  C   UNL A   1      48.889  27.898  29.176  1.00  0.00     0.022 A 
BRANCH  61  65
ATOM     65  S   UNL A   1      49.047  28.592  26.479  1.00  0.00     0.124 S 
ATOM     66  O   UNL A   1      49.405  27.180  26.366  1.00  0.00    -0.237 OA
ATOM     67  O   UNL A   1      47.941  29.041  25.643  1.00  0.00    -0.237 OA
ATOM     68  O   UNL A   1      50.183  29.508  26.560  1.00  0.00    -0.744 OA
ENDBRANCH  61  65
ENDBRANCH  44  58
BRANCH  45  69
ATOM     69  C   UNL A   1      36.972  32.468  30.524  1.00  0.00     0.023 A 
ATOM     70  C   UNL A   1      36.294  33.056  29.445  1.00  0.00     0.031 A 
ATOM     71  C   UNL A   1      36.303  32.385  31.757  1.00  0.00     0.131 A 
ATOM     72  C   UNL A   1      35.001  33.571  29.629  1.00  0.00     0.055 A 
ATOM     73  C   UNL A   1      34.996  32.847  31.921  1.00  0.00     0.041 A 
ATOM     74  F   UNL A   1      36.905  31.829  32.822  1.00  0.00    -0.206 F 
ATOM     75  C   UNL A   1      34.342  33.455  30.855  1.00  0.00     0.022 A 
BRANCH  72  76
ATOM     76  S   UNL A   1      34.219  34.463  28.258  1.00  0.00     0.124 S 
ATOM     77  O   UNL A   1      35.243  34.376  27.225  1.00  0.00    -0.237 OA
ATOM     78  O   UNL A   1      33.010  33.676  28.033  1.00  0.00    -0.237 OA
ATOM     79  O   UNL A   1      33.996  35.800  28.806  1.00  0.00    -0.744 OA
ENDBRANCH  72  76
ENDBRANCH  45  69
BRANCH  57  80
ATOM     80  C   UNL A   1      43.220  35.259  31.910  1.00  0.00     0.023 A 
ATOM     81  C   UNL A   1      43.552  36.321  31.050  1.00  0.00     0.031 A 
ATOM     82  C   UNL A   1      43.296  35.487  33.296  1.00  0.00     0.131 A 
ATOM     83  C   UNL A   1      44.005  37.538  31.583  1.00  0.00     0.055 A 
ATOM     84  C   UNL A   1      43.675  36.723  33.821  1.00  0.00     0.041 A 
ATOM     85  F   UNL A   1      42.997  34.510  34.167  1.00  0.00    -0.206 F 
ATOM     86  C   UNL A   1      44.048  37.753  32.962  1.00  0.00     0.022 A 
BRANCH  83  87
ATOM     87  S   UNL A   1      44.650  38.799  30.449  1.00  0.00     0.124 S 
ATOM     88  O   UNL A   1      45.902  39.175  31.096  1.00  0.00    -0.237 OA
ATOM     89  O   UNL A   1      44.776  38.059  29.198  1.00  0.00    -0.237 OA
ATOM     90  O   UNL A   1      43.614  39.830  30.459  1.00  0.00    -0.744 OA
ENDBRANCH  83  87
ENDBRANCH  57  80
ENDBRANCH  31  32
ENDBRANCH  23  26
ENDBRANCH  21  22
ENDBRANCH   1  21
TORSDOF 18
ENDMDL
