MODEL 1
REMARK VINA RESULT:     -10.5      0.000      0.000
REMARK SMILES CC[C@@](C)([NH2+]CCC(=O)NC(C)C)C(=O)NCCCNC(=O)c1ccc(-c2c3nc(c(-c4cc(S(=O)(=O)[O-])ccc4F)c4ccc([nH]4)c(-c4cc(S(=O)(=O)[O-])ccc4F)c4nc(c(-c5cc(S(=O)(=O)[O-])ccc5F)c5ccc2[nH]5)C=C4)C=C3)cc1
REMARK SMILES IDX 17 1 16 2 14 3 15 4 3 6 4 7 2 8 1 9 5 10 6 13 7 14 8 15 9 16
REMARK SMILES IDX 10 17 11 19 12 20 13 21 18 22 19 23 20 24 21 25 22 27 23 28
REMARK SMILES IDX 24 29 85 30 25 31 84 32 26 33 27 34 28 35 78 36 29 37 83 38
REMARK SMILES IDX 77 39 79 40 30 41 82 42 76 43 75 44 31 46 63 47 43 48 62 49
REMARK SMILES IDX 44 50 47 51 61 52 80 53 45 54 46 55 60 57 81 58 48 59 32 60
REMARK SMILES IDX 33 61 41 62 34 63 40 64 42 65 39 66 35 67 36 68 37 69 38 70
REMARK SMILES IDX 64 71 65 72 73 73 66 74 72 75 74 76 71 77 67 78 68 79 69 80
REMARK SMILES IDX 70 81 49 82 50 83 58 84 51 85 57 86 59 87 56 88 52 89 53 90
REMARK SMILES IDX 54 91 55 92
REMARK H PARENT 16 5 5 11 5 12 10 18 20 26 79 45 47 56
REMARK Flexibility Score: inf
ROOT
ATOM      1  C   UNL A   1      31.790  26.970  26.046  1.00  0.00     0.118 C 
ENDROOT
BRANCH   1   2
ATOM      2  N   UNL A   1      31.397  25.786  26.779  1.00  0.00    -0.351 N 
ATOM      3  C   UNL A   1      31.654  24.471  26.552  1.00  0.00     0.281 C 
ATOM      4  O   UNL A   1      31.051  23.672  27.278  1.00  0.00    -0.268 OA
ATOM      5  H   UNL A   1      30.851  25.964  27.578  1.00  0.00     0.163 HD
BRANCH   3   6
ATOM      6  C   UNL A   1      32.661  23.996  25.451  1.00  0.00     0.172 C 
ATOM      7  C   UNL A   1      34.082  24.465  25.816  1.00  0.00     0.090 C 
BRANCH   6   8
ATOM      8  C   UNL A   1      32.657  22.417  25.447  1.00  0.00     0.075 C 
ATOM      9  C   UNL A   1      33.796  21.718  26.183  1.00  0.00     0.011 C 
ENDBRANCH   6   8
BRANCH   6  10
ATOM     10  N   UNL A   1      32.102  24.265  24.100  1.00  0.00    -0.333 N 
ATOM     11  H   UNL A   1      31.179  24.656  24.284  1.00  0.00     0.347 HD
ATOM     12  H   UNL A   1      32.298  23.354  23.685  1.00  0.00     0.347 HD
BRANCH  10  13
ATOM     13  C   UNL A   1      32.636  25.093  23.024  1.00  0.00     0.271 C 
BRANCH  13  14
ATOM     14  C   UNL A   1      31.879  26.288  22.439  1.00  0.00     0.161 C 
BRANCH  14  15
ATOM     15  C   UNL A   1      32.644  27.590  22.284  1.00  0.00     0.225 C 
ATOM     16  O   UNL A   1      33.840  27.585  21.985  1.00  0.00    -0.275 OA
ATOM     17  N   UNL A   1      32.012  28.794  22.367  1.00  0.00    -0.354 N 
ATOM     18  H   UNL A   1      32.543  29.576  22.095  1.00  0.00     0.163 HD
BRANCH  17  19
ATOM     19  C   UNL A   1      30.659  29.071  22.805  1.00  0.00     0.075 C 
ATOM     20  C   UNL A   1      30.663  29.694  24.193  1.00  0.00     0.030 C 
ATOM     21  C   UNL A   1      29.887  29.901  21.792  1.00  0.00     0.030 C 
ENDBRANCH  17  19
ENDBRANCH  14  15
ENDBRANCH  13  14
ENDBRANCH  10  13
ENDBRANCH   6  10
ENDBRANCH   3   6
ENDBRANCH   1   2
BRANCH   1  22
ATOM     22  C   UNL A   1      32.498  27.969  26.941  1.00  0.00     0.042 C 
BRANCH  22  23
ATOM     23  C   UNL A   1      33.655  28.662  26.255  1.00  0.00     0.118 C 
BRANCH  23  24
ATOM     24  N   UNL A   1      33.672  30.093  26.520  1.00  0.00    -0.352 N 
ATOM     25  C   UNL A   1      34.492  30.818  27.344  1.00  0.00     0.251 C 
ATOM     26  H   UNL A   1      32.994  30.617  26.036  1.00  0.00     0.163 HD
ATOM     27  O   UNL A   1      34.187  31.979  27.625  1.00  0.00    -0.269 OA
BRANCH  25  28
ATOM     28  C   UNL A   1      35.713  30.203  27.904  1.00  0.00     0.039 A 
ATOM     29  C   UNL A   1      36.904  30.263  27.178  1.00  0.00     0.014 A 
ATOM     30  C   UNL A   1      35.685  29.562  29.145  1.00  0.00     0.014 A 
ATOM     31  C   UNL A   1      38.068  29.720  27.721  1.00  0.00     0.010 A 
ATOM     32  C   UNL A   1      36.866  29.147  29.741  1.00  0.00     0.010 A 
ATOM     33  C   UNL A   1      38.066  29.187  29.021  1.00  0.00    -0.014 A 
BRANCH  33  34
ATOM     34  C   UNL A   1      39.293  28.605  29.621  1.00  0.00     0.031 A 
ATOM     35  C   UNL A   1      39.822  29.161  30.919  1.00  0.00     0.074 A 
ATOM     36  C   UNL A   1      39.944  27.614  28.981  1.00  0.00     0.049 A 
ATOM     37  N   UNL A   1      40.899  28.829  31.583  1.00  0.00    -0.248 NA
ATOM     38  C   UNL A   1      39.063  30.265  31.528  1.00  0.00     0.031 C 
ATOM     39  C   UNL A   1      39.551  27.038  27.693  1.00  0.00     0.029 A 
ATOM     40  N   UNL A   1      41.071  26.915  29.326  1.00  0.00    -0.354 N 
ATOM     41  C   UNL A   1      40.951  29.693  32.673  1.00  0.00     0.074 A 
ATOM     42  C   UNL A   1      39.849  30.617  32.531  1.00  0.00     0.031 C 
ATOM     43  C   UNL A   1      40.395  26.042  27.381  1.00  0.00     0.029 A 
ATOM     44  C   UNL A   1      41.417  25.941  28.417  1.00  0.00     0.049 A 
ATOM     45  H   UNL A   1      41.585  27.091  30.147  1.00  0.00     0.167 HD
ATOM     46  C   UNL A   1      41.817  29.692  33.716  1.00  0.00     0.034 A 
ATOM     47  C   UNL A   1      42.444  25.069  28.421  1.00  0.00     0.034 A 
ATOM     48  C   UNL A   1      42.894  28.743  33.848  1.00  0.00     0.049 A 
ATOM     49  C   UNL A   1      43.401  25.091  29.587  1.00  0.00     0.074 A 
ATOM     50  C   UNL A   1      43.800  28.606  34.884  1.00  0.00     0.029 A 
ATOM     51  N   UNL A   1      43.212  27.769  32.910  1.00  0.00    -0.354 N 
ATOM     52  N   UNL A   1      43.402  25.877  30.641  1.00  0.00    -0.248 NA
ATOM     53  C   UNL A   1      44.482  24.100  29.572  1.00  0.00     0.031 C 
ATOM     54  C   UNL A   1      44.709  27.600  34.539  1.00  0.00     0.029 A 
ATOM     55  C   UNL A   1      44.320  27.049  33.328  1.00  0.00     0.049 A 
ATOM     56  H   UNL A   1      42.723  27.613  32.070  1.00  0.00     0.167 HD
ATOM     57  C   UNL A   1      44.467  25.451  31.428  1.00  0.00     0.074 A 
ATOM     58  C   UNL A   1      45.069  24.328  30.737  1.00  0.00     0.031 C 
ATOM     59  C   UNL A   1      44.910  25.938  32.617  1.00  0.00     0.034 A 
BRANCH  46  60
ATOM     60  C   UNL A   1      41.636  30.757  34.773  1.00  0.00     0.023 A 
ATOM     61  C   UNL A   1      40.493  30.803  35.593  1.00  0.00     0.031 A 
ATOM     62  C   UNL A   1      42.604  31.763  34.944  1.00  0.00     0.131 A 
ATOM     63  C   UNL A   1      40.307  31.874  36.479  1.00  0.00     0.055 A 
ATOM     64  C   UNL A   1      42.455  32.777  35.893  1.00  0.00     0.041 A 
ATOM     65  F   UNL A   1      43.705  31.790  34.177  1.00  0.00    -0.206 F 
ATOM     66  C   UNL A   1      41.292  32.846  36.656  1.00  0.00     0.022 A 
BRANCH  63  67
ATOM     67  S   UNL A   1      38.690  32.062  37.281  1.00  0.00     0.124 S 
ATOM     68  O   UNL A   1      38.128  33.194  36.548  1.00  0.00    -0.237 OA
ATOM     69  O   UNL A   1      38.064  30.768  37.038  1.00  0.00    -0.237 OA
ATOM     70  O   UNL A   1      39.029  32.339  38.675  1.00  0.00    -0.744 OA
ENDBRANCH  63  67
ENDBRANCH  46  60
BRANCH  47  71
ATOM     71  C   UNL A   1      42.623  24.104  27.298  1.00  0.00     0.023 A 
ATOM     72  C   UNL A   1      41.997  22.847  27.317  1.00  0.00     0.031 A 
ATOM     73  C   UNL A   1      43.456  24.407  26.206  1.00  0.00     0.131 A 
ATOM     74  C   UNL A   1      42.254  21.920  26.293  1.00  0.00     0.055 A 
ATOM     75  C   UNL A   1      43.661  23.505  25.160  1.00  0.00     0.041 A 
ATOM     76  F   UNL A   1      44.076  25.596  26.134  1.00  0.00    -0.206 F 
ATOM     77  C   UNL A   1      43.069  22.246  25.208  1.00  0.00     0.022 A 
BRANCH  74  78
ATOM     78  S   UNL A   1      41.580  20.243  26.452  1.00  0.00     0.124 S 
ATOM     79  O   UNL A   1      42.091  19.840  27.757  1.00  0.00    -0.237 OA
ATOM     80  O   UNL A   1      40.144  20.485  26.371  1.00  0.00    -0.237 OA
ATOM     81  O   UNL A   1      42.157  19.536  25.310  1.00  0.00    -0.744 OA
ENDBRANCH  74  78
ENDBRANCH  47  71
BRANCH  59  82
ATOM     82  C   UNL A   1      46.074  25.223  33.258  1.00  0.00     0.023 A 
ATOM     83  C   UNL A   1      45.887  24.131  34.123  1.00  0.00     0.031 A 
ATOM     84  C   UNL A   1      47.390  25.651  33.007  1.00  0.00     0.131 A 
ATOM     85  C   UNL A   1      46.993  23.549  34.758  1.00  0.00     0.055 A 
ATOM     86  C   UNL A   1      48.491  25.021  33.587  1.00  0.00     0.041 A 
ATOM     87  F   UNL A   1      47.628  26.691  32.190  1.00  0.00    -0.206 F 
ATOM     88  C   UNL A   1      48.294  23.973  34.481  1.00  0.00     0.022 A 
BRANCH  85  89
ATOM     89  S   UNL A   1      46.698  22.297  36.038  1.00  0.00     0.124 S 
ATOM     90  O   UNL A   1      46.552  21.082  35.244  1.00  0.00    -0.237 OA
ATOM     91  O   UNL A   1      47.908  22.388  36.847  1.00  0.00    -0.237 OA
ATOM     92  O   UNL A   1      45.477  22.760  36.695  1.00  0.00    -0.744 OA
ENDBRANCH  85  89
ENDBRANCH  59  82
ENDBRANCH  33  34
ENDBRANCH  25  28
ENDBRANCH  23  24
ENDBRANCH  22  23
ENDBRANCH   1  22
TORSDOF 19
ENDMDL
MODEL 2
REMARK VINA RESULT:     -10.4      1.579      1.838
REMARK SMILES CC[C@@](C)([NH2+]CCC(=O)NC(C)C)C(=O)NCCCNC(=O)c1ccc(-c2c3nc(c(-c4cc(S(=O)(=O)[O-])ccc4F)c4ccc([nH]4)c(-c4cc(S(=O)(=O)[O-])ccc4F)c4nc(c(-c5cc(S(=O)(=O)[O-])ccc5F)c5ccc2[nH]5)C=C4)C=C3)cc1
REMARK SMILES IDX 17 1 16 2 14 3 15 4 3 6 4 7 2 8 1 9 5 10 6 13 7 14 8 15 9 16
REMARK SMILES IDX 10 17 11 19 12 20 13 21 18 22 19 23 20 24 21 25 22 27 23 28
REMARK SMILES IDX 24 29 85 30 25 31 84 32 26 33 27 34 28 35 78 36 29 37 83 38
REMARK SMILES IDX 77 39 79 40 30 41 82 42 76 43 75 44 31 46 63 47 43 48 62 49
REMARK SMILES IDX 44 50 47 51 61 52 80 53 45 54 46 55 60 57 81 58 48 59 32 60
REMARK SMILES IDX 33 61 41 62 34 63 40 64 42 65 39 66 35 67 36 68 37 69 38 70
REMARK SMILES IDX 64 71 65 72 73 73 66 74 72 75 74 76 71 77 67 78 68 79 69 80
REMARK SMILES IDX 70 81 49 82 50 83 58 84 51 85 57 86 59 87 56 88 52 89 53 90
REMARK SMILES IDX 54 91 55 92
REMARK H PARENT 16 5 5 11 5 12 10 18 20 26 79 45 47 56
REMARK Flexibility Score: inf
ROOT
ATOM      1  C   UNL A   1      32.738  26.702  25.970  1.00  0.00     0.118 C 
ENDROOT
BRANCH   1   2
ATOM      2  N   UNL A   1      31.931  25.750  26.701  1.00  0.00    -0.351 N 
ATOM      3  C   UNL A   1      31.715  24.422  26.498  1.00  0.00     0.281 C 
ATOM      4  O   UNL A   1      30.847  23.904  27.209  1.00  0.00    -0.268 OA
ATOM      5  H   UNL A   1      31.456  26.127  27.476  1.00  0.00     0.163 HD
BRANCH   3   6
ATOM      6  C   UNL A   1      32.525  23.598  25.441  1.00  0.00     0.172 C 
ATOM      7  C   UNL A   1      34.030  23.697  25.755  1.00  0.00     0.090 C 
BRANCH   6   8
ATOM      8  C   UNL A   1      32.098  22.085  25.585  1.00  0.00     0.075 C 
ATOM      9  C   UNL A   1      32.422  21.158  24.417  1.00  0.00     0.011 C 
ENDBRANCH   6   8
BRANCH   6  10
ATOM     10  N   UNL A   1      32.019  23.888  24.074  1.00  0.00    -0.333 N 
ATOM     11  H   UNL A   1      32.181  23.024  23.558  1.00  0.00     0.347 HD
ATOM     12  H   UNL A   1      32.504  24.774  23.931  1.00  0.00     0.347 HD
BRANCH  10  13
ATOM     13  C   UNL A   1      30.691  24.318  23.648  1.00  0.00     0.271 C 
BRANCH  13  14
ATOM     14  C   UNL A   1      30.350  25.777  23.336  1.00  0.00     0.161 C 
BRANCH  14  15
ATOM     15  C   UNL A   1      31.330  26.553  22.475  1.00  0.00     0.225 C 
ATOM     16  O   UNL A   1      32.257  25.978  21.902  1.00  0.00    -0.275 OA
ATOM     17  N   UNL A   1      31.152  27.881  22.228  1.00  0.00    -0.354 N 
ATOM     18  H   UNL A   1      31.733  28.269  21.535  1.00  0.00     0.163 HD
BRANCH  17  19
ATOM     19  C   UNL A   1      30.219  28.796  22.853  1.00  0.00     0.075 C 
ATOM     20  C   UNL A   1      30.841  29.434  24.087  1.00  0.00     0.030 C 
ATOM     21  C   UNL A   1      29.677  29.823  21.872  1.00  0.00     0.030 C 
ENDBRANCH  17  19
ENDBRANCH  14  15
ENDBRANCH  13  14
ENDBRANCH  10  13
ENDBRANCH   6  10
ENDBRANCH   3   6
ENDBRANCH   1   2
BRANCH   1  22
ATOM     22  C   UNL A   1      32.958  27.973  26.769  1.00  0.00     0.042 C 
BRANCH  22  23
ATOM     23  C   UNL A   1      33.936  28.923  26.112  1.00  0.00     0.118 C 
BRANCH  23  24
ATOM     24  N   UNL A   1      33.816  30.277  26.630  1.00  0.00    -0.352 N 
ATOM     25  C   UNL A   1      34.543  30.906  27.606  1.00  0.00     0.251 C 
ATOM     26  H   UNL A   1      33.106  30.822  26.218  1.00  0.00     0.163 HD
ATOM     27  O   UNL A   1      34.127  31.966  28.077  1.00  0.00    -0.269 OA
BRANCH  25  28
ATOM     28  C   UNL A   1      35.799  30.305  28.099  1.00  0.00     0.039 A 
ATOM     29  C   UNL A   1      36.967  30.445  27.346  1.00  0.00     0.014 A 
ATOM     30  C   UNL A   1      35.827  29.596  29.303  1.00  0.00     0.014 A 
ATOM     31  C   UNL A   1      38.163  29.914  27.828  1.00  0.00     0.010 A 
ATOM     32  C   UNL A   1      37.038  29.191  29.843  1.00  0.00     0.010 A 
ATOM     33  C   UNL A   1      38.215  29.311  29.096  1.00  0.00    -0.014 A 
BRANCH  33  34
ATOM     34  C   UNL A   1      39.477  28.741  29.631  1.00  0.00     0.031 A 
ATOM     35  C   UNL A   1      40.083  29.320  30.884  1.00  0.00     0.074 A 
ATOM     36  C   UNL A   1      40.090  27.739  28.970  1.00  0.00     0.049 A 
ATOM     37  N   UNL A   1      41.199  29.000  31.487  1.00  0.00    -0.248 NA
ATOM     38  C   UNL A   1      39.361  30.435  31.518  1.00  0.00     0.031 C 
ATOM     39  C   UNL A   1      39.620  27.139  27.719  1.00  0.00     0.029 A 
ATOM     40  N   UNL A   1      41.236  27.046  29.259  1.00  0.00    -0.354 N 
ATOM     41  C   UNL A   1      41.316  29.883  32.557  1.00  0.00     0.074 A 
ATOM     42  C   UNL A   1      40.206  30.805  32.466  1.00  0.00     0.031 C 
ATOM     43  C   UNL A   1      40.445  26.139  27.374  1.00  0.00     0.029 A 
ATOM     44  C   UNL A   1      41.528  26.057  28.348  1.00  0.00     0.049 A 
ATOM     45  H   UNL A   1      41.799  27.237  30.044  1.00  0.00     0.167 HD
ATOM     46  C   UNL A   1      42.243  29.901  33.546  1.00  0.00     0.034 A 
ATOM     47  C   UNL A   1      42.554  25.184  28.305  1.00  0.00     0.034 A 
ATOM     48  C   UNL A   1      43.327  28.955  33.629  1.00  0.00     0.049 A 
ATOM     49  C   UNL A   1      43.580  25.228  29.410  1.00  0.00     0.074 A 
ATOM     50  C   UNL A   1      44.295  28.837  34.610  1.00  0.00     0.029 A 
ATOM     51  N   UNL A   1      43.589  27.964  32.690  1.00  0.00    -0.354 N 
ATOM     52  N   UNL A   1      43.644  26.032  30.448  1.00  0.00    -0.248 NA
ATOM     53  C   UNL A   1      44.660  24.237  29.347  1.00  0.00     0.031 C 
ATOM     54  C   UNL A   1      45.182  27.825  34.228  1.00  0.00     0.029 A 
ATOM     55  C   UNL A   1      44.721  27.252  33.054  1.00  0.00     0.049 A 
ATOM     56  H   UNL A   1      43.050  27.793  31.884  1.00  0.00     0.167 HD
ATOM     57  C   UNL A   1      44.756  25.620  31.177  1.00  0.00     0.074 A 
ATOM     58  C   UNL A   1      45.316  24.486  30.471  1.00  0.00     0.031 C 
ATOM     59  C   UNL A   1      45.269  26.129  32.328  1.00  0.00     0.034 A 
BRANCH  46  60
ATOM     60  C   UNL A   1      42.125  30.984  34.593  1.00  0.00     0.023 A 
ATOM     61  C   UNL A   1      42.832  32.197  34.488  1.00  0.00     0.031 A 
ATOM     62  C   UNL A   1      41.324  30.791  35.732  1.00  0.00     0.131 A 
ATOM     63  C   UNL A   1      42.790  33.128  35.536  1.00  0.00     0.055 A 
ATOM     64  C   UNL A   1      41.215  31.761  36.731  1.00  0.00     0.041 A 
ATOM     65  F   UNL A   1      40.644  29.647  35.904  1.00  0.00    -0.206 F 
ATOM     66  C   UNL A   1      41.965  32.931  36.645  1.00  0.00     0.022 A 
BRANCH  63  67
ATOM     67  S   UNL A   1      43.951  34.522  35.503  1.00  0.00     0.124 S 
ATOM     68  O   UNL A   1      44.799  34.171  34.366  1.00  0.00    -0.237 OA
ATOM     69  O   UNL A   1      43.067  35.665  35.313  1.00  0.00    -0.237 OA
ATOM     70  O   UNL A   1      44.609  34.451  36.807  1.00  0.00    -0.744 OA
ENDBRANCH  63  67
ENDBRANCH  46  60
BRANCH  47  71
ATOM     71  C   UNL A   1      42.666  24.200  27.191  1.00  0.00     0.023 A 
ATOM     72  C   UNL A   1      42.013  22.958  27.252  1.00  0.00     0.031 A 
ATOM     73  C   UNL A   1      43.463  24.467  26.062  1.00  0.00     0.131 A 
ATOM     74  C   UNL A   1      42.207  22.012  26.234  1.00  0.00     0.055 A 
ATOM     75  C   UNL A   1      43.605  23.546  25.023  1.00  0.00     0.041 A 
ATOM     76  F   UNL A   1      44.106  25.640  25.948  1.00  0.00    -0.206 F 
ATOM     77  C   UNL A   1      42.986  22.303  25.113  1.00  0.00     0.022 A 
BRANCH  74  78
ATOM     78  S   UNL A   1      41.501  20.354  26.444  1.00  0.00     0.124 S 
ATOM     79  O   UNL A   1      40.082  20.605  26.221  1.00  0.00    -0.237 OA
ATOM     80  O   UNL A   1      42.190  19.597  25.404  1.00  0.00    -0.237 OA
ATOM     81  O   UNL A   1      41.865  20.000  27.814  1.00  0.00    -0.744 OA
ENDBRANCH  74  78
ENDBRANCH  47  71
BRANCH  59  82
ATOM     82  C   UNL A   1      46.471  25.426  32.909  1.00  0.00     0.023 A 
ATOM     83  C   UNL A   1      46.339  24.377  33.835  1.00  0.00     0.031 A 
ATOM     84  C   UNL A   1      47.768  25.823  32.540  1.00  0.00     0.131 A 
ATOM     85  C   UNL A   1      47.483  23.806  34.409  1.00  0.00     0.055 A 
ATOM     86  C   UNL A   1      48.903  25.202  33.061  1.00  0.00     0.041 A 
ATOM     87  F   UNL A   1      47.954  26.821  31.661  1.00  0.00    -0.206 F 
ATOM     88  C   UNL A   1      48.764  24.198  34.015  1.00  0.00     0.022 A 
BRANCH  85  89
ATOM     89  S   UNL A   1      47.273  22.617  35.764  1.00  0.00     0.124 S 
ATOM     90  O   UNL A   1      48.651  22.212  36.026  1.00  0.00    -0.237 OA
ATOM     91  O   UNL A   1      46.641  23.430  36.797  1.00  0.00    -0.237 OA
ATOM     92  O   UNL A   1      46.422  21.582  35.182  1.00  0.00    -0.744 OA
ENDBRANCH  85  89
ENDBRANCH  59  82
ENDBRANCH  33  34
ENDBRANCH  25  28
ENDBRANCH  23  24
ENDBRANCH  22  23
ENDBRANCH   1  22
TORSDOF 19
ENDMDL
MODEL 3
REMARK VINA RESULT:     -10.3      5.198     10.196
REMARK SMILES CC[C@@](C)([NH2+]CCC(=O)NC(C)C)C(=O)NCCCNC(=O)c1ccc(-c2c3nc(c(-c4cc(S(=O)(=O)[O-])ccc4F)c4ccc([nH]4)c(-c4cc(S(=O)(=O)[O-])ccc4F)c4nc(c(-c5cc(S(=O)(=O)[O-])ccc5F)c5ccc2[nH]5)C=C4)C=C3)cc1
REMARK SMILES IDX 17 1 16 2 14 3 15 4 3 6 4 7 2 8 1 9 5 10 6 13 7 14 8 15 9 16
REMARK SMILES IDX 10 17 11 19 12 20 13 21 18 22 19 23 20 24 21 25 22 27 23 28
REMARK SMILES IDX 24 29 85 30 25 31 84 32 26 33 27 34 28 35 78 36 29 37 83 38
REMARK SMILES IDX 77 39 79 40 30 41 82 42 76 43 75 44 31 46 63 47 43 48 62 49
REMARK SMILES IDX 44 50 47 51 61 52 80 53 45 54 46 55 60 57 81 58 48 59 32 60
REMARK SMILES IDX 33 61 41 62 34 63 40 64 42 65 39 66 35 67 36 68 37 69 38 70
REMARK SMILES IDX 64 71 65 72 73 73 66 74 72 75 74 76 71 77 67 78 68 79 69 80
REMARK SMILES IDX 70 81 49 82 50 83 58 84 51 85 57 86 59 87 56 88 52 89 53 90
REMARK SMILES IDX 54 91 55 92
REMARK H PARENT 16 5 5 11 5 12 10 18 20 26 79 45 47 56
REMARK Flexibility Score: inf
ROOT
ATOM      1  C   UNL A   1      34.495  23.746  25.981  1.00  0.00     0.118 C 
ENDROOT
BRANCH   1   2
ATOM      2  N   UNL A   1      33.198  23.493  26.570  1.00  0.00    -0.351 N 
ATOM      3  C   UNL A   1      32.041  24.204  26.517  1.00  0.00     0.281 C 
ATOM      4  O   UNL A   1      31.131  23.806  27.254  1.00  0.00    -0.268 OA
ATOM      5  H   UNL A   1      33.145  22.665  27.100  1.00  0.00     0.163 HD
BRANCH   3   6
ATOM      6  C   UNL A   1      31.865  25.442  25.574  1.00  0.00     0.172 C 
ATOM      7  C   UNL A   1      30.545  26.161  25.909  1.00  0.00     0.090 C 
BRANCH   6   8
ATOM      8  C   UNL A   1      33.051  26.442  25.871  1.00  0.00     0.075 C 
ATOM      9  C   UNL A   1      33.642  27.191  24.680  1.00  0.00     0.011 C 
ENDBRANCH   6   8
BRANCH   6  10
ATOM     10  N   UNL A   1      32.183  25.062  24.172  1.00  0.00    -0.333 N 
ATOM     11  H   UNL A   1      33.074  24.573  24.241  1.00  0.00     0.347 HD
ATOM     12  H   UNL A   1      32.029  25.975  23.743  1.00  0.00     0.347 HD
BRANCH  10  13
ATOM     13  C   UNL A   1      31.406  24.266  23.229  1.00  0.00     0.271 C 
BRANCH  13  14
ATOM     14  C   UNL A   1      31.645  22.770  23.008  1.00  0.00     0.161 C 
BRANCH  14  15
ATOM     15  C   UNL A   1      33.081  22.280  23.050  1.00  0.00     0.225 C 
ATOM     16  O   UNL A   1      33.988  22.945  22.545  1.00  0.00    -0.275 OA
ATOM     17  N   UNL A   1      33.422  21.152  23.734  1.00  0.00    -0.354 N 
ATOM     18  H   UNL A   1      34.386  20.995  23.849  1.00  0.00     0.163 HD
BRANCH  17  19
ATOM     19  C   UNL A   1      32.547  20.154  24.314  1.00  0.00     0.075 C 
ATOM     20  C   UNL A   1      32.503  18.909  23.441  1.00  0.00     0.030 C 
ATOM     21  C   UNL A   1      32.908  19.844  25.758  1.00  0.00     0.030 C 
ENDBRANCH  17  19
ENDBRANCH  14  15
ENDBRANCH  13  14
ENDBRANCH  10  13
ENDBRANCH   6  10
ENDBRANCH   3   6
ENDBRANCH   1   2
BRANCH   1  22
ATOM     22  C   UNL A   1      35.503  22.683  26.377  1.00  0.00     0.042 C 
BRANCH  22  23
ATOM     23  C   UNL A   1      36.604  22.502  25.354  1.00  0.00     0.118 C 
BRANCH  23  24
ATOM     24  N   UNL A   1      37.504  21.415  25.707  1.00  0.00    -0.352 N 
ATOM     25  C   UNL A   1      38.810  21.462  26.119  1.00  0.00     0.251 C 
ATOM     26  H   UNL A   1      37.118  20.511  25.638  1.00  0.00     0.163 HD
ATOM     27  O   UNL A   1      39.476  20.425  26.126  1.00  0.00    -0.269 OA
BRANCH  25  28
ATOM     28  C   UNL A   1      39.413  22.747  26.528  1.00  0.00     0.039 A 
ATOM     29  C   UNL A   1      40.342  22.767  27.569  1.00  0.00     0.014 A 
ATOM     30  C   UNL A   1      39.060  23.938  25.887  1.00  0.00     0.014 A 
ATOM     31  C   UNL A   1      40.944  23.972  27.931  1.00  0.00     0.010 A 
ATOM     32  C   UNL A   1      39.758  25.105  26.154  1.00  0.00     0.010 A 
ATOM     33  C   UNL A   1      40.682  25.145  27.205  1.00  0.00    -0.014 A 
BRANCH  33  34
ATOM     34  C   UNL A   1      41.312  26.439  27.570  1.00  0.00     0.031 A 
ATOM     35  C   UNL A   1      42.719  26.736  27.116  1.00  0.00     0.074 A 
ATOM     36  C   UNL A   1      40.637  27.318  28.336  1.00  0.00     0.049 A 
ATOM     37  N   UNL A   1      43.465  27.780  27.365  1.00  0.00    -0.248 NA
ATOM     38  C   UNL A   1      43.390  25.702  26.311  1.00  0.00     0.031 C 
ATOM     39  C   UNL A   1      39.292  27.110  28.877  1.00  0.00     0.029 A 
ATOM     40  N   UNL A   1      40.988  28.562  28.792  1.00  0.00    -0.354 N 
ATOM     41  C   UNL A   1      44.692  27.520  26.762  1.00  0.00     0.074 A 
ATOM     42  C   UNL A   1      44.617  26.184  26.213  1.00  0.00     0.031 C 
ATOM     43  C   UNL A   1      38.913  28.207  29.550  1.00  0.00     0.029 A 
ATOM     44  C   UNL A   1      40.004  29.176  29.533  1.00  0.00     0.049 A 
ATOM     45  H   UNL A   1      41.860  28.978  28.607  1.00  0.00     0.167 HD
ATOM     46  C   UNL A   1      45.770  28.333  26.644  1.00  0.00     0.034 A 
ATOM     47  C   UNL A   1      39.988  30.383  30.132  1.00  0.00     0.034 A 
ATOM     48  C   UNL A   1      45.812  29.671  27.179  1.00  0.00     0.049 A 
ATOM     49  C   UNL A   1      41.202  31.268  29.997  1.00  0.00     0.074 A 
ATOM     50  C   UNL A   1      46.824  30.609  27.077  1.00  0.00     0.029 A 
ATOM     51  N   UNL A   1      44.797  30.261  27.921  1.00  0.00    -0.354 N 
ATOM     52  N   UNL A   1      42.334  31.029  29.373  1.00  0.00    -0.248 NA
ATOM     53  C   UNL A   1      41.129  32.589  30.631  1.00  0.00     0.031 C 
ATOM     54  C   UNL A   1      46.451  31.736  27.817  1.00  0.00     0.029 A 
ATOM     55  C   UNL A   1      45.171  31.538  28.310  1.00  0.00     0.049 A 
ATOM     56  H   UNL A   1      43.937  29.834  28.141  1.00  0.00     0.167 HD
ATOM     57  C   UNL A   1      43.094  32.186  29.515  1.00  0.00     0.074 A 
ATOM     58  C   UNL A   1      42.283  33.125  30.264  1.00  0.00     0.031 C 
ATOM     59  C   UNL A   1      44.349  32.453  29.066  1.00  0.00     0.034 A 
BRANCH  46  60
ATOM     60  C   UNL A   1      46.983  27.785  25.929  1.00  0.00     0.023 A 
ATOM     61  C   UNL A   1      47.251  28.088  24.581  1.00  0.00     0.031 A 
ATOM     62  C   UNL A   1      47.870  26.916  26.591  1.00  0.00     0.131 A 
ATOM     63  C   UNL A   1      48.319  27.467  23.919  1.00  0.00     0.055 A 
ATOM     64  C   UNL A   1      48.984  26.371  25.951  1.00  0.00     0.041 A 
ATOM     65  F   UNL A   1      47.658  26.567  27.870  1.00  0.00    -0.206 F 
ATOM     66  C   UNL A   1      49.205  26.631  24.601  1.00  0.00     0.022 A 
BRANCH  63  67
ATOM     67  S   UNL A   1      48.439  27.641  22.117  1.00  0.00     0.124 S 
ATOM     68  O   UNL A   1      49.585  28.537  21.984  1.00  0.00    -0.237 OA
ATOM     69  O   UNL A   1      48.648  26.266  21.680  1.00  0.00    -0.237 OA
ATOM     70  O   UNL A   1      47.153  28.227  21.742  1.00  0.00    -0.744 OA
ENDBRANCH  63  67
ENDBRANCH  46  60
BRANCH  47  71
ATOM     71  C   UNL A   1      38.794  30.829  30.907  1.00  0.00     0.023 A 
ATOM     72  C   UNL A   1      37.661  31.346  30.258  1.00  0.00     0.031 A 
ATOM     73  C   UNL A   1      38.781  30.783  32.313  1.00  0.00     0.131 A 
ATOM     74  C   UNL A   1      36.586  31.844  31.011  1.00  0.00     0.055 A 
ATOM     75  C   UNL A   1      37.685  31.225  33.057  1.00  0.00     0.041 A 
ATOM     76  F   UNL A   1      39.835  30.294  32.986  1.00  0.00    -0.206 F 
ATOM     77  C   UNL A   1      36.585  31.773  32.406  1.00  0.00     0.022 A 
BRANCH  74  78
ATOM     78  S   UNL A   1      35.229  32.676  30.143  1.00  0.00     0.124 S 
ATOM     79  O   UNL A   1      34.978  31.759  29.036  1.00  0.00    -0.237 OA
ATOM     80  O   UNL A   1      34.199  32.734  31.174  1.00  0.00    -0.237 OA
ATOM     81  O   UNL A   1      35.805  33.965  29.766  1.00  0.00    -0.744 OA
ENDBRANCH  74  78
ENDBRANCH  47  71
BRANCH  59  82
ATOM     82  C   UNL A   1      44.892  33.834  29.341  1.00  0.00     0.023 A 
ATOM     83  C   UNL A   1      44.605  34.924  28.500  1.00  0.00     0.031 A 
ATOM     84  C   UNL A   1      45.722  34.059  30.454  1.00  0.00     0.131 A 
ATOM     85  C   UNL A   1      45.196  36.170  28.748  1.00  0.00     0.055 A 
ATOM     86  C   UNL A   1      46.249  35.319  30.735  1.00  0.00     0.041 A 
ATOM     87  F   UNL A   1      46.032  33.054  31.289  1.00  0.00    -0.206 F 
ATOM     88  C   UNL A   1      46.000  36.380  29.870  1.00  0.00     0.022 A 
BRANCH  85  89
ATOM     89  S   UNL A   1      44.987  37.489  27.520  1.00  0.00     0.124 S 
ATOM     90  O   UNL A   1      46.201  37.353  26.721  1.00  0.00    -0.237 OA
ATOM     91  O   UNL A   1      43.744  37.107  26.860  1.00  0.00    -0.237 OA
ATOM     92  O   UNL A   1      44.911  38.703  28.330  1.00  0.00    -0.744 OA
ENDBRANCH  85  89
ENDBRANCH  59  82
ENDBRANCH  33  34
ENDBRANCH  25  28
ENDBRANCH  23  24
ENDBRANCH  22  23
ENDBRANCH   1  22
TORSDOF 19
ENDMDL
