MODEL 1
REMARK VINA RESULT:     -12.4      0.000      0.000
REMARK SMILES COC(=O)C1CCN(C(=O)N[C@@H]2C=C[C@H](C(=O)NCCCNC(=O)c3ccc(-c4c5nc(c(-c6cc(S(=O)(=O)[O-])ccc6F)c6ccc([nH]6)c(-c6cc(S(=O)(=O)[O-])ccc6F)c6nc(c(-c7cc(S(=O)(=O)[O-])ccc7F)c7ccc4[nH]7)C=C6)C=C5)cc3)C2)CC1
REMARK SMILES IDX 20 1 19 2 18 3 16 4 17 5 15 7 12 8 13 9 88 10 14 11 11 12
REMARK SMILES IDX 5 13 6 14 90 15 7 16 89 17 8 18 9 19 10 20 3 22 4 23 2 24
REMARK SMILES IDX 1 25 21 26 22 27 23 28 24 30 25 31 26 32 87 33 27 34 86 35
REMARK SMILES IDX 28 36 29 37 30 38 80 39 31 40 85 41 79 42 81 43 32 44 84 45
REMARK SMILES IDX 78 46 77 47 33 49 65 50 45 51 64 52 46 53 49 54 63 55 82 56
REMARK SMILES IDX 47 57 48 58 62 60 83 61 50 62 34 63 35 64 43 65 36 66 42 67
REMARK SMILES IDX 44 68 41 69 37 70 38 71 39 72 40 73 66 74 67 75 75 76 68 77
REMARK SMILES IDX 74 78 76 79 73 80 69 81 70 82 71 83 72 84 51 85 52 86 60 87
REMARK SMILES IDX 53 88 59 89 61 90 58 91 54 92 55 93 56 94 57 95
REMARK H PARENT 18 6 11 21 22 29 81 48 49 59
REMARK Flexibility Score: inf
ROOT
ATOM      1  C   UNL A   1      36.254  23.960  26.141  1.00  0.00     0.042 C 
ENDROOT
BRANCH   1   2
ATOM      2  C   UNL A   1      34.806  23.881  25.687  1.00  0.00     0.117 C 
BRANCH   2   3
ATOM      3  N   UNL A   1      34.697  23.859  24.236  1.00  0.00    -0.356 N 
ATOM      4  C   UNL A   1      34.334  22.881  23.366  1.00  0.00     0.227 C 
ATOM      5  O   UNL A   1      34.172  23.221  22.186  1.00  0.00    -0.274 OA
ATOM      6  H   UNL A   1      34.929  24.713  23.806  1.00  0.00     0.163 HD
BRANCH   4   7
ATOM      7  C   UNL A   1      34.023  21.428  23.758  1.00  0.00     0.103 C 
ATOM      8  C   UNL A   1      32.057  20.870  25.169  1.00  0.00     0.107 C 
ATOM      9  C   UNL A   1      33.369  20.596  25.853  1.00  0.00    -0.006 C 
ATOM     10  C   UNL A   1      32.509  21.132  23.731  1.00  0.00     0.047 C 
ATOM     11  C   UNL A   1      34.426  20.883  25.084  1.00  0.00    -0.016 C 
BRANCH   8  12
ATOM     12  N   UNL A   1      31.284  21.747  26.048  1.00  0.00    -0.332 N 
ATOM     13  C   UNL A   1      30.762  26.471  23.852  1.00  0.00     0.102 C 
ATOM     14  C   UNL A   1      29.826  26.330  25.046  1.00  0.00     0.037 C 
ATOM     15  C   UNL A   1      30.828  25.126  23.150  1.00  0.00     0.037 C 
ATOM     16  C   UNL A   1      30.338  25.293  26.034  1.00  0.00     0.122 C 
ATOM     17  C   UNL A   1      31.094  23.943  24.071  1.00  0.00     0.122 C 
ATOM     18  N   UNL A   1      30.671  23.994  25.445  1.00  0.00    -0.325 N 
ATOM     19  C   UNL A   1      30.756  22.945  26.309  1.00  0.00     0.317 C 
ATOM     20  O   UNL A   1      30.321  23.040  27.465  1.00  0.00    -0.249 OA
ATOM     21  H   UNL A   1      31.034  21.184  26.815  1.00  0.00     0.165 HD
BRANCH  13  22
ATOM     22  C   UNL A   1      32.140  27.038  24.192  1.00  0.00     0.308 C 
ATOM     23  O   UNL A   1      33.186  26.658  23.696  1.00  0.00    -0.252 OA
BRANCH  22  24
ATOM     24  O   UNL A   1      32.005  28.107  25.023  1.00  0.00    -0.469 OA
ATOM     25  C   UNL A   1      31.697  29.370  24.434  1.00  0.00     0.282 C 
ENDBRANCH  22  24
ENDBRANCH  13  22
ENDBRANCH   8  12
ENDBRANCH   4   7
ENDBRANCH   2   3
ENDBRANCH   1   2
BRANCH   1  26
ATOM     26  C   UNL A   1      37.198  23.274  25.170  1.00  0.00     0.118 C 
BRANCH  26  27
ATOM     27  N   UNL A   1      38.100  22.344  25.846  1.00  0.00    -0.352 N 
ATOM     28  C   UNL A   1      39.199  22.628  26.625  1.00  0.00     0.251 C 
ATOM     29  H   UNL A   1      37.894  21.389  25.731  1.00  0.00     0.163 HD
ATOM     30  O   UNL A   1      39.956  21.731  26.977  1.00  0.00    -0.269 OA
BRANCH  28  31
ATOM     31  C   UNL A   1      39.462  24.030  27.009  1.00  0.00     0.039 A 
ATOM     32  C   UNL A   1      39.232  24.440  28.323  1.00  0.00     0.014 A 
ATOM     33  C   UNL A   1      39.985  24.922  26.070  1.00  0.00     0.014 A 
ATOM     34  C   UNL A   1      39.594  25.732  28.711  1.00  0.00     0.010 A 
ATOM     35  C   UNL A   1      40.423  26.173  26.478  1.00  0.00     0.010 A 
ATOM     36  C   UNL A   1      40.222  26.596  27.799  1.00  0.00    -0.014 A 
BRANCH  36  37
ATOM     37  C   UNL A   1      40.655  27.961  28.189  1.00  0.00     0.031 A 
ATOM     38  C   UNL A   1      42.108  28.337  28.086  1.00  0.00     0.074 A 
ATOM     39  C   UNL A   1      39.763  28.822  28.714  1.00  0.00     0.049 A 
ATOM     40  N   UNL A   1      42.709  29.441  28.446  1.00  0.00    -0.248 NA
ATOM     41  C   UNL A   1      43.011  27.307  27.551  1.00  0.00     0.031 C 
ATOM     42  C   UNL A   1      38.339  28.546  28.919  1.00  0.00     0.029 A 
ATOM     43  N   UNL A   1      39.923  30.102  29.177  1.00  0.00    -0.354 N 
ATOM     44  C   UNL A   1      44.062  29.230  28.200  1.00  0.00     0.074 A 
ATOM     45  C   UNL A   1      44.195  27.863  27.745  1.00  0.00     0.031 C 
ATOM     46  C   UNL A   1      37.750  29.638  29.431  1.00  0.00     0.029 A 
ATOM     47  C   UNL A   1      38.757  30.677  29.626  1.00  0.00     0.049 A 
ATOM     48  H   UNL A   1      40.791  30.568  29.186  1.00  0.00     0.167 HD
ATOM     49  C   UNL A   1      45.093  30.105  28.314  1.00  0.00     0.034 A 
ATOM     50  C   UNL A   1      38.529  31.904  30.132  1.00  0.00     0.034 A 
ATOM     51  C   UNL A   1      44.930  31.468  28.759  1.00  0.00     0.049 A 
ATOM     52  C   UNL A   1      39.683  32.866  30.249  1.00  0.00     0.074 A 
ATOM     53  C   UNL A   1      45.883  32.467  28.859  1.00  0.00     0.029 A 
ATOM     54  N   UNL A   1      43.729  32.024  29.187  1.00  0.00    -0.354 N 
ATOM     55  N   UNL A   1      40.949  32.679  29.953  1.00  0.00    -0.248 NA
ATOM     56  C   UNL A   1      39.371  34.209  30.750  1.00  0.00     0.031 C 
ATOM     57  C   UNL A   1      45.273  33.602  29.407  1.00  0.00     0.029 A 
ATOM     58  C   UNL A   1      43.923  33.341  29.575  1.00  0.00     0.049 A 
ATOM     59  H   UNL A   1      42.866  31.551  29.210  1.00  0.00     0.167 HD
ATOM     60  C   UNL A   1      41.579  33.897  30.195  1.00  0.00     0.074 A 
ATOM     61  C   UNL A   1      40.550  34.809  30.655  1.00  0.00     0.031 C 
ATOM     62  C   UNL A   1      42.885  34.235  30.040  1.00  0.00     0.034 A 
BRANCH  49  63
ATOM     63  C   UNL A   1      46.474  29.588  27.976  1.00  0.00     0.023 A 
ATOM     64  C   UNL A   1      46.823  29.220  26.662  1.00  0.00     0.031 A 
ATOM     65  C   UNL A   1      47.430  29.381  28.986  1.00  0.00     0.131 A 
ATOM     66  C   UNL A   1      48.034  28.557  26.416  1.00  0.00     0.055 A 
ATOM     67  C   UNL A   1      48.679  28.816  28.715  1.00  0.00     0.041 A 
ATOM     68  F   UNL A   1      47.156  29.693  30.262  1.00  0.00    -0.206 F 
ATOM     69  C   UNL A   1      48.977  28.377  27.428  1.00  0.00     0.022 A 
BRANCH  66  70
ATOM     70  S   UNL A   1      48.263  27.753  24.804  1.00  0.00     0.124 S 
ATOM     71  O   UNL A   1      47.198  28.368  24.016  1.00  0.00    -0.237 OA
ATOM     72  O   UNL A   1      49.624  28.136  24.451  1.00  0.00    -0.237 OA
ATOM     73  O   UNL A   1      48.067  26.335  25.099  1.00  0.00    -0.744 OA
ENDBRANCH  66  70
ENDBRANCH  49  63
BRANCH  50  74
ATOM     74  C   UNL A   1      37.151  32.308  30.529  1.00  0.00     0.023 A 
ATOM     75  C   UNL A   1      36.270  32.868  29.590  1.00  0.00     0.031 A 
ATOM     76  C   UNL A   1      36.698  32.153  31.850  1.00  0.00     0.131 A 
ATOM     77  C   UNL A   1      34.993  33.287  29.992  1.00  0.00     0.055 A 
ATOM     78  C   UNL A   1      35.410  32.531  32.235  1.00  0.00     0.041 A 
ATOM     79  F   UNL A   1      37.497  31.610  32.783  1.00  0.00    -0.206 F 
ATOM     80  C   UNL A   1      34.552  33.112  31.305  1.00  0.00     0.022 A 
BRANCH  77  81
ATOM     81  S   UNL A   1      33.930  34.117  28.779  1.00  0.00     0.124 S 
ATOM     82  O   UNL A   1      34.830  35.132  28.240  1.00  0.00    -0.237 OA
ATOM     83  O   UNL A   1      33.584  33.022  27.879  1.00  0.00    -0.237 OA
ATOM     84  O   UNL A   1      32.825  34.627  29.588  1.00  0.00    -0.744 OA
ENDBRANCH  77  81
ENDBRANCH  50  74
BRANCH  62  85
ATOM     85  C   UNL A   1      43.256  35.672  30.316  1.00  0.00     0.023 A 
ATOM     86  C   UNL A   1      43.220  36.657  29.314  1.00  0.00     0.031 A 
ATOM     87  C   UNL A   1      43.672  36.054  31.604  1.00  0.00     0.131 A 
ATOM     88  C   UNL A   1      43.652  37.961  29.600  1.00  0.00     0.055 A 
ATOM     89  C   UNL A   1      44.039  37.367  31.899  1.00  0.00     0.041 A 
ATOM     90  F   UNL A   1      43.728  35.154  32.599  1.00  0.00    -0.206 F 
ATOM     91  C   UNL A   1      44.045  38.326  30.890  1.00  0.00     0.022 A 
BRANCH  88  92
ATOM     92  S   UNL A   1      43.797  39.150  28.237  1.00  0.00     0.124 S 
ATOM     93  O   UNL A   1      45.115  39.727  28.478  1.00  0.00    -0.237 OA
ATOM     94  O   UNL A   1      43.681  38.293  27.062  1.00  0.00    -0.237 OA
ATOM     95  O   UNL A   1      42.673  40.059  28.455  1.00  0.00    -0.744 OA
ENDBRANCH  88  92
ENDBRANCH  62  85
ENDBRANCH  36  37
ENDBRANCH  28  31
ENDBRANCH  26  27
ENDBRANCH   1  26
TORSDOF 16
ENDMDL
MODEL 2
REMARK VINA RESULT:     -12.3      5.208      8.468
REMARK SMILES COC(=O)C1CCN(C(=O)N[C@@H]2C=C[C@H](C(=O)NCCCNC(=O)c3ccc(-c4c5nc(c(-c6cc(S(=O)(=O)[O-])ccc6F)c6ccc([nH]6)c(-c6cc(S(=O)(=O)[O-])ccc6F)c6nc(c(-c7cc(S(=O)(=O)[O-])ccc7F)c7ccc4[nH]7)C=C6)C=C5)cc3)C2)CC1
REMARK SMILES IDX 20 1 19 2 18 3 16 4 17 5 15 7 12 8 13 9 88 10 14 11 11 12
REMARK SMILES IDX 5 13 6 14 90 15 7 16 89 17 8 18 9 19 10 20 3 22 4 23 2 24
REMARK SMILES IDX 1 25 21 26 22 27 23 28 24 30 25 31 26 32 87 33 27 34 86 35
REMARK SMILES IDX 28 36 29 37 30 38 80 39 31 40 85 41 79 42 81 43 32 44 84 45
REMARK SMILES IDX 78 46 77 47 33 49 65 50 45 51 64 52 46 53 49 54 63 55 82 56
REMARK SMILES IDX 47 57 48 58 62 60 83 61 50 62 34 63 35 64 43 65 36 66 42 67
REMARK SMILES IDX 44 68 41 69 37 70 38 71 39 72 40 73 66 74 67 75 75 76 68 77
REMARK SMILES IDX 74 78 76 79 73 80 69 81 70 82 71 83 72 84 51 85 52 86 60 87
REMARK SMILES IDX 53 88 59 89 61 90 58 91 54 92 55 93 56 94 57 95
REMARK H PARENT 18 6 11 21 22 29 81 48 49 59
REMARK Flexibility Score: inf
ROOT
ATOM      1  C   UNL A   1      31.144  31.620  26.092  1.00  0.00     0.042 C 
ENDROOT
BRANCH   1   2
ATOM      2  C   UNL A   1      31.475  30.321  25.374  1.00  0.00     0.117 C 
BRANCH   2   3
ATOM      3  N   UNL A   1      30.557  30.065  24.275  1.00  0.00    -0.356 N 
ATOM      4  C   UNL A   1      30.683  29.334  23.137  1.00  0.00     0.227 C 
ATOM      5  O   UNL A   1      29.653  29.165  22.470  1.00  0.00    -0.274 OA
ATOM      6  H   UNL A   1      29.681  30.501  24.376  1.00  0.00     0.163 HD
BRANCH   4   7
ATOM      7  C   UNL A   1      31.973  28.635  22.680  1.00  0.00     0.103 C 
ATOM      8  C   UNL A   1      32.740  26.528  23.747  1.00  0.00     0.107 C 
ATOM      9  C   UNL A   1      33.661  27.688  24.008  1.00  0.00    -0.006 C 
ATOM     10  C   UNL A   1      31.825  27.100  22.661  1.00  0.00     0.047 C 
ATOM     11  C   UNL A   1      33.253  28.819  23.418  1.00  0.00    -0.016 C 
BRANCH   8  12
ATOM     12  N   UNL A   1      32.364  25.971  25.045  1.00  0.00    -0.332 N 
ATOM     13  C   UNL A   1      33.881  20.970  25.356  1.00  0.00     0.102 C 
ATOM     14  C   UNL A   1      33.463  21.489  26.727  1.00  0.00     0.037 C 
ATOM     15  C   UNL A   1      34.574  22.103  24.620  1.00  0.00     0.037 C 
ATOM     16  C   UNL A   1      32.493  22.653  26.608  1.00  0.00     0.122 C 
ATOM     17  C   UNL A   1      33.815  23.424  24.633  1.00  0.00     0.122 C 
ATOM     18  N   UNL A   1      32.935  23.736  25.727  1.00  0.00    -0.325 N 
ATOM     19  C   UNL A   1      32.311  24.936  25.886  1.00  0.00     0.317 C 
ATOM     20  O   UNL A   1      31.609  25.157  26.883  1.00  0.00    -0.249 OA
ATOM     21  H   UNL A   1      31.952  26.719  25.534  1.00  0.00     0.165 HD
BRANCH  13  22
ATOM     22  C   UNL A   1      32.750  20.335  24.548  1.00  0.00     0.308 C 
ATOM     23  O   UNL A   1      32.503  20.591  23.383  1.00  0.00    -0.252 OA
BRANCH  22  24
ATOM     24  O   UNL A   1      32.154  19.356  25.283  1.00  0.00    -0.469 OA
ATOM     25  C   UNL A   1      32.591  18.013  25.076  1.00  0.00     0.282 C 
ENDBRANCH  22  24
ENDBRANCH  13  22
ENDBRANCH   8  12
ENDBRANCH   4   7
ENDBRANCH   2   3
ENDBRANCH   1   2
BRANCH   1  26
ATOM     26  C   UNL A   1      32.220  32.014  27.088  1.00  0.00     0.118 C 
BRANCH  26  27
ATOM     27  N   UNL A   1      32.265  33.458  27.303  1.00  0.00    -0.352 N 
ATOM     28  C   UNL A   1      33.153  34.185  28.063  1.00  0.00     0.251 C 
ATOM     29  H   UNL A   1      31.570  33.981  26.842  1.00  0.00     0.163 HD
ATOM     30  O   UNL A   1      32.951  35.374  28.283  1.00  0.00    -0.269 OA
BRANCH  28  31
ATOM     31  C   UNL A   1      34.338  33.505  28.625  1.00  0.00     0.039 A 
ATOM     32  C   UNL A   1      35.599  34.085  28.480  1.00  0.00     0.014 A 
ATOM     33  C   UNL A   1      34.184  32.316  29.341  1.00  0.00     0.014 A 
ATOM     34  C   UNL A   1      36.699  33.502  29.114  1.00  0.00     0.010 A 
ATOM     35  C   UNL A   1      35.259  31.788  30.040  1.00  0.00     0.010 A 
ATOM     36  C   UNL A   1      36.530  32.368  29.926  1.00  0.00    -0.014 A 
BRANCH  36  37
ATOM     37  C   UNL A   1      37.669  31.747  30.645  1.00  0.00     0.031 A 
ATOM     38  C   UNL A   1      38.508  30.709  29.951  1.00  0.00     0.074 A 
ATOM     39  C   UNL A   1      37.890  32.049  31.939  1.00  0.00     0.049 A 
ATOM     40  N   UNL A   1      39.493  29.987  30.418  1.00  0.00    -0.248 NA
ATOM     41  C   UNL A   1      38.152  30.410  28.556  1.00  0.00     0.031 C 
ATOM     42  C   UNL A   1      37.102  32.995  32.733  1.00  0.00     0.029 A 
ATOM     43  N   UNL A   1      38.837  31.587  32.815  1.00  0.00    -0.354 N 
ATOM     44  C   UNL A   1      39.860  29.135  29.381  1.00  0.00     0.074 A 
ATOM     45  C   UNL A   1      38.933  29.374  28.297  1.00  0.00     0.031 C 
ATOM     46  C   UNL A   1      37.624  33.070  33.968  1.00  0.00     0.029 A 
ATOM     47  C   UNL A   1      38.755  32.153  34.065  1.00  0.00     0.049 A 
ATOM     48  H   UNL A   1      39.513  30.913  32.572  1.00  0.00     0.167 HD
ATOM     49  C   UNL A   1      40.895  28.259  29.328  1.00  0.00     0.034 A 
ATOM     50  C   UNL A   1      39.513  31.957  35.162  1.00  0.00     0.034 A 
ATOM     51  C   UNL A   1      41.814  28.049  30.420  1.00  0.00     0.049 A 
ATOM     52  C   UNL A   1      40.659  30.982  35.086  1.00  0.00     0.074 A 
ATOM     53  C   UNL A   1      42.933  27.237  30.467  1.00  0.00     0.029 A 
ATOM     54  N   UNL A   1      41.714  28.657  31.667  1.00  0.00    -0.354 N 
ATOM     55  N   UNL A   1      41.040  30.228  34.079  1.00  0.00    -0.248 NA
ATOM     56  C   UNL A   1      41.490  30.848  36.288  1.00  0.00     0.031 C 
ATOM     57  C   UNL A   1      43.469  27.302  31.759  1.00  0.00     0.029 A 
ATOM     58  C   UNL A   1      42.735  28.217  32.497  1.00  0.00     0.049 A 
ATOM     59  H   UNL A   1      41.019  29.305  31.924  1.00  0.00     0.167 HD
ATOM     60  C   UNL A   1      42.180  29.559  34.516  1.00  0.00     0.074 A 
ATOM     61  C   UNL A   1      42.425  30.005  35.873  1.00  0.00     0.031 C 
ATOM     62  C   UNL A   1      42.960  28.667  33.852  1.00  0.00     0.034 A 
BRANCH  49  63
ATOM     63  C   UNL A   1      41.049  27.455  28.055  1.00  0.00     0.023 A 
ATOM     64  C   UNL A   1      40.690  26.095  27.993  1.00  0.00     0.031 A 
ATOM     65  C   UNL A   1      41.636  28.026  26.912  1.00  0.00     0.131 A 
ATOM     66  C   UNL A   1      41.032  25.328  26.869  1.00  0.00     0.055 A 
ATOM     67  C   UNL A   1      41.877  27.280  25.755  1.00  0.00     0.041 A 
ATOM     68  F   UNL A   1      42.019  29.313  26.909  1.00  0.00    -0.206 F 
ATOM     69  C   UNL A   1      41.598  25.916  25.739  1.00  0.00     0.022 A 
BRANCH  66  70
ATOM     70  S   UNL A   1      40.916  23.520  26.994  1.00  0.00     0.124 S 
ATOM     71  O   UNL A   1      41.620  23.097  25.785  1.00  0.00    -0.237 OA
ATOM     72  O   UNL A   1      41.591  23.247  28.256  1.00  0.00    -0.237 OA
ATOM     73  O   UNL A   1      39.476  23.269  26.985  1.00  0.00    -0.744 OA
ENDBRANCH  66  70
ENDBRANCH  49  63
BRANCH  50  74
ATOM     74  C   UNL A   1      39.238  32.722  36.410  1.00  0.00     0.023 A 
ATOM     75  C   UNL A   1      38.376  32.207  37.391  1.00  0.00     0.031 A 
ATOM     76  C   UNL A   1      39.820  33.981  36.637  1.00  0.00     0.131 A 
ATOM     77  C   UNL A   1      38.091  32.963  38.539  1.00  0.00     0.055 A 
ATOM     78  C   UNL A   1      39.568  34.709  37.801  1.00  0.00     0.041 A 
ATOM     79  F   UNL A   1      40.662  34.512  35.736  1.00  0.00    -0.206 F 
ATOM     80  C   UNL A   1      38.690  34.204  38.756  1.00  0.00     0.022 A 
BRANCH  77  81
ATOM     81  S   UNL A   1      36.878  32.317  39.723  1.00  0.00     0.124 S 
ATOM     82  O   UNL A   1      37.399  30.979  39.982  1.00  0.00    -0.237 OA
ATOM     83  O   UNL A   1      36.988  33.273  40.821  1.00  0.00    -0.237 OA
ATOM     84  O   UNL A   1      35.620  32.367  38.983  1.00  0.00    -0.744 OA
ENDBRANCH  77  81
ENDBRANCH  50  74
BRANCH  62  85
ATOM     85  C   UNL A   1      44.187  28.164  34.573  1.00  0.00     0.023 A 
ATOM     86  C   UNL A   1      44.165  27.002  35.363  1.00  0.00     0.031 A 
ATOM     87  C   UNL A   1      45.397  28.877  34.480  1.00  0.00     0.131 A 
ATOM     88  C   UNL A   1      45.310  26.621  36.078  1.00  0.00     0.055 A 
ATOM     89  C   UNL A   1      46.551  28.457  35.143  1.00  0.00     0.041 A 
ATOM     90  F   UNL A   1      45.476  29.996  33.742  1.00  0.00    -0.206 F 
ATOM     91  C   UNL A   1      46.507  27.331  35.959  1.00  0.00     0.022 A 
BRANCH  88  92
ATOM     92  S   UNL A   1      45.185  25.243  37.252  1.00  0.00     0.124 S 
ATOM     93  O   UNL A   1      45.990  24.215  36.600  1.00  0.00    -0.237 OA
ATOM     94  O   UNL A   1      45.750  25.819  38.468  1.00  0.00    -0.237 OA
ATOM     95  O   UNL A   1      43.751  24.967  37.306  1.00  0.00    -0.744 OA
ENDBRANCH  88  92
ENDBRANCH  62  85
ENDBRANCH  36  37
ENDBRANCH  28  31
ENDBRANCH  26  27
ENDBRANCH   1  26
TORSDOF 16
ENDMDL
MODEL 3
REMARK VINA RESULT:     -12.2      4.943      9.863
REMARK SMILES COC(=O)C1CCN(C(=O)N[C@@H]2C=C[C@H](C(=O)NCCCNC(=O)c3ccc(-c4c5nc(c(-c6cc(S(=O)(=O)[O-])ccc6F)c6ccc([nH]6)c(-c6cc(S(=O)(=O)[O-])ccc6F)c6nc(c(-c7cc(S(=O)(=O)[O-])ccc7F)c7ccc4[nH]7)C=C6)C=C5)cc3)C2)CC1
REMARK SMILES IDX 20 1 19 2 18 3 16 4 17 5 15 7 12 8 13 9 88 10 14 11 11 12
REMARK SMILES IDX 5 13 6 14 90 15 7 16 89 17 8 18 9 19 10 20 3 22 4 23 2 24
REMARK SMILES IDX 1 25 21 26 22 27 23 28 24 30 25 31 26 32 87 33 27 34 86 35
REMARK SMILES IDX 28 36 29 37 30 38 80 39 31 40 85 41 79 42 81 43 32 44 84 45
REMARK SMILES IDX 78 46 77 47 33 49 65 50 45 51 64 52 46 53 49 54 63 55 82 56
REMARK SMILES IDX 47 57 48 58 62 60 83 61 50 62 34 63 35 64 43 65 36 66 42 67
REMARK SMILES IDX 44 68 41 69 37 70 38 71 39 72 40 73 66 74 67 75 75 76 68 77
REMARK SMILES IDX 74 78 76 79 73 80 69 81 70 82 71 83 72 84 51 85 52 86 60 87
REMARK SMILES IDX 53 88 59 89 61 90 58 91 54 92 55 93 56 94 57 95
REMARK H PARENT 18 6 11 21 22 29 81 48 49 59
REMARK Flexibility Score: inf
ROOT
ATOM      1  C   UNL A   1      34.177  28.197  25.381  1.00  0.00     0.042 C 
ENDROOT
BRANCH   1   2
ATOM      2  C   UNL A   1      33.452  26.942  24.924  1.00  0.00     0.117 C 
BRANCH   2   3
ATOM      3  N   UNL A   1      32.355  26.600  25.815  1.00  0.00    -0.356 N 
ATOM      4  C   UNL A   1      31.034  26.919  25.795  1.00  0.00     0.227 C 
ATOM      5  O   UNL A   1      30.309  26.330  26.607  1.00  0.00    -0.274 OA
ATOM      6  H   UNL A   1      32.617  26.031  26.573  1.00  0.00     0.163 HD
BRANCH   4   7
ATOM      7  C   UNL A   1      30.376  27.873  24.786  1.00  0.00     0.103 C 
ATOM      8  C   UNL A   1      30.637  27.536  22.340  1.00  0.00     0.107 C 
ATOM      9  C   UNL A   1      31.304  28.790  22.834  1.00  0.00    -0.006 C 
ATOM     10  C   UNL A   1      29.813  27.124  23.562  1.00  0.00     0.047 C 
ATOM     11  C   UNL A   1      31.148  28.977  24.151  1.00  0.00    -0.016 C 
BRANCH   8  12
ATOM     12  N   UNL A   1      31.649  26.758  21.627  1.00  0.00    -0.332 N 
ATOM     13  C   UNL A   1      32.484  22.219  24.098  1.00  0.00     0.102 C 
ATOM     14  C   UNL A   1      33.127  22.202  22.717  1.00  0.00     0.037 C 
ATOM     15  C   UNL A   1      31.180  22.991  23.996  1.00  0.00     0.037 C 
ATOM     16  C   UNL A   1      33.435  23.609  22.230  1.00  0.00     0.122 C 
ATOM     17  C   UNL A   1      31.295  24.338  23.295  1.00  0.00     0.122 C 
ATOM     18  N   UNL A   1      32.309  24.544  22.296  1.00  0.00    -0.325 N 
ATOM     19  C   UNL A   1      32.413  25.668  21.535  1.00  0.00     0.317 C 
ATOM     20  O   UNL A   1      33.278  25.756  20.651  1.00  0.00    -0.249 OA
ATOM     21  H   UNL A   1      31.875  27.297  20.835  1.00  0.00     0.165 HD
BRANCH  13  22
ATOM     22  C   UNL A   1      33.395  22.727  25.214  1.00  0.00     0.308 C 
ATOM     23  O   UNL A   1      34.600  22.552  25.258  1.00  0.00    -0.252 OA
BRANCH  22  24
ATOM     24  O   UNL A   1      32.682  23.509  26.069  1.00  0.00    -0.469 OA
ATOM     25  C   UNL A   1      32.329  22.954  27.337  1.00  0.00     0.282 C 
ENDBRANCH  22  24
ENDBRANCH  13  22
ENDBRANCH   8  12
ENDBRANCH   4   7
ENDBRANCH   2   3
ENDBRANCH   1   2
BRANCH   1  26
ATOM     26  C   UNL A   1      33.782  28.608  26.789  1.00  0.00     0.118 C 
BRANCH  26  27
ATOM     27  N   UNL A   1      33.582  30.050  26.904  1.00  0.00    -0.352 N 
ATOM     28  C   UNL A   1      34.311  30.963  27.632  1.00  0.00     0.251 C 
ATOM     29  H   UNL A   1      32.826  30.418  26.391  1.00  0.00     0.163 HD
ATOM     30  O   UNL A   1      33.908  32.113  27.764  1.00  0.00    -0.269 OA
BRANCH  28  31
ATOM     31  C   UNL A   1      35.571  30.528  28.267  1.00  0.00     0.039 A 
ATOM     32  C   UNL A   1      35.531  29.842  29.481  1.00  0.00     0.014 A 
ATOM     33  C   UNL A   1      36.790  30.762  27.626  1.00  0.00     0.014 A 
ATOM     34  C   UNL A   1      36.714  29.329  30.019  1.00  0.00     0.010 A 
ATOM     35  C   UNL A   1      37.949  30.178  28.116  1.00  0.00     0.010 A 
ATOM     36  C   UNL A   1      37.926  29.465  29.322  1.00  0.00    -0.014 A 
BRANCH  36  37
ATOM     37  C   UNL A   1      39.194  28.898  29.845  1.00  0.00     0.031 A 
ATOM     38  C   UNL A   1      39.833  29.508  31.062  1.00  0.00     0.074 A 
ATOM     39  C   UNL A   1      39.809  27.904  29.177  1.00  0.00     0.049 A 
ATOM     40  N   UNL A   1      40.974  29.222  31.635  1.00  0.00    -0.248 NA
ATOM     41  C   UNL A   1      39.110  30.625  31.688  1.00  0.00     0.031 C 
ATOM     42  C   UNL A   1      39.314  27.276  27.949  1.00  0.00     0.029 A 
ATOM     43  N   UNL A   1      40.987  27.251  29.432  1.00  0.00    -0.354 N 
ATOM     44  C   UNL A   1      41.113  30.137  32.673  1.00  0.00     0.074 A 
ATOM     45  C   UNL A   1      39.984  31.037  32.591  1.00  0.00     0.031 C 
ATOM     46  C   UNL A   1      40.163  26.303  27.581  1.00  0.00     0.029 A 
ATOM     47  C   UNL A   1      41.279  26.263  28.521  1.00  0.00     0.049 A 
ATOM     48  H   UNL A   1      41.568  27.468  30.197  1.00  0.00     0.167 HD
ATOM     49  C   UNL A   1      42.078  30.200  33.626  1.00  0.00     0.034 A 
ATOM     50  C   UNL A   1      42.327  25.419  28.458  1.00  0.00     0.034 A 
ATOM     51  C   UNL A   1      43.188  29.281  33.692  1.00  0.00     0.049 A 
ATOM     52  C   UNL A   1      43.388  25.500  29.525  1.00  0.00     0.074 A 
ATOM     53  C   UNL A   1      44.194  29.204  34.639  1.00  0.00     0.029 A 
ATOM     54  N   UNL A   1      43.442  28.277  32.763  1.00  0.00    -0.354 N 
ATOM     55  N   UNL A   1      43.479  26.327  30.542  1.00  0.00    -0.248 NA
ATOM     56  C   UNL A   1      44.478  24.520  29.444  1.00  0.00     0.031 C 
ATOM     57  C   UNL A   1      45.089  28.201  34.249  1.00  0.00     0.029 A 
ATOM     58  C   UNL A   1      44.601  27.595  33.102  1.00  0.00     0.049 A 
ATOM     59  H   UNL A   1      42.881  28.080  31.980  1.00  0.00     0.167 HD
ATOM     60  C   UNL A   1      44.616  25.939  31.245  1.00  0.00     0.074 A 
ATOM     61  C   UNL A   1      45.171  24.802  30.539  1.00  0.00     0.031 C 
ATOM     62  C   UNL A   1      45.146  26.466  32.379  1.00  0.00     0.034 A 
BRANCH  49  63
ATOM     63  C   UNL A   1      41.971  31.319  34.639  1.00  0.00     0.023 A 
ATOM     64  C   UNL A   1      40.978  31.317  35.637  1.00  0.00     0.031 A 
ATOM     65  C   UNL A   1      42.814  32.440  34.561  1.00  0.00     0.131 A 
ATOM     66  C   UNL A   1      40.775  32.458  36.429  1.00  0.00     0.055 A 
ATOM     67  C   UNL A   1      42.674  33.530  35.424  1.00  0.00     0.041 A 
ATOM     68  F   UNL A   1      43.770  32.515  33.621  1.00  0.00    -0.206 F 
ATOM     69  C   UNL A   1      41.634  33.554  36.349  1.00  0.00     0.022 A 
BRANCH  66  70
ATOM     70  S   UNL A   1      39.251  32.564  37.411  1.00  0.00     0.124 S 
ATOM     71  O   UNL A   1      39.780  32.571  38.773  1.00  0.00    -0.237 OA
ATOM     72  O   UNL A   1      38.663  33.814  36.946  1.00  0.00    -0.237 OA
ATOM     73  O   UNL A   1      38.522  31.352  37.042  1.00  0.00    -0.744 OA
ENDBRANCH  66  70
ENDBRANCH  49  63
BRANCH  50  74
ATOM     74  C   UNL A   1      42.406  24.402  27.373  1.00  0.00     0.023 A 
ATOM     75  C   UNL A   1      41.612  23.245  27.415  1.00  0.00     0.031 A 
ATOM     76  C   UNL A   1      43.283  24.562  26.285  1.00  0.00     0.131 A 
ATOM     77  C   UNL A   1      41.735  22.275  26.409  1.00  0.00     0.055 A 
ATOM     78  C   UNL A   1      43.369  23.615  25.264  1.00  0.00     0.041 A 
ATOM     79  F   UNL A   1      44.054  25.657  26.191  1.00  0.00    -0.206 F 
ATOM     80  C   UNL A   1      42.598  22.457  25.328  1.00  0.00     0.022 A 
BRANCH  77  81
ATOM     81  S   UNL A   1      40.782  20.739  26.564  1.00  0.00     0.124 S 
ATOM     82  O   UNL A   1      39.496  21.128  25.996  1.00  0.00    -0.237 OA
ATOM     83  O   UNL A   1      41.578  19.807  25.773  1.00  0.00    -0.237 OA
ATOM     84  O   UNL A   1      40.778  20.485  28.003  1.00  0.00    -0.744 OA
ENDBRANCH  77  81
ENDBRANCH  50  74
BRANCH  62  85
ATOM     85  C   UNL A   1      46.358  25.773  32.953  1.00  0.00     0.023 A 
ATOM     86  C   UNL A   1      46.247  24.660  33.803  1.00  0.00     0.031 A 
ATOM     87  C   UNL A   1      47.646  26.252  32.655  1.00  0.00     0.131 A 
ATOM     88  C   UNL A   1      47.400  24.101  34.376  1.00  0.00     0.055 A 
ATOM     89  C   UNL A   1      48.793  25.652  33.176  1.00  0.00     0.041 A 
ATOM     90  F   UNL A   1      47.812  27.314  31.851  1.00  0.00    -0.206 F 
ATOM     91  C   UNL A   1      48.673  24.579  34.055  1.00  0.00     0.022 A 
BRANCH  88  92
ATOM     92  S   UNL A   1      47.208  22.806  35.633  1.00  0.00     0.124 S 
ATOM     93  O   UNL A   1      46.676  21.698  34.848  1.00  0.00    -0.237 OA
ATOM     94  O   UNL A   1      48.574  22.644  36.123  1.00  0.00    -0.237 OA
ATOM     95  O   UNL A   1      46.273  23.394  36.591  1.00  0.00    -0.744 OA
ENDBRANCH  88  92
ENDBRANCH  62  85
ENDBRANCH  36  37
ENDBRANCH  28  31
ENDBRANCH  26  27
ENDBRANCH   1  26
TORSDOF 16
ENDMDL
