MODEL 1
REMARK VINA RESULT:     -11.1      0.000      0.000
REMARK SMILES CCCCCCNC(=O)Oc1cccc(-c2ccc([C@@H](C)C(=O)NCCCNC(=O)c3ccc(-c4c5nc(c(-c6cc(S(=O)(=O)[O-])ccc6F)c6ccc([nH]6)c(-c6cc(S(=O)(=O)[O-])ccc6F)c6nc(c(-c7cc(S(=O)(=O)[O-])ccc7F)c7ccc4[nH]7)C=C6)C=C5)cc3)cc2Cl)c1
REMARK SMILES IDX 20 1 21 2 19 3 16 4 17 5 95 6 18 7 94 8 96 9 15 10 11 11
REMARK SMILES IDX 12 12 97 13 13 14 14 15 10 16 8 17 7 18 9 20 6 21 5 22 4 23
REMARK SMILES IDX 3 24 2 25 1 26 22 27 23 28 24 29 25 31 26 32 27 33 28 34
REMARK SMILES IDX 29 35 30 37 31 38 32 39 93 40 33 41 92 42 34 43 35 44 36 45
REMARK SMILES IDX 86 46 37 47 91 48 85 49 87 50 38 51 90 52 84 53 83 54 39 56
REMARK SMILES IDX 71 57 51 58 70 59 52 60 55 61 69 62 88 63 53 64 54 65 68 67
REMARK SMILES IDX 89 68 56 69 40 70 41 71 49 72 42 73 48 74 50 75 47 76 43 77
REMARK SMILES IDX 44 78 45 79 46 80 72 81 73 82 81 83 74 84 80 85 82 86 79 87
REMARK SMILES IDX 75 88 76 89 77 90 78 91 57 92 58 93 66 94 59 95 65 96 67 97
REMARK SMILES IDX 64 98 60 99 61 100 62 101 63 102
REMARK H PARENT 7 19 24 30 28 36 87 55 55 66
REMARK Flexibility Score: inf
ROOT
ATOM      1  C   UNL A   1      29.452  28.104  22.785  1.00  0.00     0.105 C 
ATOM      2  C   UNL A   1      28.086  28.526  23.321  1.00  0.00     0.023 C 
ENDROOT
BRANCH   1   3
ATOM      3  C   UNL A   1      30.038  26.845  23.402  1.00  0.00    -0.034 A 
ATOM      4  C   UNL A   1      31.351  24.608  24.624  1.00  0.00     0.000 A 
ATOM      5  C   UNL A   1      30.224  25.222  25.202  1.00  0.00     0.010 A 
ATOM      6  C   UNL A   1      31.756  25.098  23.367  1.00  0.00     0.049 A 
ATOM      7  C   UNL A   1      29.556  26.284  24.582  1.00  0.00     0.005 A 
ATOM      8  C   UNL A   1      31.133  26.217  22.790  1.00  0.00     0.025 A 
ATOM      9  Cl  UNL A   1      32.991  24.338  22.414  1.00  0.00    -0.084 Cl
BRANCH   4  10
ATOM     10  C   UNL A   1      32.038  23.529  25.372  1.00  0.00    -0.013 A 
ATOM     11  C   UNL A   1      32.631  21.188  25.670  1.00  0.00     0.133 A 
ATOM     12  C   UNL A   1      33.419  21.490  26.774  1.00  0.00     0.047 A 
ATOM     13  C   UNL A   1      31.956  22.187  24.966  1.00  0.00     0.056 A 
ATOM     14  C   UNL A   1      33.540  22.816  27.177  1.00  0.00     0.004 A 
ATOM     15  C   UNL A   1      32.848  23.820  26.490  1.00  0.00     0.009 A 
BRANCH  11  16
ATOM     16  O   UNL A   1      32.438  19.825  25.385  1.00  0.00    -0.410 OA
BRANCH  16  17
ATOM     17  C   UNL A   1      32.710  19.349  24.112  1.00  0.00     0.412 C 
ATOM     18  N   UNL A   1      33.981  18.859  23.991  1.00  0.00    -0.321 N 
ATOM     19  H   UNL A   1      34.254  18.558  23.094  1.00  0.00     0.167 HD
ATOM     20  O   UNL A   1      31.935  19.339  23.164  1.00  0.00    -0.224 OA
BRANCH  18  21
ATOM     21  C   UNL A   1      34.967  18.737  25.045  1.00  0.00     0.119 C 
BRANCH  21  22
ATOM     22  C   UNL A   1      36.256  19.483  24.700  1.00  0.00     0.021 C 
BRANCH  22  23
ATOM     23  C   UNL A   1      36.320  20.925  25.221  1.00  0.00     0.002 C 
BRANCH  23  24
ATOM     24  C   UNL A   1      36.106  22.015  24.164  1.00  0.00    -0.000 C 
BRANCH  24  25
ATOM     25  C   UNL A   1      36.820  23.340  24.435  1.00  0.00    -0.003 C 
ATOM     26  C   UNL A   1      36.791  23.750  25.899  1.00  0.00     0.004 C 
ENDBRANCH  24  25
ENDBRANCH  23  24
ENDBRANCH  22  23
ENDBRANCH  21  22
ENDBRANCH  18  21
ENDBRANCH  16  17
ENDBRANCH  11  16
ENDBRANCH   4  10
ENDBRANCH   1   3
BRANCH   1  27
ATOM     27  C   UNL A   1      30.466  29.251  22.635  1.00  0.00     0.227 C 
ATOM     28  O   UNL A   1      30.567  29.839  21.552  1.00  0.00    -0.274 OA
ATOM     29  N   UNL A   1      31.276  29.691  23.635  1.00  0.00    -0.356 N 
ATOM     30  H   UNL A   1      31.831  30.465  23.387  1.00  0.00     0.163 HD
BRANCH  29  31
ATOM     31  C   UNL A   1      31.475  29.237  24.998  1.00  0.00     0.117 C 
BRANCH  31  32
ATOM     32  C   UNL A   1      32.814  28.525  25.183  1.00  0.00     0.042 C 
BRANCH  32  33
ATOM     33  C   UNL A   1      33.506  28.839  26.501  1.00  0.00     0.118 C 
BRANCH  33  34
ATOM     34  N   UNL A   1      33.439  30.256  26.828  1.00  0.00    -0.352 N 
ATOM     35  C   UNL A   1      34.225  31.024  27.652  1.00  0.00     0.251 C 
ATOM     36  H   UNL A   1      32.708  30.746  26.386  1.00  0.00     0.163 HD
ATOM     37  O   UNL A   1      33.826  32.143  27.967  1.00  0.00    -0.269 OA
BRANCH  35  38
ATOM     38  C   UNL A   1      35.522  30.525  28.168  1.00  0.00     0.039 A 
ATOM     39  C   UNL A   1      35.530  29.771  29.348  1.00  0.00     0.014 A 
ATOM     40  C   UNL A   1      36.731  30.837  27.543  1.00  0.00     0.014 A 
ATOM     41  C   UNL A   1      36.738  29.295  29.865  1.00  0.00     0.010 A 
ATOM     42  C   UNL A   1      37.924  30.286  28.009  1.00  0.00     0.010 A 
ATOM     43  C   UNL A   1      37.944  29.521  29.183  1.00  0.00    -0.014 A 
BRANCH  43  44
ATOM     44  C   UNL A   1      39.234  28.987  29.698  1.00  0.00     0.031 A 
ATOM     45  C   UNL A   1      39.916  29.653  30.865  1.00  0.00     0.074 A 
ATOM     46  C   UNL A   1      39.814  27.937  29.084  1.00  0.00     0.049 A 
ATOM     47  N   UNL A   1      41.070  29.379  31.417  1.00  0.00    -0.248 NA
ATOM     48  C   UNL A   1      39.217  30.796  31.473  1.00  0.00     0.031 C 
ATOM     49  C   UNL A   1      39.270  27.236  27.919  1.00  0.00     0.029 A 
ATOM     50  N   UNL A   1      40.991  27.279  29.344  1.00  0.00    -0.354 N 
ATOM     51  C   UNL A   1      41.245  30.325  32.423  1.00  0.00     0.074 A 
ATOM     52  C   UNL A   1      40.106  31.215  32.361  1.00  0.00     0.031 C 
ATOM     53  C   UNL A   1      40.096  26.231  27.585  1.00  0.00     0.029 A 
ATOM     54  C   UNL A   1      41.252  26.246  28.474  1.00  0.00     0.049 A 
ATOM     55  H   UNL A   1      41.591  27.524  30.086  1.00  0.00     0.167 HD
ATOM     56  C   UNL A   1      42.250  30.427  33.328  1.00  0.00     0.034 A 
ATOM     57  C   UNL A   1      42.309  25.414  28.393  1.00  0.00     0.034 A 
ATOM     58  C   UNL A   1      43.373  29.522  33.381  1.00  0.00     0.049 A 
ATOM     59  C   UNL A   1      43.425  25.560  29.397  1.00  0.00     0.074 A 
ATOM     60  C   UNL A   1      44.418  29.496  34.289  1.00  0.00     0.029 A 
ATOM     61  N   UNL A   1      43.603  28.485  32.484  1.00  0.00    -0.354 N 
ATOM     62  N   UNL A   1      43.548  26.426  30.377  1.00  0.00    -0.248 NA
ATOM     63  C   UNL A   1      44.537  24.607  29.292  1.00  0.00     0.031 C 
ATOM     64  C   UNL A   1      45.314  28.495  33.898  1.00  0.00     0.029 A 
ATOM     65  C   UNL A   1      44.788  27.838  32.798  1.00  0.00     0.049 A 
ATOM     66  H   UNL A   1      43.011  28.246  31.735  1.00  0.00     0.167 HD
ATOM     67  C   UNL A   1      44.738  26.101  31.023  1.00  0.00     0.074 A 
ATOM     68  C   UNL A   1      45.282  24.949  30.334  1.00  0.00     0.031 C 
ATOM     69  C   UNL A   1      45.325  26.696  32.093  1.00  0.00     0.034 A 
BRANCH  56  70
ATOM     70  C   UNL A   1      42.191  31.574  34.312  1.00  0.00     0.023 A 
ATOM     71  C   UNL A   1      41.349  31.540  35.438  1.00  0.00     0.031 A 
ATOM     72  C   UNL A   1      42.969  32.727  34.112  1.00  0.00     0.131 A 
ATOM     73  C   UNL A   1      41.247  32.663  36.273  1.00  0.00     0.055 A 
ATOM     74  C   UNL A   1      42.927  33.809  34.994  1.00  0.00     0.041 A 
ATOM     75  F   UNL A   1      43.778  32.830  33.044  1.00  0.00    -0.206 F 
ATOM     76  C   UNL A   1      42.051  33.787  36.074  1.00  0.00     0.022 A 
BRANCH  73  77
ATOM     77  S   UNL A   1      39.944  32.690  37.535  1.00  0.00     0.124 S 
ATOM     78  O   UNL A   1      39.422  34.047  37.392  1.00  0.00    -0.237 OA
ATOM     79  O   UNL A   1      39.059  31.616  37.100  1.00  0.00    -0.237 OA
ATOM     80  O   UNL A   1      40.667  32.438  38.780  1.00  0.00    -0.744 OA
ENDBRANCH  73  77
ENDBRANCH  56  70
BRANCH  57  81
ATOM     81  C   UNL A   1      42.376  24.378  27.322  1.00  0.00     0.023 A 
ATOM     82  C   UNL A   1      41.618  23.199  27.406  1.00  0.00     0.031 A 
ATOM     83  C   UNL A   1      43.233  24.532  26.217  1.00  0.00     0.131 A 
ATOM     84  C   UNL A   1      41.767  22.200  26.431  1.00  0.00     0.055 A 
ATOM     85  C   UNL A   1      43.334  23.561  25.220  1.00  0.00     0.041 A 
ATOM     86  F   UNL A   1      43.978  25.641  26.085  1.00  0.00    -0.206 F 
ATOM     87  C   UNL A   1      42.609  22.378  25.331  1.00  0.00     0.022 A 
BRANCH  84  88
ATOM     88  S   UNL A   1      40.913  20.618  26.669  1.00  0.00     0.124 S 
ATOM     89  O   UNL A   1      39.620  20.881  26.050  1.00  0.00    -0.237 OA
ATOM     90  O   UNL A   1      41.789  19.691  25.959  1.00  0.00    -0.237 OA
ATOM     91  O   UNL A   1      40.889  20.460  28.122  1.00  0.00    -0.744 OA
ENDBRANCH  84  88
ENDBRANCH  57  81
BRANCH  69  92
ATOM     92  C   UNL A   1      46.603  26.076  32.607  1.00  0.00     0.023 A 
ATOM     93  C   UNL A   1      46.594  25.044  33.561  1.00  0.00     0.031 A 
ATOM     94  C   UNL A   1      47.848  26.537  32.143  1.00  0.00     0.131 A 
ATOM     95  C   UNL A   1      47.807  24.549  34.066  1.00  0.00     0.055 A 
ATOM     96  C   UNL A   1      49.049  25.995  32.599  1.00  0.00     0.041 A 
ATOM     97  F   UNL A   1      47.916  27.523  31.234  1.00  0.00    -0.206 F 
ATOM     98  C   UNL A   1      49.034  25.006  33.577  1.00  0.00     0.022 A 
BRANCH  95  99
ATOM     99  S   UNL A   1      47.761  23.373  35.446  1.00  0.00     0.124 S 
ATOM    100  O   UNL A   1      49.180  23.115  35.673  1.00  0.00    -0.237 OA
ATOM    101  O   UNL A   1      47.078  24.138  36.486  1.00  0.00    -0.237 OA
ATOM    102  O   UNL A   1      47.003  22.244  34.911  1.00  0.00    -0.744 OA
ENDBRANCH  95  99
ENDBRANCH  69  92
ENDBRANCH  43  44
ENDBRANCH  35  38
ENDBRANCH  33  34
ENDBRANCH  32  33
ENDBRANCH  31  32
ENDBRANCH  29  31
ENDBRANCH   1  27
TORSDOF 22
ENDMDL
MODEL 2
REMARK VINA RESULT:     -10.8      1.933      2.876
REMARK SMILES CCCCCCNC(=O)Oc1cccc(-c2ccc([C@@H](C)C(=O)NCCCNC(=O)c3ccc(-c4c5nc(c(-c6cc(S(=O)(=O)[O-])ccc6F)c6ccc([nH]6)c(-c6cc(S(=O)(=O)[O-])ccc6F)c6nc(c(-c7cc(S(=O)(=O)[O-])ccc7F)c7ccc4[nH]7)C=C6)C=C5)cc3)cc2Cl)c1
REMARK SMILES IDX 20 1 21 2 19 3 16 4 17 5 95 6 18 7 94 8 96 9 15 10 11 11
REMARK SMILES IDX 12 12 97 13 13 14 14 15 10 16 8 17 7 18 9 20 6 21 5 22 4 23
REMARK SMILES IDX 3 24 2 25 1 26 22 27 23 28 24 29 25 31 26 32 27 33 28 34
REMARK SMILES IDX 29 35 30 37 31 38 32 39 93 40 33 41 92 42 34 43 35 44 36 45
REMARK SMILES IDX 86 46 37 47 91 48 85 49 87 50 38 51 90 52 84 53 83 54 39 56
REMARK SMILES IDX 71 57 51 58 70 59 52 60 55 61 69 62 88 63 53 64 54 65 68 67
REMARK SMILES IDX 89 68 56 69 40 70 41 71 49 72 42 73 48 74 50 75 47 76 43 77
REMARK SMILES IDX 44 78 45 79 46 80 72 81 73 82 81 83 74 84 80 85 82 86 79 87
REMARK SMILES IDX 75 88 76 89 77 90 78 91 57 92 58 93 66 94 59 95 65 96 67 97
REMARK SMILES IDX 64 98 60 99 61 100 62 101 63 102
REMARK H PARENT 7 19 24 30 28 36 87 55 55 66
REMARK Flexibility Score: inf
ROOT
ATOM      1  C   UNL A   1      29.648  27.702  22.722  1.00  0.00     0.105 C 
ATOM      2  C   UNL A   1      28.390  27.419  23.540  1.00  0.00     0.023 C 
ENDROOT
BRANCH   1   3
ATOM      3  C   UNL A   1      30.858  26.849  23.064  1.00  0.00    -0.034 A 
ATOM      4  C   UNL A   1      32.989  25.033  23.686  1.00  0.00     0.000 A 
ATOM      5  C   UNL A   1      32.958  25.768  22.486  1.00  0.00     0.010 A 
ATOM      6  C   UNL A   1      31.958  25.295  24.609  1.00  0.00     0.049 A 
ATOM      7  C   UNL A   1      31.941  26.688  22.204  1.00  0.00     0.005 A 
ATOM      8  C   UNL A   1      30.897  26.158  24.285  1.00  0.00     0.025 A 
ATOM      9  Cl  UNL A   1      31.943  24.640  26.215  1.00  0.00    -0.084 Cl
BRANCH   4  10
ATOM     10  C   UNL A   1      34.067  24.035  23.883  1.00  0.00    -0.013 A 
ATOM     11  C   UNL A   1      34.819  21.811  24.522  1.00  0.00     0.133 A 
ATOM     12  C   UNL A   1      36.131  22.117  24.182  1.00  0.00     0.047 A 
ATOM     13  C   UNL A   1      33.793  22.746  24.368  1.00  0.00     0.056 A 
ATOM     14  C   UNL A   1      36.421  23.378  23.672  1.00  0.00     0.004 A 
ATOM     15  C   UNL A   1      35.402  24.327  23.536  1.00  0.00     0.009 A 
BRANCH  11  16
ATOM     16  O   UNL A   1      34.601  20.574  25.153  1.00  0.00    -0.410 OA
BRANCH  16  17
ATOM     17  C   UNL A   1      33.595  20.459  26.100  1.00  0.00     0.412 C 
ATOM     18  N   UNL A   1      32.450  19.910  25.590  1.00  0.00    -0.321 N 
ATOM     19  H   UNL A   1      31.679  19.854  26.199  1.00  0.00     0.167 HD
ATOM     20  O   UNL A   1      33.668  20.789  27.276  1.00  0.00    -0.224 OA
BRANCH  18  21
ATOM     21  C   UNL A   1      32.255  19.404  24.247  1.00  0.00     0.119 C 
BRANCH  21  22
ATOM     22  C   UNL A   1      32.336  17.878  24.202  1.00  0.00     0.021 C 
BRANCH  22  23
ATOM     23  C   UNL A   1      33.438  17.321  23.292  1.00  0.00     0.002 C 
BRANCH  23  24
ATOM     24  C   UNL A   1      34.303  16.216  23.909  1.00  0.00    -0.000 C 
BRANCH  24  25
ATOM     25  C   UNL A   1      33.953  15.838  25.350  1.00  0.00    -0.003 C 
ATOM     26  C   UNL A   1      32.837  14.808  25.446  1.00  0.00     0.004 C 
ENDBRANCH  24  25
ENDBRANCH  23  24
ENDBRANCH  22  23
ENDBRANCH  21  22
ENDBRANCH  18  21
ENDBRANCH  16  17
ENDBRANCH  11  16
ENDBRANCH   4  10
ENDBRANCH   1   3
BRANCH   1  27
ATOM     27  C   UNL A   1      29.974  29.193  22.537  1.00  0.00     0.227 C 
ATOM     28  O   UNL A   1      29.670  29.758  21.479  1.00  0.00    -0.274 OA
ATOM     29  N   UNL A   1      30.576  29.967  23.479  1.00  0.00    -0.356 N 
ATOM     30  H   UNL A   1      30.667  30.913  23.220  1.00  0.00     0.163 HD
BRANCH  29  31
ATOM     31  C   UNL A   1      31.108  29.664  24.794  1.00  0.00     0.117 C 
BRANCH  31  32
ATOM     32  C   UNL A   1      32.614  29.413  24.768  1.00  0.00     0.042 C 
BRANCH  32  33
ATOM     33  C   UNL A   1      33.306  29.658  26.101  1.00  0.00     0.118 C 
BRANCH  33  34
ATOM     34  N   UNL A   1      33.211  31.050  26.517  1.00  0.00    -0.352 N 
ATOM     35  C   UNL A   1      33.909  31.750  27.470  1.00  0.00     0.251 C 
ATOM     36  H   UNL A   1      32.532  31.577  26.036  1.00  0.00     0.163 HD
ATOM     37  O   UNL A   1      33.483  32.849  27.819  1.00  0.00    -0.269 OA
BRANCH  35  38
ATOM     38  C   UNL A   1      35.143  31.201  28.084  1.00  0.00     0.039 A 
ATOM     39  C   UNL A   1      36.291  32.001  28.111  1.00  0.00     0.014 A 
ATOM     40  C   UNL A   1      35.201  29.896  28.576  1.00  0.00     0.014 A 
ATOM     41  C   UNL A   1      37.472  31.509  28.674  1.00  0.00     0.010 A 
ATOM     42  C   UNL A   1      36.351  29.440  29.219  1.00  0.00     0.010 A 
ATOM     43  C   UNL A   1      37.505  30.234  29.262  1.00  0.00    -0.014 A 
BRANCH  43  44
ATOM     44  C   UNL A   1      38.741  29.710  29.901  1.00  0.00     0.031 A 
ATOM     45  C   UNL A   1      39.167  30.221  31.254  1.00  0.00     0.074 A 
ATOM     46  C   UNL A   1      39.504  28.814  29.245  1.00  0.00     0.049 A 
ATOM     47  N   UNL A   1      40.241  29.938  31.946  1.00  0.00    -0.248 NA
ATOM     48  C   UNL A   1      38.280  31.202  31.899  1.00  0.00     0.031 C 
ATOM     49  C   UNL A   1      39.216  28.277  27.913  1.00  0.00     0.029 A 
ATOM     50  N   UNL A   1      40.681  28.202  29.600  1.00  0.00    -0.354 N 
ATOM     51  C   UNL A   1      40.169  30.717  33.097  1.00  0.00     0.074 A 
ATOM     52  C   UNL A   1      38.976  31.529  32.977  1.00  0.00     0.031 C 
ATOM     53  C   UNL A   1      40.174  27.398  27.577  1.00  0.00     0.029 A 
ATOM     54  C   UNL A   1      41.169  27.343  28.642  1.00  0.00     0.049 A 
ATOM     55  H   UNL A   1      41.132  28.362  30.460  1.00  0.00     0.167 HD
ATOM     56  C   UNL A   1      41.006  30.737  34.164  1.00  0.00     0.034 A 
ATOM     57  C   UNL A   1      42.298  26.608  28.617  1.00  0.00     0.034 A 
ATOM     58  C   UNL A   1      42.185  29.911  34.271  1.00  0.00     0.049 A 
ATOM     59  C   UNL A   1      43.225  26.661  29.806  1.00  0.00     0.074 A 
ATOM     60  C   UNL A   1      43.072  29.807  35.328  1.00  0.00     0.029 A 
ATOM     61  N   UNL A   1      42.647  29.052  33.280  1.00  0.00    -0.354 N 
ATOM     62  N   UNL A   1      43.112  27.363  30.912  1.00  0.00    -0.248 NA
ATOM     63  C   UNL A   1      44.422  25.814  29.750  1.00  0.00     0.031 C 
ATOM     64  C   UNL A   1      44.106  28.944  34.950  1.00  0.00     0.029 A 
ATOM     65  C   UNL A   1      43.822  28.441  33.690  1.00  0.00     0.049 A 
ATOM     66  H   UNL A   1      42.204  28.899  32.415  1.00  0.00     0.167 HD
ATOM     67  C   UNL A   1      44.211  27.016  31.694  1.00  0.00     0.074 A 
ATOM     68  C   UNL A   1      44.960  26.030  30.942  1.00  0.00     0.031 C 
ATOM     69  C   UNL A   1      44.566  27.467  32.924  1.00  0.00     0.034 A 
BRANCH  56  70
ATOM     70  C   UNL A   1      40.688  31.702  35.284  1.00  0.00     0.023 A 
ATOM     71  C   UNL A   1      39.613  31.486  36.165  1.00  0.00     0.031 A 
ATOM     72  C   UNL A   1      41.455  32.866  35.461  1.00  0.00     0.131 A 
ATOM     73  C   UNL A   1      39.288  32.453  37.128  1.00  0.00     0.055 A 
ATOM     74  C   UNL A   1      41.179  33.785  36.477  1.00  0.00     0.041 A 
ATOM     75  F   UNL A   1      42.481  33.141  34.641  1.00  0.00    -0.206 F 
ATOM     76  C   UNL A   1      40.081  33.588  37.308  1.00  0.00     0.022 A 
BRANCH  73  77
ATOM     77  S   UNL A   1      37.733  32.277  38.044  1.00  0.00     0.124 S 
ATOM     78  O   UNL A   1      37.414  30.868  37.816  1.00  0.00    -0.237 OA
ATOM     79  O   UNL A   1      38.123  32.631  39.403  1.00  0.00    -0.237 OA
ATOM     80  O   UNL A   1      36.836  33.224  37.384  1.00  0.00    -0.744 OA
ENDBRANCH  73  77
ENDBRANCH  56  70
BRANCH  57  81
ATOM     81  C   UNL A   1      42.627  25.766  27.430  1.00  0.00     0.023 A 
ATOM     82  C   UNL A   1      42.181  24.437  27.338  1.00  0.00     0.031 A 
ATOM     83  C   UNL A   1      43.430  26.264  26.388  1.00  0.00     0.131 A 
ATOM     84  C   UNL A   1      42.580  23.639  26.254  1.00  0.00     0.055 A 
ATOM     85  C   UNL A   1      43.775  25.484  25.284  1.00  0.00     0.041 A 
ATOM     86  F   UNL A   1      43.881  27.529  26.424  1.00  0.00    -0.206 F 
ATOM     87  C   UNL A   1      43.362  24.157  25.219  1.00  0.00     0.022 A 
BRANCH  84  88
ATOM     88  S   UNL A   1      42.138  21.880  26.261  1.00  0.00     0.124 S 
ATOM     89  O   UNL A   1      42.513  21.485  27.614  1.00  0.00    -0.237 OA
ATOM     90  O   UNL A   1      40.706  21.926  25.979  1.00  0.00    -0.237 OA
ATOM     91  O   UNL A   1      42.963  21.318  25.195  1.00  0.00    -0.744 OA
ENDBRANCH  84  88
ENDBRANCH  57  81
BRANCH  69  92
ATOM     92  C   UNL A   1      45.799  26.857  33.548  1.00  0.00     0.023 A 
ATOM     93  C   UNL A   1      47.084  27.376  33.311  1.00  0.00     0.031 A 
ATOM     94  C   UNL A   1      45.683  25.730  34.381  1.00  0.00     0.131 A 
ATOM     95  C   UNL A   1      48.207  26.732  33.851  1.00  0.00     0.055 A 
ATOM     96  C   UNL A   1      46.799  25.134  34.969  1.00  0.00     0.041 A 
ATOM     97  F   UNL A   1      44.481  25.191  34.639  1.00  0.00    -0.206 F 
ATOM     98  C   UNL A   1      48.071  25.625  34.694  1.00  0.00     0.022 A 
BRANCH  95  99
ATOM     99  S   UNL A   1      49.858  27.296  33.354  1.00  0.00     0.124 S 
ATOM    100  O   UNL A   1      50.722  26.311  33.998  1.00  0.00    -0.237 OA
ATOM    101  O   UNL A   1      49.787  27.226  31.898  1.00  0.00    -0.237 OA
ATOM    102  O   UNL A   1      49.940  28.647  33.906  1.00  0.00    -0.744 OA
ENDBRANCH  95  99
ENDBRANCH  69  92
ENDBRANCH  43  44
ENDBRANCH  35  38
ENDBRANCH  33  34
ENDBRANCH  32  33
ENDBRANCH  31  32
ENDBRANCH  29  31
ENDBRANCH   1  27
TORSDOF 22
ENDMDL
MODEL 3
REMARK VINA RESULT:     -10.8      2.456      3.535
REMARK SMILES CCCCCCNC(=O)Oc1cccc(-c2ccc([C@@H](C)C(=O)NCCCNC(=O)c3ccc(-c4c5nc(c(-c6cc(S(=O)(=O)[O-])ccc6F)c6ccc([nH]6)c(-c6cc(S(=O)(=O)[O-])ccc6F)c6nc(c(-c7cc(S(=O)(=O)[O-])ccc7F)c7ccc4[nH]7)C=C6)C=C5)cc3)cc2Cl)c1
REMARK SMILES IDX 20 1 21 2 19 3 16 4 17 5 95 6 18 7 94 8 96 9 15 10 11 11
REMARK SMILES IDX 12 12 97 13 13 14 14 15 10 16 8 17 7 18 9 20 6 21 5 22 4 23
REMARK SMILES IDX 3 24 2 25 1 26 22 27 23 28 24 29 25 31 26 32 27 33 28 34
REMARK SMILES IDX 29 35 30 37 31 38 32 39 93 40 33 41 92 42 34 43 35 44 36 45
REMARK SMILES IDX 86 46 37 47 91 48 85 49 87 50 38 51 90 52 84 53 83 54 39 56
REMARK SMILES IDX 71 57 51 58 70 59 52 60 55 61 69 62 88 63 53 64 54 65 68 67
REMARK SMILES IDX 89 68 56 69 40 70 41 71 49 72 42 73 48 74 50 75 47 76 43 77
REMARK SMILES IDX 44 78 45 79 46 80 72 81 73 82 81 83 74 84 80 85 82 86 79 87
REMARK SMILES IDX 75 88 76 89 77 90 78 91 57 92 58 93 66 94 59 95 65 96 67 97
REMARK SMILES IDX 64 98 60 99 61 100 62 101 63 102
REMARK H PARENT 7 19 24 30 28 36 87 55 55 66
REMARK Flexibility Score: inf
ROOT
ATOM      1  C   UNL A   1      28.655  29.667  22.507  1.00  0.00     0.105 C 
ATOM      2  C   UNL A   1      27.312  29.387  23.177  1.00  0.00     0.023 C 
ENDROOT
BRANCH   1   3
ATOM      3  C   UNL A   1      29.738  28.631  22.754  1.00  0.00    -0.034 A 
ATOM      4  C   UNL A   1      31.645  26.513  23.078  1.00  0.00     0.000 A 
ATOM      5  C   UNL A   1      31.922  27.659  22.309  1.00  0.00     0.010 A 
ATOM      6  C   UNL A   1      30.408  26.494  23.751  1.00  0.00     0.049 A 
ATOM      7  C   UNL A   1      31.009  28.713  22.188  1.00  0.00     0.005 A 
ATOM      8  C   UNL A   1      29.463  27.517  23.560  1.00  0.00     0.025 A 
ATOM      9  Cl  UNL A   1      29.980  25.267  24.899  1.00  0.00    -0.084 Cl
BRANCH   4  10
ATOM     10  C   UNL A   1      32.639  25.415  23.105  1.00  0.00    -0.013 A 
ATOM     11  C   UNL A   1      34.491  24.245  24.165  1.00  0.00     0.133 A 
ATOM     12  C   UNL A   1      34.485  23.266  23.178  1.00  0.00     0.047 A 
ATOM     13  C   UNL A   1      33.578  25.301  24.143  1.00  0.00     0.056 A 
ATOM     14  C   UNL A   1      33.545  23.341  22.156  1.00  0.00     0.004 A 
ATOM     15  C   UNL A   1      32.642  24.410  22.116  1.00  0.00     0.009 A 
BRANCH  11  16
ATOM     16  O   UNL A   1      35.540  24.195  25.098  1.00  0.00    -0.410 OA
BRANCH  16  17
ATOM     17  C   UNL A   1      36.109  22.972  25.421  1.00  0.00     0.412 C 
ATOM     18  N   UNL A   1      35.613  22.449  26.584  1.00  0.00    -0.321 N 
ATOM     19  H   UNL A   1      36.018  21.608  26.896  1.00  0.00     0.167 HD
ATOM     20  O   UNL A   1      36.959  22.377  24.771  1.00  0.00    -0.224 OA
BRANCH  18  21
ATOM     21  C   UNL A   1      34.555  23.004  27.402  1.00  0.00     0.119 C 
BRANCH  21  22
ATOM     22  C   UNL A   1      33.329  22.090  27.434  1.00  0.00     0.021 C 
BRANCH  22  23
ATOM     23  C   UNL A   1      32.119  22.614  26.649  1.00  0.00     0.002 C 
BRANCH  23  24
ATOM     24  C   UNL A   1      31.898  21.966  25.277  1.00  0.00    -0.000 C 
BRANCH  24  25
ATOM     25  C   UNL A   1      32.570  20.606  25.078  1.00  0.00    -0.003 C 
ATOM     26  C   UNL A   1      32.421  20.062  23.666  1.00  0.00     0.004 C 
ENDBRANCH  24  25
ENDBRANCH  23  24
ENDBRANCH  22  23
ENDBRANCH  21  22
ENDBRANCH  18  21
ENDBRANCH  16  17
ENDBRANCH  11  16
ENDBRANCH   4  10
ENDBRANCH   1   3
BRANCH   1  27
ATOM     27  C   UNL A   1      29.145  31.119  22.632  1.00  0.00     0.227 C 
ATOM     28  O   UNL A   1      29.089  31.869  21.649  1.00  0.00    -0.274 OA
ATOM     29  N   UNL A   1      29.639  31.664  23.775  1.00  0.00    -0.356 N 
ATOM     30  H   UNL A   1      29.863  32.620  23.698  1.00  0.00     0.163 HD
BRANCH  29  31
ATOM     31  C   UNL A   1      29.897  31.105  25.088  1.00  0.00     0.117 C 
BRANCH  31  32
ATOM     32  C   UNL A   1      31.343  30.640  25.248  1.00  0.00     0.042 C 
BRANCH  32  33
ATOM     33  C   UNL A   1      31.961  30.988  26.594  1.00  0.00     0.118 C 
BRANCH  33  34
ATOM     34  N   UNL A   1      32.083  32.426  26.783  1.00  0.00    -0.352 N 
ATOM     35  C   UNL A   1      32.933  33.157  27.577  1.00  0.00     0.251 C 
ATOM     36  H   UNL A   1      31.450  32.965  26.255  1.00  0.00     0.163 HD
ATOM     37  O   UNL A   1      32.684  34.346  27.762  1.00  0.00    -0.269 OA
BRANCH  35  38
ATOM     38  C   UNL A   1      34.120  32.538  28.214  1.00  0.00     0.039 A 
ATOM     39  C   UNL A   1      35.203  33.357  28.554  1.00  0.00     0.014 A 
ATOM     40  C   UNL A   1      34.206  31.160  28.425  1.00  0.00     0.014 A 
ATOM     41  C   UNL A   1      36.340  32.801  29.147  1.00  0.00     0.010 A 
ATOM     42  C   UNL A   1      35.302  30.621  29.098  1.00  0.00     0.010 A 
ATOM     43  C   UNL A   1      36.388  31.432  29.454  1.00  0.00    -0.014 A 
BRANCH  43  44
ATOM     44  C   UNL A   1      37.574  30.832  30.121  1.00  0.00     0.031 A 
ATOM     45  C   UNL A   1      37.863  31.139  31.568  1.00  0.00     0.074 A 
ATOM     46  C   UNL A   1      38.415  30.051  29.413  1.00  0.00     0.049 A 
ATOM     47  N   UNL A   1      38.876  30.767  32.308  1.00  0.00    -0.248 NA
ATOM     48  C   UNL A   1      36.898  32.003  32.265  1.00  0.00     0.031 C 
ATOM     49  C   UNL A   1      38.262  29.717  27.995  1.00  0.00     0.029 A 
ATOM     50  N   UNL A   1      39.569  29.405  29.781  1.00  0.00    -0.354 N 
ATOM     51  C   UNL A   1      38.681  31.364  33.550  1.00  0.00     0.074 A 
ATOM     52  C   UNL A   1      37.485  32.171  33.440  1.00  0.00     0.031 C 
ATOM     53  C   UNL A   1      39.267  28.907  27.624  1.00  0.00     0.029 A 
ATOM     54  C   UNL A   1      40.163  28.705  28.757  1.00  0.00     0.049 A 
ATOM     55  H   UNL A   1      39.936  29.440  30.695  1.00  0.00     0.167 HD
ATOM     56  C   UNL A   1      39.417  31.233  34.681  1.00  0.00     0.034 A 
ATOM     57  C   UNL A   1      41.307  27.993  28.729  1.00  0.00     0.034 A 
ATOM     58  C   UNL A   1      40.601  30.412  34.774  1.00  0.00     0.049 A 
ATOM     59  C   UNL A   1      42.120  27.878  29.994  1.00  0.00     0.074 A 
ATOM     60  C   UNL A   1      41.391  30.160  35.882  1.00  0.00     0.029 A 
ATOM     61  N   UNL A   1      41.172  29.716  33.715  1.00  0.00    -0.354 N 
ATOM     62  N   UNL A   1      41.891  28.405  31.176  1.00  0.00    -0.248 NA
ATOM     63  C   UNL A   1      43.338  27.061  29.925  1.00  0.00     0.031 C 
ATOM     64  C   UNL A   1      42.476  29.374  35.478  1.00  0.00     0.029 A 
ATOM     65  C   UNL A   1      42.320  29.063  34.138  1.00  0.00     0.049 A 
ATOM     66  H   UNL A   1      40.813  29.689  32.798  1.00  0.00     0.167 HD
ATOM     67  C   UNL A   1      42.922  27.957  31.997  1.00  0.00     0.074 A 
ATOM     68  C   UNL A   1      43.760  27.102  31.181  1.00  0.00     0.031 C 
ATOM     69  C   UNL A   1      43.153  28.223  33.308  1.00  0.00     0.034 A 
BRANCH  56  70
ATOM     70  C   UNL A   1      38.976  32.016  35.897  1.00  0.00     0.023 A 
ATOM     71  C   UNL A   1      38.287  31.406  36.960  1.00  0.00     0.031 A 
ATOM     72  C   UNL A   1      39.227  33.396  35.986  1.00  0.00     0.131 A 
ATOM     73  C   UNL A   1      37.806  32.184  38.024  1.00  0.00     0.055 A 
ATOM     74  C   UNL A   1      38.820  34.151  37.089  1.00  0.00     0.041 A 
ATOM     75  F   UNL A   1      39.862  34.042  34.995  1.00  0.00    -0.206 F 
ATOM     76  C   UNL A   1      38.091  33.548  38.109  1.00  0.00     0.022 A 
BRANCH  73  77
ATOM     77  S   UNL A   1      36.679  31.416  39.220  1.00  0.00     0.124 S 
ATOM     78  O   UNL A   1      37.517  31.347  40.415  1.00  0.00    -0.237 OA
ATOM     79  O   UNL A   1      35.573  32.366  39.269  1.00  0.00    -0.237 OA
ATOM     80  O   UNL A   1      36.364  30.123  38.615  1.00  0.00    -0.744 OA
ENDBRANCH  73  77
ENDBRANCH  56  70
BRANCH  57  81
ATOM     81  C   UNL A   1      41.762  27.342  27.467  1.00  0.00     0.023 A 
ATOM     82  C   UNL A   1      41.762  25.944  27.331  1.00  0.00     0.031 A 
ATOM     83  C   UNL A   1      42.245  28.107  26.390  1.00  0.00     0.131 A 
ATOM     84  C   UNL A   1      42.280  25.353  26.168  1.00  0.00     0.055 A 
ATOM     85  C   UNL A   1      42.705  27.516  25.212  1.00  0.00     0.041 A 
ATOM     86  F   UNL A   1      42.265  29.448  26.464  1.00  0.00    -0.206 F 
ATOM     87  C   UNL A   1      42.738  26.130  25.101  1.00  0.00     0.022 A 
BRANCH  84  88
ATOM     88  S   UNL A   1      42.434  23.547  26.104  1.00  0.00     0.124 S 
ATOM     89  O   UNL A   1      43.041  23.346  24.794  1.00  0.00    -0.237 OA
ATOM     90  O   UNL A   1      43.288  23.276  27.257  1.00  0.00    -0.237 OA
ATOM     91  O   UNL A   1      41.054  23.084  26.232  1.00  0.00    -0.744 OA
ENDBRANCH  84  88
ENDBRANCH  57  81
BRANCH  69  92
ATOM     92  C   UNL A   1      44.338  27.539  33.947  1.00  0.00     0.023 A 
ATOM     93  C   UNL A   1      44.206  26.328  34.649  1.00  0.00     0.031 A 
ATOM     94  C   UNL A   1      45.617  28.118  33.864  1.00  0.00     0.131 A 
ATOM     95  C   UNL A   1      45.321  25.768  35.291  1.00  0.00     0.055 A 
ATOM     96  C   UNL A   1      46.735  27.522  34.447  1.00  0.00     0.041 A 
ATOM     97  F   UNL A   1      45.801  29.276  33.209  1.00  0.00    -0.206 F 
ATOM     98  C   UNL A   1      46.588  26.347  35.179  1.00  0.00     0.022 A 
BRANCH  95  99
ATOM     99  S   UNL A   1      45.075  24.325  36.364  1.00  0.00     0.124 S 
ATOM    100  O   UNL A   1      44.326  23.424  35.494  1.00  0.00    -0.237 OA
ATOM    101  O   UNL A   1      46.446  23.925  36.667  1.00  0.00    -0.237 OA
ATOM    102  O   UNL A   1      44.323  24.862  37.496  1.00  0.00    -0.744 OA
ENDBRANCH  95  99
ENDBRANCH  69  92
ENDBRANCH  43  44
ENDBRANCH  35  38
ENDBRANCH  33  34
ENDBRANCH  32  33
ENDBRANCH  31  32
ENDBRANCH  29  31
ENDBRANCH   1  27
TORSDOF 22
ENDMDL
