MODEL 1
REMARK VINA RESULT:     -12.2      0.000      0.000
REMARK SMILES O=C(Nc1nc(C2CC2)cs1)N[C@@H]1C=C[C@@H](C(=O)NCCCNC(=O)c2ccc(-c3c4nc(c(-c5cc(S(=O)(=O)[O-])ccc5F)c5ccc([nH]5)c(-c5cc(S(=O)(=O)[O-])ccc5F)c5nc(c(-c6cc(S(=O)(=O)[O-])ccc6F)c6ccc3[nH]6)C=C5)C=C4)cc2)C1
REMARK SMILES IDX 21 1 20 2 19 3 17 4 18 5 16 7 13 8 14 9 89 10 15 11 12 12
REMARK SMILES IDX 1 13 2 14 3 15 4 18 5 19 11 20 6 21 10 22 7 23 8 24 9 25
REMARK SMILES IDX 22 26 23 27 24 28 25 30 26 31 27 32 88 33 28 34 87 35 29 36
REMARK SMILES IDX 30 37 31 38 81 39 32 40 86 41 80 42 82 43 33 44 85 45 79 46
REMARK SMILES IDX 78 47 34 49 66 50 46 51 65 52 47 53 50 54 64 55 83 56 48 57
REMARK SMILES IDX 49 58 63 60 84 61 51 62 35 63 36 64 44 65 37 66 43 67 45 68
REMARK SMILES IDX 42 69 38 70 39 71 40 72 41 73 67 74 68 75 76 76 69 77 75 78
REMARK SMILES IDX 77 79 74 80 70 81 71 82 72 83 73 84 52 85 53 86 61 87 54 88
REMARK SMILES IDX 60 89 62 90 59 91 55 92 56 93 57 94 58 95
REMARK H PARENT 19 6 3 16 12 17 23 29 82 48 50 59
REMARK Flexibility Score: inf
ROOT
ATOM      1  C   UNL A   1      31.445  31.701  26.297  1.00  0.00     0.042 C 
ENDROOT
BRANCH   1   2
ATOM      2  C   UNL A   1      31.534  30.274  25.770  1.00  0.00     0.117 C 
BRANCH   2   3
ATOM      3  N   UNL A   1      30.770  30.072  24.552  1.00  0.00    -0.356 N 
ATOM      4  C   UNL A   1      30.545  28.960  23.803  1.00  0.00     0.227 C 
ATOM      5  O   UNL A   1      29.763  29.071  22.852  1.00  0.00    -0.274 OA
ATOM      6  H   UNL A   1      30.337  30.886  24.206  1.00  0.00     0.163 HD
BRANCH   4   7
ATOM      7  C   UNL A   1      31.207  27.609  24.089  1.00  0.00     0.103 C 
ATOM      8  C   UNL A   1      30.286  25.430  24.780  1.00  0.00     0.107 C 
ATOM      9  C   UNL A   1      30.655  25.463  23.329  1.00  0.00    -0.006 C 
ATOM     10  C   UNL A   1      30.615  26.844  25.280  1.00  0.00     0.047 C 
ATOM     11  C   UNL A   1      31.148  26.646  22.948  1.00  0.00    -0.016 C 
BRANCH   8  12
ATOM     12  N   UNL A   1      31.097  24.424  25.408  1.00  0.00    -0.332 N 
ATOM     13  O   UNL A   1      29.677  23.976  27.131  1.00  0.00    -0.248 OA
ATOM     14  C   UNL A   1      30.692  23.718  26.501  1.00  0.00     0.321 C 
ATOM     15  N   UNL A   1      31.421  22.612  26.826  1.00  0.00    -0.284 N 
ATOM     16  H   UNL A   1      31.098  22.064  27.577  1.00  0.00     0.174 HD
ATOM     17  H   UNL A   1      31.987  24.236  25.032  1.00  0.00     0.165 HD
BRANCH  15  18
ATOM     18  C   UNL A   1      32.559  22.202  26.200  1.00  0.00     0.191 A 
ATOM     19  N   UNL A   1      33.767  22.699  26.311  1.00  0.00    -0.225 NA
ATOM     20  S   UNL A   1      32.354  20.919  25.097  1.00  0.00    -0.105 S 
ATOM     21  C   UNL A   1      34.603  22.039  25.435  1.00  0.00     0.057 A 
ATOM     22  C   UNL A   1      33.998  21.097  24.629  1.00  0.00     0.092 A 
BRANCH  21  23
ATOM     23  C   UNL A   1      36.097  22.326  25.374  1.00  0.00     0.039 C 
ATOM     24  C   UNL A   1      36.759  22.512  24.026  1.00  0.00     0.011 C 
ATOM     25  C   UNL A   1      36.521  23.699  24.897  1.00  0.00     0.011 C 
ENDBRANCH  21  23
ENDBRANCH  15  18
ENDBRANCH   8  12
ENDBRANCH   4   7
ENDBRANCH   2   3
ENDBRANCH   1   2
BRANCH   1  26
ATOM     26  C   UNL A   1      32.722  32.209  26.956  1.00  0.00     0.118 C 
BRANCH  26  27
ATOM     27  N   UNL A   1      32.626  33.605  27.351  1.00  0.00    -0.352 N 
ATOM     28  C   UNL A   1      33.230  34.286  28.378  1.00  0.00     0.251 C 
ATOM     29  H   UNL A   1      32.030  34.151  26.789  1.00  0.00     0.163 HD
ATOM     30  O   UNL A   1      32.834  35.420  28.642  1.00  0.00    -0.269 OA
BRANCH  28  31
ATOM     31  C   UNL A   1      34.328  33.680  29.169  1.00  0.00     0.039 A 
ATOM     32  C   UNL A   1      35.641  34.077  28.898  1.00  0.00     0.014 A 
ATOM     33  C   UNL A   1      34.091  32.686  30.121  1.00  0.00     0.014 A 
ATOM     34  C   UNL A   1      36.704  33.505  29.604  1.00  0.00     0.010 A 
ATOM     35  C   UNL A   1      35.142  32.178  30.883  1.00  0.00     0.010 A 
ATOM     36  C   UNL A   1      36.464  32.565  30.618  1.00  0.00    -0.014 A 
BRANCH  36  37
ATOM     37  C   UNL A   1      37.589  31.948  31.369  1.00  0.00     0.031 A 
ATOM     38  C   UNL A   1      38.424  30.869  30.728  1.00  0.00     0.074 A 
ATOM     39  C   UNL A   1      37.841  32.333  32.636  1.00  0.00     0.049 A 
ATOM     40  N   UNL A   1      39.425  30.188  31.224  1.00  0.00    -0.248 NA
ATOM     41  C   UNL A   1      38.062  30.483  29.355  1.00  0.00     0.031 C 
ATOM     42  C   UNL A   1      37.074  33.333  33.383  1.00  0.00     0.029 A 
ATOM     43  N   UNL A   1      38.810  31.931  33.520  1.00  0.00    -0.354 N 
ATOM     44  C   UNL A   1      39.802  29.285  30.235  1.00  0.00     0.074 A 
ATOM     45  C   UNL A   1      38.875  29.462  29.137  1.00  0.00     0.031 C 
ATOM     46  C   UNL A   1      37.620  33.487  34.599  1.00  0.00     0.029 A 
ATOM     47  C   UNL A   1      38.752  32.576  34.734  1.00  0.00     0.049 A 
ATOM     48  H   UNL A   1      39.484  31.246  33.306  1.00  0.00     0.167 HD
ATOM     49  C   UNL A   1      40.839  28.410  30.228  1.00  0.00     0.034 A 
ATOM     50  C   UNL A   1      39.524  32.446  35.831  1.00  0.00     0.034 A 
ATOM     51  C   UNL A   1      41.766  28.259  31.323  1.00  0.00     0.049 A 
ATOM     52  C   UNL A   1      40.676  31.474  35.799  1.00  0.00     0.074 A 
ATOM     53  C   UNL A   1      42.882  27.444  31.407  1.00  0.00     0.029 A 
ATOM     54  N   UNL A   1      41.685  28.939  32.534  1.00  0.00    -0.354 N 
ATOM     55  N   UNL A   1      41.051  30.666  34.833  1.00  0.00    -0.248 NA
ATOM     56  C   UNL A   1      41.519  31.413  36.998  1.00  0.00     0.031 C 
ATOM     57  C   UNL A   1      43.438  27.585  32.684  1.00  0.00     0.029 A 
ATOM     58  C   UNL A   1      42.714  28.544  33.375  1.00  0.00     0.049 A 
ATOM     59  H   UNL A   1      40.996  29.605  32.760  1.00  0.00     0.167 HD
ATOM     60  C   UNL A   1      42.191  30.020  35.302  1.00  0.00     0.074 A 
ATOM     61  C   UNL A   1      42.455  30.553  36.623  1.00  0.00     0.031 C 
ATOM     62  C   UNL A   1      42.952  29.070  34.699  1.00  0.00     0.034 A 
BRANCH  49  63
ATOM     63  C   UNL A   1      41.002  27.538  29.004  1.00  0.00     0.023 A 
ATOM     64  C   UNL A   1      42.015  27.776  28.056  1.00  0.00     0.031 A 
ATOM     65  C   UNL A   1      40.112  26.478  28.758  1.00  0.00     0.131 A 
ATOM     66  C   UNL A   1      42.059  27.025  26.872  1.00  0.00     0.055 A 
ATOM     67  C   UNL A   1      40.215  25.677  27.617  1.00  0.00     0.041 A 
ATOM     68  F   UNL A   1      39.113  26.211  29.614  1.00  0.00    -0.206 F 
ATOM     69  C   UNL A   1      41.181  25.961  26.657  1.00  0.00     0.022 A 
BRANCH  66  70
ATOM     70  S   UNL A   1      43.179  27.560  25.548  1.00  0.00     0.124 S 
ATOM     71  O   UNL A   1      43.721  26.283  25.088  1.00  0.00    -0.237 OA
ATOM     72  O   UNL A   1      42.276  28.240  24.627  1.00  0.00    -0.237 OA
ATOM     73  O   UNL A   1      44.136  28.423  26.237  1.00  0.00    -0.744 OA
ENDBRANCH  66  70
ENDBRANCH  49  63
BRANCH  50  74
ATOM     74  C   UNL A   1      39.245  33.255  37.051  1.00  0.00     0.023 A 
ATOM     75  C   UNL A   1      39.857  34.503  37.248  1.00  0.00     0.031 A 
ATOM     76  C   UNL A   1      38.397  32.769  38.062  1.00  0.00     0.131 A 
ATOM     77  C   UNL A   1      39.651  35.203  38.448  1.00  0.00     0.055 A 
ATOM     78  C   UNL A   1      38.154  33.493  39.232  1.00  0.00     0.041 A 
ATOM     79  F   UNL A   1      37.782  31.585  37.921  1.00  0.00    -0.206 F 
ATOM     80  C   UNL A   1      38.795  34.711  39.435  1.00  0.00     0.022 A 
BRANCH  77  81
ATOM     81  S   UNL A   1      40.586  36.730  38.733  1.00  0.00     0.124 S 
ATOM     82  O   UNL A   1      41.383  36.824  37.515  1.00  0.00    -0.237 OA
ATOM     83  O   UNL A   1      39.520  37.715  38.880  1.00  0.00    -0.237 OA
ATOM     84  O   UNL A   1      41.341  36.444  39.952  1.00  0.00    -0.744 OA
ENDBRANCH  77  81
ENDBRANCH  50  74
BRANCH  62  85
ATOM     85  C   UNL A   1      44.160  28.582  35.463  1.00  0.00     0.023 A 
ATOM     86  C   UNL A   1      44.077  27.509  36.367  1.00  0.00     0.031 A 
ATOM     87  C   UNL A   1      45.400  29.229  35.317  1.00  0.00     0.131 A 
ATOM     88  C   UNL A   1      45.191  27.161  37.144  1.00  0.00     0.055 A 
ATOM     89  C   UNL A   1      46.524  28.835  36.045  1.00  0.00     0.041 A 
ATOM     90  F   UNL A   1      45.538  30.262  34.470  1.00  0.00    -0.206 F 
ATOM     91  C   UNL A   1      46.419  27.807  36.978  1.00  0.00     0.022 A 
BRANCH  88  92
ATOM     92  S   UNL A   1      44.982  25.933  38.463  1.00  0.00     0.124 S 
ATOM     93  O   UNL A   1      44.082  24.968  37.839  1.00  0.00    -0.237 OA
ATOM     94  O   UNL A   1      46.351  25.477  38.683  1.00  0.00    -0.237 OA
ATOM     95  O   UNL A   1      44.401  26.702  39.561  1.00  0.00    -0.744 OA
ENDBRANCH  88  92
ENDBRANCH  62  85
ENDBRANCH  36  37
ENDBRANCH  28  31
ENDBRANCH  26  27
ENDBRANCH   1  26
TORSDOF 16
ENDMDL
MODEL 2
REMARK VINA RESULT:     -12.1      2.960      8.402
REMARK SMILES O=C(Nc1nc(C2CC2)cs1)N[C@@H]1C=C[C@@H](C(=O)NCCCNC(=O)c2ccc(-c3c4nc(c(-c5cc(S(=O)(=O)[O-])ccc5F)c5ccc([nH]5)c(-c5cc(S(=O)(=O)[O-])ccc5F)c5nc(c(-c6cc(S(=O)(=O)[O-])ccc6F)c6ccc3[nH]6)C=C5)C=C4)cc2)C1
REMARK SMILES IDX 21 1 20 2 19 3 17 4 18 5 16 7 13 8 14 9 89 10 15 11 12 12
REMARK SMILES IDX 1 13 2 14 3 15 4 18 5 19 11 20 6 21 10 22 7 23 8 24 9 25
REMARK SMILES IDX 22 26 23 27 24 28 25 30 26 31 27 32 88 33 28 34 87 35 29 36
REMARK SMILES IDX 30 37 31 38 81 39 32 40 86 41 80 42 82 43 33 44 85 45 79 46
REMARK SMILES IDX 78 47 34 49 66 50 46 51 65 52 47 53 50 54 64 55 83 56 48 57
REMARK SMILES IDX 49 58 63 60 84 61 51 62 35 63 36 64 44 65 37 66 43 67 45 68
REMARK SMILES IDX 42 69 38 70 39 71 40 72 41 73 67 74 68 75 76 76 69 77 75 78
REMARK SMILES IDX 77 79 74 80 70 81 71 82 72 83 73 84 52 85 53 86 61 87 54 88
REMARK SMILES IDX 60 89 62 90 59 91 55 92 56 93 57 94 58 95
REMARK H PARENT 19 6 3 16 12 17 23 29 82 48 50 59
REMARK Flexibility Score: inf
ROOT
ATOM      1  C   UNL A   1      32.935  29.421  25.084  1.00  0.00     0.042 C 
ENDROOT
BRANCH   1   2
ATOM      2  C   UNL A   1      31.450  29.760  25.119  1.00  0.00     0.117 C 
BRANCH   2   3
ATOM      3  N   UNL A   1      30.767  29.439  23.878  1.00  0.00    -0.356 N 
ATOM      4  C   UNL A   1      30.625  28.266  23.206  1.00  0.00     0.227 C 
ATOM      5  O   UNL A   1      29.899  28.275  22.205  1.00  0.00    -0.274 OA
ATOM      6  H   UNL A   1      30.329  30.208  23.446  1.00  0.00     0.163 HD
BRANCH   4   7
ATOM      7  C   UNL A   1      31.313  26.967  23.633  1.00  0.00     0.103 C 
ATOM      8  C   UNL A   1      30.461  24.923  24.716  1.00  0.00     0.107 C 
ATOM      9  C   UNL A   1      30.706  24.737  23.250  1.00  0.00    -0.006 C 
ATOM     10  C   UNL A   1      30.826  26.393  24.969  1.00  0.00     0.047 C 
ATOM     11  C   UNL A   1      31.161  25.845  22.656  1.00  0.00    -0.016 C 
BRANCH   8  12
ATOM     12  N   UNL A   1      31.326  24.014  25.416  1.00  0.00    -0.332 N 
ATOM     13  O   UNL A   1      29.938  23.635  27.181  1.00  0.00    -0.248 OA
ATOM     14  C   UNL A   1      30.963  23.379  26.566  1.00  0.00     0.321 C 
ATOM     15  N   UNL A   1      31.749  22.342  26.972  1.00  0.00    -0.284 N 
ATOM     16  H   UNL A   1      31.458  21.840  27.767  1.00  0.00     0.174 HD
ATOM     17  H   UNL A   1      32.223  23.842  25.048  1.00  0.00     0.165 HD
BRANCH  15  18
ATOM     18  C   UNL A   1      32.904  21.941  26.371  1.00  0.00     0.191 A 
ATOM     19  N   UNL A   1      34.067  22.546  26.371  1.00  0.00    -0.225 NA
ATOM     20  S   UNL A   1      32.785  20.502  25.466  1.00  0.00    -0.105 S 
ATOM     21  C   UNL A   1      34.937  21.838  25.568  1.00  0.00     0.057 A 
ATOM     22  C   UNL A   1      34.398  20.745  24.922  1.00  0.00     0.092 A 
BRANCH  21  23
ATOM     23  C   UNL A   1      36.399  22.234  25.418  1.00  0.00     0.039 C 
ATOM     24  C   UNL A   1      36.952  22.511  24.037  1.00  0.00     0.011 C 
ATOM     25  C   UNL A   1      36.692  23.649  24.964  1.00  0.00     0.011 C 
ENDBRANCH  21  23
ENDBRANCH  15  18
ENDBRANCH   8  12
ENDBRANCH   4   7
ENDBRANCH   2   3
ENDBRANCH   1   2
BRANCH   1  26
ATOM     26  C   UNL A   1      33.639  29.543  26.429  1.00  0.00     0.118 C 
BRANCH  26  27
ATOM     27  N   UNL A   1      33.553  30.884  26.983  1.00  0.00    -0.352 N 
ATOM     28  C   UNL A   1      34.334  31.516  27.918  1.00  0.00     0.251 C 
ATOM     29  H   UNL A   1      32.815  31.429  26.627  1.00  0.00     0.163 HD
ATOM     30  O   UNL A   1      33.942  32.586  28.383  1.00  0.00    -0.269 OA
BRANCH  28  31
ATOM     31  C   UNL A   1      35.616  30.933  28.379  1.00  0.00     0.039 A 
ATOM     32  C   UNL A   1      35.576  29.865  29.281  1.00  0.00     0.014 A 
ATOM     33  C   UNL A   1      36.850  31.459  27.990  1.00  0.00     0.014 A 
ATOM     34  C   UNL A   1      36.766  29.308  29.761  1.00  0.00     0.010 A 
ATOM     35  C   UNL A   1      38.035  30.850  28.401  1.00  0.00     0.010 A 
ATOM     36  C   UNL A   1      38.007  29.782  29.310  1.00  0.00    -0.014 A 
BRANCH  36  37
ATOM     37  C   UNL A   1      39.278  29.201  29.819  1.00  0.00     0.031 A 
ATOM     38  C   UNL A   1      39.940  29.785  31.040  1.00  0.00     0.074 A 
ATOM     39  C   UNL A   1      39.851  28.169  29.168  1.00  0.00     0.049 A 
ATOM     40  N   UNL A   1      41.062  29.442  31.621  1.00  0.00    -0.248 NA
ATOM     41  C   UNL A   1      39.267  30.930  31.672  1.00  0.00     0.031 C 
ATOM     42  C   UNL A   1      39.332  27.547  27.948  1.00  0.00     0.029 A 
ATOM     43  N   UNL A   1      40.996  27.463  29.439  1.00  0.00    -0.354 N 
ATOM     44  C   UNL A   1      41.236  30.335  32.674  1.00  0.00     0.074 A 
ATOM     45  C   UNL A   1      40.138  31.277  32.605  1.00  0.00     0.031 C 
ATOM     46  C   UNL A   1      40.138  26.534  27.594  1.00  0.00     0.029 A 
ATOM     47  C   UNL A   1      41.248  26.454  28.538  1.00  0.00     0.049 A 
ATOM     48  H   UNL A   1      41.581  27.659  30.206  1.00  0.00     0.167 HD
ATOM     49  C   UNL A   1      42.203  30.354  33.625  1.00  0.00     0.034 A 
ATOM     50  C   UNL A   1      42.261  25.567  28.479  1.00  0.00     0.034 A 
ATOM     51  C   UNL A   1      43.280  29.397  33.691  1.00  0.00     0.049 A 
ATOM     52  C   UNL A   1      43.320  25.600  29.551  1.00  0.00     0.074 A 
ATOM     53  C   UNL A   1      44.285  29.288  34.638  1.00  0.00     0.029 A 
ATOM     54  N   UNL A   1      43.498  28.380  32.768  1.00  0.00    -0.354 N 
ATOM     55  N   UNL A   1      43.440  26.420  30.571  1.00  0.00    -0.248 NA
ATOM     56  C   UNL A   1      44.368  24.577  29.473  1.00  0.00     0.031 C 
ATOM     57  C   UNL A   1      45.140  28.247  34.256  1.00  0.00     0.029 A 
ATOM     58  C   UNL A   1      44.631  27.657  33.111  1.00  0.00     0.049 A 
ATOM     59  H   UNL A   1      42.929  28.199  31.986  1.00  0.00     0.167 HD
ATOM     60  C   UNL A   1      44.564  25.990  31.270  1.00  0.00     0.074 A 
ATOM     61  C   UNL A   1      45.068  24.827  30.570  1.00  0.00     0.031 C 
ATOM     62  C   UNL A   1      45.133  26.510  32.389  1.00  0.00     0.034 A 
BRANCH  49  63
ATOM     63  C   UNL A   1      42.143  31.463  34.653  1.00  0.00     0.023 A 
ATOM     64  C   UNL A   1      41.160  31.484  35.660  1.00  0.00     0.031 A 
ATOM     65  C   UNL A   1      43.053  32.532  34.603  1.00  0.00     0.131 A 
ATOM     66  C   UNL A   1      41.058  32.589  36.518  1.00  0.00     0.055 A 
ATOM     67  C   UNL A   1      43.000  33.589  35.516  1.00  0.00     0.041 A 
ATOM     68  F   UNL A   1      44.002  32.580  33.655  1.00  0.00    -0.206 F 
ATOM     69  C   UNL A   1      41.986  33.631  36.469  1.00  0.00     0.022 A 
BRANCH  66  70
ATOM     70  S   UNL A   1      39.603  32.720  37.593  1.00  0.00     0.124 S 
ATOM     71  O   UNL A   1      40.205  32.604  38.920  1.00  0.00    -0.237 OA
ATOM     72  O   UNL A   1      39.070  34.032  37.245  1.00  0.00    -0.237 OA
ATOM     73  O   UNL A   1      38.776  31.583  37.191  1.00  0.00    -0.744 OA
ENDBRANCH  66  70
ENDBRANCH  49  63
BRANCH  50  74
ATOM     74  C   UNL A   1      42.327  24.567  27.376  1.00  0.00     0.023 A 
ATOM     75  C   UNL A   1      41.588  23.374  27.434  1.00  0.00     0.031 A 
ATOM     76  C   UNL A   1      43.167  24.769  26.266  1.00  0.00     0.131 A 
ATOM     77  C   UNL A   1      41.739  22.407  26.428  1.00  0.00     0.055 A 
ATOM     78  C   UNL A   1      43.274  23.826  25.241  1.00  0.00     0.041 A 
ATOM     79  F   UNL A   1      43.889  25.895  26.157  1.00  0.00    -0.206 F 
ATOM     80  C   UNL A   1      42.568  22.630  25.327  1.00  0.00     0.022 A 
BRANCH  77  81
ATOM     81  S   UNL A   1      40.897  20.813  26.624  1.00  0.00     0.124 S 
ATOM     82  O   UNL A   1      41.784  19.915  25.892  1.00  0.00    -0.237 OA
ATOM     83  O   UNL A   1      40.880  20.655  28.074  1.00  0.00    -0.237 OA
ATOM     84  O   UNL A   1      39.592  21.040  26.008  1.00  0.00    -0.744 OA
ENDBRANCH  77  81
ENDBRANCH  50  74
BRANCH  62  85
ATOM     85  C   UNL A   1      46.344  25.790  32.932  1.00  0.00     0.023 A 
ATOM     86  C   UNL A   1      46.223  24.721  33.838  1.00  0.00     0.031 A 
ATOM     87  C   UNL A   1      47.637  26.207  32.572  1.00  0.00     0.131 A 
ATOM     88  C   UNL A   1      47.370  24.155  34.410  1.00  0.00     0.055 A 
ATOM     89  C   UNL A   1      48.778  25.595  33.094  1.00  0.00     0.041 A 
ATOM     90  F   UNL A   1      47.815  27.224  31.714  1.00  0.00    -0.206 F 
ATOM     91  C   UNL A   1      48.649  24.575  34.032  1.00  0.00     0.022 A 
BRANCH  88  92
ATOM     92  S   UNL A   1      47.170  22.944  35.745  1.00  0.00     0.124 S 
ATOM     93  O   UNL A   1      48.431  23.078  36.468  1.00  0.00    -0.237 OA
ATOM     94  O   UNL A   1      45.983  23.436  36.436  1.00  0.00    -0.237 OA
ATOM     95  O   UNL A   1      46.994  21.677  35.038  1.00  0.00    -0.744 OA
ENDBRANCH  88  92
ENDBRANCH  62  85
ENDBRANCH  36  37
ENDBRANCH  28  31
ENDBRANCH  26  27
ENDBRANCH   1  26
TORSDOF 16
ENDMDL
MODEL 3
REMARK VINA RESULT:     -12.0      5.604      8.817
REMARK SMILES O=C(Nc1nc(C2CC2)cs1)N[C@@H]1C=C[C@@H](C(=O)NCCCNC(=O)c2ccc(-c3c4nc(c(-c5cc(S(=O)(=O)[O-])ccc5F)c5ccc([nH]5)c(-c5cc(S(=O)(=O)[O-])ccc5F)c5nc(c(-c6cc(S(=O)(=O)[O-])ccc6F)c6ccc3[nH]6)C=C5)C=C4)cc2)C1
REMARK SMILES IDX 21 1 20 2 19 3 17 4 18 5 16 7 13 8 14 9 89 10 15 11 12 12
REMARK SMILES IDX 1 13 2 14 3 15 4 18 5 19 11 20 6 21 10 22 7 23 8 24 9 25
REMARK SMILES IDX 22 26 23 27 24 28 25 30 26 31 27 32 88 33 28 34 87 35 29 36
REMARK SMILES IDX 30 37 31 38 81 39 32 40 86 41 80 42 82 43 33 44 85 45 79 46
REMARK SMILES IDX 78 47 34 49 66 50 46 51 65 52 47 53 50 54 64 55 83 56 48 57
REMARK SMILES IDX 49 58 63 60 84 61 51 62 35 63 36 64 44 65 37 66 43 67 45 68
REMARK SMILES IDX 42 69 38 70 39 71 40 72 41 73 67 74 68 75 76 76 69 77 75 78
REMARK SMILES IDX 77 79 74 80 70 81 71 82 72 83 73 84 52 85 53 86 61 87 54 88
REMARK SMILES IDX 60 89 62 90 59 91 55 92 56 93 57 94 58 95
REMARK H PARENT 19 6 3 16 12 17 23 29 82 48 50 59
REMARK Flexibility Score: inf
ROOT
ATOM      1  C   UNL A   1      35.862  22.815  25.898  1.00  0.00     0.042 C 
ENDROOT
BRANCH   1   2
ATOM      2  C   UNL A   1      35.082  21.631  26.457  1.00  0.00     0.117 C 
BRANCH   2   3
ATOM      3  N   UNL A   1      34.311  20.933  25.443  1.00  0.00    -0.356 N 
ATOM      4  C   UNL A   1      33.396  21.379  24.542  1.00  0.00     0.227 C 
ATOM      5  O   UNL A   1      32.963  20.556  23.726  1.00  0.00    -0.274 OA
ATOM      6  H   UNL A   1      34.482  19.964  25.401  1.00  0.00     0.163 HD
BRANCH   4   7
ATOM      7  C   UNL A   1      32.895  22.825  24.501  1.00  0.00     0.103 C 
ATOM      8  C   UNL A   1      31.913  24.184  22.694  1.00  0.00     0.107 C 
ATOM      9  C   UNL A   1      30.888  23.707  23.676  1.00  0.00    -0.006 C 
ATOM     10  C   UNL A   1      33.229  23.583  23.210  1.00  0.00     0.047 C 
ATOM     11  C   UNL A   1      31.414  22.963  24.654  1.00  0.00    -0.016 C 
BRANCH   8  12
ATOM     12  N   UNL A   1      31.914  25.620  22.735  1.00  0.00    -0.332 N 
ATOM     13  O   UNL A   1      33.697  25.924  21.351  1.00  0.00    -0.248 OA
ATOM     14  C   UNL A   1      32.766  26.385  21.995  1.00  0.00     0.321 C 
ATOM     15  N   UNL A   1      32.482  27.715  21.907  1.00  0.00    -0.284 N 
ATOM     16  H   UNL A   1      33.058  28.261  21.324  1.00  0.00     0.174 HD
ATOM     17  H   UNL A   1      31.269  26.074  23.325  1.00  0.00     0.165 HD
BRANCH  15  18
ATOM     18  C   UNL A   1      31.469  28.353  22.555  1.00  0.00     0.191 A 
ATOM     19  N   UNL A   1      30.235  28.530  22.149  1.00  0.00    -0.225 NA
ATOM     20  S   UNL A   1      31.893  29.049  24.052  1.00  0.00    -0.105 S 
ATOM     21  C   UNL A   1      29.567  29.304  23.075  1.00  0.00     0.057 A 
ATOM     22  C   UNL A   1      30.327  29.754  24.135  1.00  0.00     0.092 A 
BRANCH  21  23
ATOM     23  C   UNL A   1      28.085  29.627  22.939  1.00  0.00     0.039 C 
ATOM     24  C   UNL A   1      27.543  30.889  23.573  1.00  0.00     0.011 C 
ATOM     25  C   UNL A   1      27.711  30.826  22.093  1.00  0.00     0.011 C 
ENDBRANCH  21  23
ENDBRANCH  15  18
ENDBRANCH   8  12
ENDBRANCH   4   7
ENDBRANCH   2   3
ENDBRANCH   1   2
BRANCH   1  26
ATOM     26  C   UNL A   1      37.045  22.428  25.019  1.00  0.00     0.118 C 
BRANCH  26  27
ATOM     27  N   UNL A   1      37.887  21.414  25.632  1.00  0.00    -0.352 N 
ATOM     28  C   UNL A   1      39.092  21.525  26.279  1.00  0.00     0.251 C 
ATOM     29  H   UNL A   1      37.533  20.497  25.575  1.00  0.00     0.163 HD
ATOM     30  O   UNL A   1      39.717  20.497  26.534  1.00  0.00    -0.269 OA
BRANCH  28  31
ATOM     31  C   UNL A   1      39.648  22.846  26.659  1.00  0.00     0.039 A 
ATOM     32  C   UNL A   1      40.546  22.907  27.729  1.00  0.00     0.014 A 
ATOM     33  C   UNL A   1      39.252  24.025  26.024  1.00  0.00     0.014 A 
ATOM     34  C   UNL A   1      41.069  24.138  28.135  1.00  0.00     0.010 A 
ATOM     35  C   UNL A   1      39.838  25.241  26.373  1.00  0.00     0.010 A 
ATOM     36  C   UNL A   1      40.735  25.316  27.447  1.00  0.00    -0.014 A 
BRANCH  36  37
ATOM     37  C   UNL A   1      41.282  26.631  27.876  1.00  0.00     0.031 A 
ATOM     38  C   UNL A   1      42.710  26.996  27.558  1.00  0.00     0.074 A 
ATOM     39  C   UNL A   1      40.507  27.483  28.575  1.00  0.00     0.049 A 
ATOM     40  N   UNL A   1      43.380  28.076  27.869  1.00  0.00    -0.248 NA
ATOM     41  C   UNL A   1      43.497  25.996  26.821  1.00  0.00     0.031 C 
ATOM     42  C   UNL A   1      39.124  27.225  28.985  1.00  0.00     0.029 A 
ATOM     43  N   UNL A   1      40.769  28.737  29.066  1.00  0.00    -0.354 N 
ATOM     44  C   UNL A   1      44.668  27.880  27.381  1.00  0.00     0.074 A 
ATOM     45  C   UNL A   1      44.700  26.548  26.815  1.00  0.00     0.031 C 
ATOM     46  C   UNL A   1      38.652  28.299  29.637  1.00  0.00     0.029 A 
ATOM     47  C   UNL A   1      39.703  29.307  29.724  1.00  0.00     0.049 A 
ATOM     48  H   UNL A   1      41.638  29.187  28.957  1.00  0.00     0.167 HD
ATOM     49  C   UNL A   1      45.719  28.739  27.379  1.00  0.00     0.034 A 
ATOM     50  C   UNL A   1      39.589  30.505  30.330  1.00  0.00     0.034 A 
ATOM     51  C   UNL A   1      45.665  30.071  27.930  1.00  0.00     0.049 A 
ATOM     52  C   UNL A   1      40.766  31.447  30.307  1.00  0.00     0.074 A 
ATOM     53  C   UNL A   1      46.650  31.044  27.938  1.00  0.00     0.029 A 
ATOM     54  N   UNL A   1      44.564  30.620  28.579  1.00  0.00    -0.354 N 
ATOM     55  N   UNL A   1      41.961  31.266  29.794  1.00  0.00    -0.248 NA
ATOM     56  C   UNL A   1      40.569  32.761  30.930  1.00  0.00     0.031 C 
ATOM     57  C   UNL A   1      46.167  32.155  28.640  1.00  0.00     0.029 A 
ATOM     58  C   UNL A   1      44.855  31.906  29.008  1.00  0.00     0.049 A 
ATOM     59  H   UNL A   1      43.704  30.162  28.711  1.00  0.00     0.167 HD
ATOM     60  C   UNL A   1      42.650  32.456  30.010  1.00  0.00     0.074 A 
ATOM     61  C   UNL A   1      41.727  33.353  30.676  1.00  0.00     0.031 C 
ATOM     62  C   UNL A   1      43.929  32.781  29.690  1.00  0.00     0.034 A 
BRANCH  49  63
ATOM     63  C   UNL A   1      47.017  28.244  26.780  1.00  0.00     0.023 A 
ATOM     64  C   UNL A   1      47.235  28.243  25.389  1.00  0.00     0.031 A 
ATOM     65  C   UNL A   1      48.033  27.732  27.603  1.00  0.00     0.131 A 
ATOM     66  C   UNL A   1      48.398  27.662  24.862  1.00  0.00     0.055 A 
ATOM     67  C   UNL A   1      49.229  27.234  27.076  1.00  0.00     0.041 A 
ATOM     68  F   UNL A   1      47.879  27.688  28.935  1.00  0.00    -0.206 F 
ATOM     69  C   UNL A   1      49.409  27.180  25.697  1.00  0.00     0.022 A 
BRANCH  66  70
ATOM     70  S   UNL A   1      48.502  27.406  23.069  1.00  0.00     0.124 S 
ATOM     71  O   UNL A   1      48.488  25.947  22.979  1.00  0.00    -0.237 OA
ATOM     72  O   UNL A   1      47.308  28.088  22.583  1.00  0.00    -0.237 OA
ATOM     73  O   UNL A   1      49.772  28.032  22.706  1.00  0.00    -0.744 OA
ENDBRANCH  66  70
ENDBRANCH  49  63
BRANCH  50  74
ATOM     74  C   UNL A   1      38.317  30.893  31.003  1.00  0.00     0.023 A 
ATOM     75  C   UNL A   1      37.300  31.559  30.301  1.00  0.00     0.031 A 
ATOM     76  C   UNL A   1      38.119  30.644  32.373  1.00  0.00     0.131 A 
ATOM     77  C   UNL A   1      36.151  31.997  30.980  1.00  0.00     0.055 A 
ATOM     78  C   UNL A   1      36.952  31.035  33.032  1.00  0.00     0.041 A 
ATOM     79  F   UNL A   1      39.057  30.004  33.089  1.00  0.00    -0.206 F 
ATOM     80  C   UNL A   1      35.966  31.729  32.337  1.00  0.00     0.022 A 
BRANCH  77  81
ATOM     81  S   UNL A   1      34.937  32.997  30.076  1.00  0.00     0.124 S 
ATOM     82  O   UNL A   1      34.436  32.041  29.094  1.00  0.00    -0.237 OA
ATOM     83  O   UNL A   1      34.008  33.375  31.136  1.00  0.00    -0.237 OA
ATOM     84  O   UNL A   1      35.737  34.091  29.531  1.00  0.00    -0.744 OA
ENDBRANCH  77  81
ENDBRANCH  50  74
BRANCH  62  85
ATOM     85  C   UNL A   1      44.379  34.181  30.033  1.00  0.00     0.023 A 
ATOM     86  C   UNL A   1      44.214  35.250  29.135  1.00  0.00     0.031 A 
ATOM     87  C   UNL A   1      45.022  34.440  31.256  1.00  0.00     0.131 A 
ATOM     88  C   UNL A   1      44.749  36.510  29.439  1.00  0.00     0.055 A 
ATOM     89  C   UNL A   1      45.495  35.712  31.583  1.00  0.00     0.041 A 
ATOM     90  F   UNL A   1      45.211  33.458  32.152  1.00  0.00    -0.206 F 
ATOM     91  C   UNL A   1      45.376  36.752  30.665  1.00  0.00     0.022 A 
BRANCH  88  92
ATOM     92  S   UNL A   1      44.724  37.798  28.162  1.00  0.00     0.124 S 
ATOM     93  O   UNL A   1      45.415  38.898  28.827  1.00  0.00    -0.237 OA
ATOM     94  O   UNL A   1      45.446  37.162  27.065  1.00  0.00    -0.237 OA
ATOM     95  O   UNL A   1      43.299  38.016  27.922  1.00  0.00    -0.744 OA
ENDBRANCH  88  92
ENDBRANCH  62  85
ENDBRANCH  36  37
ENDBRANCH  28  31
ENDBRANCH  26  27
ENDBRANCH   1  26
TORSDOF 16
ENDMDL
