MODEL 1
REMARK VINA RESULT:     -11.1      0.000      0.000
REMARK SMILES COc1ccc(-c2c(C(=O)NCCCNC(=O)c3ccc(-c4c5nc(c(-c6cc(S(=O)(=O)[O-])ccc6F)c6ccc([nH]6)c(-c6cc(S(=O)(=O)[O-])ccc6F)c6nc(c(-c7cc(S(=O)(=O)[O-])ccc7F)c7ccc4[nH]7)C=C6)C=C5)cc3)sc3c2N=C(O)C[C@H]3c2ccc(OC)c(OC)c2)cc1
REMARK SMILES IDX 13 1 12 2 11 3 9 4 10 5 8 7 7 8 83 9 81 10 82 11 84 12 88 13
REMARK SMILES IDX 85 14 87 15 6 16 3 17 4 18 100 19 5 20 99 21 2 22 1 23 89 24
REMARK SMILES IDX 90 25 98 26 91 27 95 28 92 29 96 30 97 31 93 32 94 33 86 34
REMARK SMILES IDX 14 36 15 37 16 38 17 40 18 41 19 42 80 43 20 44 79 45 21 46
REMARK SMILES IDX 22 47 23 48 73 49 24 50 78 51 72 52 74 53 25 54 77 55 71 56
REMARK SMILES IDX 70 57 26 59 58 60 38 61 57 62 39 63 42 64 56 65 75 66 40 67
REMARK SMILES IDX 41 68 55 70 76 71 43 72 27 73 28 74 36 75 29 76 35 77 37 78
REMARK SMILES IDX 34 79 30 80 31 81 32 82 33 83 59 84 60 85 68 86 61 87 67 88
REMARK SMILES IDX 69 89 66 90 62 91 63 92 64 93 65 94 44 95 45 96 53 97 46 98
REMARK SMILES IDX 52 99 54 100 51 101 47 102 48 103 49 104 50 105
REMARK H PARENT 11 6 86 35 15 39 74 58 42 69
REMARK Flexibility Score: inf
ROOT
ATOM      1  C   UNL A   1      41.292  27.668  34.323  1.00  0.00     0.042 C 
ENDROOT
BRANCH   1   2
ATOM      2  C   UNL A   1      41.574  28.585  35.503  1.00  0.00     0.118 C 
BRANCH   2   3
ATOM      3  N   UNL A   1      40.421  29.353  35.891  1.00  0.00    -0.351 N 
ATOM      4  C   UNL A   1      39.670  30.372  35.395  1.00  0.00     0.262 C 
ATOM      5  O   UNL A   1      38.685  30.569  36.126  1.00  0.00    -0.268 OA
ATOM      6  H   UNL A   1      40.079  29.056  36.765  1.00  0.00     0.163 HD
BRANCH   4   7
ATOM      7  C   UNL A   1      39.908  31.188  34.193  1.00  0.00     0.102 A 
ATOM      8  C   UNL A   1      40.931  31.548  33.302  1.00  0.00     0.031 A 
ATOM      9  C   UNL A   1      40.460  32.464  32.297  1.00  0.00     0.090 A 
ATOM     10  S   UNL A   1      38.425  32.032  33.721  1.00  0.00    -0.131 S 
ATOM     11  C   UNL A   1      39.153  32.819  32.435  1.00  0.00     0.040 A 
ATOM     12  N   UNL A   1      41.271  32.954  31.259  1.00  0.00    -0.216 NA
ATOM     13  C   UNL A   1      38.444  33.799  31.571  1.00  0.00     0.071 C 
ATOM     14  C   UNL A   1      40.772  33.949  30.602  1.00  0.00     0.186 C 
ATOM     15  C   UNL A   1      39.484  34.688  30.877  1.00  0.00     0.111 C 
BRANCH   8  16
ATOM     16  C   UNL A   1      42.339  31.186  33.372  1.00  0.00    -0.014 A 
ATOM     17  C   UNL A   1      45.052  30.489  33.386  1.00  0.00     0.118 A 
ATOM     18  C   UNL A   1      44.523  31.284  34.407  1.00  0.00     0.047 A 
ATOM     19  C   UNL A   1      44.199  29.918  32.445  1.00  0.00     0.047 A 
ATOM     20  C   UNL A   1      43.163  31.616  34.416  1.00  0.00     0.012 A 
ATOM     21  C   UNL A   1      42.847  30.269  32.438  1.00  0.00     0.012 A 
BRANCH  17  22
ATOM     22  O   UNL A   1      46.412  30.350  33.373  1.00  0.00    -0.497 OA
ATOM     23  C   UNL A   1      47.014  30.394  32.076  1.00  0.00     0.278 C 
ENDBRANCH  17  22
ENDBRANCH   8  16
BRANCH  13  24
ATOM     24  C   UNL A   1      37.502  33.164  30.561  1.00  0.00    -0.035 A 
ATOM     25  C   UNL A   1      37.890  32.101  29.743  1.00  0.00     0.008 A 
ATOM     26  C   UNL A   1      36.208  33.698  30.404  1.00  0.00     0.054 A 
ATOM     27  C   UNL A   1      37.013  31.607  28.781  1.00  0.00     0.051 A 
ATOM     28  C   UNL A   1      35.320  33.216  29.429  1.00  0.00     0.161 A 
ATOM     29  C   UNL A   1      35.737  32.163  28.599  1.00  0.00     0.160 A 
BRANCH  28  30
ATOM     30  O   UNL A   1      34.070  33.746  29.243  1.00  0.00    -0.493 OA
ATOM     31  C   UNL A   1      33.661  34.824  30.076  1.00  0.00     0.278 C 
ENDBRANCH  28  30
BRANCH  29  32
ATOM     32  O   UNL A   1      35.060  31.555  27.573  1.00  0.00    -0.493 OA
ATOM     33  C   UNL A   1      34.761  30.173  27.675  1.00  0.00     0.278 C 
ENDBRANCH  29  32
ENDBRANCH  13  24
BRANCH  14  34
ATOM     34  O   UNL A   1      41.494  34.467  29.587  1.00  0.00    -0.496 OA
ATOM     35  H   UNL A   1      42.265  34.027  29.288  1.00  0.00     0.294 HD
ENDBRANCH  14  34
ENDBRANCH   4   7
ENDBRANCH   2   3
ENDBRANCH   1   2
BRANCH   1  36
ATOM     36  C   UNL A   1      41.562  26.210  34.646  1.00  0.00     0.118 C 
BRANCH  36  37
ATOM     37  N   UNL A   1      42.266  25.974  35.911  1.00  0.00    -0.352 N 
ATOM     38  C   UNL A   1      43.462  25.283  36.093  1.00  0.00     0.251 C 
ATOM     39  H   UNL A   1      41.847  26.345  36.721  1.00  0.00     0.163 HD
ATOM     40  O   UNL A   1      43.797  24.840  37.167  1.00  0.00    -0.269 OA
BRANCH  38  41
ATOM     41  C   UNL A   1      44.293  25.106  34.887  1.00  0.00     0.039 A 
ATOM     42  C   UNL A   1      44.201  23.941  34.125  1.00  0.00     0.014 A 
ATOM     43  C   UNL A   1      44.876  26.260  34.388  1.00  0.00     0.014 A 
ATOM     44  C   UNL A   1      44.539  24.003  32.772  1.00  0.00     0.010 A 
ATOM     45  C   UNL A   1      45.032  26.354  33.024  1.00  0.00     0.010 A 
ATOM     46  C   UNL A   1      44.876  25.238  32.194  1.00  0.00    -0.014 A 
BRANCH  46  47
ATOM     47  C   UNL A   1      44.905  25.406  30.731  1.00  0.00     0.031 A 
ATOM     48  C   UNL A   1      46.080  26.118  30.131  1.00  0.00     0.074 A 
ATOM     49  C   UNL A   1      44.075  24.762  29.878  1.00  0.00     0.049 A 
ATOM     50  N   UNL A   1      46.077  27.254  29.513  1.00  0.00    -0.248 NA
ATOM     51  C   UNL A   1      47.425  25.543  30.278  1.00  0.00     0.031 C 
ATOM     52  C   UNL A   1      43.015  23.793  30.182  1.00  0.00     0.029 A 
ATOM     53  N   UNL A   1      44.109  24.742  28.517  1.00  0.00    -0.354 N 
ATOM     54  C   UNL A   1      47.362  27.450  29.005  1.00  0.00     0.074 A 
ATOM     55  C   UNL A   1      48.178  26.448  29.642  1.00  0.00     0.031 C 
ATOM     56  C   UNL A   1      42.724  23.078  29.078  1.00  0.00     0.029 A 
ATOM     57  C   UNL A   1      43.397  23.694  27.953  1.00  0.00     0.049 A 
ATOM     58  H   UNL A   1      44.597  25.410  27.982  1.00  0.00     0.167 HD
ATOM     59  C   UNL A   1      47.597  28.307  27.966  1.00  0.00     0.034 A 
ATOM     60  C   UNL A   1      43.319  23.348  26.646  1.00  0.00     0.034 A 
ATOM     61  C   UNL A   1      46.444  29.147  27.717  1.00  0.00     0.049 A 
ATOM     62  C   UNL A   1      43.589  24.578  25.868  1.00  0.00     0.074 A 
ATOM     63  C   UNL A   1      45.693  30.018  28.485  1.00  0.00     0.029 A 
ATOM     64  N   UNL A   1      45.658  28.874  26.618  1.00  0.00    -0.354 N 
ATOM     65  N   UNL A   1      42.818  25.633  25.919  1.00  0.00    -0.248 NA
ATOM     66  C   UNL A   1      44.944  24.831  25.405  1.00  0.00     0.031 C 
ATOM     67  C   UNL A   1      44.342  29.755  28.104  1.00  0.00     0.029 A 
ATOM     68  C   UNL A   1      44.364  28.814  27.072  1.00  0.00     0.049 A 
ATOM     69  H   UNL A   1      45.964  28.746  25.691  1.00  0.00     0.167 HD
ATOM     70  C   UNL A   1      43.687  26.712  25.939  1.00  0.00     0.074 A 
ATOM     71  C   UNL A   1      44.968  26.165  25.492  1.00  0.00     0.031 C 
ATOM     72  C   UNL A   1      43.370  27.878  26.581  1.00  0.00     0.034 A 
BRANCH  59  73
ATOM     73  C   UNL A   1      48.720  28.220  26.945  1.00  0.00     0.023 A 
ATOM     74  C   UNL A   1      48.353  28.057  25.589  1.00  0.00     0.031 A 
ATOM     75  C   UNL A   1      50.083  28.006  27.231  1.00  0.00     0.131 A 
ATOM     76  C   UNL A   1      49.271  27.587  24.632  1.00  0.00     0.055 A 
ATOM     77  C   UNL A   1      51.012  27.613  26.259  1.00  0.00     0.041 A 
ATOM     78  F   UNL A   1      50.579  28.075  28.471  1.00  0.00    -0.206 F 
ATOM     79  C   UNL A   1      50.603  27.365  24.959  1.00  0.00     0.022 A 
BRANCH  76  80
ATOM     80  S   UNL A   1      48.641  27.077  23.009  1.00  0.00     0.124 S 
ATOM     81  O   UNL A   1      49.812  27.282  22.162  1.00  0.00    -0.237 OA
ATOM     82  O   UNL A   1      48.260  25.691  23.256  1.00  0.00    -0.237 OA
ATOM     83  O   UNL A   1      47.532  27.996  22.771  1.00  0.00    -0.744 OA
ENDBRANCH  76  80
ENDBRANCH  59  73
BRANCH  60  84
ATOM     84  C   UNL A   1      43.238  21.970  26.107  1.00  0.00     0.023 A 
ATOM     85  C   UNL A   1      44.357  21.278  25.617  1.00  0.00     0.031 A 
ATOM     86  C   UNL A   1      42.043  21.225  26.262  1.00  0.00     0.131 A 
ATOM     87  C   UNL A   1      44.257  19.906  25.296  1.00  0.00     0.055 A 
ATOM     88  C   UNL A   1      41.945  19.872  25.930  1.00  0.00     0.041 A 
ATOM     89  F   UNL A   1      40.949  21.771  26.817  1.00  0.00    -0.206 F 
ATOM     90  C   UNL A   1      43.058  19.203  25.451  1.00  0.00     0.022 A 
BRANCH  87  91
ATOM     91  S   UNL A   1      45.735  18.984  24.774  1.00  0.00     0.124 S 
ATOM     92  O   UNL A   1      46.812  19.908  25.110  1.00  0.00    -0.237 OA
ATOM     93  O   UNL A   1      45.647  17.770  25.577  1.00  0.00    -0.237 OA
ATOM     94  O   UNL A   1      45.521  18.782  23.340  1.00  0.00    -0.744 OA
ENDBRANCH  87  91
ENDBRANCH  60  84
BRANCH  72  95
ATOM     95  C   UNL A   1      41.944  28.107  27.046  1.00  0.00     0.023 A 
ATOM     96  C   UNL A   1      41.461  27.796  28.336  1.00  0.00     0.031 A 
ATOM     97  C   UNL A   1      41.087  28.823  26.189  1.00  0.00     0.131 A 
ATOM     98  C   UNL A   1      40.165  28.196  28.723  1.00  0.00     0.055 A 
ATOM     99  C   UNL A   1      39.814  29.236  26.581  1.00  0.00     0.041 A 
ATOM    100  F   UNL A   1      41.497  29.180  24.960  1.00  0.00    -0.206 F 
ATOM    101  C   UNL A   1      39.346  28.919  27.851  1.00  0.00     0.022 A 
BRANCH  98 102
ATOM    102  S   UNL A   1      39.520  27.777  30.375  1.00  0.00     0.124 S 
ATOM    103  O   UNL A   1      39.045  26.407  30.222  1.00  0.00    -0.237 OA
ATOM    104  O   UNL A   1      40.691  27.957  31.229  1.00  0.00    -0.237 OA
ATOM    105  O   UNL A   1      38.459  28.766  30.584  1.00  0.00    -0.744 OA
ENDBRANCH  98 102
ENDBRANCH  72  95
ENDBRANCH  46  47
ENDBRANCH  38  41
ENDBRANCH  36  37
ENDBRANCH   1  36
TORSDOF 19
ENDMDL
MODEL 2
REMARK VINA RESULT:     -10.5      3.596     11.205
REMARK SMILES COc1ccc(-c2c(C(=O)NCCCNC(=O)c3ccc(-c4c5nc(c(-c6cc(S(=O)(=O)[O-])ccc6F)c6ccc([nH]6)c(-c6cc(S(=O)(=O)[O-])ccc6F)c6nc(c(-c7cc(S(=O)(=O)[O-])ccc7F)c7ccc4[nH]7)C=C6)C=C5)cc3)sc3c2N=C(O)C[C@H]3c2ccc(OC)c(OC)c2)cc1
REMARK SMILES IDX 13 1 12 2 11 3 9 4 10 5 8 7 7 8 83 9 81 10 82 11 84 12 88 13
REMARK SMILES IDX 85 14 87 15 6 16 3 17 4 18 100 19 5 20 99 21 2 22 1 23 89 24
REMARK SMILES IDX 90 25 98 26 91 27 95 28 92 29 96 30 97 31 93 32 94 33 86 34
REMARK SMILES IDX 14 36 15 37 16 38 17 40 18 41 19 42 80 43 20 44 79 45 21 46
REMARK SMILES IDX 22 47 23 48 73 49 24 50 78 51 72 52 74 53 25 54 77 55 71 56
REMARK SMILES IDX 70 57 26 59 58 60 38 61 57 62 39 63 42 64 56 65 75 66 40 67
REMARK SMILES IDX 41 68 55 70 76 71 43 72 27 73 28 74 36 75 29 76 35 77 37 78
REMARK SMILES IDX 34 79 30 80 31 81 32 82 33 83 59 84 60 85 68 86 61 87 67 88
REMARK SMILES IDX 69 89 66 90 62 91 63 92 64 93 65 94 44 95 45 96 53 97 46 98
REMARK SMILES IDX 52 99 54 100 51 101 47 102 48 103 49 104 50 105
REMARK H PARENT 11 6 86 35 15 39 74 58 42 69
REMARK Flexibility Score: inf
ROOT
ATOM      1  C   UNL A   1      40.208  22.712  27.287  1.00  0.00     0.042 C 
ENDROOT
BRANCH   1   2
ATOM      2  C   UNL A   1      41.423  22.953  28.170  1.00  0.00     0.118 C 
BRANCH   2   3
ATOM      3  N   UNL A   1      42.657  22.618  27.510  1.00  0.00    -0.351 N 
ATOM      4  C   UNL A   1      43.966  22.983  27.563  1.00  0.00     0.262 C 
ATOM      5  O   UNL A   1      44.640  22.259  26.812  1.00  0.00    -0.268 OA
ATOM      6  H   UNL A   1      42.511  21.928  26.823  1.00  0.00     0.163 HD
BRANCH   4   7
ATOM      7  C   UNL A   1      44.586  24.064  28.347  1.00  0.00     0.102 A 
ATOM      8  C   UNL A   1      45.328  25.244  28.185  1.00  0.00     0.031 A 
ATOM      9  C   UNL A   1      45.655  25.842  29.452  1.00  0.00     0.090 A 
ATOM     10  S   UNL A   1      44.357  23.774  30.079  1.00  0.00    -0.131 S 
ATOM     11  C   UNL A   1      45.220  25.136  30.531  1.00  0.00     0.040 A 
ATOM     12  N   UNL A   1      46.360  27.052  29.576  1.00  0.00    -0.216 NA
ATOM     13  C   UNL A   1      45.484  25.500  31.948  1.00  0.00     0.071 C 
ATOM     14  C   UNL A   1      46.786  27.314  30.767  1.00  0.00     0.186 C 
ATOM     15  C   UNL A   1      46.693  26.443  31.997  1.00  0.00     0.111 C 
BRANCH   8  16
ATOM     16  C   UNL A   1      45.845  25.806  26.946  1.00  0.00    -0.014 A 
ATOM     17  C   UNL A   1      46.797  26.993  24.595  1.00  0.00     0.118 A 
ATOM     18  C   UNL A   1      47.494  25.931  25.180  1.00  0.00     0.047 A 
ATOM     19  C   UNL A   1      45.551  27.360  25.096  1.00  0.00     0.047 A 
ATOM     20  C   UNL A   1      47.009  25.320  26.343  1.00  0.00     0.012 A 
ATOM     21  C   UNL A   1      45.079  26.768  26.271  1.00  0.00     0.012 A 
BRANCH  17  22
ATOM     22  O   UNL A   1      47.425  27.629  23.559  1.00  0.00    -0.497 OA
ATOM     23  C   UNL A   1      48.711  27.106  23.218  1.00  0.00     0.278 C 
ENDBRANCH  17  22
ENDBRANCH   8  16
BRANCH  13  24
ATOM     24  C   UNL A   1      44.286  26.104  32.664  1.00  0.00    -0.035 A 
ATOM     25  C   UNL A   1      43.615  27.228  32.179  1.00  0.00     0.008 A 
ATOM     26  C   UNL A   1      43.869  25.547  33.888  1.00  0.00     0.054 A 
ATOM     27  C   UNL A   1      42.572  27.787  32.913  1.00  0.00     0.051 A 
ATOM     28  C   UNL A   1      42.827  26.109  34.643  1.00  0.00     0.161 A 
ATOM     29  C   UNL A   1      42.180  27.254  34.150  1.00  0.00     0.160 A 
BRANCH  28  30
ATOM     30  O   UNL A   1      42.431  25.596  35.851  1.00  0.00    -0.493 OA
ATOM     31  C   UNL A   1      41.328  24.699  35.876  1.00  0.00     0.278 C 
ENDBRANCH  28  30
BRANCH  29  32
ATOM     32  O   UNL A   1      41.168  27.982  34.720  1.00  0.00    -0.493 OA
ATOM     33  C   UNL A   1      41.496  28.999  35.651  1.00  0.00     0.278 C 
ENDBRANCH  29  32
ENDBRANCH  13  24
BRANCH  14  34
ATOM     34  O   UNL A   1      47.467  28.463  30.961  1.00  0.00    -0.496 OA
ATOM     35  H   UNL A   1      47.091  29.149  31.475  1.00  0.00     0.294 HD
ENDBRANCH  14  34
ENDBRANCH   4   7
ENDBRANCH   2   3
ENDBRANCH   1   2
BRANCH   1  36
ATOM     36  C   UNL A   1      39.776  23.964  26.545  1.00  0.00     0.118 C 
BRANCH  36  37
ATOM     37  N   UNL A   1      40.829  24.614  25.757  1.00  0.00    -0.352 N 
ATOM     38  C   UNL A   1      41.287  25.923  25.883  1.00  0.00     0.251 C 
ATOM     39  H   UNL A   1      41.259  24.064  25.064  1.00  0.00     0.163 HD
ATOM     40  O   UNL A   1      41.895  26.484  25.001  1.00  0.00    -0.269 OA
BRANCH  38  41
ATOM     41  C   UNL A   1      40.971  26.597  27.158  1.00  0.00     0.039 A 
ATOM     42  C   UNL A   1      41.825  26.482  28.253  1.00  0.00     0.014 A 
ATOM     43  C   UNL A   1      40.007  27.591  27.085  1.00  0.00     0.014 A 
ATOM     44  C   UNL A   1      41.825  27.501  29.207  1.00  0.00     0.010 A 
ATOM     45  C   UNL A   1      40.143  28.669  27.928  1.00  0.00     0.010 A 
ATOM     46  C   UNL A   1      41.040  28.647  29.002  1.00  0.00    -0.014 A 
BRANCH  46  47
ATOM     47  C   UNL A   1      41.265  29.870  29.792  1.00  0.00     0.031 A 
ATOM     48  C   UNL A   1      40.101  30.443  30.542  1.00  0.00     0.074 A 
ATOM     49  C   UNL A   1      42.488  30.373  30.076  1.00  0.00     0.049 A 
ATOM     50  N   UNL A   1      39.516  31.578  30.337  1.00  0.00    -0.248 NA
ATOM     51  C   UNL A   1      39.466  29.650  31.605  1.00  0.00     0.031 C 
ATOM     52  C   UNL A   1      43.808  29.852  29.701  1.00  0.00     0.029 A 
ATOM     53  N   UNL A   1      42.806  31.407  30.904  1.00  0.00    -0.354 N 
ATOM     54  C   UNL A   1      38.584  31.753  31.361  1.00  0.00     0.074 A 
ATOM     55  C   UNL A   1      38.490  30.470  32.010  1.00  0.00     0.031 C 
ATOM     56  C   UNL A   1      44.749  30.370  30.514  1.00  0.00     0.029 A 
ATOM     57  C   UNL A   1      44.137  31.423  31.297  1.00  0.00     0.049 A 
ATOM     58  H   UNL A   1      42.151  32.081  31.197  1.00  0.00     0.167 HD
ATOM     59  C   UNL A   1      38.111  32.993  31.693  1.00  0.00     0.034 A 
ATOM     60  C   UNL A   1      44.733  32.256  32.182  1.00  0.00     0.034 A 
ATOM     61  C   UNL A   1      38.460  33.967  30.681  1.00  0.00     0.049 A 
ATOM     62  C   UNL A   1      43.930  33.499  32.199  1.00  0.00     0.074 A 
ATOM     63  C   UNL A   1      38.252  34.069  29.317  1.00  0.00     0.029 A 
ATOM     64  N   UNL A   1      39.470  34.864  30.955  1.00  0.00    -0.354 N 
ATOM     65  N   UNL A   1      43.791  34.268  31.150  1.00  0.00    -0.248 NA
ATOM     66  C   UNL A   1      42.900  33.654  33.213  1.00  0.00     0.031 C 
ATOM     67  C   UNL A   1      39.490  34.561  28.804  1.00  0.00     0.029 A 
ATOM     68  C   UNL A   1      40.334  34.812  29.888  1.00  0.00     0.049 A 
ATOM     69  H   UNL A   1      39.557  35.429  31.756  1.00  0.00     0.167 HD
ATOM     70  C   UNL A   1      42.459  34.651  31.160  1.00  0.00     0.074 A 
ATOM     71  C   UNL A   1      41.997  34.351  32.515  1.00  0.00     0.031 C 
ATOM     72  C   UNL A   1      41.777  34.908  30.002  1.00  0.00     0.034 A 
BRANCH  59  73
ATOM     73  C   UNL A   1      37.605  33.443  33.054  1.00  0.00     0.023 A 
ATOM     74  C   UNL A   1      38.471  33.272  34.158  1.00  0.00     0.031 A 
ATOM     75  C   UNL A   1      36.269  33.756  33.377  1.00  0.00     0.131 A 
ATOM     76  C   UNL A   1      37.987  33.286  35.479  1.00  0.00     0.055 A 
ATOM     77  C   UNL A   1      35.807  33.846  34.697  1.00  0.00     0.041 A 
ATOM     78  F   UNL A   1      35.318  33.902  32.449  1.00  0.00    -0.206 F 
ATOM     79  C   UNL A   1      36.656  33.575  35.757  1.00  0.00     0.022 A 
BRANCH  76  80
ATOM     80  S   UNL A   1      39.084  32.717  36.807  1.00  0.00     0.124 S 
ATOM     81  O   UNL A   1      40.398  32.898  36.199  1.00  0.00    -0.237 OA
ATOM     82  O   UNL A   1      38.744  33.631  37.892  1.00  0.00    -0.237 OA
ATOM     83  O   UNL A   1      38.679  31.329  37.009  1.00  0.00    -0.744 OA
ENDBRANCH  76  80
ENDBRANCH  59  73
BRANCH  60  84
ATOM     84  C   UNL A   1      45.816  31.899  33.129  1.00  0.00     0.023 A 
ATOM     85  C   UNL A   1      45.579  31.208  34.329  1.00  0.00     0.031 A 
ATOM     86  C   UNL A   1      47.168  32.069  32.746  1.00  0.00     0.131 A 
ATOM     87  C   UNL A   1      46.664  30.727  35.095  1.00  0.00     0.055 A 
ATOM     88  C   UNL A   1      48.238  31.605  33.514  1.00  0.00     0.041 A 
ATOM     89  F   UNL A   1      47.493  32.627  31.568  1.00  0.00    -0.206 F 
ATOM     90  C   UNL A   1      47.989  30.922  34.692  1.00  0.00     0.022 A 
BRANCH  87  91
ATOM     91  S   UNL A   1      46.354  29.731  36.586  1.00  0.00     0.124 S 
ATOM     92  O   UNL A   1      47.505  28.835  36.604  1.00  0.00    -0.237 OA
ATOM     93  O   UNL A   1      46.303  30.744  37.633  1.00  0.00    -0.237 OA
ATOM     94  O   UNL A   1      45.073  29.084  36.301  1.00  0.00    -0.744 OA
ENDBRANCH  87  91
ENDBRANCH  60  84
BRANCH  72  95
ATOM     95  C   UNL A   1      42.546  35.048  28.701  1.00  0.00     0.023 A 
ATOM     96  C   UNL A   1      43.151  33.977  28.007  1.00  0.00     0.031 A 
ATOM     97  C   UNL A   1      42.518  36.302  28.062  1.00  0.00     0.131 A 
ATOM     98  C   UNL A   1      43.701  34.184  26.726  1.00  0.00     0.055 A 
ATOM     99  C   UNL A   1      43.045  36.499  26.785  1.00  0.00     0.041 A 
ATOM    100  F   UNL A   1      41.928  37.355  28.651  1.00  0.00    -0.206 F 
ATOM    101  C   UNL A   1      43.644  35.440  26.114  1.00  0.00     0.022 A 
BRANCH  98 102
ATOM    102  S   UNL A   1      44.509  32.818  25.832  1.00  0.00     0.124 S 
ATOM    103  O   UNL A   1      44.178  33.076  24.436  1.00  0.00    -0.237 OA
ATOM    104  O   UNL A   1      45.914  32.985  26.197  1.00  0.00    -0.237 OA
ATOM    105  O   UNL A   1      43.875  31.623  26.394  1.00  0.00    -0.744 OA
ENDBRANCH  98 102
ENDBRANCH  72  95
ENDBRANCH  46  47
ENDBRANCH  38  41
ENDBRANCH  36  37
ENDBRANCH   1  36
TORSDOF 19
ENDMDL
MODEL 3
REMARK VINA RESULT:     -10.5      5.099     11.671
REMARK SMILES COc1ccc(-c2c(C(=O)NCCCNC(=O)c3ccc(-c4c5nc(c(-c6cc(S(=O)(=O)[O-])ccc6F)c6ccc([nH]6)c(-c6cc(S(=O)(=O)[O-])ccc6F)c6nc(c(-c7cc(S(=O)(=O)[O-])ccc7F)c7ccc4[nH]7)C=C6)C=C5)cc3)sc3c2N=C(O)C[C@H]3c2ccc(OC)c(OC)c2)cc1
REMARK SMILES IDX 13 1 12 2 11 3 9 4 10 5 8 7 7 8 83 9 81 10 82 11 84 12 88 13
REMARK SMILES IDX 85 14 87 15 6 16 3 17 4 18 100 19 5 20 99 21 2 22 1 23 89 24
REMARK SMILES IDX 90 25 98 26 91 27 95 28 92 29 96 30 97 31 93 32 94 33 86 34
REMARK SMILES IDX 14 36 15 37 16 38 17 40 18 41 19 42 80 43 20 44 79 45 21 46
REMARK SMILES IDX 22 47 23 48 73 49 24 50 78 51 72 52 74 53 25 54 77 55 71 56
REMARK SMILES IDX 70 57 26 59 58 60 38 61 57 62 39 63 42 64 56 65 75 66 40 67
REMARK SMILES IDX 41 68 55 70 76 71 43 72 27 73 28 74 36 75 29 76 35 77 37 78
REMARK SMILES IDX 34 79 30 80 31 81 32 82 33 83 59 84 60 85 68 86 61 87 67 88
REMARK SMILES IDX 69 89 66 90 62 91 63 92 64 93 65 94 44 95 45 96 53 97 46 98
REMARK SMILES IDX 52 99 54 100 51 101 47 102 48 103 49 104 50 105
REMARK H PARENT 11 6 86 35 15 39 74 58 42 69
REMARK Flexibility Score: inf
ROOT
ATOM      1  C   UNL A   1      39.913  23.454  26.449  1.00  0.00     0.042 C 
ENDROOT
BRANCH   1   2
ATOM      2  C   UNL A   1      38.516  22.883  26.642  1.00  0.00     0.118 C 
BRANCH   2   3
ATOM      3  N   UNL A   1      38.344  21.615  25.983  1.00  0.00    -0.351 N 
ATOM      4  C   UNL A   1      37.451  21.022  25.147  1.00  0.00     0.262 C 
ATOM      5  O   UNL A   1      37.878  19.910  24.790  1.00  0.00    -0.268 OA
ATOM      6  H   UNL A   1      39.084  21.004  26.200  1.00  0.00     0.163 HD
BRANCH   4   7
ATOM      7  C   UNL A   1      36.149  21.528  24.685  1.00  0.00     0.102 A 
ATOM      8  C   UNL A   1      34.807  21.135  24.557  1.00  0.00     0.031 A 
ATOM      9  C   UNL A   1      34.006  22.173  23.965  1.00  0.00     0.090 A 
ATOM     10  S   UNL A   1      36.321  23.169  24.043  1.00  0.00    -0.131 S 
ATOM     11  C   UNL A   1      34.705  23.289  23.620  1.00  0.00     0.040 A 
ATOM     12  N   UNL A   1      32.621  22.056  23.757  1.00  0.00    -0.216 NA
ATOM     13  C   UNL A   1      34.129  24.474  22.933  1.00  0.00     0.071 C 
ATOM     14  C   UNL A   1      32.106  22.963  22.994  1.00  0.00     0.186 C 
ATOM     15  C   UNL A   1      32.824  24.058  22.242  1.00  0.00     0.111 C 
BRANCH   8  16
ATOM     16  C   UNL A   1      34.230  19.831  24.849  1.00  0.00    -0.014 A 
ATOM     17  C   UNL A   1      33.013  17.374  25.418  1.00  0.00     0.118 A 
ATOM     18  C   UNL A   1      34.136  17.428  24.588  1.00  0.00     0.047 A 
ATOM     19  C   UNL A   1      32.592  18.522  26.084  1.00  0.00     0.047 A 
ATOM     20  C   UNL A   1      34.761  18.652  24.319  1.00  0.00     0.012 A 
ATOM     21  C   UNL A   1      33.198  19.747  25.797  1.00  0.00     0.012 A 
BRANCH  17  22
ATOM     22  O   UNL A   1      32.377  16.165  25.495  1.00  0.00    -0.497 OA
ATOM     23  C   UNL A   1      33.224  15.024  25.340  1.00  0.00     0.278 C 
ENDBRANCH  17  22
ENDBRANCH   8  16
BRANCH  13  24
ATOM     24  C   UNL A   1      33.909  25.671  23.845  1.00  0.00    -0.035 A 
ATOM     25  C   UNL A   1      34.155  25.618  25.219  1.00  0.00     0.008 A 
ATOM     26  C   UNL A   1      33.390  26.861  23.299  1.00  0.00     0.054 A 
ATOM     27  C   UNL A   1      33.864  26.719  26.021  1.00  0.00     0.051 A 
ATOM     28  C   UNL A   1      33.082  27.972  24.100  1.00  0.00     0.161 A 
ATOM     29  C   UNL A   1      33.312  27.891  25.483  1.00  0.00     0.160 A 
BRANCH  28  30
ATOM     30  O   UNL A   1      32.547  29.125  23.587  1.00  0.00    -0.493 OA
ATOM     31  C   UNL A   1      31.427  29.023  22.716  1.00  0.00     0.278 C 
ENDBRANCH  28  30
BRANCH  29  32
ATOM     32  O   UNL A   1      33.067  28.829  26.453  1.00  0.00    -0.493 OA
ATOM     33  C   UNL A   1      34.135  29.252  27.283  1.00  0.00     0.278 C 
ENDBRANCH  29  32
ENDBRANCH  13  24
BRANCH  14  34
ATOM     34  O   UNL A   1      30.779  22.915  22.755  1.00  0.00    -0.496 OA
ATOM     35  H   UNL A   1      30.177  22.834  23.469  1.00  0.00     0.294 HD
ENDBRANCH  14  34
ENDBRANCH   4   7
ENDBRANCH   2   3
ENDBRANCH   1   2
BRANCH   1  36
ATOM     36  C   UNL A   1      40.971  22.651  27.183  1.00  0.00     0.118 C 
BRANCH  36  37
ATOM     37  N   UNL A   1      42.354  22.935  26.786  1.00  0.00    -0.352 N 
ATOM     38  C   UNL A   1      43.057  24.123  26.975  1.00  0.00     0.251 C 
ATOM     39  H   UNL A   1      42.839  22.206  26.336  1.00  0.00     0.163 HD
ATOM     40  O   UNL A   1      44.045  24.399  26.335  1.00  0.00    -0.269 OA
BRANCH  38  41
ATOM     41  C   UNL A   1      42.513  25.038  27.997  1.00  0.00     0.039 A 
ATOM     42  C   UNL A   1      43.266  25.376  29.121  1.00  0.00     0.014 A 
ATOM     43  C   UNL A   1      41.411  25.782  27.606  1.00  0.00     0.014 A 
ATOM     44  C   UNL A   1      43.006  26.592  29.755  1.00  0.00     0.010 A 
ATOM     45  C   UNL A   1      41.286  27.051  28.123  1.00  0.00     0.010 A 
ATOM     46  C   UNL A   1      42.066  27.478  29.203  1.00  0.00    -0.014 A 
BRANCH  46  47
ATOM     47  C   UNL A   1      42.010  28.886  29.634  1.00  0.00     0.031 A 
ATOM     48  C   UNL A   1      43.000  29.841  29.037  1.00  0.00     0.074 A 
ATOM     49  C   UNL A   1      40.988  29.421  30.341  1.00  0.00     0.049 A 
ATOM     50  N   UNL A   1      43.950  30.470  29.648  1.00  0.00    -0.248 NA
ATOM     51  C   UNL A   1      42.981  30.089  27.587  1.00  0.00     0.031 C 
ATOM     52  C   UNL A   1      39.759  28.774  30.814  1.00  0.00     0.029 A 
ATOM     53  N   UNL A   1      40.777  30.727  30.665  1.00  0.00    -0.354 N 
ATOM     54  C   UNL A   1      44.519  31.351  28.728  1.00  0.00     0.074 A 
ATOM     55  C   UNL A   1      43.989  30.956  27.448  1.00  0.00     0.031 C 
ATOM     56  C   UNL A   1      38.829  29.711  31.087  1.00  0.00     0.029 A 
ATOM     57  C   UNL A   1      39.469  31.009  31.035  1.00  0.00     0.049 A 
ATOM     58  H   UNL A   1      41.487  31.409  30.640  1.00  0.00     0.167 HD
ATOM     59  C   UNL A   1      45.236  32.443  29.134  1.00  0.00     0.034 A 
ATOM     60  C   UNL A   1      38.926  32.216  31.316  1.00  0.00     0.034 A 
ATOM     61  C   UNL A   1      45.553  32.359  30.544  1.00  0.00     0.049 A 
ATOM     62  C   UNL A   1      40.038  33.084  31.767  1.00  0.00     0.074 A 
ATOM     63  C   UNL A   1      46.198  31.432  31.341  1.00  0.00     0.029 A 
ATOM     64  N   UNL A   1      44.851  33.157  31.422  1.00  0.00    -0.354 N 
ATOM     65  N   UNL A   1      40.736  32.839  32.844  1.00  0.00    -0.248 NA
ATOM     66  C   UNL A   1      40.691  33.946  30.795  1.00  0.00     0.031 C 
ATOM     67  C   UNL A   1      45.410  31.374  32.530  1.00  0.00     0.029 A 
ATOM     68  C   UNL A   1      44.396  32.329  32.418  1.00  0.00     0.049 A 
ATOM     69  H   UNL A   1      44.704  34.128  31.350  1.00  0.00     0.167 HD
ATOM     70  C   UNL A   1      42.047  33.124  32.495  1.00  0.00     0.074 A 
ATOM     71  C   UNL A   1      41.939  33.920  31.272  1.00  0.00     0.031 C 
ATOM     72  C   UNL A   1      43.101  32.459  33.059  1.00  0.00     0.034 A 
BRANCH  59  73
ATOM     73  C   UNL A   1      45.407  33.754  28.382  1.00  0.00     0.023 A 
ATOM     74  C   UNL A   1      44.423  34.749  28.579  1.00  0.00     0.031 A 
ATOM     75  C   UNL A   1      46.287  33.980  27.305  1.00  0.00     0.131 A 
ATOM     76  C   UNL A   1      44.265  35.815  27.674  1.00  0.00     0.055 A 
ATOM     77  C   UNL A   1      46.175  35.085  26.450  1.00  0.00     0.041 A 
ATOM     78  F   UNL A   1      47.242  33.111  26.958  1.00  0.00    -0.206 F 
ATOM     79  C   UNL A   1      45.139  35.991  26.608  1.00  0.00     0.022 A 
BRANCH  76  80
ATOM     80  S   UNL A   1      42.774  36.841  27.801  1.00  0.00     0.124 S 
ATOM     81  O   UNL A   1      43.206  37.870  28.741  1.00  0.00    -0.237 OA
ATOM     82  O   UNL A   1      42.586  37.268  26.419  1.00  0.00    -0.237 OA
ATOM     83  O   UNL A   1      41.768  35.915  28.311  1.00  0.00    -0.744 OA
ENDBRANCH  76  80
ENDBRANCH  59  73
BRANCH  60  84
ATOM     84  C   UNL A   1      37.547  32.654  30.993  1.00  0.00     0.023 A 
ATOM     85  C   UNL A   1      36.656  33.137  31.965  1.00  0.00     0.031 A 
ATOM     86  C   UNL A   1      37.152  32.790  29.640  1.00  0.00     0.131 A 
ATOM     87  C   UNL A   1      35.429  33.718  31.575  1.00  0.00     0.055 A 
ATOM     88  C   UNL A   1      35.932  33.351  29.260  1.00  0.00     0.041 A 
ATOM     89  F   UNL A   1      37.978  32.451  28.636  1.00  0.00    -0.206 F 
ATOM     90  C   UNL A   1      35.065  33.826  30.229  1.00  0.00     0.022 A 
BRANCH  87  91
ATOM     91  S   UNL A   1      34.329  34.448  32.827  1.00  0.00     0.124 S 
ATOM     92  O   UNL A   1      35.157  35.514  33.380  1.00  0.00    -0.237 OA
ATOM     93  O   UNL A   1      33.182  34.865  32.030  1.00  0.00    -0.237 OA
ATOM     94  O   UNL A   1      34.066  33.335  33.738  1.00  0.00    -0.744 OA
ENDBRANCH  87  91
ENDBRANCH  60  84
BRANCH  72  95
ATOM     95  C   UNL A   1      42.865  31.591  34.281  1.00  0.00     0.023 A 
ATOM     96  C   UNL A   1      42.421  30.250  34.239  1.00  0.00     0.031 A 
ATOM     97  C   UNL A   1      43.267  32.102  35.529  1.00  0.00     0.131 A 
ATOM     98  C   UNL A   1      42.390  29.478  35.418  1.00  0.00     0.055 A 
ATOM     99  C   UNL A   1      43.254  31.330  36.690  1.00  0.00     0.041 A 
ATOM    100  F   UNL A   1      43.731  33.359  35.633  1.00  0.00    -0.206 F 
ATOM    101  C   UNL A   1      42.810  30.014  36.639  1.00  0.00     0.022 A 
BRANCH  98 102
ATOM    102  S   UNL A   1      41.794  27.757  35.384  1.00  0.00     0.124 S 
ATOM    103  O   UNL A   1      43.019  26.969  35.314  1.00  0.00    -0.237 OA
ATOM    104  O   UNL A   1      41.039  27.656  36.630  1.00  0.00    -0.237 OA
ATOM    105  O   UNL A   1      40.972  27.708  34.172  1.00  0.00    -0.744 OA
ENDBRANCH  98 102
ENDBRANCH  72  95
ENDBRANCH  46  47
ENDBRANCH  38  41
ENDBRANCH  36  37
ENDBRANCH   1  36
TORSDOF 19
ENDMDL
