MODEL 1
REMARK VINA RESULT:     -11.4      0.000      0.000
REMARK SMILES CC(C)Cc1ccc([C@H](CF)C(=O)NCCCNC(=O)c2ccc(-c3c4nc(c(-c5cc(S(=O)(=O)[O-])ccc5F)c5ccc([nH]5)c(-c5cc(S(=O)(=O)[O-])ccc5F)c5nc(c(-c6cc(S(=O)(=O)[O-])ccc6F)c6ccc3[nH]6)C=C5)C=C4)cc2)cc1
REMARK SMILES IDX 16 1 15 2 14 3 12 4 13 5 9 7 8 8 5 9 6 10 85 11 7 12 84 13
REMARK SMILES IDX 4 14 2 15 1 16 3 17 10 18 11 19 17 20 18 21 19 22 20 24
REMARK SMILES IDX 21 25 22 26 83 27 23 28 82 29 24 30 25 31 26 32 76 33 27 34
REMARK SMILES IDX 81 35 75 36 77 37 28 38 80 39 74 40 73 41 29 43 61 44 41 45
REMARK SMILES IDX 60 46 42 47 45 48 59 49 78 50 43 51 44 52 58 54 79 55 46 56
REMARK SMILES IDX 30 57 31 58 39 59 32 60 38 61 40 62 37 63 33 64 34 65 35 66
REMARK SMILES IDX 36 67 62 68 63 69 71 70 64 71 70 72 72 73 69 74 65 75 66 76
REMARK SMILES IDX 67 77 68 78 47 79 48 80 56 81 49 82 55 83 57 84 54 85 50 86
REMARK SMILES IDX 51 87 52 88 53 89
REMARK H PARENT 14 6 18 23 77 42 45 53
REMARK Flexibility Score: inf
ROOT
ATOM      1  C   UNL A   1      36.397  21.523  25.715  1.00  0.00     0.042 C 
ENDROOT
BRANCH   1   2
ATOM      2  C   UNL A   1      35.642  22.817  25.463  1.00  0.00     0.117 C 
BRANCH   2   3
ATOM      3  N   UNL A   1      35.337  23.062  24.065  1.00  0.00    -0.355 N 
ATOM      4  C   UNL A   1      34.138  23.141  23.414  1.00  0.00     0.230 C 
ATOM      5  O   UNL A   1      34.166  23.575  22.256  1.00  0.00    -0.274 OA
ATOM      6  H   UNL A   1      36.124  23.192  23.490  1.00  0.00     0.163 HD
BRANCH   4   7
ATOM      7  C   UNL A   1      32.805  22.715  24.044  1.00  0.00     0.139 C 
BRANCH   7   8
ATOM      8  C   UNL A   1      32.616  21.203  24.064  1.00  0.00    -0.033 A 
ATOM      9  C   UNL A   1      32.594  18.362  24.057  1.00  0.00    -0.048 A 
ATOM     10  C   UNL A   1      32.787  19.080  25.247  1.00  0.00     0.004 A 
ATOM     11  C   UNL A   1      32.355  19.090  22.896  1.00  0.00     0.004 A 
ATOM     12  C   UNL A   1      32.809  20.483  25.250  1.00  0.00     0.005 A 
ATOM     13  C   UNL A   1      32.313  20.481  22.907  1.00  0.00     0.005 A 
BRANCH   9  14
ATOM     14  C   UNL A   1      32.714  16.852  24.060  1.00  0.00     0.038 C 
BRANCH  14  15
ATOM     15  C   UNL A   1      33.342  16.182  25.310  1.00  0.00    -0.013 C 
ATOM     16  C   UNL A   1      32.773  14.786  25.615  1.00  0.00     0.008 C 
ATOM     17  C   UNL A   1      34.856  16.047  25.116  1.00  0.00     0.008 C 
ENDBRANCH  14  15
ENDBRANCH   9  14
ENDBRANCH   7   8
BRANCH   7  18
ATOM     18  C   UNL A   1      31.660  23.525  23.441  1.00  0.00     0.232 C 
ATOM     19  F   UNL A   1      31.572  24.726  24.078  1.00  0.00    -0.250 F 
ENDBRANCH   7  18
ENDBRANCH   4   7
ENDBRANCH   2   3
ENDBRANCH   1   2
BRANCH   1  20
ATOM     20  C   UNL A   1      37.729  21.429  24.991  1.00  0.00     0.118 C 
BRANCH  20  21
ATOM     21  N   UNL A   1      38.660  20.511  25.635  1.00  0.00    -0.352 N 
ATOM     22  C   UNL A   1      39.790  20.753  26.385  1.00  0.00     0.251 C 
ATOM     23  H   UNL A   1      38.445  19.559  25.514  1.00  0.00     0.163 HD
ATOM     24  O   UNL A   1      40.525  19.815  26.672  1.00  0.00    -0.269 OA
BRANCH  22  25
ATOM     25  C   UNL A   1      40.140  22.130  26.809  1.00  0.00     0.039 A 
ATOM     26  C   UNL A   1      41.100  22.308  27.809  1.00  0.00     0.014 A 
ATOM     27  C   UNL A   1      39.527  23.244  26.235  1.00  0.00     0.014 A 
ATOM     28  C   UNL A   1      41.509  23.598  28.161  1.00  0.00     0.010 A 
ATOM     29  C   UNL A   1      40.009  24.522  26.508  1.00  0.00     0.010 A 
ATOM     30  C   UNL A   1      41.007  24.715  27.474  1.00  0.00    -0.014 A 
BRANCH  30  31
ATOM     31  C   UNL A   1      41.507  26.090  27.744  1.00  0.00     0.031 A 
ATOM     32  C   UNL A   1      42.893  26.488  27.310  1.00  0.00     0.074 A 
ATOM     33  C   UNL A   1      40.745  26.953  28.446  1.00  0.00     0.049 A 
ATOM     34  N   UNL A   1      43.548  27.595  27.544  1.00  0.00    -0.248 NA
ATOM     35  C   UNL A   1      43.654  25.494  26.537  1.00  0.00     0.031 C 
ATOM     36  C   UNL A   1      39.400  26.673  28.955  1.00  0.00     0.029 A 
ATOM     37  N   UNL A   1      40.992  28.238  28.864  1.00  0.00    -0.354 N 
ATOM     38  C   UNL A   1      44.801  27.427  26.962  1.00  0.00     0.074 A 
ATOM     39  C   UNL A   1      44.833  26.084  26.423  1.00  0.00     0.031 C 
ATOM     40  C   UNL A   1      38.932  27.759  29.590  1.00  0.00     0.029 A 
ATOM     41  C   UNL A   1      39.961  28.793  29.588  1.00  0.00     0.049 A 
ATOM     42  H   UNL A   1      41.828  28.716  28.664  1.00  0.00     0.167 HD
ATOM     43  C   UNL A   1      45.820  28.316  26.866  1.00  0.00     0.034 A 
ATOM     44  C   UNL A   1      39.862  29.990  30.200  1.00  0.00     0.034 A 
ATOM     45  C   UNL A   1      45.766  29.656  27.401  1.00  0.00     0.049 A 
ATOM     46  C   UNL A   1      41.025  30.948  30.113  1.00  0.00     0.074 A 
ATOM     47  C   UNL A   1      46.718  30.656  27.311  1.00  0.00     0.029 A 
ATOM     48  N   UNL A   1      44.709  30.179  28.133  1.00  0.00    -0.354 N 
ATOM     49  N   UNL A   1      42.183  30.790  29.514  1.00  0.00    -0.248 NA
ATOM     50  C   UNL A   1      40.862  32.248  30.777  1.00  0.00     0.031 C 
ATOM     51  C   UNL A   1      46.272  31.754  28.054  1.00  0.00     0.029 A 
ATOM     52  C   UNL A   1      45.002  31.474  28.533  1.00  0.00     0.049 A 
ATOM     53  H   UNL A   1      43.873  29.702  28.338  1.00  0.00     0.167 HD
ATOM     54  C   UNL A   1      42.874  31.984  29.705  1.00  0.00     0.074 A 
ATOM     55  C   UNL A   1      41.994  32.856  30.455  1.00  0.00     0.031 C 
ATOM     56  C   UNL A   1      44.121  32.331  29.293  1.00  0.00     0.034 A 
BRANCH  43  57
ATOM     57  C   UNL A   1      47.086  27.856  26.181  1.00  0.00     0.023 A 
ATOM     58  C   UNL A   1      47.312  28.085  24.812  1.00  0.00     0.031 A 
ATOM     59  C   UNL A   1      48.074  27.162  26.901  1.00  0.00     0.131 A 
ATOM     60  C   UNL A   1      48.457  27.561  24.192  1.00  0.00     0.055 A 
ATOM     61  C   UNL A   1      49.252  26.717  26.296  1.00  0.00     0.041 A 
ATOM     62  F   UNL A   1      47.907  26.891  28.205  1.00  0.00    -0.206 F 
ATOM     63  C   UNL A   1      49.442  26.903  24.930  1.00  0.00     0.022 A 
BRANCH  60  64
ATOM     64  S   UNL A   1      48.566  27.623  22.383  1.00  0.00     0.124 S 
ATOM     65  O   UNL A   1      47.328  28.316  22.037  1.00  0.00    -0.237 OA
ATOM     66  O   UNL A   1      49.798  28.371  22.166  1.00  0.00    -0.237 OA
ATOM     67  O   UNL A   1      48.613  26.215  21.994  1.00  0.00    -0.744 OA
ENDBRANCH  60  64
ENDBRANCH  43  57
BRANCH  44  68
ATOM     68  C   UNL A   1      38.633  30.353  30.966  1.00  0.00     0.023 A 
ATOM     69  C   UNL A   1      37.582  31.058  30.358  1.00  0.00     0.031 A 
ATOM     70  C   UNL A   1      38.513  30.045  32.333  1.00  0.00     0.131 A 
ATOM     71  C   UNL A   1      36.484  31.477  31.124  1.00  0.00     0.055 A 
ATOM     72  C   UNL A   1      37.390  30.411  33.077  1.00  0.00     0.041 A 
ATOM     73  F   UNL A   1      39.486  29.371  32.967  1.00  0.00    -0.206 F 
ATOM     74  C   UNL A   1      36.373  31.145  32.476  1.00  0.00     0.022 A 
BRANCH  71  75
ATOM     75  S   UNL A   1      35.245  32.552  30.349  1.00  0.00     0.124 S 
ATOM     76  O   UNL A   1      34.278  32.716  31.427  1.00  0.00    -0.237 OA
ATOM     77  O   UNL A   1      36.036  33.731  30.011  1.00  0.00    -0.237 OA
ATOM     78  O   UNL A   1      34.782  31.767  29.206  1.00  0.00    -0.744 OA
ENDBRANCH  71  75
ENDBRANCH  44  68
BRANCH  56  79
ATOM     79  C   UNL A   1      44.585  33.732  29.612  1.00  0.00     0.023 A 
ATOM     80  C   UNL A   1      44.324  34.813  28.753  1.00  0.00     0.031 A 
ATOM     81  C   UNL A   1      45.311  33.985  30.790  1.00  0.00     0.131 A 
ATOM     82  C   UNL A   1      44.837  36.085  29.053  1.00  0.00     0.055 A 
ATOM     83  C   UNL A   1      45.759  35.265  31.117  1.00  0.00     0.041 A 
ATOM     84  F   UNL A   1      45.594  32.990  31.646  1.00  0.00    -0.206 F 
ATOM     85  C   UNL A   1      45.535  36.322  30.240  1.00  0.00     0.022 A 
BRANCH  82  86
ATOM     86  S   UNL A   1      44.668  37.404  27.821  1.00  0.00     0.124 S 
ATOM     87  O   UNL A   1      43.242  37.358  27.521  1.00  0.00    -0.237 OA
ATOM     88  O   UNL A   1      45.128  38.579  28.554  1.00  0.00    -0.237 OA
ATOM     89  O   UNL A   1      45.544  36.971  26.733  1.00  0.00    -0.744 OA
ENDBRANCH  82  86
ENDBRANCH  56  79
ENDBRANCH  30  31
ENDBRANCH  22  25
ENDBRANCH  20  21
ENDBRANCH   1  20
TORSDOF 17
ENDMDL
MODEL 2
REMARK VINA RESULT:     -11.3      2.394      8.775
REMARK SMILES CC(C)Cc1ccc([C@H](CF)C(=O)NCCCNC(=O)c2ccc(-c3c4nc(c(-c5cc(S(=O)(=O)[O-])ccc5F)c5ccc([nH]5)c(-c5cc(S(=O)(=O)[O-])ccc5F)c5nc(c(-c6cc(S(=O)(=O)[O-])ccc6F)c6ccc3[nH]6)C=C5)C=C4)cc2)cc1
REMARK SMILES IDX 16 1 15 2 14 3 12 4 13 5 9 7 8 8 5 9 6 10 85 11 7 12 84 13
REMARK SMILES IDX 4 14 2 15 1 16 3 17 10 18 11 19 17 20 18 21 19 22 20 24
REMARK SMILES IDX 21 25 22 26 83 27 23 28 82 29 24 30 25 31 26 32 76 33 27 34
REMARK SMILES IDX 81 35 75 36 77 37 28 38 80 39 74 40 73 41 29 43 61 44 41 45
REMARK SMILES IDX 60 46 42 47 45 48 59 49 78 50 43 51 44 52 58 54 79 55 46 56
REMARK SMILES IDX 30 57 31 58 39 59 32 60 38 61 40 62 37 63 33 64 34 65 35 66
REMARK SMILES IDX 36 67 62 68 63 69 71 70 64 71 70 72 72 73 69 74 65 75 66 76
REMARK SMILES IDX 67 77 68 78 47 79 48 80 56 81 49 82 55 83 57 84 54 85 50 86
REMARK SMILES IDX 51 87 52 88 53 89
REMARK H PARENT 14 6 18 23 77 42 45 53
REMARK Flexibility Score: inf
ROOT
ATOM      1  C   UNL A   1      35.787  22.944  24.324  1.00  0.00     0.042 C 
ENDROOT
BRANCH   1   2
ATOM      2  C   UNL A   1      34.318  23.067  23.960  1.00  0.00     0.117 C 
BRANCH   2   3
ATOM      3  N   UNL A   1      34.062  23.907  22.803  1.00  0.00    -0.355 N 
ATOM      4  C   UNL A   1      33.554  25.172  22.714  1.00  0.00     0.230 C 
ATOM      5  O   UNL A   1      33.646  25.728  21.613  1.00  0.00    -0.274 OA
ATOM      6  H   UNL A   1      34.293  23.496  21.939  1.00  0.00     0.163 HD
BRANCH   4   7
ATOM      7  C   UNL A   1      32.886  25.899  23.889  1.00  0.00     0.139 C 
BRANCH   7   8
ATOM      8  C   UNL A   1      31.639  26.670  23.476  1.00  0.00    -0.033 A 
ATOM      9  C   UNL A   1      29.340  28.270  22.994  1.00  0.00    -0.048 A 
ATOM     10  C   UNL A   1      30.619  28.709  22.616  1.00  0.00     0.004 A 
ATOM     11  C   UNL A   1      29.235  27.002  23.557  1.00  0.00     0.004 A 
ATOM     12  C   UNL A   1      31.755  27.925  22.863  1.00  0.00     0.005 A 
ATOM     13  C   UNL A   1      30.353  26.196  23.746  1.00  0.00     0.005 A 
BRANCH   9  14
ATOM     14  C   UNL A   1      28.150  29.195  22.843  1.00  0.00     0.038 C 
BRANCH  14  15
ATOM     15  C   UNL A   1      28.433  30.688  22.533  1.00  0.00    -0.013 C 
ATOM     16  C   UNL A   1      28.057  31.104  21.100  1.00  0.00     0.008 C 
ATOM     17  C   UNL A   1      27.651  31.574  23.507  1.00  0.00     0.008 C 
ENDBRANCH  14  15
ENDBRANCH   9  14
ENDBRANCH   7   8
BRANCH   7  18
ATOM     18  C   UNL A   1      33.929  26.685  24.678  1.00  0.00     0.232 C 
ATOM     19  F   UNL A   1      34.428  25.900  25.673  1.00  0.00    -0.250 F 
ENDBRANCH   7  18
ENDBRANCH   4   7
ENDBRANCH   2   3
ENDBRANCH   1   2
BRANCH   1  20
ATOM     20  C   UNL A   1      36.045  22.261  25.655  1.00  0.00     0.118 C 
BRANCH  20  21
ATOM     21  N   UNL A   1      37.053  21.213  25.569  1.00  0.00    -0.352 N 
ATOM     22  C   UNL A   1      38.417  21.256  25.760  1.00  0.00     0.251 C 
ATOM     23  H   UNL A   1      36.701  20.325  25.334  1.00  0.00     0.163 HD
ATOM     24  O   UNL A   1      39.092  20.281  25.449  1.00  0.00    -0.269 OA
BRANCH  22  25
ATOM     25  C   UNL A   1      39.070  22.475  26.295  1.00  0.00     0.039 A 
ATOM     26  C   UNL A   1      40.210  22.338  27.092  1.00  0.00     0.014 A 
ATOM     27  C   UNL A   1      38.566  23.748  26.025  1.00  0.00     0.014 A 
ATOM     28  C   UNL A   1      40.892  23.476  27.533  1.00  0.00     0.010 A 
ATOM     29  C   UNL A   1      39.303  24.876  26.373  1.00  0.00     0.010 A 
ATOM     30  C   UNL A   1      40.476  24.755  27.130  1.00  0.00    -0.014 A 
BRANCH  30  31
ATOM     31  C   UNL A   1      41.247  25.977  27.486  1.00  0.00     0.031 A 
ATOM     32  C   UNL A   1      40.600  27.068  28.298  1.00  0.00     0.074 A 
ATOM     33  C   UNL A   1      42.501  26.137  27.016  1.00  0.00     0.049 A 
ATOM     34  N   UNL A   1      41.065  28.248  28.619  1.00  0.00    -0.248 NA
ATOM     35  C   UNL A   1      39.236  26.810  28.785  1.00  0.00     0.031 C 
ATOM     36  C   UNL A   1      43.224  25.169  26.188  1.00  0.00     0.029 A 
ATOM     37  N   UNL A   1      43.388  27.176  27.155  1.00  0.00    -0.354 N 
ATOM     38  C   UNL A   1      40.048  28.877  29.331  1.00  0.00     0.074 A 
ATOM     39  C   UNL A   1      38.920  27.971  29.335  1.00  0.00     0.031 C 
ATOM     40  C   UNL A   1      44.449  25.646  25.917  1.00  0.00     0.029 A 
ATOM     41  C   UNL A   1      44.582  26.977  26.499  1.00  0.00     0.049 A 
ATOM     42  H   UNL A   1      43.189  27.987  27.675  1.00  0.00     0.167 HD
ATOM     43  C   UNL A   1      40.062  30.087  29.943  1.00  0.00     0.034 A 
ATOM     44  C   UNL A   1      45.655  27.782  26.363  1.00  0.00     0.034 A 
ATOM     45  C   UNL A   1      41.201  30.973  29.938  1.00  0.00     0.049 A 
ATOM     46  C   UNL A   1      45.632  29.140  27.019  1.00  0.00     0.074 A 
ATOM     47  C   UNL A   1      41.343  32.195  30.572  1.00  0.00     0.029 A 
ATOM     48  N   UNL A   1      42.389  30.740  29.257  1.00  0.00    -0.354 N 
ATOM     49  N   UNL A   1      44.680  29.697  27.732  1.00  0.00    -0.248 NA
ATOM     50  C   UNL A   1      46.831  29.972  26.861  1.00  0.00     0.031 C 
ATOM     51  C   UNL A   1      42.582  32.735  30.212  1.00  0.00     0.029 A 
ATOM     52  C   UNL A   1      43.252  31.812  29.426  1.00  0.00     0.049 A 
ATOM     53  H   UNL A   1      42.590  29.932  28.732  1.00  0.00     0.167 HD
ATOM     54  C   UNL A   1      45.180  30.934  28.132  1.00  0.00     0.074 A 
ATOM     55  C   UNL A   1      46.523  31.029  27.598  1.00  0.00     0.031 C 
ATOM     56  C   UNL A   1      44.586  31.902  28.877  1.00  0.00     0.034 A 
BRANCH  43  57
ATOM     57  C   UNL A   1      38.799  30.528  30.645  1.00  0.00     0.023 A 
ATOM     58  C   UNL A   1      37.753  31.169  29.955  1.00  0.00     0.031 A 
ATOM     59  C   UNL A   1      38.643  30.324  32.028  1.00  0.00     0.131 A 
ATOM     60  C   UNL A   1      36.638  31.647  30.658  1.00  0.00     0.055 A 
ATOM     61  C   UNL A   1      37.491  30.726  32.707  1.00  0.00     0.041 A 
ATOM     62  F   UNL A   1      39.614  29.740  32.746  1.00  0.00    -0.206 F 
ATOM     63  C   UNL A   1      36.486  31.406  32.025  1.00  0.00     0.022 A 
BRANCH  60  64
ATOM     64  S   UNL A   1      35.461  32.718  29.788  1.00  0.00     0.124 S 
ATOM     65  O   UNL A   1      34.330  32.725  30.714  1.00  0.00    -0.237 OA
ATOM     66  O   UNL A   1      36.199  33.969  29.672  1.00  0.00    -0.237 OA
ATOM     67  O   UNL A   1      35.222  32.014  28.529  1.00  0.00    -0.744 OA
ENDBRANCH  60  64
ENDBRANCH  43  57
BRANCH  44  68
ATOM     68  C   UNL A   1      46.835  27.345  25.559  1.00  0.00     0.023 A 
ATOM     69  C   UNL A   1      47.043  27.827  24.257  1.00  0.00     0.031 A 
ATOM     70  C   UNL A   1      47.746  26.398  26.062  1.00  0.00     0.131 A 
ATOM     71  C   UNL A   1      48.101  27.323  23.484  1.00  0.00     0.055 A 
ATOM     72  C   UNL A   1      48.832  25.946  25.311  1.00  0.00     0.041 A 
ATOM     73  F   UNL A   1      47.597  25.904  27.302  1.00  0.00    -0.206 F 
ATOM     74  C   UNL A   1      49.006  26.398  24.007  1.00  0.00     0.022 A 
BRANCH  71  75
ATOM     75  S   UNL A   1      48.218  27.823  21.744  1.00  0.00     0.124 S 
ATOM     76  O   UNL A   1      48.277  26.533  21.068  1.00  0.00    -0.237 OA
ATOM     77  O   UNL A   1      46.989  28.587  21.565  1.00  0.00    -0.237 OA
ATOM     78  O   UNL A   1      49.450  28.609  21.699  1.00  0.00    -0.744 OA
ENDBRANCH  71  75
ENDBRANCH  44  68
BRANCH  56  79
ATOM     79  C   UNL A   1      45.408  33.128  29.192  1.00  0.00     0.023 A 
ATOM     80  C   UNL A   1      45.408  34.256  28.354  1.00  0.00     0.031 A 
ATOM     81  C   UNL A   1      46.213  33.162  30.345  1.00  0.00     0.131 A 
ATOM     82  C   UNL A   1      46.244  35.346  28.647  1.00  0.00     0.055 A 
ATOM     83  C   UNL A   1      46.989  34.276  30.668  1.00  0.00     0.041 A 
ATOM     84  F   UNL A   1      46.256  32.112  31.180  1.00  0.00    -0.206 F 
ATOM     85  C   UNL A   1      47.018  35.371  29.810  1.00  0.00     0.022 A 
BRANCH  82  86
ATOM     86  S   UNL A   1      46.383  36.687  27.435  1.00  0.00     0.124 S 
ATOM     87  O   UNL A   1      47.022  37.738  28.218  1.00  0.00    -0.237 OA
ATOM     88  O   UNL A   1      47.203  36.082  26.390  1.00  0.00    -0.237 OA
ATOM     89  O   UNL A   1      44.995  36.952  27.057  1.00  0.00    -0.744 OA
ENDBRANCH  82  86
ENDBRANCH  56  79
ENDBRANCH  30  31
ENDBRANCH  22  25
ENDBRANCH  20  21
ENDBRANCH   1  20
TORSDOF 17
ENDMDL
MODEL 3
REMARK VINA RESULT:     -11.3      3.624      6.449
REMARK SMILES CC(C)Cc1ccc([C@H](CF)C(=O)NCCCNC(=O)c2ccc(-c3c4nc(c(-c5cc(S(=O)(=O)[O-])ccc5F)c5ccc([nH]5)c(-c5cc(S(=O)(=O)[O-])ccc5F)c5nc(c(-c6cc(S(=O)(=O)[O-])ccc6F)c6ccc3[nH]6)C=C5)C=C4)cc2)cc1
REMARK SMILES IDX 16 1 15 2 14 3 12 4 13 5 9 7 8 8 5 9 6 10 85 11 7 12 84 13
REMARK SMILES IDX 4 14 2 15 1 16 3 17 10 18 11 19 17 20 18 21 19 22 20 24
REMARK SMILES IDX 21 25 22 26 83 27 23 28 82 29 24 30 25 31 26 32 76 33 27 34
REMARK SMILES IDX 81 35 75 36 77 37 28 38 80 39 74 40 73 41 29 43 61 44 41 45
REMARK SMILES IDX 60 46 42 47 45 48 59 49 78 50 43 51 44 52 58 54 79 55 46 56
REMARK SMILES IDX 30 57 31 58 39 59 32 60 38 61 40 62 37 63 33 64 34 65 35 66
REMARK SMILES IDX 36 67 62 68 63 69 71 70 64 71 70 72 72 73 69 74 65 75 66 76
REMARK SMILES IDX 67 77 68 78 47 79 48 80 56 81 49 82 55 83 57 84 54 85 50 86
REMARK SMILES IDX 51 87 52 88 53 89
REMARK H PARENT 14 6 18 23 77 42 45 53
REMARK Flexibility Score: inf
ROOT
ATOM      1  C   UNL A   1      42.483  19.729  26.849  1.00  0.00     0.042 C 
ENDROOT
BRANCH   1   2
ATOM      2  C   UNL A   1      43.158  20.364  25.645  1.00  0.00     0.117 C 
BRANCH   2   3
ATOM      3  N   UNL A   1      44.525  19.924  25.433  1.00  0.00    -0.355 N 
ATOM      4  C   UNL A   1      45.678  20.640  25.274  1.00  0.00     0.230 C 
ATOM      5  O   UNL A   1      46.736  20.002  25.325  1.00  0.00    -0.274 OA
ATOM      6  H   UNL A   1      44.642  18.948  25.398  1.00  0.00     0.163 HD
BRANCH   4   7
ATOM      7  C   UNL A   1      45.704  22.155  25.031  1.00  0.00     0.139 C 
BRANCH   7   8
ATOM      8  C   UNL A   1      45.548  22.963  26.313  1.00  0.00    -0.033 A 
ATOM      9  C   UNL A   1      45.433  24.231  28.854  1.00  0.00    -0.048 A 
ATOM     10  C   UNL A   1      46.491  24.483  27.967  1.00  0.00     0.004 A 
ATOM     11  C   UNL A   1      44.416  23.386  28.419  1.00  0.00     0.004 A 
ATOM     12  C   UNL A   1      46.554  23.850  26.717  1.00  0.00     0.005 A 
ATOM     13  C   UNL A   1      44.444  22.806  27.155  1.00  0.00     0.005 A 
BRANCH   9  14
ATOM     14  C   UNL A   1      45.462  24.819  30.249  1.00  0.00     0.038 C 
BRANCH  14  15
ATOM     15  C   UNL A   1      46.051  26.244  30.418  1.00  0.00    -0.013 C 
ATOM     16  C   UNL A   1      45.041  27.269  30.961  1.00  0.00     0.008 C 
ATOM     17  C   UNL A   1      47.245  26.197  31.377  1.00  0.00     0.008 C 
ENDBRANCH  14  15
ENDBRANCH   9  14
ENDBRANCH   7   8
BRANCH   7  18
ATOM     18  C   UNL A   1      44.756  22.518  23.891  1.00  0.00     0.232 C 
ATOM     19  F   UNL A   1      44.145  23.702  24.172  1.00  0.00    -0.250 F 
ENDBRANCH   7  18
ENDBRANCH   4   7
ENDBRANCH   2   3
ENDBRANCH   1   2
BRANCH   1  20
ATOM     20  C   UNL A   1      41.359  20.560  27.443  1.00  0.00     0.118 C 
BRANCH  20  21
ATOM     21  N   UNL A   1      40.205  20.665  26.561  1.00  0.00    -0.352 N 
ATOM     22  C   UNL A   1      39.387  21.735  26.269  1.00  0.00     0.251 C 
ATOM     23  H   UNL A   1      39.969  19.831  26.095  1.00  0.00     0.163 HD
ATOM     24  O   UNL A   1      38.357  21.540  25.634  1.00  0.00    -0.269 OA
BRANCH  22  25
ATOM     25  C   UNL A   1      39.721  23.098  26.747  1.00  0.00     0.039 A 
ATOM     26  C   UNL A   1      40.557  23.240  27.858  1.00  0.00     0.014 A 
ATOM     27  C   UNL A   1      39.213  24.234  26.116  1.00  0.00     0.014 A 
ATOM     28  C   UNL A   1      40.955  24.515  28.271  1.00  0.00     0.010 A 
ATOM     29  C   UNL A   1      39.694  25.495  26.459  1.00  0.00     0.010 A 
ATOM     30  C   UNL A   1      40.572  25.651  27.541  1.00  0.00    -0.014 A 
BRANCH  30  31
ATOM     31  C   UNL A   1      41.074  27.009  27.885  1.00  0.00     0.031 A 
ATOM     32  C   UNL A   1      42.505  27.379  27.600  1.00  0.00     0.074 A 
ATOM     33  C   UNL A   1      40.265  27.880  28.522  1.00  0.00     0.049 A 
ATOM     34  N   UNL A   1      43.159  28.467  27.919  1.00  0.00    -0.248 NA
ATOM     35  C   UNL A   1      43.318  26.379  26.890  1.00  0.00     0.031 C 
ATOM     36  C   UNL A   1      38.869  27.625  28.888  1.00  0.00     0.029 A 
ATOM     37  N   UNL A   1      40.498  29.151  28.987  1.00  0.00    -0.354 N 
ATOM     38  C   UNL A   1      44.460  28.276  27.463  1.00  0.00     0.074 A 
ATOM     39  C   UNL A   1      44.516  26.942  26.906  1.00  0.00     0.031 C 
ATOM     40  C   UNL A   1      38.365  28.712  29.493  1.00  0.00     0.029 A 
ATOM     41  C   UNL A   1      39.413  29.721  29.613  1.00  0.00     0.049 A 
ATOM     42  H   UNL A   1      41.361  29.612  28.881  1.00  0.00     0.167 HD
ATOM     43  C   UNL A   1      45.504  29.141  27.486  1.00  0.00     0.034 A 
ATOM     44  C   UNL A   1      39.280  30.910  30.233  1.00  0.00     0.034 A 
ATOM     45  C   UNL A   1      45.427  30.473  28.037  1.00  0.00     0.049 A 
ATOM     46  C   UNL A   1      40.467  31.840  30.282  1.00  0.00     0.074 A 
ATOM     47  C   UNL A   1      46.406  31.452  28.062  1.00  0.00     0.029 A 
ATOM     48  N   UNL A   1      44.313  31.011  28.669  1.00  0.00    -0.354 N 
ATOM     49  N   UNL A   1      41.675  31.663  29.800  1.00  0.00    -0.248 NA
ATOM     50  C   UNL A   1      40.268  33.133  30.949  1.00  0.00     0.031 C 
ATOM     51  C   UNL A   1      45.912  32.548  28.776  1.00  0.00     0.029 A 
ATOM     52  C   UNL A   1      44.595  32.292  29.120  1.00  0.00     0.049 A 
ATOM     53  H   UNL A   1      43.451  30.551  28.780  1.00  0.00     0.167 HD
ATOM     54  C   UNL A   1      42.371  32.836  30.080  1.00  0.00     0.074 A 
ATOM     55  C   UNL A   1      41.440  33.718  30.754  1.00  0.00     0.031 C 
ATOM     56  C   UNL A   1      43.661  33.159  29.803  1.00  0.00     0.034 A 
BRANCH  43  57
ATOM     57  C   UNL A   1      46.822  28.661  26.924  1.00  0.00     0.023 A 
ATOM     58  C   UNL A   1      47.007  28.453  25.545  1.00  0.00     0.031 A 
ATOM     59  C   UNL A   1      47.905  28.389  27.779  1.00  0.00     0.131 A 
ATOM     60  C   UNL A   1      48.214  27.919  25.072  1.00  0.00     0.055 A 
ATOM     61  C   UNL A   1      49.133  27.937  27.292  1.00  0.00     0.041 A 
ATOM     62  F   UNL A   1      47.784  28.545  29.106  1.00  0.00    -0.206 F 
ATOM     63  C   UNL A   1      49.289  27.685  25.932  1.00  0.00     0.022 A 
BRANCH  60  64
ATOM     64  S   UNL A   1      48.307  27.393  23.339  1.00  0.00     0.124 S 
ATOM     65  O   UNL A   1      47.165  28.095  22.756  1.00  0.00    -0.237 OA
ATOM     66  O   UNL A   1      49.624  27.869  22.934  1.00  0.00    -0.237 OA
ATOM     67  O   UNL A   1      48.163  25.940  23.413  1.00  0.00    -0.744 OA
ENDBRANCH  60  64
ENDBRANCH  43  57
BRANCH  44  68
ATOM     68  C   UNL A   1      37.988  31.291  30.878  1.00  0.00     0.023 A 
ATOM     69  C   UNL A   1      36.992  31.970  30.159  1.00  0.00     0.031 A 
ATOM     70  C   UNL A   1      37.751  31.027  32.239  1.00  0.00     0.131 A 
ATOM     71  C   UNL A   1      35.830  32.408  30.813  1.00  0.00     0.055 A 
ATOM     72  C   UNL A   1      36.567  31.411  32.872  1.00  0.00     0.041 A 
ATOM     73  F   UNL A   1      38.668  30.379  32.977  1.00  0.00    -0.206 F 
ATOM     74  C   UNL A   1      35.604  32.120  32.161  1.00  0.00     0.022 A 
BRANCH  71  75
ATOM     75  S   UNL A   1      34.661  33.451  29.900  1.00  0.00     0.124 S 
ATOM     76  O   UNL A   1      33.905  34.069  30.982  1.00  0.00    -0.237 OA
ATOM     77  O   UNL A   1      35.556  34.331  29.157  1.00  0.00    -0.237 OA
ATOM     78  O   UNL A   1      33.916  32.492  29.085  1.00  0.00    -0.744 OA
ENDBRANCH  71  75
ENDBRANCH  44  68
BRANCH  56  79
ATOM     79  C   UNL A   1      44.122  34.542  30.192  1.00  0.00     0.023 A 
ATOM     80  C   UNL A   1      43.975  35.643  29.331  1.00  0.00     0.031 A 
ATOM     81  C   UNL A   1      44.731  34.759  31.442  1.00  0.00     0.131 A 
ATOM     82  C   UNL A   1      44.485  36.897  29.704  1.00  0.00     0.055 A 
ATOM     83  C   UNL A   1      45.173  36.022  31.836  1.00  0.00     0.041 A 
ATOM     84  F   UNL A   1      44.902  33.744  32.304  1.00  0.00    -0.206 F 
ATOM     85  C   UNL A   1      45.064  37.097  30.960  1.00  0.00     0.022 A 
BRANCH  82  86
ATOM     86  S   UNL A   1      44.473  38.239  28.485  1.00  0.00     0.124 S 
ATOM     87  O   UNL A   1      45.893  38.403  28.200  1.00  0.00    -0.237 OA
ATOM     88  O   UNL A   1      43.667  37.676  27.407  1.00  0.00    -0.237 OA
ATOM     89  O   UNL A   1      43.853  39.350  29.205  1.00  0.00    -0.744 OA
ENDBRANCH  82  86
ENDBRANCH  56  79
ENDBRANCH  30  31
ENDBRANCH  22  25
ENDBRANCH  20  21
ENDBRANCH   1  20
TORSDOF 17
ENDMDL
