MODEL 1
REMARK VINA RESULT:     -11.2      0.000      0.000
REMARK SMILES C[C@@H](Nc1cccc(Cl)c1)[C@@H](C)C(=O)NCCCNC(=O)c1ccc(-c2c3nc(c(-c4cc(S(=O)(=O)[O-])ccc4F)c4ccc([nH]4)c(-c4cc(S(=O)(=O)[O-])ccc4F)c4nc(c(-c5cc(S(=O)(=O)[O-])ccc5F)c5ccc2[nH]5)C=C4)C=C3)cc1
REMARK SMILES IDX 17 1 16 2 15 3 13 4 14 5 11 7 12 8 2 9 1 10 3 11 4 13 5 14
REMARK SMILES IDX 10 15 6 16 8 17 7 18 9 19 18 20 19 21 20 22 21 24 22 25
REMARK SMILES IDX 23 26 84 27 24 28 83 29 25 30 26 31 27 32 77 33 28 34 82 35
REMARK SMILES IDX 76 36 78 37 29 38 81 39 75 40 74 41 30 43 62 44 42 45 61 46
REMARK SMILES IDX 43 47 46 48 60 49 79 50 44 51 45 52 59 54 80 55 47 56 31 57
REMARK SMILES IDX 32 58 40 59 33 60 39 61 41 62 38 63 34 64 35 65 36 66 37 67
REMARK SMILES IDX 63 68 64 69 72 70 65 71 71 72 73 73 70 74 66 75 67 76 68 77
REMARK SMILES IDX 69 78 48 79 49 80 57 81 50 82 56 83 58 84 55 85 51 86 52 87
REMARK SMILES IDX 53 88 54 89
REMARK H PARENT 15 6 3 12 19 23 78 42 46 53
REMARK Flexibility Score: inf
ROOT
ATOM      1  C   UNL A   1      31.370  32.371  26.513  1.00  0.00     0.042 C 
ENDROOT
BRANCH   1   2
ATOM      2  C   UNL A   1      31.361  30.940  25.981  1.00  0.00     0.117 C 
BRANCH   2   3
ATOM      3  N   UNL A   1      32.612  30.236  26.195  1.00  0.00    -0.356 N 
ATOM      4  C   UNL A   1      33.063  29.022  25.787  1.00  0.00     0.224 C 
ATOM      5  O   UNL A   1      34.263  28.796  25.984  1.00  0.00    -0.275 OA
ATOM      6  H   UNL A   1      33.259  30.736  26.743  1.00  0.00     0.163 HD
BRANCH   4   7
ATOM      7  C   UNL A   1      32.206  28.002  25.039  1.00  0.00     0.097 C 
ATOM      8  C   UNL A   1      32.514  26.640  25.682  1.00  0.00     0.020 C 
BRANCH   7   9
ATOM      9  C   UNL A   1      32.289  28.053  23.489  1.00  0.00     0.088 C 
ATOM     10  C   UNL A   1      33.178  26.921  22.934  1.00  0.00     0.031 C 
BRANCH   9  11
ATOM     11  N   UNL A   1      31.013  27.915  22.769  1.00  0.00    -0.382 N 
ATOM     12  H   UNL A   1      31.019  27.255  22.039  1.00  0.00     0.160 HD
BRANCH  11  13
ATOM     13  C   UNL A   1      29.813  28.560  22.952  1.00  0.00     0.036 A 
ATOM     14  C   UNL A   1      28.590  27.911  23.117  1.00  0.00     0.026 A 
ATOM     15  C   UNL A   1      29.805  29.961  22.917  1.00  0.00     0.046 A 
ATOM     16  C   UNL A   1      27.385  28.624  23.151  1.00  0.00     0.004 A 
ATOM     17  C   UNL A   1      28.609  30.677  22.970  1.00  0.00     0.043 A 
ATOM     18  C   UNL A   1      27.393  30.011  23.064  1.00  0.00     0.020 A 
ATOM     19  Cl  UNL A   1      28.641  32.396  22.888  1.00  0.00    -0.084 Cl
ENDBRANCH  11  13
ENDBRANCH   9  11
ENDBRANCH   7   9
ENDBRANCH   4   7
ENDBRANCH   2   3
ENDBRANCH   1   2
BRANCH   1  20
ATOM     20  C   UNL A   1      32.680  32.812  27.157  1.00  0.00     0.118 C 
BRANCH  20  21
ATOM     21  N   UNL A   1      32.613  34.156  27.708  1.00  0.00    -0.352 N 
ATOM     22  C   UNL A   1      33.277  34.731  28.764  1.00  0.00     0.251 C 
ATOM     23  H   UNL A   1      31.985  34.756  27.246  1.00  0.00     0.163 HD
ATOM     24  O   UNL A   1      32.890  35.820  29.178  1.00  0.00    -0.269 OA
BRANCH  22  25
ATOM     25  C   UNL A   1      34.423  34.055  29.417  1.00  0.00     0.039 A 
ATOM     26  C   UNL A   1      35.715  34.336  28.962  1.00  0.00     0.014 A 
ATOM     27  C   UNL A   1      34.240  33.112  30.432  1.00  0.00     0.014 A 
ATOM     28  C   UNL A   1      36.819  33.730  29.571  1.00  0.00     0.010 A 
ATOM     29  C   UNL A   1      35.342  32.575  31.095  1.00  0.00     0.010 A 
ATOM     30  C   UNL A   1      36.645  32.874  30.671  1.00  0.00    -0.014 A 
BRANCH  30  31
ATOM     31  C   UNL A   1      37.811  32.282  31.383  1.00  0.00     0.031 A 
ATOM     32  C   UNL A   1      38.598  31.164  30.752  1.00  0.00     0.074 A 
ATOM     33  C   UNL A   1      38.122  32.709  32.623  1.00  0.00     0.049 A 
ATOM     34  N   UNL A   1      39.587  30.465  31.247  1.00  0.00    -0.248 NA
ATOM     35  C   UNL A   1      38.200  30.762  29.395  1.00  0.00     0.031 C 
ATOM     36  C   UNL A   1      37.414  33.761  33.356  1.00  0.00     0.029 A 
ATOM     37  N   UNL A   1      39.106  32.308  33.493  1.00  0.00    -0.354 N 
ATOM     38  C   UNL A   1      39.921  29.532  30.270  1.00  0.00     0.074 A 
ATOM     39  C   UNL A   1      38.985  29.717  29.181  1.00  0.00     0.031 C 
ATOM     40  C   UNL A   1      38.001  33.939  34.550  1.00  0.00     0.029 A 
ATOM     41  C   UNL A   1      39.093  32.982  34.693  1.00  0.00     0.049 A 
ATOM     42  H   UNL A   1      39.760  31.605  33.277  1.00  0.00     0.167 HD
ATOM     43  C   UNL A   1      40.928  28.623  30.270  1.00  0.00     0.034 A 
ATOM     44  C   UNL A   1      39.861  32.834  35.792  1.00  0.00     0.034 A 
ATOM     45  C   UNL A   1      41.859  28.458  31.361  1.00  0.00     0.049 A 
ATOM     46  C   UNL A   1      40.950  31.791  35.784  1.00  0.00     0.074 A 
ATOM     47  C   UNL A   1      42.946  27.604  31.446  1.00  0.00     0.029 A 
ATOM     48  N   UNL A   1      41.810  29.153  32.564  1.00  0.00    -0.354 N 
ATOM     49  N   UNL A   1      41.281  30.949  34.832  1.00  0.00    -0.248 NA
ATOM     50  C   UNL A   1      41.776  31.688  36.994  1.00  0.00     0.031 C 
ATOM     51  C   UNL A   1      43.507  27.730  32.720  1.00  0.00     0.029 A 
ATOM     52  C   UNL A   1      42.825  28.723  33.405  1.00  0.00     0.049 A 
ATOM     53  H   UNL A   1      41.151  29.850  32.785  1.00  0.00     0.167 HD
ATOM     54  C   UNL A   1      42.376  30.239  35.319  1.00  0.00     0.074 A 
ATOM     55  C   UNL A   1      42.656  30.763  36.640  1.00  0.00     0.031 C 
ATOM     56  C   UNL A   1      43.088  29.246  34.727  1.00  0.00     0.034 A 
BRANCH  43  57
ATOM     57  C   UNL A   1      41.053  27.720  29.064  1.00  0.00     0.023 A 
ATOM     58  C   UNL A   1      42.031  27.937  28.076  1.00  0.00     0.031 A 
ATOM     59  C   UNL A   1      40.168  26.642  28.883  1.00  0.00     0.131 A 
ATOM     60  C   UNL A   1      42.050  27.143  26.921  1.00  0.00     0.055 A 
ATOM     61  C   UNL A   1      40.248  25.801  27.772  1.00  0.00     0.041 A 
ATOM     62  F   UNL A   1      39.201  26.395  29.780  1.00  0.00    -0.206 F 
ATOM     63  C   UNL A   1      41.183  26.059  26.773  1.00  0.00     0.022 A 
BRANCH  60  64
ATOM     64  S   UNL A   1      43.122  27.643  25.545  1.00  0.00     0.124 S 
ATOM     65  O   UNL A   1      43.625  26.353  25.079  1.00  0.00    -0.237 OA
ATOM     66  O   UNL A   1      42.192  28.327  24.654  1.00  0.00    -0.237 OA
ATOM     67  O   UNL A   1      44.121  28.500  26.182  1.00  0.00    -0.744 OA
ENDBRANCH  60  64
ENDBRANCH  43  57
BRANCH  44  68
ATOM     68  C   UNL A   1      39.624  33.678  36.999  1.00  0.00     0.023 A 
ATOM     69  C   UNL A   1      38.962  33.162  38.124  1.00  0.00     0.031 A 
ATOM     70  C   UNL A   1      40.018  35.028  37.028  1.00  0.00     0.131 A 
ATOM     71  C   UNL A   1      38.668  34.000  39.211  1.00  0.00     0.055 A 
ATOM     72  C   UNL A   1      39.774  35.844  38.135  1.00  0.00     0.041 A 
ATOM     73  F   UNL A   1      40.658  35.573  35.982  1.00  0.00    -0.206 F 
ATOM     74  C   UNL A   1      39.082  35.334  39.230  1.00  0.00     0.022 A 
BRANCH  71  75
ATOM     75  S   UNL A   1      37.653  33.346  40.563  1.00  0.00     0.124 S 
ATOM     76  O   UNL A   1      36.451  32.924  39.854  1.00  0.00    -0.237 OA
ATOM     77  O   UNL A   1      38.498  32.279  41.087  1.00  0.00    -0.237 OA
ATOM     78  O   UNL A   1      37.485  34.496  41.448  1.00  0.00    -0.744 OA
ENDBRANCH  71  75
ENDBRANCH  44  68
BRANCH  56  79
ATOM     79  C   UNL A   1      44.271  28.699  35.489  1.00  0.00     0.023 A 
ATOM     80  C   UNL A   1      44.136  27.655  36.420  1.00  0.00     0.031 A 
ATOM     81  C   UNL A   1      45.553  29.243  35.289  1.00  0.00     0.131 A 
ATOM     82  C   UNL A   1      45.251  27.226  37.158  1.00  0.00     0.055 A 
ATOM     83  C   UNL A   1      46.670  28.768  35.977  1.00  0.00     0.041 A 
ATOM     84  F   UNL A   1      45.742  30.245  34.414  1.00  0.00    -0.206 F 
ATOM     85  C   UNL A   1      46.520  27.763  36.928  1.00  0.00     0.022 A 
BRANCH  82  86
ATOM     86  S   UNL A   1      45.003  26.024  38.493  1.00  0.00     0.124 S 
ATOM     87  O   UNL A   1      44.108  25.056  37.867  1.00  0.00    -0.237 OA
ATOM     88  O   UNL A   1      46.362  25.561  38.754  1.00  0.00    -0.237 OA
ATOM     89  O   UNL A   1      44.404  26.820  39.563  1.00  0.00    -0.744 OA
ENDBRANCH  82  86
ENDBRANCH  56  79
ENDBRANCH  30  31
ENDBRANCH  22  25
ENDBRANCH  20  21
ENDBRANCH   1  20
TORSDOF 16
ENDMDL
MODEL 2
REMARK VINA RESULT:     -11.1      1.716      7.980
REMARK SMILES C[C@@H](Nc1cccc(Cl)c1)[C@@H](C)C(=O)NCCCNC(=O)c1ccc(-c2c3nc(c(-c4cc(S(=O)(=O)[O-])ccc4F)c4ccc([nH]4)c(-c4cc(S(=O)(=O)[O-])ccc4F)c4nc(c(-c5cc(S(=O)(=O)[O-])ccc5F)c5ccc2[nH]5)C=C4)C=C3)cc1
REMARK SMILES IDX 17 1 16 2 15 3 13 4 14 5 11 7 12 8 2 9 1 10 3 11 4 13 5 14
REMARK SMILES IDX 10 15 6 16 8 17 7 18 9 19 18 20 19 21 20 22 21 24 22 25
REMARK SMILES IDX 23 26 84 27 24 28 83 29 25 30 26 31 27 32 77 33 28 34 82 35
REMARK SMILES IDX 76 36 78 37 29 38 81 39 75 40 74 41 30 43 62 44 42 45 61 46
REMARK SMILES IDX 43 47 46 48 60 49 79 50 44 51 45 52 59 54 80 55 47 56 31 57
REMARK SMILES IDX 32 58 40 59 33 60 39 61 41 62 38 63 34 64 35 65 36 66 37 67
REMARK SMILES IDX 63 68 64 69 72 70 65 71 71 72 73 73 70 74 66 75 67 76 68 77
REMARK SMILES IDX 69 78 48 79 49 80 57 81 50 82 56 83 58 84 55 85 51 86 52 87
REMARK SMILES IDX 53 88 54 89
REMARK H PARENT 15 6 3 12 19 23 78 42 46 53
REMARK Flexibility Score: inf
ROOT
ATOM      1  C   UNL A   1      31.174  32.124  26.128  1.00  0.00     0.042 C 
ENDROOT
BRANCH   1   2
ATOM      2  C   UNL A   1      31.099  30.715  25.545  1.00  0.00     0.117 C 
BRANCH   2   3
ATOM      3  N   UNL A   1      32.398  30.083  25.394  1.00  0.00    -0.356 N 
ATOM      4  C   UNL A   1      32.781  28.886  24.880  1.00  0.00     0.224 C 
ATOM      5  O   UNL A   1      33.998  28.728  24.726  1.00  0.00    -0.275 OA
ATOM      6  H   UNL A   1      33.145  30.628  25.732  1.00  0.00     0.163 HD
BRANCH   4   7
ATOM      7  C   UNL A   1      31.806  27.806  24.415  1.00  0.00     0.097 C 
ATOM      8  C   UNL A   1      32.057  26.590  25.321  1.00  0.00     0.020 C 
BRANCH   7   9
ATOM      9  C   UNL A   1      31.788  27.521  22.889  1.00  0.00     0.088 C 
ATOM     10  C   UNL A   1      31.426  26.050  22.594  1.00  0.00     0.031 C 
BRANCH   9  11
ATOM     11  N   UNL A   1      30.832  28.309  22.095  1.00  0.00    -0.382 N 
ATOM     12  H   UNL A   1      31.009  28.322  21.127  1.00  0.00     0.160 HD
BRANCH  11  13
ATOM     13  C   UNL A   1      29.729  29.030  22.488  1.00  0.00     0.036 A 
ATOM     14  C   UNL A   1      28.547  28.462  22.958  1.00  0.00     0.026 A 
ATOM     15  C   UNL A   1      29.772  30.425  22.359  1.00  0.00     0.046 A 
ATOM     16  C   UNL A   1      27.410  29.241  23.203  1.00  0.00     0.004 A 
ATOM     17  C   UNL A   1      28.648  31.209  22.619  1.00  0.00     0.043 A 
ATOM     18  C   UNL A   1      27.456  30.618  23.021  1.00  0.00     0.020 A 
ATOM     19  Cl  UNL A   1      28.733  32.915  22.413  1.00  0.00    -0.084 Cl
ENDBRANCH  11  13
ENDBRANCH   9  11
ENDBRANCH   7   9
ENDBRANCH   4   7
ENDBRANCH   2   3
ENDBRANCH   1   2
BRANCH   1  20
ATOM     20  C   UNL A   1      32.216  32.315  27.224  1.00  0.00     0.118 C 
BRANCH  20  21
ATOM     21  N   UNL A   1      32.540  33.712  27.458  1.00  0.00    -0.352 N 
ATOM     22  C   UNL A   1      33.528  34.295  28.214  1.00  0.00     0.251 C 
ATOM     23  H   UNL A   1      31.951  34.350  26.995  1.00  0.00     0.163 HD
ATOM     24  O   UNL A   1      33.465  35.502  28.434  1.00  0.00    -0.269 OA
BRANCH  22  25
ATOM     25  C   UNL A   1      34.640  33.496  28.780  1.00  0.00     0.039 A 
ATOM     26  C   UNL A   1      35.954  33.886  28.505  1.00  0.00     0.014 A 
ATOM     27  C   UNL A   1      34.408  32.342  29.533  1.00  0.00     0.014 A 
ATOM     28  C   UNL A   1      37.025  33.165  29.042  1.00  0.00     0.010 A 
ATOM     29  C   UNL A   1      35.471  31.675  30.138  1.00  0.00     0.010 A 
ATOM     30  C   UNL A   1      36.793  32.075  29.897  1.00  0.00    -0.014 A 
BRANCH  30  31
ATOM     31  C   UNL A   1      37.919  31.345  30.543  1.00  0.00     0.031 A 
ATOM     32  C   UNL A   1      38.313  31.658  31.962  1.00  0.00     0.074 A 
ATOM     33  C   UNL A   1      38.625  30.444  29.830  1.00  0.00     0.049 A 
ATOM     34  N   UNL A   1      39.313  31.194  32.666  1.00  0.00    -0.248 NA
ATOM     35  C   UNL A   1      37.488  32.647  32.672  1.00  0.00     0.031 C 
ATOM     36  C   UNL A   1      38.364  30.078  28.436  1.00  0.00     0.029 A 
ATOM     37  N   UNL A   1      39.711  29.677  30.173  1.00  0.00    -0.354 N 
ATOM     38  C   UNL A   1      39.247  31.842  33.896  1.00  0.00     0.074 A 
ATOM     39  C   UNL A   1      38.145  32.777  33.814  1.00  0.00     0.031 C 
ATOM     40  C   UNL A   1      39.246  29.142  28.053  1.00  0.00     0.029 A 
ATOM     41  C   UNL A   1      40.170  28.877  29.151  1.00  0.00     0.049 A 
ATOM     42  H   UNL A   1      40.123  29.698  31.066  1.00  0.00     0.167 HD
ATOM     43  C   UNL A   1      40.018  31.658  34.997  1.00  0.00     0.034 A 
ATOM     44  C   UNL A   1      41.224  28.038  29.097  1.00  0.00     0.034 A 
ATOM     45  C   UNL A   1      41.108  30.713  35.064  1.00  0.00     0.049 A 
ATOM     46  C   UNL A   1      42.089  27.877  30.322  1.00  0.00     0.074 A 
ATOM     47  C   UNL A   1      41.920  30.409  36.144  1.00  0.00     0.029 A 
ATOM     48  N   UNL A   1      41.547  29.925  34.007  1.00  0.00    -0.354 N 
ATOM     49  N   UNL A   1      41.983  28.464  31.492  1.00  0.00    -0.248 NA
ATOM     50  C   UNL A   1      43.208  26.932  30.221  1.00  0.00     0.031 C 
ATOM     51  C   UNL A   1      42.891  29.496  35.721  1.00  0.00     0.029 A 
ATOM     52  C   UNL A   1      42.637  29.163  34.400  1.00  0.00     0.049 A 
ATOM     53  H   UNL A   1      41.142  29.910  33.110  1.00  0.00     0.167 HD
ATOM     54  C   UNL A   1      43.004  27.932  32.276  1.00  0.00     0.074 A 
ATOM     55  C   UNL A   1      43.701  26.968  31.450  1.00  0.00     0.031 C 
ATOM     56  C   UNL A   1      43.333  28.212  33.564  1.00  0.00     0.034 A 
BRANCH  43  57
ATOM     57  C   UNL A   1      39.723  32.517  36.206  1.00  0.00     0.023 A 
ATOM     58  C   UNL A   1      38.852  32.087  37.223  1.00  0.00     0.031 A 
ATOM     59  C   UNL A   1      40.300  33.793  36.334  1.00  0.00     0.131 A 
ATOM     60  C   UNL A   1      38.522  32.952  38.276  1.00  0.00     0.055 A 
ATOM     61  C   UNL A   1      40.035  34.615  37.430  1.00  0.00     0.041 A 
ATOM     62  F   UNL A   1      41.124  34.268  35.387  1.00  0.00    -0.206 F 
ATOM     63  C   UNL A   1      39.127  34.204  38.402  1.00  0.00     0.022 A 
BRANCH  60  64
ATOM     64  S   UNL A   1      37.173  32.479  39.394  1.00  0.00     0.124 S 
ATOM     65  O   UNL A   1      37.430  33.339  40.547  1.00  0.00    -0.237 OA
ATOM     66  O   UNL A   1      35.987  32.798  38.609  1.00  0.00    -0.237 OA
ATOM     67  O   UNL A   1      37.404  31.054  39.626  1.00  0.00    -0.744 OA
ENDBRANCH  60  64
ENDBRANCH  43  57
BRANCH  44  68
ATOM     68  C   UNL A   1      41.536  27.295  27.842  1.00  0.00     0.023 A 
ATOM     69  C   UNL A   1      41.331  25.910  27.751  1.00  0.00     0.031 A 
ATOM     70  C   UNL A   1      42.088  27.954  26.727  1.00  0.00     0.131 A 
ATOM     71  C   UNL A   1      41.719  25.218  26.593  1.00  0.00     0.055 A 
ATOM     72  C   UNL A   1      42.419  27.270  25.556  1.00  0.00     0.041 A 
ATOM     73  F   UNL A   1      42.302  29.278  26.757  1.00  0.00    -0.206 F 
ATOM     74  C   UNL A   1      42.248  25.891  25.489  1.00  0.00     0.022 A 
BRANCH  71  75
ATOM     75  S   UNL A   1      41.607  23.408  26.585  1.00  0.00     0.124 S 
ATOM     76  O   UNL A   1      40.181  23.200  26.358  1.00  0.00    -0.237 OA
ATOM     77  O   UNL A   1      42.491  23.055  25.480  1.00  0.00    -0.237 OA
ATOM     78  O   UNL A   1      42.090  23.032  27.912  1.00  0.00    -0.744 OA
ENDBRANCH  71  75
ENDBRANCH  44  68
BRANCH  56  79
ATOM     79  C   UNL A   1      44.470  27.425  34.170  1.00  0.00     0.023 A 
ATOM     80  C   UNL A   1      44.269  26.168  34.765  1.00  0.00     0.031 A 
ATOM     81  C   UNL A   1      45.775  27.951  34.162  1.00  0.00     0.131 A 
ATOM     82  C   UNL A   1      45.343  25.504  35.379  1.00  0.00     0.055 A 
ATOM     83  C   UNL A   1      46.851  27.256  34.716  1.00  0.00     0.041 A 
ATOM     84  F   UNL A   1      46.026  29.149  33.611  1.00  0.00    -0.206 F 
ATOM     85  C   UNL A   1      46.636  26.032  35.342  1.00  0.00     0.022 A 
BRANCH  82  86
ATOM     86  S   UNL A   1      45.009  23.987  36.315  1.00  0.00     0.124 S 
ATOM     87  O   UNL A   1      43.834  23.459  35.629  1.00  0.00    -0.237 OA
ATOM     88  O   UNL A   1      46.245  23.231  36.136  1.00  0.00    -0.237 OA
ATOM     89  O   UNL A   1      44.770  24.468  37.674  1.00  0.00    -0.744 OA
ENDBRANCH  82  86
ENDBRANCH  56  79
ENDBRANCH  30  31
ENDBRANCH  22  25
ENDBRANCH  20  21
ENDBRANCH   1  20
TORSDOF 16
ENDMDL
MODEL 3
REMARK VINA RESULT:     -11.1      6.791     12.234
REMARK SMILES C[C@@H](Nc1cccc(Cl)c1)[C@@H](C)C(=O)NCCCNC(=O)c1ccc(-c2c3nc(c(-c4cc(S(=O)(=O)[O-])ccc4F)c4ccc([nH]4)c(-c4cc(S(=O)(=O)[O-])ccc4F)c4nc(c(-c5cc(S(=O)(=O)[O-])ccc5F)c5ccc2[nH]5)C=C4)C=C3)cc1
REMARK SMILES IDX 17 1 16 2 15 3 13 4 14 5 11 7 12 8 2 9 1 10 3 11 4 13 5 14
REMARK SMILES IDX 10 15 6 16 8 17 7 18 9 19 18 20 19 21 20 22 21 24 22 25
REMARK SMILES IDX 23 26 84 27 24 28 83 29 25 30 26 31 27 32 77 33 28 34 82 35
REMARK SMILES IDX 76 36 78 37 29 38 81 39 75 40 74 41 30 43 62 44 42 45 61 46
REMARK SMILES IDX 43 47 46 48 60 49 79 50 44 51 45 52 59 54 80 55 47 56 31 57
REMARK SMILES IDX 32 58 40 59 33 60 39 61 41 62 38 63 34 64 35 65 36 66 37 67
REMARK SMILES IDX 63 68 64 69 72 70 65 71 71 72 73 73 70 74 66 75 67 76 68 77
REMARK SMILES IDX 69 78 48 79 49 80 57 81 50 82 56 83 58 84 55 85 51 86 52 87
REMARK SMILES IDX 53 88 54 89
REMARK H PARENT 15 6 3 12 19 23 78 42 46 53
REMARK Flexibility Score: inf
ROOT
ATOM      1  C   UNL A   1      38.186  19.668  24.961  1.00  0.00     0.042 C 
ENDROOT
BRANCH   1   2
ATOM      2  C   UNL A   1      36.886  20.468  25.011  1.00  0.00     0.117 C 
BRANCH   2   3
ATOM      3  N   UNL A   1      37.065  21.833  25.471  1.00  0.00    -0.356 N 
ATOM      4  C   UNL A   1      36.193  22.771  25.921  1.00  0.00     0.224 C 
ATOM      5  O   UNL A   1      36.698  23.784  26.421  1.00  0.00    -0.275 OA
ATOM      6  H   UNL A   1      38.001  22.138  25.452  1.00  0.00     0.163 HD
BRANCH   4   7
ATOM      7  C   UNL A   1      34.676  22.593  25.923  1.00  0.00     0.097 C 
ATOM      8  C   UNL A   1      34.084  24.007  25.812  1.00  0.00     0.020 C 
BRANCH   7   9
ATOM      9  C   UNL A   1      34.099  21.706  27.059  1.00  0.00     0.088 C 
ATOM     10  C   UNL A   1      33.015  22.454  27.864  1.00  0.00     0.031 C 
BRANCH   9  11
ATOM     11  N   UNL A   1      33.453  20.452  26.636  1.00  0.00    -0.382 N 
ATOM     12  H   UNL A   1      33.171  19.863  27.372  1.00  0.00     0.160 HD
BRANCH  11  13
ATOM     13  C   UNL A   1      33.181  19.972  25.377  1.00  0.00     0.036 A 
ATOM     14  C   UNL A   1      32.459  20.671  24.410  1.00  0.00     0.026 A 
ATOM     15  C   UNL A   1      33.607  18.676  25.058  1.00  0.00     0.046 A 
ATOM     16  C   UNL A   1      32.089  20.070  23.201  1.00  0.00     0.004 A 
ATOM     17  C   UNL A   1      33.257  18.079  23.847  1.00  0.00     0.043 A 
ATOM     18  C   UNL A   1      32.479  18.765  22.923  1.00  0.00     0.020 A 
ATOM     19  Cl  UNL A   1      33.772  16.471  23.510  1.00  0.00    -0.084 Cl
ENDBRANCH  11  13
ENDBRANCH   9  11
ENDBRANCH   7   9
ENDBRANCH   4   7
ENDBRANCH   2   3
ENDBRANCH   1   2
BRANCH   1  20
ATOM     20  C   UNL A   1      39.331  20.245  25.785  1.00  0.00     0.118 C 
BRANCH  20  21
ATOM     21  N   UNL A   1      40.392  19.282  26.028  1.00  0.00    -0.352 N 
ATOM     22  C   UNL A   1      41.734  19.459  26.267  1.00  0.00     0.251 C 
ATOM     23  H   UNL A   1      40.100  18.343  26.022  1.00  0.00     0.163 HD
ATOM     24  O   UNL A   1      42.472  18.479  26.224  1.00  0.00    -0.269 OA
BRANCH  22  25
ATOM     25  C   UNL A   1      42.298  20.801  26.546  1.00  0.00     0.039 A 
ATOM     26  C   UNL A   1      42.579  21.648  25.470  1.00  0.00     0.014 A 
ATOM     27  C   UNL A   1      42.601  21.215  27.846  1.00  0.00     0.014 A 
ATOM     28  C   UNL A   1      43.092  22.927  25.702  1.00  0.00     0.010 A 
ATOM     29  C   UNL A   1      43.031  22.519  28.082  1.00  0.00     0.010 A 
ATOM     30  C   UNL A   1      43.286  23.391  27.013  1.00  0.00    -0.014 A 
BRANCH  30  31
ATOM     31  C   UNL A   1      43.756  24.778  27.283  1.00  0.00     0.031 A 
ATOM     32  C   UNL A   1      42.799  25.814  27.812  1.00  0.00     0.074 A 
ATOM     33  C   UNL A   1      45.027  25.120  26.993  1.00  0.00     0.049 A 
ATOM     34  N   UNL A   1      42.995  27.089  28.028  1.00  0.00    -0.248 NA
ATOM     35  C   UNL A   1      41.433  25.358  28.109  1.00  0.00     0.031 C 
ATOM     36  C   UNL A   1      46.040  24.216  26.444  1.00  0.00     0.029 A 
ATOM     37  N   UNL A   1      45.686  26.319  27.109  1.00  0.00    -0.354 N 
ATOM     38  C   UNL A   1      41.777  27.592  28.473  1.00  0.00     0.074 A 
ATOM     39  C   UNL A   1      40.834  26.494  28.434  1.00  0.00     0.031 C 
ATOM     40  C   UNL A   1      47.195  24.884  26.296  1.00  0.00     0.029 A 
ATOM     41  C   UNL A   1      46.995  26.275  26.687  1.00  0.00     0.049 A 
ATOM     42  H   UNL A   1      45.260  27.133  27.461  1.00  0.00     0.167 HD
ATOM     43  C   UNL A   1      41.478  28.846  28.897  1.00  0.00     0.034 A 
ATOM     44  C   UNL A   1      47.925  27.248  26.608  1.00  0.00     0.034 A 
ATOM     45  C   UNL A   1      42.433  29.928  28.938  1.00  0.00     0.049 A 
ATOM     46  C   UNL A   1      47.560  28.642  27.050  1.00  0.00     0.074 A 
ATOM     47  C   UNL A   1      42.251  31.222  29.396  1.00  0.00     0.029 A 
ATOM     48  N   UNL A   1      43.749  29.848  28.496  1.00  0.00    -0.354 N 
ATOM     49  N   UNL A   1      46.415  29.090  27.512  1.00  0.00    -0.248 NA
ATOM     50  C   UNL A   1      48.615  29.660  26.969  1.00  0.00     0.031 C 
ATOM     51  C   UNL A   1      43.428  31.940  29.165  1.00  0.00     0.029 A 
ATOM     52  C   UNL A   1      44.376  31.076  28.640  1.00  0.00     0.049 A 
ATOM     53  H   UNL A   1      44.172  29.037  28.135  1.00  0.00     0.167 HD
ATOM     54  C   UNL A   1      46.625  30.435  27.808  1.00  0.00     0.074 A 
ATOM     55  C   UNL A   1      48.008  30.718  27.487  1.00  0.00     0.031 C 
ATOM     56  C   UNL A   1      45.755  31.351  28.305  1.00  0.00     0.034 A 
BRANCH  43  57
ATOM     57  C   UNL A   1      40.052  29.117  29.321  1.00  0.00     0.023 A 
ATOM     58  C   UNL A   1      39.681  29.158  30.678  1.00  0.00     0.031 A 
ATOM     59  C   UNL A   1      39.045  29.313  28.360  1.00  0.00     0.131 A 
ATOM     60  C   UNL A   1      38.332  29.309  31.031  1.00  0.00     0.055 A 
ATOM     61  C   UNL A   1      37.717  29.549  28.721  1.00  0.00     0.041 A 
ATOM     62  F   UNL A   1      39.332  29.265  27.050  1.00  0.00    -0.206 F 
ATOM     63  C   UNL A   1      37.350  29.531  30.063  1.00  0.00     0.022 A 
BRANCH  60  64
ATOM     64  S   UNL A   1      37.859  29.054  32.764  1.00  0.00     0.124 S 
ATOM     65  O   UNL A   1      36.598  29.789  32.836  1.00  0.00    -0.237 OA
ATOM     66  O   UNL A   1      37.758  27.602  32.853  1.00  0.00    -0.237 OA
ATOM     67  O   UNL A   1      38.963  29.651  33.513  1.00  0.00    -0.744 OA
ENDBRANCH  60  64
ENDBRANCH  43  57
BRANCH  44  68
ATOM     68  C   UNL A   1      49.287  26.951  26.077  1.00  0.00     0.023 A 
ATOM     69  C   UNL A   1      50.365  26.710  26.944  1.00  0.00     0.031 A 
ATOM     70  C   UNL A   1      49.541  26.947  24.693  1.00  0.00     0.131 A 
ATOM     71  C   UNL A   1      51.655  26.525  26.423  1.00  0.00     0.055 A 
ATOM     72  C   UNL A   1      50.816  26.706  24.178  1.00  0.00     0.041 A 
ATOM     73  F   UNL A   1      48.548  27.168  23.818  1.00  0.00    -0.206 F 
ATOM     74  C   UNL A   1      51.886  26.507  25.046  1.00  0.00     0.022 A 
BRANCH  71  75
ATOM     75  S   UNL A   1      53.047  26.399  27.578  1.00  0.00     0.124 S 
ATOM     76  O   UNL A   1      52.372  26.030  28.817  1.00  0.00    -0.237 OA
ATOM     77  O   UNL A   1      53.863  25.362  26.958  1.00  0.00    -0.237 OA
ATOM     78  O   UNL A   1      53.627  27.740  27.559  1.00  0.00    -0.744 OA
ENDBRANCH  71  75
ENDBRANCH  44  68
BRANCH  56  79
ATOM     79  C   UNL A   1      46.294  32.735  28.576  1.00  0.00     0.023 A 
ATOM     80  C   UNL A   1      46.285  33.741  27.594  1.00  0.00     0.031 A 
ATOM     81  C   UNL A   1      46.838  33.047  29.835  1.00  0.00     0.131 A 
ATOM     82  C   UNL A   1      46.861  34.991  27.868  1.00  0.00     0.055 A 
ATOM     83  C   UNL A   1      47.350  34.313  30.123  1.00  0.00     0.041 A 
ATOM     84  F   UNL A   1      46.877  32.124  30.811  1.00  0.00    -0.206 F 
ATOM     85  C   UNL A   1      47.376  35.289  29.132  1.00  0.00     0.022 A 
BRANCH  82  86
ATOM     86  S   UNL A   1      47.018  36.193  26.518  1.00  0.00     0.124 S 
ATOM     87  O   UNL A   1      46.187  35.592  25.479  1.00  0.00    -0.237 OA
ATOM     88  O   UNL A   1      46.497  37.414  27.125  1.00  0.00    -0.237 OA
ATOM     89  O   UNL A   1      48.452  36.205  26.236  1.00  0.00    -0.744 OA
ENDBRANCH  82  86
ENDBRANCH  56  79
ENDBRANCH  30  31
ENDBRANCH  22  25
ENDBRANCH  20  21
ENDBRANCH   1  20
TORSDOF 16
ENDMDL
