MODEL 1
REMARK VINA RESULT:     -12.9      0.000      0.000
REMARK SMILES Cc1cc(C(=O)NCCCNC(=O)c2ccc(-c3c4nc(c(-c5cc(S(=O)(=O)[O-])ccc5F)c5ccc([nH]5)c(-c5cc(S(=O)(=O)[O-])ccc5F)c5nc(c(-c6cc(S(=O)(=O)[O-])ccc6F)c6ccc3[nH]6)C=C5)C=C4)cc2)nn1[C@H]1CCS(=O)(=O)C1
REMARK SMILES IDX 10 1 9 2 8 3 7 4 5 5 6 6 4 8 1 9 2 10 3 11 78 12 77 13 79 14
REMARK SMILES IDX 80 15 85 16 81 17 82 18 83 19 84 20 11 21 12 22 13 24 14 25
REMARK SMILES IDX 15 26 76 27 16 28 75 29 17 30 18 31 19 32 69 33 20 34 74 35
REMARK SMILES IDX 68 36 70 37 21 38 73 39 67 40 66 41 22 43 54 44 34 45 53 46
REMARK SMILES IDX 35 47 38 48 52 49 71 50 36 51 37 52 51 54 72 55 39 56 23 57
REMARK SMILES IDX 24 58 32 59 25 60 31 61 33 62 30 63 26 64 27 65 28 66 29 67
REMARK SMILES IDX 55 68 56 69 64 70 57 71 63 72 65 73 62 74 58 75 59 76 60 77
REMARK SMILES IDX 61 78 40 79 41 80 49 81 42 82 48 83 50 84 47 85 43 86 44 87
REMARK SMILES IDX 45 88 46 89
REMARK H PARENT 7 7 11 23 70 42 38 53
REMARK Flexibility Score: inf
ROOT
ATOM      1  C   UNL A   1      35.176  29.378  27.471  1.00  0.00     0.118 C 
ENDROOT
BRANCH   1   2
ATOM      2  C   UNL A   1      33.708  29.062  27.231  1.00  0.00     0.042 C 
BRANCH   2   3
ATOM      3  C   UNL A   1      33.090  29.919  26.120  1.00  0.00     0.118 C 
BRANCH   3   4
ATOM      4  N   UNL A   1      33.629  29.607  24.806  1.00  0.00    -0.351 N 
ATOM      5  C   UNL A   1      33.117  28.845  23.774  1.00  0.00     0.271 C 
ATOM      6  O   UNL A   1      33.718  28.895  22.700  1.00  0.00    -0.267 OA
ATOM      7  H   UNL A   1      34.508  30.007  24.621  1.00  0.00     0.163 HD
BRANCH   5   8
ATOM      8  C   UNL A   1      31.898  28.025  23.960  1.00  0.00     0.150 A 
ATOM      9  C   UNL A   1      28.380  26.971  23.649  1.00  0.00     0.066 C 
ATOM     10  C   UNL A   1      29.814  27.190  23.947  1.00  0.00     0.036 A 
ATOM     11  C   UNL A   1      30.546  28.326  23.683  1.00  0.00     0.059 A 
ATOM     12  N   UNL A   1      30.700  26.329  24.541  1.00  0.00    -0.265 N 
ATOM     13  N   UNL A   1      31.968  26.786  24.488  1.00  0.00    -0.167 NA
BRANCH  12  14
ATOM     14  C   UNL A   1      30.509  25.060  25.230  1.00  0.00     0.123 C 
ATOM     15  C   UNL A   1      31.129  23.888  24.442  1.00  0.00     0.044 C 
ATOM     16  C   UNL A   1      31.093  24.947  26.629  1.00  0.00     0.164 C 
ATOM     17  C   UNL A   1      31.008  22.641  25.309  1.00  0.00     0.139 C 
ATOM     18  S   UNL A   1      31.059  23.215  26.996  1.00  0.00     0.152 S 
ATOM     19  O   UNL A   1      29.805  22.911  27.638  1.00  0.00    -0.229 OA
ATOM     20  O   UNL A   1      32.338  22.855  27.587  1.00  0.00    -0.229 OA
ENDBRANCH  12  14
ENDBRANCH   5   8
ENDBRANCH   3   4
ENDBRANCH   2   3
ENDBRANCH   1   2
BRANCH   1  21
ATOM     21  N   UNL A   1      35.388  30.054  28.753  1.00  0.00    -0.352 N 
ATOM     22  C   UNL A   1      36.402  29.868  29.671  1.00  0.00     0.251 C 
ATOM     23  H   UNL A   1      34.717  30.732  28.992  1.00  0.00     0.163 HD
ATOM     24  O   UNL A   1      36.251  30.234  30.831  1.00  0.00    -0.269 OA
BRANCH  22  25
ATOM     25  C   UNL A   1      37.649  29.208  29.241  1.00  0.00     0.039 A 
ATOM     26  C   UNL A   1      38.310  29.606  28.076  1.00  0.00     0.014 A 
ATOM     27  C   UNL A   1      38.179  28.208  30.050  1.00  0.00     0.014 A 
ATOM     28  C   UNL A   1      39.560  29.059  27.790  1.00  0.00     0.010 A 
ATOM     29  C   UNL A   1      39.470  27.783  29.849  1.00  0.00     0.010 A 
ATOM     30  C   UNL A   1      40.153  28.168  28.698  1.00  0.00    -0.014 A 
BRANCH  30  31
ATOM     31  C   UNL A   1      41.549  27.752  28.542  1.00  0.00     0.031 A 
ATOM     32  C   UNL A   1      41.730  26.454  27.835  1.00  0.00     0.074 A 
ATOM     33  C   UNL A   1      42.599  28.577  28.766  1.00  0.00     0.049 A 
ATOM     34  N   UNL A   1      42.198  25.347  28.308  1.00  0.00    -0.248 NA
ATOM     35  C   UNL A   1      41.175  26.323  26.476  1.00  0.00     0.031 C 
ATOM     36  C   UNL A   1      42.559  29.991  29.158  1.00  0.00     0.029 A 
ATOM     37  N   UNL A   1      43.929  28.365  28.560  1.00  0.00    -0.354 N 
ATOM     38  C   UNL A   1      42.240  24.459  27.235  1.00  0.00     0.074 A 
ATOM     39  C   UNL A   1      41.395  25.032  26.224  1.00  0.00     0.031 C 
ATOM     40  C   UNL A   1      43.759  30.563  28.920  1.00  0.00     0.029 A 
ATOM     41  C   UNL A   1      44.699  29.528  28.533  1.00  0.00     0.049 A 
ATOM     42  H   UNL A   1      44.315  27.467  28.440  1.00  0.00     0.167 HD
ATOM     43  C   UNL A   1      43.175  23.467  27.176  1.00  0.00     0.034 A 
ATOM     44  C   UNL A   1      46.011  29.649  28.198  1.00  0.00     0.034 A 
ATOM     45  C   UNL A   1      43.778  23.258  28.478  1.00  0.00     0.049 A 
ATOM     46  C   UNL A   1      46.619  28.308  28.357  1.00  0.00     0.074 A 
ATOM     47  C   UNL A   1      43.293  22.939  29.732  1.00  0.00     0.029 A 
ATOM     48  N   UNL A   1      45.042  23.763  28.692  1.00  0.00    -0.354 N 
ATOM     49  N   UNL A   1      46.728  27.703  29.507  1.00  0.00    -0.248 NA
ATOM     50  C   UNL A   1      46.676  27.438  27.193  1.00  0.00     0.031 C 
ATOM     51  C   UNL A   1      44.061  23.733  30.635  1.00  0.00     0.029 A 
ATOM     52  C   UNL A   1      45.032  24.417  29.899  1.00  0.00     0.049 A 
ATOM     53  H   UNL A   1      45.814  23.672  28.088  1.00  0.00     0.167 HD
ATOM     54  C   UNL A   1      46.416  26.379  29.244  1.00  0.00     0.074 A 
ATOM     55  C   UNL A   1      46.510  26.254  27.791  1.00  0.00     0.031 C 
ATOM     56  C   UNL A   1      45.832  25.591  30.196  1.00  0.00     0.034 A 
BRANCH  43  57
ATOM     57  C   UNL A   1      43.835  22.963  25.902  1.00  0.00     0.023 A 
ATOM     58  C   UNL A   1      43.870  21.567  25.711  1.00  0.00     0.031 A 
ATOM     59  C   UNL A   1      44.666  23.711  25.036  1.00  0.00     0.131 A 
ATOM     60  C   UNL A   1      44.783  20.976  24.821  1.00  0.00     0.055 A 
ATOM     61  C   UNL A   1      45.525  23.121  24.103  1.00  0.00     0.041 A 
ATOM     62  F   UNL A   1      44.767  25.043  25.088  1.00  0.00    -0.206 F 
ATOM     63  C   UNL A   1      45.617  21.744  24.018  1.00  0.00     0.022 A 
BRANCH  60  64
ATOM     64  S   UNL A   1      44.998  19.179  24.885  1.00  0.00     0.124 S 
ATOM     65  O   UNL A   1      43.847  18.778  25.687  1.00  0.00    -0.237 OA
ATOM     66  O   UNL A   1      44.955  18.823  23.470  1.00  0.00    -0.237 OA
ATOM     67  O   UNL A   1      46.299  19.017  25.531  1.00  0.00    -0.744 OA
ENDBRANCH  60  64
ENDBRANCH  43  57
BRANCH  44  68
ATOM     68  C   UNL A   1      46.682  30.776  27.493  1.00  0.00     0.023 A 
ATOM     69  C   UNL A   1      45.979  31.895  26.996  1.00  0.00     0.031 A 
ATOM     70  C   UNL A   1      48.091  30.876  27.525  1.00  0.00     0.131 A 
ATOM     71  C   UNL A   1      46.683  33.047  26.568  1.00  0.00     0.055 A 
ATOM     72  C   UNL A   1      48.780  32.014  27.099  1.00  0.00     0.041 A 
ATOM     73  F   UNL A   1      48.843  29.900  28.058  1.00  0.00    -0.206 F 
ATOM     74  C   UNL A   1      48.077  33.110  26.628  1.00  0.00     0.022 A 
BRANCH  71  75
ATOM     75  S   UNL A   1      45.780  34.531  26.014  1.00  0.00     0.124 S 
ATOM     76  O   UNL A   1      46.019  34.523  24.576  1.00  0.00    -0.237 OA
ATOM     77  O   UNL A   1      44.417  34.251  26.449  1.00  0.00    -0.237 OA
ATOM     78  O   UNL A   1      46.438  35.620  26.739  1.00  0.00    -0.744 OA
ENDBRANCH  71  75
ENDBRANCH  44  68
BRANCH  56  79
ATOM     79  C   UNL A   1      45.845  26.071  31.636  1.00  0.00     0.023 A 
ATOM     80  C   UNL A   1      44.747  26.643  32.319  1.00  0.00     0.031 A 
ATOM     81  C   UNL A   1      47.017  25.832  32.375  1.00  0.00     0.131 A 
ATOM     82  C   UNL A   1      44.858  26.965  33.688  1.00  0.00     0.055 A 
ATOM     83  C   UNL A   1      47.115  26.131  33.734  1.00  0.00     0.041 A 
ATOM     84  F   UNL A   1      48.088  25.269  31.792  1.00  0.00    -0.206 F 
ATOM     85  C   UNL A   1      46.036  26.705  34.394  1.00  0.00     0.022 A 
BRANCH  82  86
ATOM     86  S   UNL A   1      43.476  27.753  34.579  1.00  0.00     0.124 S 
ATOM     87  O   UNL A   1      44.085  28.926  35.194  1.00  0.00    -0.237 OA
ATOM     88  O   UNL A   1      42.517  28.016  33.508  1.00  0.00    -0.237 OA
ATOM     89  O   UNL A   1      43.052  26.720  35.528  1.00  0.00    -0.744 OA
ENDBRANCH  82  86
ENDBRANCH  56  79
ENDBRANCH  30  31
ENDBRANCH  22  25
ENDBRANCH   1  21
TORSDOF 14
ENDMDL
MODEL 2
REMARK VINA RESULT:     -12.8      2.585      7.064
REMARK SMILES Cc1cc(C(=O)NCCCNC(=O)c2ccc(-c3c4nc(c(-c5cc(S(=O)(=O)[O-])ccc5F)c5ccc([nH]5)c(-c5cc(S(=O)(=O)[O-])ccc5F)c5nc(c(-c6cc(S(=O)(=O)[O-])ccc6F)c6ccc3[nH]6)C=C5)C=C4)cc2)nn1[C@H]1CCS(=O)(=O)C1
REMARK SMILES IDX 10 1 9 2 8 3 7 4 5 5 6 6 4 8 1 9 2 10 3 11 78 12 77 13 79 14
REMARK SMILES IDX 80 15 85 16 81 17 82 18 83 19 84 20 11 21 12 22 13 24 14 25
REMARK SMILES IDX 15 26 76 27 16 28 75 29 17 30 18 31 19 32 69 33 20 34 74 35
REMARK SMILES IDX 68 36 70 37 21 38 73 39 67 40 66 41 22 43 54 44 34 45 53 46
REMARK SMILES IDX 35 47 38 48 52 49 71 50 36 51 37 52 51 54 72 55 39 56 23 57
REMARK SMILES IDX 24 58 32 59 25 60 31 61 33 62 30 63 26 64 27 65 28 66 29 67
REMARK SMILES IDX 55 68 56 69 64 70 57 71 63 72 65 73 62 74 58 75 59 76 60 77
REMARK SMILES IDX 61 78 40 79 41 80 49 81 42 82 48 83 50 84 47 85 43 86 44 87
REMARK SMILES IDX 45 88 46 89
REMARK H PARENT 7 7 11 23 70 42 38 53
REMARK Flexibility Score: inf
ROOT
ATOM      1  C   UNL A   1      34.489  30.860  27.510  1.00  0.00     0.118 C 
ENDROOT
BRANCH   1   2
ATOM      2  C   UNL A   1      33.064  30.505  27.115  1.00  0.00     0.042 C 
BRANCH   2   3
ATOM      3  C   UNL A   1      32.984  29.801  25.754  1.00  0.00     0.118 C 
BRANCH   3   4
ATOM      4  N   UNL A   1      31.778  30.141  25.017  1.00  0.00    -0.351 N 
ATOM      5  C   UNL A   1      30.981  29.381  24.182  1.00  0.00     0.271 C 
ATOM      6  O   UNL A   1      29.915  29.886  23.827  1.00  0.00    -0.267 OA
ATOM      7  H   UNL A   1      31.478  31.071  25.132  1.00  0.00     0.163 HD
BRANCH   5   8
ATOM      8  C   UNL A   1      31.395  28.024  23.757  1.00  0.00     0.150 A 
ATOM      9  C   UNL A   1      32.693  25.349  21.580  1.00  0.00     0.066 C 
ATOM     10  C   UNL A   1      32.117  26.225  22.626  1.00  0.00     0.036 A 
ATOM     11  C   UNL A   1      31.691  27.524  22.470  1.00  0.00     0.059 A 
ATOM     12  N   UNL A   1      31.884  25.933  23.945  1.00  0.00    -0.265 N 
ATOM     13  N   UNL A   1      31.522  27.024  24.651  1.00  0.00    -0.167 NA
BRANCH  12  14
ATOM     14  C   UNL A   1      31.925  24.680  24.686  1.00  0.00     0.123 C 
ATOM     15  C   UNL A   1      32.814  24.792  25.942  1.00  0.00     0.044 C 
ATOM     16  C   UNL A   1      30.597  24.139  25.191  1.00  0.00     0.164 C 
ATOM     17  C   UNL A   1      32.673  23.489  26.718  1.00  0.00     0.139 C 
ATOM     18  S   UNL A   1      31.033  22.887  26.364  1.00  0.00     0.152 S 
ATOM     19  O   UNL A   1      31.131  21.628  25.669  1.00  0.00    -0.229 OA
ATOM     20  O   UNL A   1      30.194  23.060  27.539  1.00  0.00    -0.229 OA
ENDBRANCH  12  14
ENDBRANCH   5   8
ENDBRANCH   3   4
ENDBRANCH   2   3
ENDBRANCH   1   2
BRANCH   1  21
ATOM     21  N   UNL A   1      34.531  31.715  28.699  1.00  0.00    -0.352 N 
ATOM     22  C   UNL A   1      35.407  31.670  29.765  1.00  0.00     0.251 C 
ATOM     23  H   UNL A   1      33.841  32.415  28.743  1.00  0.00     0.163 HD
ATOM     24  O   UNL A   1      35.101  32.198  30.828  1.00  0.00    -0.269 OA
BRANCH  22  25
ATOM     25  C   UNL A   1      36.693  30.966  29.610  1.00  0.00     0.039 A 
ATOM     26  C   UNL A   1      37.896  31.672  29.537  1.00  0.00     0.014 A 
ATOM     27  C   UNL A   1      36.684  29.575  29.585  1.00  0.00     0.014 A 
ATOM     28  C   UNL A   1      39.096  30.962  29.542  1.00  0.00     0.010 A 
ATOM     29  C   UNL A   1      37.862  28.885  29.742  1.00  0.00     0.010 A 
ATOM     30  C   UNL A   1      39.076  29.565  29.677  1.00  0.00    -0.014 A 
BRANCH  30  31
ATOM     31  C   UNL A   1      40.312  28.814  29.913  1.00  0.00     0.031 A 
ATOM     32  C   UNL A   1      40.626  28.581  31.350  1.00  0.00     0.074 A 
ATOM     33  C   UNL A   1      40.977  28.153  28.937  1.00  0.00     0.049 A 
ATOM     34  N   UNL A   1      41.618  29.044  32.035  1.00  0.00    -0.248 NA
ATOM     35  C   UNL A   1      39.628  27.870  32.169  1.00  0.00     0.031 C 
ATOM     36  C   UNL A   1      40.601  28.030  27.523  1.00  0.00     0.029 A 
ATOM     37  N   UNL A   1      42.063  27.335  29.026  1.00  0.00    -0.354 N 
ATOM     38  C   UNL A   1      41.511  28.472  33.301  1.00  0.00     0.074 A 
ATOM     39  C   UNL A   1      40.169  27.966  33.385  1.00  0.00     0.031 C 
ATOM     40  C   UNL A   1      41.282  27.009  26.959  1.00  0.00     0.029 A 
ATOM     41  C   UNL A   1      42.266  26.525  27.909  1.00  0.00     0.049 A 
ATOM     42  H   UNL A   1      42.655  27.318  29.813  1.00  0.00     0.167 HD
ATOM     43  C   UNL A   1      42.617  28.231  34.062  1.00  0.00     0.034 A 
ATOM     44  C   UNL A   1      43.161  25.511  27.769  1.00  0.00     0.034 A 
ATOM     45  C   UNL A   1      43.753  28.978  33.560  1.00  0.00     0.049 A 
ATOM     46  C   UNL A   1      44.218  25.730  28.783  1.00  0.00     0.074 A 
ATOM     47  C   UNL A   1      44.010  30.318  33.331  1.00  0.00     0.029 A 
ATOM     48  N   UNL A   1      44.707  28.295  32.837  1.00  0.00    -0.354 N 
ATOM     49  N   UNL A   1      45.024  26.754  28.768  1.00  0.00    -0.248 NA
ATOM     50  C   UNL A   1      44.077  25.072  30.073  1.00  0.00     0.031 C 
ATOM     51  C   UNL A   1      44.748  30.346  32.110  1.00  0.00     0.029 A 
ATOM     52  C   UNL A   1      44.983  29.028  31.711  1.00  0.00     0.049 A 
ATOM     53  H   UNL A   1      45.116  27.435  33.084  1.00  0.00     0.167 HD
ATOM     54  C   UNL A   1      45.132  27.142  30.094  1.00  0.00     0.074 A 
ATOM     55  C   UNL A   1      44.628  26.003  30.859  1.00  0.00     0.031 C 
ATOM     56  C   UNL A   1      45.346  28.449  30.430  1.00  0.00     0.034 A 
BRANCH  43  57
ATOM     57  C   UNL A   1      42.794  27.043  34.995  1.00  0.00     0.023 A 
ATOM     58  C   UNL A   1      43.598  25.983  34.530  1.00  0.00     0.031 A 
ATOM     59  C   UNL A   1      42.018  26.755  36.141  1.00  0.00     0.131 A 
ATOM     60  C   UNL A   1      43.504  24.698  35.092  1.00  0.00     0.055 A 
ATOM     61  C   UNL A   1      41.980  25.491  36.739  1.00  0.00     0.041 A 
ATOM     62  F   UNL A   1      41.189  27.639  36.706  1.00  0.00    -0.206 F 
ATOM     63  C   UNL A   1      42.695  24.442  36.192  1.00  0.00     0.022 A 
BRANCH  60  64
ATOM     64  S   UNL A   1      44.309  23.325  34.227  1.00  0.00     0.124 S 
ATOM     65  O   UNL A   1      43.292  22.966  33.244  1.00  0.00    -0.237 OA
ATOM     66  O   UNL A   1      45.512  23.967  33.706  1.00  0.00    -0.237 OA
ATOM     67  O   UNL A   1      44.533  22.343  35.285  1.00  0.00    -0.744 OA
ENDBRANCH  60  64
ENDBRANCH  43  57
BRANCH  44  68
ATOM     68  C   UNL A   1      43.002  24.240  27.009  1.00  0.00     0.023 A 
ATOM     69  C   UNL A   1      43.945  23.792  26.060  1.00  0.00     0.031 A 
ATOM     70  C   UNL A   1      42.014  23.312  27.408  1.00  0.00     0.131 A 
ATOM     71  C   UNL A   1      43.880  22.469  25.559  1.00  0.00     0.055 A 
ATOM     72  C   UNL A   1      41.953  22.008  26.909  1.00  0.00     0.041 A 
ATOM     73  F   UNL A   1      41.125  23.615  28.367  1.00  0.00    -0.206 F 
ATOM     74  C   UNL A   1      42.895  21.578  25.989  1.00  0.00     0.022 A 
BRANCH  71  75
ATOM     75  S   UNL A   1      45.150  21.853  24.405  1.00  0.00     0.124 S 
ATOM     76  O   UNL A   1      45.316  22.979  23.493  1.00  0.00    -0.237 OA
ATOM     77  O   UNL A   1      46.270  21.564  25.293  1.00  0.00    -0.237 OA
ATOM     78  O   UNL A   1      44.525  20.670  23.809  1.00  0.00    -0.744 OA
ENDBRANCH  71  75
ENDBRANCH  44  68
BRANCH  56  79
ATOM     79  C   UNL A   1      45.806  29.406  29.345  1.00  0.00     0.023 A 
ATOM     80  C   UNL A   1      44.955  30.165  28.508  1.00  0.00     0.031 A 
ATOM     81  C   UNL A   1      47.190  29.627  29.236  1.00  0.00     0.131 A 
ATOM     82  C   UNL A   1      45.505  31.091  27.598  1.00  0.00     0.055 A 
ATOM     83  C   UNL A   1      47.728  30.560  28.351  1.00  0.00     0.041 A 
ATOM     84  F   UNL A   1      48.051  28.956  30.019  1.00  0.00    -0.206 F 
ATOM     85  C   UNL A   1      46.887  31.291  27.523  1.00  0.00     0.022 A 
BRANCH  82  86
ATOM     86  S   UNL A   1      44.435  32.044  26.469  1.00  0.00     0.124 S 
ATOM     87  O   UNL A   1      43.957  33.146  27.295  1.00  0.00    -0.237 OA
ATOM     88  O   UNL A   1      45.352  32.402  25.390  1.00  0.00    -0.237 OA
ATOM     89  O   UNL A   1      43.402  31.078  26.087  1.00  0.00    -0.744 OA
ENDBRANCH  82  86
ENDBRANCH  56  79
ENDBRANCH  30  31
ENDBRANCH  22  25
ENDBRANCH   1  21
TORSDOF 14
ENDMDL
MODEL 3
REMARK VINA RESULT:     -12.7      3.733      5.881
REMARK SMILES Cc1cc(C(=O)NCCCNC(=O)c2ccc(-c3c4nc(c(-c5cc(S(=O)(=O)[O-])ccc5F)c5ccc([nH]5)c(-c5cc(S(=O)(=O)[O-])ccc5F)c5nc(c(-c6cc(S(=O)(=O)[O-])ccc6F)c6ccc3[nH]6)C=C5)C=C4)cc2)nn1[C@H]1CCS(=O)(=O)C1
REMARK SMILES IDX 10 1 9 2 8 3 7 4 5 5 6 6 4 8 1 9 2 10 3 11 78 12 77 13 79 14
REMARK SMILES IDX 80 15 85 16 81 17 82 18 83 19 84 20 11 21 12 22 13 24 14 25
REMARK SMILES IDX 15 26 76 27 16 28 75 29 17 30 18 31 19 32 69 33 20 34 74 35
REMARK SMILES IDX 68 36 70 37 21 38 73 39 67 40 66 41 22 43 54 44 34 45 53 46
REMARK SMILES IDX 35 47 38 48 52 49 71 50 36 51 37 52 51 54 72 55 39 56 23 57
REMARK SMILES IDX 24 58 32 59 25 60 31 61 33 62 30 63 26 64 27 65 28 66 29 67
REMARK SMILES IDX 55 68 56 69 64 70 57 71 63 72 65 73 62 74 58 75 59 76 60 77
REMARK SMILES IDX 61 78 40 79 41 80 49 81 42 82 48 83 50 84 47 85 43 86 44 87
REMARK SMILES IDX 45 88 46 89
REMARK H PARENT 7 7 11 23 70 42 38 53
REMARK Flexibility Score: inf
ROOT
ATOM      1  C   UNL A   1      37.022  30.535  30.977  1.00  0.00     0.118 C 
ENDROOT
BRANCH   1   2
ATOM      2  C   UNL A   1      36.814  29.749  32.262  1.00  0.00     0.042 C 
BRANCH   2   3
ATOM      3  C   UNL A   1      38.087  29.658  33.114  1.00  0.00     0.118 C 
BRANCH   3   4
ATOM      4  N   UNL A   1      37.955  30.337  34.392  1.00  0.00    -0.351 N 
ATOM      5  C   UNL A   1      37.638  31.648  34.695  1.00  0.00     0.271 C 
ATOM      6  O   UNL A   1      37.428  31.905  35.882  1.00  0.00    -0.267 OA
ATOM      7  H   UNL A   1      38.120  29.766  35.176  1.00  0.00     0.163 HD
BRANCH   5   8
ATOM      8  C   UNL A   1      37.545  32.677  33.635  1.00  0.00     0.150 A 
ATOM      9  C   UNL A   1      38.594  34.845  30.845  1.00  0.00     0.066 C 
ATOM     10  C   UNL A   1      37.945  34.116  31.959  1.00  0.00     0.036 A 
ATOM     11  C   UNL A   1      38.563  33.304  32.882  1.00  0.00     0.059 A 
ATOM     12  N   UNL A   1      36.619  34.098  32.305  1.00  0.00    -0.265 N 
ATOM     13  N   UNL A   1      36.353  33.182  33.259  1.00  0.00    -0.167 NA
BRANCH  12  14
ATOM     14  C   UNL A   1      35.486  34.897  31.857  1.00  0.00     0.123 C 
ATOM     15  C   UNL A   1      34.756  34.233  30.672  1.00  0.00     0.044 C 
ATOM     16  C   UNL A   1      34.399  35.177  32.882  1.00  0.00     0.164 C 
ATOM     17  C   UNL A   1      33.512  35.063  30.378  1.00  0.00     0.139 C 
ATOM     18  S   UNL A   1      33.028  35.780  31.937  1.00  0.00     0.152 S 
ATOM     19  O   UNL A   1      33.133  37.215  31.851  1.00  0.00    -0.229 OA
ATOM     20  O   UNL A   1      31.825  35.119  32.416  1.00  0.00    -0.229 OA
ENDBRANCH  12  14
ENDBRANCH   5   8
ENDBRANCH   3   4
ENDBRANCH   2   3
ENDBRANCH   1   2
BRANCH   1  21
ATOM     21  N   UNL A   1      36.071  30.142  29.935  1.00  0.00    -0.352 N 
ATOM     22  C   UNL A   1      36.329  29.618  28.684  1.00  0.00     0.251 C 
ATOM     23  H   UNL A   1      35.121  30.268  30.156  1.00  0.00     0.163 HD
ATOM     24  O   UNL A   1      35.472  29.678  27.809  1.00  0.00    -0.269 OA
BRANCH  22  25
ATOM     25  C   UNL A   1      37.645  29.010  28.415  1.00  0.00     0.039 A 
ATOM     26  C   UNL A   1      38.498  29.541  27.444  1.00  0.00     0.014 A 
ATOM     27  C   UNL A   1      38.038  27.920  29.185  1.00  0.00     0.014 A 
ATOM     28  C   UNL A   1      39.789  29.028  27.328  1.00  0.00     0.010 A 
ATOM     29  C   UNL A   1      39.352  27.518  29.173  1.00  0.00     0.010 A 
ATOM     30  C   UNL A   1      40.225  28.034  28.219  1.00  0.00    -0.014 A 
BRANCH  30  31
ATOM     31  C   UNL A   1      41.634  27.636  28.272  1.00  0.00     0.031 A 
ATOM     32  C   UNL A   1      41.945  26.375  27.545  1.00  0.00     0.074 A 
ATOM     33  C   UNL A   1      42.621  28.456  28.702  1.00  0.00     0.049 A 
ATOM     34  N   UNL A   1      42.347  25.249  28.035  1.00  0.00    -0.248 NA
ATOM     35  C   UNL A   1      41.620  26.306  26.108  1.00  0.00     0.031 C 
ATOM     36  C   UNL A   1      42.497  29.849  29.148  1.00  0.00     0.029 A 
ATOM     37  N   UNL A   1      43.970  28.264  28.705  1.00  0.00    -0.354 N 
ATOM     38  C   UNL A   1      42.575  24.414  26.943  1.00  0.00     0.074 A 
ATOM     39  C   UNL A   1      41.896  25.030  25.836  1.00  0.00     0.031 C 
ATOM     40  C   UNL A   1      43.711  30.440  29.135  1.00  0.00     0.029 A 
ATOM     41  C   UNL A   1      44.717  29.432  28.857  1.00  0.00     0.049 A 
ATOM     42  H   UNL A   1      44.383  27.375  28.607  1.00  0.00     0.167 HD
ATOM     43  C   UNL A   1      43.521  23.433  26.990  1.00  0.00     0.034 A 
ATOM     44  C   UNL A   1      46.064  29.578  28.746  1.00  0.00     0.034 A 
ATOM     45  C   UNL A   1      43.909  23.166  28.361  1.00  0.00     0.049 A 
ATOM     46  C   UNL A   1      46.658  28.235  28.939  1.00  0.00     0.074 A 
ATOM     47  C   UNL A   1      43.232  22.784  29.504  1.00  0.00     0.029 A 
ATOM     48  N   UNL A   1      45.114  23.669  28.802  1.00  0.00    -0.354 N 
ATOM     49  N   UNL A   1      46.588  27.576  30.062  1.00  0.00    -0.248 NA
ATOM     50  C   UNL A   1      46.915  27.423  27.760  1.00  0.00     0.031 C 
ATOM     51  C   UNL A   1      43.833  23.538  30.556  1.00  0.00     0.029 A 
ATOM     52  C   UNL A   1      44.900  24.263  30.019  1.00  0.00     0.049 A 
ATOM     53  H   UNL A   1      45.975  23.612  28.327  1.00  0.00     0.167 HD
ATOM     54  C   UNL A   1      46.342  26.264  29.690  1.00  0.00     0.074 A 
ATOM     55  C   UNL A   1      46.672  26.210  28.268  1.00  0.00     0.031 C 
ATOM     56  C   UNL A   1      45.623  25.427  30.497  1.00  0.00     0.034 A 
BRANCH  43  57
ATOM     57  C   UNL A   1      44.386  22.997  25.818  1.00  0.00     0.023 A 
ATOM     58  C   UNL A   1      44.458  21.613  25.560  1.00  0.00     0.031 A 
ATOM     59  C   UNL A   1      45.346  23.786  25.144  1.00  0.00     0.131 A 
ATOM     60  C   UNL A   1      45.510  21.066  24.804  1.00  0.00     0.055 A 
ATOM     61  C   UNL A   1      46.350  23.243  24.336  1.00  0.00     0.041 A 
ATOM     62  F   UNL A   1      45.431  25.113  25.284  1.00  0.00    -0.206 F 
ATOM     63  C   UNL A   1      46.462  21.873  24.193  1.00  0.00     0.022 A 
BRANCH  60  64
ATOM     64  S   UNL A   1      45.719  19.267  24.805  1.00  0.00     0.124 S 
ATOM     65  O   UNL A   1      45.646  18.966  23.379  1.00  0.00    -0.237 OA
ATOM     66  O   UNL A   1      47.029  19.121  25.431  1.00  0.00    -0.237 OA
ATOM     67  O   UNL A   1      44.589  18.797  25.603  1.00  0.00    -0.744 OA
ENDBRANCH  60  64
ENDBRANCH  43  57
BRANCH  44  68
ATOM     68  C   UNL A   1      46.824  30.743  28.212  1.00  0.00     0.023 A 
ATOM     69  C   UNL A   1      46.267  31.667  27.301  1.00  0.00     0.031 A 
ATOM     70  C   UNL A   1      48.055  31.100  28.806  1.00  0.00     0.131 A 
ATOM     71  C   UNL A   1      46.934  32.886  27.026  1.00  0.00     0.055 A 
ATOM     72  C   UNL A   1      48.709  32.303  28.529  1.00  0.00     0.041 A 
ATOM     73  F   UNL A   1      48.621  30.328  29.746  1.00  0.00    -0.206 F 
ATOM     74  C   UNL A   1      48.144  33.207  27.644  1.00  0.00     0.022 A 
BRANCH  71  75
ATOM     75  S   UNL A   1      46.177  34.126  25.925  1.00  0.00     0.124 S 
ATOM     76  O   UNL A   1      47.316  34.578  25.134  1.00  0.00    -0.237 OA
ATOM     77  O   UNL A   1      45.165  33.348  25.221  1.00  0.00    -0.237 OA
ATOM     78  O   UNL A   1      45.641  35.124  26.853  1.00  0.00    -0.744 OA
ENDBRANCH  71  75
ENDBRANCH  44  68
BRANCH  56  79
ATOM     79  C   UNL A   1      45.396  25.837  31.941  1.00  0.00     0.023 A 
ATOM     80  C   UNL A   1      44.194  26.369  32.462  1.00  0.00     0.031 A 
ATOM     81  C   UNL A   1      46.436  25.569  32.849  1.00  0.00     0.131 A 
ATOM     82  C   UNL A   1      44.078  26.625  33.844  1.00  0.00     0.055 A 
ATOM     83  C   UNL A   1      46.308  25.802  34.217  1.00  0.00     0.041 A 
ATOM     84  F   UNL A   1      47.595  25.041  32.422  1.00  0.00    -0.206 F 
ATOM     85  C   UNL A   1      45.129  26.338  34.719  1.00  0.00     0.022 A 
BRANCH  82  86
ATOM     86  S   UNL A   1      42.559  27.361  34.535  1.00  0.00     0.124 S 
ATOM     87  O   UNL A   1      41.848  26.220  35.100  1.00  0.00    -0.237 OA
ATOM     88  O   UNL A   1      43.085  28.328  35.496  1.00  0.00    -0.237 OA
ATOM     89  O   UNL A   1      41.912  27.962  33.366  1.00  0.00    -0.744 OA
ENDBRANCH  82  86
ENDBRANCH  56  79
ENDBRANCH  30  31
ENDBRANCH  22  25
ENDBRANCH   1  21
TORSDOF 14
ENDMDL
