MODEL 1
REMARK VINA RESULT:     -14.1      0.000      0.000
REMARK SMILES O=C(NCCCNC(=O)c1nnn(-c2cccc(C(F)(F)F)c2)c1[C@@H]1COc2ccccc2O1)c1ccc(-c2c3nc(c(-c4cc(S(=O)(=O)[O-])ccc4F)c4ccc([nH]4)c(-c4cc(S(=O)(=O)[O-])ccc4F)c4nc(c(-c5cc(S(=O)(=O)[O-])ccc5F)c5ccc2[nH]5)C=C4)C=C3)cc1
REMARK SMILES IDX 4 1 3 2 1 3 2 4 35 6 36 7 97 8 37 9 96 10 38 11 39 12 40 13
REMARK SMILES IDX 90 14 41 15 95 16 89 17 91 18 42 19 94 20 88 21 87 22 43 24
REMARK SMILES IDX 75 25 55 26 74 27 56 28 59 29 73 30 92 31 57 32 58 33 72 35
REMARK SMILES IDX 93 36 60 37 44 38 45 39 53 40 46 41 52 42 54 43 51 44 47 45
REMARK SMILES IDX 48 46 49 47 50 48 76 49 77 50 85 51 78 52 84 53 86 54 83 55
REMARK SMILES IDX 79 56 80 57 81 58 82 59 61 60 62 61 70 62 63 63 69 64 71 65
REMARK SMILES IDX 68 66 64 67 65 68 66 69 67 70 5 71 6 72 7 73 8 74 9 76 10 77
REMARK SMILES IDX 11 78 24 79 12 80 13 81 25 82 26 83 34 84 27 85 33 86 28 87
REMARK SMILES IDX 32 88 29 89 31 90 30 91 14 92 15 93 23 94 16 95 18 96 17 97
REMARK SMILES IDX 19 98 20 99 21 100 22 101
REMARK H PARENT 3 5 91 23 59 34 7 75
REMARK Flexibility Score: inf
ROOT
ATOM      1  C   UNL A   1      38.050  22.567  25.635  1.00  0.00     0.118 C 
ENDROOT
BRANCH   1   2
ATOM      2  N   UNL A   1      39.205  22.151  26.410  1.00  0.00    -0.352 N 
ATOM      3  O   UNL A   1      40.875  21.954  27.819  1.00  0.00    -0.269 OA
ATOM      4  C   UNL A   1      40.057  22.729  27.311  1.00  0.00     0.251 C 
ATOM      5  H   UNL A   1      39.435  21.208  26.245  1.00  0.00     0.163 HD
BRANCH   4   6
ATOM      6  C   UNL A   1      40.103  24.169  27.694  1.00  0.00     0.039 A 
ATOM      7  C   UNL A   1      39.152  25.138  27.372  1.00  0.00     0.014 A 
ATOM      8  C   UNL A   1      41.233  24.566  28.437  1.00  0.00     0.014 A 
ATOM      9  C   UNL A   1      39.350  26.474  27.744  1.00  0.00     0.010 A 
ATOM     10  C   UNL A   1      41.430  25.893  28.815  1.00  0.00     0.010 A 
ATOM     11  C   UNL A   1      40.494  26.856  28.452  1.00  0.00    -0.014 A 
BRANCH  11  12
ATOM     12  C   UNL A   1      40.602  28.234  28.947  1.00  0.00     0.031 A 
ATOM     13  C   UNL A   1      41.722  29.032  28.370  1.00  0.00     0.074 A 
ATOM     14  C   UNL A   1      39.668  28.854  29.699  1.00  0.00     0.049 A 
ATOM     15  N   UNL A   1      42.709  29.602  28.982  1.00  0.00    -0.248 NA
ATOM     16  C   UNL A   1      41.799  29.133  26.905  1.00  0.00     0.031 C 
ATOM     17  C   UNL A   1      38.355  28.337  30.086  1.00  0.00     0.029 A 
ATOM     18  N   UNL A   1      39.650  30.137  30.177  1.00  0.00    -0.354 N 
ATOM     19  C   UNL A   1      43.415  30.312  28.010  1.00  0.00     0.074 A 
ATOM     20  C   UNL A   1      42.912  29.849  26.746  1.00  0.00     0.031 C 
ATOM     21  C   UNL A   1      37.591  29.356  30.538  1.00  0.00     0.029 A 
ATOM     22  C   UNL A   1      38.392  30.570  30.588  1.00  0.00     0.049 A 
ATOM     23  H   UNL A   1      40.454  30.703  30.225  1.00  0.00     0.167 HD
ATOM     24  C   UNL A   1      44.211  31.373  28.331  1.00  0.00     0.034 A 
ATOM     25  C   UNL A   1      38.006  31.840  30.884  1.00  0.00     0.034 A 
ATOM     26  C   UNL A   1      44.553  31.362  29.737  1.00  0.00     0.049 A 
ATOM     27  C   UNL A   1      39.226  32.615  31.210  1.00  0.00     0.074 A 
ATOM     28  C   UNL A   1      45.161  30.452  30.582  1.00  0.00     0.029 A 
ATOM     29  N   UNL A   1      43.966  32.288  30.572  1.00  0.00    -0.354 N 
ATOM     30  N   UNL A   1      39.967  32.390  32.259  1.00  0.00    -0.248 NA
ATOM     31  C   UNL A   1      39.871  33.373  30.148  1.00  0.00     0.031 C 
ATOM     32  C   UNL A   1      44.474  30.585  31.825  1.00  0.00     0.029 A 
ATOM     33  C   UNL A   1      43.537  31.608  31.682  1.00  0.00     0.049 A 
ATOM     34  H   UNL A   1      43.873  33.253  30.403  1.00  0.00     0.167 HD
ATOM     35  C   UNL A   1      41.269  32.590  31.828  1.00  0.00     0.074 A 
ATOM     36  C   UNL A   1      41.140  33.300  30.558  1.00  0.00     0.031 C 
ATOM     37  C   UNL A   1      42.313  31.917  32.394  1.00  0.00     0.034 A 
BRANCH  24  38
ATOM     38  C   UNL A   1      44.383  32.621  27.477  1.00  0.00     0.023 A 
ATOM     39  C   UNL A   1      43.774  33.800  27.952  1.00  0.00     0.031 A 
ATOM     40  C   UNL A   1      44.803  32.663  26.129  1.00  0.00     0.131 A 
ATOM     41  C   UNL A   1      43.440  34.850  27.079  1.00  0.00     0.055 A 
ATOM     42  C   UNL A   1      44.544  33.748  25.283  1.00  0.00     0.041 A 
ATOM     43  F   UNL A   1      45.414  31.639  25.524  1.00  0.00    -0.206 F 
ATOM     44  C   UNL A   1      43.814  34.830  25.741  1.00  0.00     0.022 A 
BRANCH  41  45
ATOM     45  S   UNL A   1      42.292  36.115  27.682  1.00  0.00     0.124 S 
ATOM     46  O   UNL A   1      41.016  35.415  27.577  1.00  0.00    -0.237 OA
ATOM     47  O   UNL A   1      42.791  36.350  29.033  1.00  0.00    -0.237 OA
ATOM     48  O   UNL A   1      42.482  37.217  26.743  1.00  0.00    -0.744 OA
ENDBRANCH  41  45
ENDBRANCH  24  38
BRANCH  25  49
ATOM     49  C   UNL A   1      36.679  32.466  30.619  1.00  0.00     0.023 A 
ATOM     50  C   UNL A   1      35.868  33.015  31.635  1.00  0.00     0.031 A 
ATOM     51  C   UNL A   1      36.290  32.736  29.287  1.00  0.00     0.131 A 
ATOM     52  C   UNL A   1      34.724  33.780  31.300  1.00  0.00     0.055 A 
ATOM     53  C   UNL A   1      35.155  33.479  28.961  1.00  0.00     0.041 A 
ATOM     54  F   UNL A   1      37.051  32.354  28.249  1.00  0.00    -0.206 F 
ATOM     55  C   UNL A   1      34.368  34.012  29.969  1.00  0.00     0.022 A 
BRANCH  52  56
ATOM     56  S   UNL A   1      33.724  34.576  32.600  1.00  0.00     0.124 S 
ATOM     57  O   UNL A   1      33.241  33.435  33.365  1.00  0.00    -0.237 OA
ATOM     58  O   UNL A   1      34.700  35.439  33.263  1.00  0.00    -0.237 OA
ATOM     59  O   UNL A   1      32.694  35.293  31.848  1.00  0.00    -0.744 OA
ENDBRANCH  52  56
ENDBRANCH  25  49
BRANCH  37  60
ATOM     60  C   UNL A   1      42.111  31.236  33.729  1.00  0.00     0.023 A 
ATOM     61  C   UNL A   1      41.981  29.842  33.911  1.00  0.00     0.031 A 
ATOM     62  C   UNL A   1      42.183  32.042  34.880  1.00  0.00     0.131 A 
ATOM     63  C   UNL A   1      41.917  29.305  35.211  1.00  0.00     0.055 A 
ATOM     64  C   UNL A   1      42.136  31.505  36.166  1.00  0.00     0.041 A 
ATOM     65  F   UNL A   1      42.341  33.372  34.774  1.00  0.00    -0.206 F 
ATOM     66  C   UNL A   1      41.997  30.133  36.336  1.00  0.00     0.022 A 
BRANCH  63  67
ATOM     67  S   UNL A   1      41.745  27.512  35.462  1.00  0.00     0.124 S 
ATOM     68  O   UNL A   1      43.098  27.004  35.274  1.00  0.00    -0.237 OA
ATOM     69  O   UNL A   1      41.212  27.434  36.819  1.00  0.00    -0.237 OA
ATOM     70  O   UNL A   1      40.794  27.106  34.423  1.00  0.00    -0.744 OA
ENDBRANCH  63  67
ENDBRANCH  37  60
ENDBRANCH  11  12
ENDBRANCH   4   6
ENDBRANCH   1   2
BRANCH   1  71
ATOM     71  C   UNL A   1      37.059  21.447  25.328  1.00  0.00     0.042 C 
BRANCH  71  72
ATOM     72  C   UNL A   1      35.709  21.592  26.034  1.00  0.00     0.118 C 
BRANCH  72  73
ATOM     73  N   UNL A   1      34.585  21.024  25.310  1.00  0.00    -0.351 N 
ATOM     74  C   UNL A   1      33.619  21.379  24.398  1.00  0.00     0.273 C 
ATOM     75  H   UNL A   1      34.481  20.075  25.550  1.00  0.00     0.163 HD
ATOM     76  O   UNL A   1      32.952  20.397  24.040  1.00  0.00    -0.267 OA
BRANCH  74  77
ATOM     77  C   UNL A   1      33.287  22.707  23.839  1.00  0.00     0.178 A 
ATOM     78  N   UNL A   1      32.762  22.711  22.552  1.00  0.00    -0.124 NA
ATOM     79  C   UNL A   1      33.313  24.035  24.271  1.00  0.00     0.122 A 
ATOM     80  N   UNL A   1      32.434  23.942  22.206  1.00  0.00    -0.061 NA
ATOM     81  N   UNL A   1      32.824  24.764  23.194  1.00  0.00    -0.213 N 
BRANCH  79  82
ATOM     82  C   UNL A   1      33.550  24.620  25.620  1.00  0.00     0.262 C 
ATOM     83  C   UNL A   1      32.277  24.480  26.472  1.00  0.00     0.281 C 
ATOM     84  O   UNL A   1      34.113  25.934  25.593  1.00  0.00    -0.477 OA
ATOM     85  O   UNL A   1      31.357  25.535  26.175  1.00  0.00    -0.485 OA
ATOM     86  C   UNL A   1      33.371  26.860  26.279  1.00  0.00     0.162 A 
ATOM     87  C   UNL A   1      31.996  26.708  26.489  1.00  0.00     0.161 A 
ATOM     88  C   UNL A   1      34.024  28.001  26.729  1.00  0.00     0.050 A 
ATOM     89  C   UNL A   1      31.250  27.730  27.054  1.00  0.00     0.050 A 
ATOM     90  C   UNL A   1      33.289  29.000  27.364  1.00  0.00     0.004 A 
ATOM     91  C   UNL A   1      31.904  28.876  27.502  1.00  0.00     0.004 A 
ENDBRANCH  79  82
BRANCH  81  92
ATOM     92  C   UNL A   1      32.773  26.156  23.010  1.00  0.00     0.067 A 
ATOM     93  C   UNL A   1      33.906  26.829  22.546  1.00  0.00     0.028 A 
ATOM     94  C   UNL A   1      31.542  26.811  23.139  1.00  0.00     0.041 A 
ATOM     95  C   UNL A   1      33.774  28.148  22.113  1.00  0.00     0.003 A 
ATOM     96  C   UNL A   1      31.413  28.142  22.720  1.00  0.00     0.058 A 
ATOM     97  C   UNL A   1      32.535  28.794  22.184  1.00  0.00     0.013 A 
BRANCH  96  98
ATOM     98  C   UNL A   1      30.073  28.831  22.763  1.00  0.00     0.416 C 
ATOM     99  F   UNL A   1      29.036  27.957  22.897  1.00  0.00    -0.166 F 
ATOM    100  F   UNL A   1      29.956  29.712  23.793  1.00  0.00    -0.166 F 
ATOM    101  F   UNL A   1      29.800  29.547  21.633  1.00  0.00    -0.166 F 
ENDBRANCH  96  98
ENDBRANCH  81  92
ENDBRANCH  74  77
ENDBRANCH  72  73
ENDBRANCH  71  72
ENDBRANCH   1  71
TORSDOF 16
ENDMDL
MODEL 2
REMARK VINA RESULT:     -14.0      4.191      9.422
REMARK SMILES O=C(NCCCNC(=O)c1nnn(-c2cccc(C(F)(F)F)c2)c1[C@@H]1COc2ccccc2O1)c1ccc(-c2c3nc(c(-c4cc(S(=O)(=O)[O-])ccc4F)c4ccc([nH]4)c(-c4cc(S(=O)(=O)[O-])ccc4F)c4nc(c(-c5cc(S(=O)(=O)[O-])ccc5F)c5ccc2[nH]5)C=C4)C=C3)cc1
REMARK SMILES IDX 4 1 3 2 1 3 2 4 35 6 36 7 97 8 37 9 96 10 38 11 39 12 40 13
REMARK SMILES IDX 90 14 41 15 95 16 89 17 91 18 42 19 94 20 88 21 87 22 43 24
REMARK SMILES IDX 75 25 55 26 74 27 56 28 59 29 73 30 92 31 57 32 58 33 72 35
REMARK SMILES IDX 93 36 60 37 44 38 45 39 53 40 46 41 52 42 54 43 51 44 47 45
REMARK SMILES IDX 48 46 49 47 50 48 76 49 77 50 85 51 78 52 84 53 86 54 83 55
REMARK SMILES IDX 79 56 80 57 81 58 82 59 61 60 62 61 70 62 63 63 69 64 71 65
REMARK SMILES IDX 68 66 64 67 65 68 66 69 67 70 5 71 6 72 7 73 8 74 9 76 10 77
REMARK SMILES IDX 11 78 24 79 12 80 13 81 25 82 26 83 34 84 27 85 33 86 28 87
REMARK SMILES IDX 32 88 29 89 31 90 30 91 14 92 15 93 23 94 16 95 18 96 17 97
REMARK SMILES IDX 19 98 20 99 21 100 22 101
REMARK H PARENT 3 5 91 23 59 34 7 75
REMARK Flexibility Score: inf
ROOT
ATOM      1  C   UNL A   1      33.526  30.016  27.585  1.00  0.00     0.118 C 
ENDROOT
BRANCH   1   2
ATOM      2  N   UNL A   1      34.252  31.271  27.656  1.00  0.00    -0.352 N 
ATOM      3  O   UNL A   1      35.748  32.873  27.726  1.00  0.00    -0.269 OA
ATOM      4  C   UNL A   1      35.551  31.658  27.836  1.00  0.00     0.251 C 
ATOM      5  H   UNL A   1      33.654  32.045  27.545  1.00  0.00     0.163 HD
BRANCH   4   6
ATOM      6  C   UNL A   1      36.703  30.773  28.175  1.00  0.00     0.039 A 
ATOM      7  C   UNL A   1      36.778  29.398  27.957  1.00  0.00     0.014 A 
ATOM      8  C   UNL A   1      37.801  31.411  28.788  1.00  0.00     0.014 A 
ATOM      9  C   UNL A   1      37.900  28.674  28.382  1.00  0.00     0.010 A 
ATOM     10  C   UNL A   1      38.922  30.696  29.207  1.00  0.00     0.010 A 
ATOM     11  C   UNL A   1      38.966  29.318  29.020  1.00  0.00    -0.014 A 
BRANCH  11  12
ATOM     12  C   UNL A   1      40.183  28.557  29.324  1.00  0.00     0.031 A 
ATOM     13  C   UNL A   1      40.529  28.463  30.772  1.00  0.00     0.074 A 
ATOM     14  C   UNL A   1      40.857  27.798  28.434  1.00  0.00     0.049 A 
ATOM     15  N   UNL A   1      41.606  28.855  31.373  1.00  0.00    -0.248 NA
ATOM     16  C   UNL A   1      39.500  27.942  31.684  1.00  0.00     0.031 C 
ATOM     17  C   UNL A   1      40.477  27.509  27.050  1.00  0.00     0.029 A 
ATOM     18  N   UNL A   1      41.970  27.023  28.619  1.00  0.00    -0.354 N 
ATOM     19  C   UNL A   1      41.485  28.440  32.700  1.00  0.00     0.074 A 
ATOM     20  C   UNL A   1      40.113  28.043  32.863  1.00  0.00     0.031 C 
ATOM     21  C   UNL A   1      41.207  26.464  26.598  1.00  0.00     0.029 A 
ATOM     22  C   UNL A   1      42.184  26.090  27.609  1.00  0.00     0.049 A 
ATOM     23  H   UNL A   1      42.565  27.117  29.398  1.00  0.00     0.167 HD
ATOM     24  C   UNL A   1      42.575  28.264  33.501  1.00  0.00     0.034 A 
ATOM     25  C   UNL A   1      43.048  25.039  27.618  1.00  0.00     0.034 A 
ATOM     26  C   UNL A   1      43.731  28.953  32.967  1.00  0.00     0.049 A 
ATOM     27  C   UNL A   1      44.094  25.327  28.627  1.00  0.00     0.074 A 
ATOM     28  C   UNL A   1      44.005  30.263  32.618  1.00  0.00     0.029 A 
ATOM     29  N   UNL A   1      44.745  28.212  32.400  1.00  0.00    -0.354 N 
ATOM     30  N   UNL A   1      44.964  26.292  28.513  1.00  0.00    -0.248 NA
ATOM     31  C   UNL A   1      43.916  24.812  29.976  1.00  0.00     0.031 C 
ATOM     32  C   UNL A   1      44.834  30.172  31.461  1.00  0.00     0.029 A 
ATOM     33  C   UNL A   1      45.066  28.818  31.213  1.00  0.00     0.049 A 
ATOM     34  H   UNL A   1      45.159  27.402  32.776  1.00  0.00     0.167 HD
ATOM     35  C   UNL A   1      45.119  26.789  29.797  1.00  0.00     0.074 A 
ATOM     36  C   UNL A   1      44.539  25.770  30.667  1.00  0.00     0.031 C 
ATOM     37  C   UNL A   1      45.444  28.097  30.015  1.00  0.00     0.034 A 
BRANCH  24  38
ATOM     38  C   UNL A   1      42.712  27.179  34.560  1.00  0.00     0.023 A 
ATOM     39  C   UNL A   1      43.532  26.079  34.235  1.00  0.00     0.031 A 
ATOM     40  C   UNL A   1      41.876  26.994  35.682  1.00  0.00     0.131 A 
ATOM     41  C   UNL A   1      43.367  24.836  34.869  1.00  0.00     0.055 A 
ATOM     42  C   UNL A   1      41.777  25.777  36.368  1.00  0.00     0.041 A 
ATOM     43  F   UNL A   1      41.049  27.940  36.139  1.00  0.00    -0.206 F 
ATOM     44  C   UNL A   1      42.487  24.672  35.931  1.00  0.00     0.022 A 
BRANCH  41  45
ATOM     45  S   UNL A   1      44.147  23.390  34.105  1.00  0.00     0.124 S 
ATOM     46  O   UNL A   1      45.449  23.932  33.732  1.00  0.00    -0.237 OA
ATOM     47  O   UNL A   1      44.138  22.432  35.206  1.00  0.00    -0.237 OA
ATOM     48  O   UNL A   1      43.257  23.074  32.992  1.00  0.00    -0.744 OA
ENDBRANCH  41  45
ENDBRANCH  24  38
BRANCH  25  49
ATOM     49  C   UNL A   1      42.845  23.697  27.003  1.00  0.00     0.023 A 
ATOM     50  C   UNL A   1      43.819  23.055  26.208  1.00  0.00     0.031 A 
ATOM     51  C   UNL A   1      41.735  22.912  27.395  1.00  0.00     0.131 A 
ATOM     52  C   UNL A   1      43.653  21.700  25.830  1.00  0.00     0.055 A 
ATOM     53  C   UNL A   1      41.570  21.581  27.010  1.00  0.00     0.041 A 
ATOM     54  F   UNL A   1      40.809  23.390  28.241  1.00  0.00    -0.206 F 
ATOM     55  C   UNL A   1      42.534  20.965  26.229  1.00  0.00     0.022 A 
BRANCH  52  56
ATOM     56  S   UNL A   1      44.949  20.833  24.886  1.00  0.00     0.124 S 
ATOM     57  O   UNL A   1      46.171  21.369  25.469  1.00  0.00    -0.237 OA
ATOM     58  O   UNL A   1      44.656  19.429  25.168  1.00  0.00    -0.237 OA
ATOM     59  O   UNL A   1      44.696  21.239  23.504  1.00  0.00    -0.744 OA
ENDBRANCH  52  56
ENDBRANCH  25  49
BRANCH  37  60
ATOM     60  C   UNL A   1      45.999  28.916  28.872  1.00  0.00     0.023 A 
ATOM     61  C   UNL A   1      47.367  29.007  28.535  1.00  0.00     0.031 A 
ATOM     62  C   UNL A   1      45.071  29.530  28.010  1.00  0.00     0.131 A 
ATOM     63  C   UNL A   1      47.762  29.703  27.376  1.00  0.00     0.055 A 
ATOM     64  C   UNL A   1      45.465  30.204  26.855  1.00  0.00     0.041 A 
ATOM     65  F   UNL A   1      43.753  29.450  28.258  1.00  0.00    -0.206 F 
ATOM     66  C   UNL A   1      46.813  30.299  26.536  1.00  0.00     0.022 A 
BRANCH  63  67
ATOM     67  S   UNL A   1      49.521  29.833  26.932  1.00  0.00     0.124 S 
ATOM     68  O   UNL A   1      49.684  31.234  26.567  1.00  0.00    -0.237 OA
ATOM     69  O   UNL A   1      50.187  29.408  28.159  1.00  0.00    -0.237 OA
ATOM     70  O   UNL A   1      49.667  28.894  25.817  1.00  0.00    -0.744 OA
ENDBRANCH  63  67
ENDBRANCH  37  60
ENDBRANCH  11  12
ENDBRANCH   4   6
ENDBRANCH   1   2
BRANCH   1  71
ATOM     71  C   UNL A   1      33.115  29.602  26.173  1.00  0.00     0.042 C 
BRANCH  71  72
ATOM     72  C   UNL A   1      31.677  29.968  25.805  1.00  0.00     0.118 C 
BRANCH  72  73
ATOM     73  N   UNL A   1      31.325  29.716  24.418  1.00  0.00    -0.351 N 
ATOM     74  C   UNL A   1      30.998  28.679  23.575  1.00  0.00     0.273 C 
ATOM     75  H   UNL A   1      31.317  30.564  23.918  1.00  0.00     0.163 HD
ATOM     76  O   UNL A   1      30.676  29.094  22.452  1.00  0.00    -0.267 OA
BRANCH  74  77
ATOM     77  C   UNL A   1      31.001  27.222  23.822  1.00  0.00     0.178 A 
ATOM     78  N   UNL A   1      29.765  26.589  23.744  1.00  0.00    -0.124 NA
ATOM     79  C   UNL A   1      31.948  26.230  24.087  1.00  0.00     0.122 A 
ATOM     80  N   UNL A   1      29.918  25.287  23.901  1.00  0.00    -0.061 NA
ATOM     81  N   UNL A   1      31.210  25.057  24.182  1.00  0.00    -0.213 N 
BRANCH  79  82
ATOM     82  C   UNL A   1      33.436  26.264  24.050  1.00  0.00     0.262 C 
ATOM     83  C   UNL A   1      33.922  25.952  22.625  1.00  0.00     0.281 C 
ATOM     84  O   UNL A   1      34.061  25.494  25.081  1.00  0.00    -0.477 OA
ATOM     85  O   UNL A   1      33.949  24.539  22.402  1.00  0.00    -0.485 OA
ATOM     86  C   UNL A   1      34.938  24.555  24.603  1.00  0.00     0.162 A 
ATOM     87  C   UNL A   1      34.831  24.018  23.316  1.00  0.00     0.161 A 
ATOM     88  C   UNL A   1      35.931  24.106  25.466  1.00  0.00     0.050 A 
ATOM     89  C   UNL A   1      35.640  22.965  22.919  1.00  0.00     0.050 A 
ATOM     90  C   UNL A   1      36.795  23.097  25.044  1.00  0.00     0.004 A 
ATOM     91  C   UNL A   1      36.633  22.512  23.785  1.00  0.00     0.004 A 
ENDBRANCH  79  82
BRANCH  81  92
ATOM     92  C   UNL A   1      31.622  23.775  24.586  1.00  0.00     0.067 A 
ATOM     93  C   UNL A   1      31.673  22.743  23.646  1.00  0.00     0.028 A 
ATOM     94  C   UNL A   1      32.128  23.603  25.881  1.00  0.00     0.041 A 
ATOM     95  C   UNL A   1      32.331  21.560  23.983  1.00  0.00     0.003 A 
ATOM     96  C   UNL A   1      32.774  22.409  26.225  1.00  0.00     0.058 A 
ATOM     97  C   UNL A   1      32.890  21.400  25.255  1.00  0.00     0.013 A 
BRANCH  96  98
ATOM     98  C   UNL A   1      33.407  22.244  27.582  1.00  0.00     0.416 C 
ATOM     99  F   UNL A   1      34.261  21.182  27.638  1.00  0.00    -0.166 F 
ATOM    100  F   UNL A   1      34.130  23.328  27.973  1.00  0.00    -0.166 F 
ATOM    101  F   UNL A   1      32.498  22.029  28.578  1.00  0.00    -0.166 F 
ENDBRANCH  96  98
ENDBRANCH  81  92
ENDBRANCH  74  77
ENDBRANCH  72  73
ENDBRANCH  71  72
ENDBRANCH   1  71
TORSDOF 16
ENDMDL
MODEL 3
REMARK VINA RESULT:     -14.0      1.222      1.573
REMARK SMILES O=C(NCCCNC(=O)c1nnn(-c2cccc(C(F)(F)F)c2)c1[C@@H]1COc2ccccc2O1)c1ccc(-c2c3nc(c(-c4cc(S(=O)(=O)[O-])ccc4F)c4ccc([nH]4)c(-c4cc(S(=O)(=O)[O-])ccc4F)c4nc(c(-c5cc(S(=O)(=O)[O-])ccc5F)c5ccc2[nH]5)C=C4)C=C3)cc1
REMARK SMILES IDX 4 1 3 2 1 3 2 4 35 6 36 7 97 8 37 9 96 10 38 11 39 12 40 13
REMARK SMILES IDX 90 14 41 15 95 16 89 17 91 18 42 19 94 20 88 21 87 22 43 24
REMARK SMILES IDX 75 25 55 26 74 27 56 28 59 29 73 30 92 31 57 32 58 33 72 35
REMARK SMILES IDX 93 36 60 37 44 38 45 39 53 40 46 41 52 42 54 43 51 44 47 45
REMARK SMILES IDX 48 46 49 47 50 48 76 49 77 50 85 51 78 52 84 53 86 54 83 55
REMARK SMILES IDX 79 56 80 57 81 58 82 59 61 60 62 61 70 62 63 63 69 64 71 65
REMARK SMILES IDX 68 66 64 67 65 68 66 69 67 70 5 71 6 72 7 73 8 74 9 76 10 77
REMARK SMILES IDX 11 78 24 79 12 80 13 81 25 82 26 83 34 84 27 85 33 86 28 87
REMARK SMILES IDX 32 88 29 89 31 90 30 91 14 92 15 93 23 94 16 95 18 96 17 97
REMARK SMILES IDX 19 98 20 99 21 100 22 101
REMARK H PARENT 3 5 91 23 59 34 7 75
REMARK Flexibility Score: inf
ROOT
ATOM      1  C   UNL A   1      37.990  22.636  25.592  1.00  0.00     0.118 C 
ENDROOT
BRANCH   1   2
ATOM      2  N   UNL A   1      39.130  22.229  26.392  1.00  0.00    -0.352 N 
ATOM      3  O   UNL A   1      40.775  22.049  27.832  1.00  0.00    -0.269 OA
ATOM      4  C   UNL A   1      39.967  22.818  27.300  1.00  0.00     0.251 C 
ATOM      5  H   UNL A   1      39.362  21.284  26.243  1.00  0.00     0.163 HD
BRANCH   4   6
ATOM      6  C   UNL A   1      40.007  24.263  27.666  1.00  0.00     0.039 A 
ATOM      7  C   UNL A   1      39.056  25.225  27.327  1.00  0.00     0.014 A 
ATOM      8  C   UNL A   1      41.133  24.672  28.410  1.00  0.00     0.014 A 
ATOM      9  C   UNL A   1      39.248  26.566  27.683  1.00  0.00     0.010 A 
ATOM     10  C   UNL A   1      41.325  26.004  28.772  1.00  0.00     0.010 A 
ATOM     11  C   UNL A   1      40.388  26.960  28.393  1.00  0.00    -0.014 A 
BRANCH  11  12
ATOM     12  C   UNL A   1      40.490  28.344  28.871  1.00  0.00     0.031 A 
ATOM     13  C   UNL A   1      41.640  29.123  28.327  1.00  0.00     0.074 A 
ATOM     14  C   UNL A   1      39.534  28.984  29.577  1.00  0.00     0.049 A 
ATOM     15  N   UNL A   1      42.607  29.693  28.969  1.00  0.00    -0.248 NA
ATOM     16  C   UNL A   1      41.775  29.201  26.864  1.00  0.00     0.031 C 
ATOM     17  C   UNL A   1      38.201  28.485  29.919  1.00  0.00     0.029 A 
ATOM     18  N   UNL A   1      39.510  30.274  30.035  1.00  0.00    -0.354 N 
ATOM     19  C   UNL A   1      43.357  30.382  28.015  1.00  0.00     0.074 A 
ATOM     20  C   UNL A   1      42.900  29.905  26.739  1.00  0.00     0.031 C 
ATOM     21  C   UNL A   1      37.430  29.518  30.327  1.00  0.00     0.029 A 
ATOM     22  C   UNL A   1      38.241  30.725  30.390  1.00  0.00     0.049 A 
ATOM     23  H   UNL A   1      40.317  30.833  30.106  1.00  0.00     0.167 HD
ATOM     24  C   UNL A   1      44.150  31.440  28.350  1.00  0.00     0.034 A 
ATOM     25  C   UNL A   1      37.856  32.003  30.651  1.00  0.00     0.034 A 
ATOM     26  C   UNL A   1      44.437  31.448  29.769  1.00  0.00     0.049 A 
ATOM     27  C   UNL A   1      39.070  32.772  31.014  1.00  0.00     0.074 A 
ATOM     28  C   UNL A   1      45.003  30.544  30.650  1.00  0.00     0.029 A 
ATOM     29  N   UNL A   1      43.828  32.391  30.566  1.00  0.00    -0.354 N 
ATOM     30  N   UNL A   1      39.767  32.556  32.094  1.00  0.00    -0.248 NA
ATOM     31  C   UNL A   1      39.763  33.507  29.967  1.00  0.00     0.031 C 
ATOM     32  C   UNL A   1      44.270  30.703  31.863  1.00  0.00     0.029 A 
ATOM     33  C   UNL A   1      43.349  31.732  31.669  1.00  0.00     0.049 A 
ATOM     34  H   UNL A   1      43.751  33.355  30.380  1.00  0.00     0.167 HD
ATOM     35  C   UNL A   1      41.086  32.737  31.711  1.00  0.00     0.074 A 
ATOM     36  C   UNL A   1      41.014  33.428  30.427  1.00  0.00     0.031 C 
ATOM     37  C   UNL A   1      42.101  32.063  32.328  1.00  0.00     0.034 A 
BRANCH  24  38
ATOM     38  C   UNL A   1      44.368  32.674  27.486  1.00  0.00     0.023 A 
ATOM     39  C   UNL A   1      43.758  33.867  27.923  1.00  0.00     0.031 A 
ATOM     40  C   UNL A   1      44.835  32.691  26.153  1.00  0.00     0.131 A 
ATOM     41  C   UNL A   1      43.468  34.908  27.025  1.00  0.00     0.055 A 
ATOM     42  C   UNL A   1      44.620  33.766  25.283  1.00  0.00     0.041 A 
ATOM     43  F   UNL A   1      45.454  31.651  25.584  1.00  0.00    -0.206 F 
ATOM     44  C   UNL A   1      43.888  34.864  25.701  1.00  0.00     0.022 A 
BRANCH  41  45
ATOM     45  S   UNL A   1      42.317  36.196  27.569  1.00  0.00     0.124 S 
ATOM     46  O   UNL A   1      42.610  37.261  26.616  1.00  0.00    -0.237 OA
ATOM     47  O   UNL A   1      41.028  35.528  27.415  1.00  0.00    -0.237 OA
ATOM     48  O   UNL A   1      42.727  36.456  28.946  1.00  0.00    -0.744 OA
ENDBRANCH  41  45
ENDBRANCH  24  38
BRANCH  25  49
ATOM     49  C   UNL A   1      36.547  32.636  30.326  1.00  0.00     0.023 A 
ATOM     50  C   UNL A   1      35.771  33.338  31.274  1.00  0.00     0.031 A 
ATOM     51  C   UNL A   1      36.144  32.750  28.975  1.00  0.00     0.131 A 
ATOM     52  C   UNL A   1      34.648  34.094  30.858  1.00  0.00     0.055 A 
ATOM     53  C   UNL A   1      35.030  33.486  28.572  1.00  0.00     0.041 A 
ATOM     54  F   UNL A   1      36.875  32.215  27.984  1.00  0.00    -0.206 F 
ATOM     55  C   UNL A   1      34.278  34.169  29.514  1.00  0.00     0.022 A 
BRANCH  52  56
ATOM     56  S   UNL A   1      33.696  35.083  32.059  1.00  0.00     0.124 S 
ATOM     57  O   UNL A   1      34.726  35.918  32.661  1.00  0.00    -0.237 OA
ATOM     58  O   UNL A   1      32.724  35.762  31.205  1.00  0.00    -0.237 OA
ATOM     59  O   UNL A   1      33.121  34.077  32.951  1.00  0.00    -0.744 OA
ENDBRANCH  52  56
ENDBRANCH  25  49
BRANCH  37  60
ATOM     60  C   UNL A   1      41.840  31.404  33.664  1.00  0.00     0.023 A 
ATOM     61  C   UNL A   1      41.950  32.049  34.915  1.00  0.00     0.031 A 
ATOM     62  C   UNL A   1      41.332  30.092  33.648  1.00  0.00     0.131 A 
ATOM     63  C   UNL A   1      41.567  31.375  36.090  1.00  0.00     0.055 A 
ATOM     64  C   UNL A   1      40.938  29.434  34.811  1.00  0.00     0.041 A 
ATOM     65  F   UNL A   1      41.172  29.438  32.485  1.00  0.00    -0.206 F 
ATOM     66  C   UNL A   1      41.060  30.072  36.040  1.00  0.00     0.022 A 
BRANCH  63  67
ATOM     67  S   UNL A   1      41.708  32.191  37.710  1.00  0.00     0.124 S 
ATOM     68  O   UNL A   1      42.553  31.289  38.481  1.00  0.00    -0.237 OA
ATOM     69  O   UNL A   1      42.297  33.482  37.362  1.00  0.00    -0.237 OA
ATOM     70  O   UNL A   1      40.322  32.275  38.178  1.00  0.00    -0.744 OA
ENDBRANCH  63  67
ENDBRANCH  37  60
ENDBRANCH  11  12
ENDBRANCH   4   6
ENDBRANCH   1   2
BRANCH   1  71
ATOM     71  C   UNL A   1      36.962  21.532  25.350  1.00  0.00     0.042 C 
BRANCH  71  72
ATOM     72  C   UNL A   1      35.633  21.741  26.077  1.00  0.00     0.118 C 
BRANCH  72  73
ATOM     73  N   UNL A   1      34.477  21.184  25.395  1.00  0.00    -0.351 N 
ATOM     74  C   UNL A   1      33.490  21.545  24.509  1.00  0.00     0.273 C 
ATOM     75  H   UNL A   1      34.365  20.240  25.650  1.00  0.00     0.163 HD
ATOM     76  O   UNL A   1      32.796  20.570  24.184  1.00  0.00    -0.267 OA
BRANCH  74  77
ATOM     77  C   UNL A   1      33.162  22.871  23.944  1.00  0.00     0.178 A 
ATOM     78  N   UNL A   1      32.593  22.870  22.676  1.00  0.00    -0.124 NA
ATOM     79  C   UNL A   1      33.227  24.204  24.358  1.00  0.00     0.122 A 
ATOM     80  N   UNL A   1      32.275  24.102  22.326  1.00  0.00    -0.061 NA
ATOM     81  N   UNL A   1      32.714  24.928  23.290  1.00  0.00    -0.213 N 
BRANCH  79  82
ATOM     82  C   UNL A   1      33.520  24.802  25.691  1.00  0.00     0.262 C 
ATOM     83  C   UNL A   1      32.253  24.759  26.563  1.00  0.00     0.281 C 
ATOM     84  O   UNL A   1      34.164  26.077  25.627  1.00  0.00    -0.477 OA
ATOM     85  O   UNL A   1      31.397  25.863  26.256  1.00  0.00    -0.485 OA
ATOM     86  C   UNL A   1      33.491  27.061  26.303  1.00  0.00     0.162 A 
ATOM     87  C   UNL A   1      32.112  27.000  26.535  1.00  0.00     0.161 A 
ATOM     88  C   UNL A   1      34.221  28.168  26.719  1.00  0.00     0.050 A 
ATOM     89  C   UNL A   1      31.440  28.079  27.088  1.00  0.00     0.050 A 
ATOM     90  C   UNL A   1      33.559  29.225  27.343  1.00  0.00     0.004 A 
ATOM     91  C   UNL A   1      32.171  29.191  27.502  1.00  0.00     0.004 A 
ENDBRANCH  79  82
BRANCH  81  92
ATOM     92  C   UNL A   1      32.681  26.319  23.090  1.00  0.00     0.067 A 
ATOM     93  C   UNL A   1      33.836  26.978  22.663  1.00  0.00     0.028 A 
ATOM     94  C   UNL A   1      31.452  26.985  23.165  1.00  0.00     0.041 A 
ATOM     95  C   UNL A   1      33.732  28.294  22.211  1.00  0.00     0.003 A 
ATOM     96  C   UNL A   1      31.349  28.312  22.726  1.00  0.00     0.058 A 
ATOM     97  C   UNL A   1      32.496  28.950  22.227  1.00  0.00     0.013 A 
BRANCH  96  98
ATOM     98  C   UNL A   1      30.015  29.013  22.711  1.00  0.00     0.416 C 
ATOM     99  F   UNL A   1      29.823  29.800  23.808  1.00  0.00    -0.166 F 
ATOM    100  F   UNL A   1      29.847  29.824  21.633  1.00  0.00    -0.166 F 
ATOM    101  F   UNL A   1      28.955  28.152  22.693  1.00  0.00    -0.166 F 
ENDBRANCH  96  98
ENDBRANCH  81  92
ENDBRANCH  74  77
ENDBRANCH  72  73
ENDBRANCH  71  72
ENDBRANCH   1  71
TORSDOF 16
ENDMDL
