MODEL 1
REMARK VINA RESULT:     -12.0      0.000      0.000
REMARK SMILES C[C@@H]1Oc2ccccc2N(CC(=O)NCCCNC(=O)c2ccc(-c3c4nc(c(-c5cc(S(=O)(=O)[O-])ccc5F)c5ccc([nH]5)c(-c5cc(S(=O)(=O)[O-])ccc5F)c5nc(c(-c6cc(S(=O)(=O)[O-])ccc6F)c6ccc3[nH]6)C=C5)C=C4)cc2)C1=O
REMARK SMILES IDX 17 1 16 2 15 3 14 4 12 5 13 6 11 8 10 9 1 10 2 11 3 12 84 13
REMARK SMILES IDX 4 14 85 15 5 16 9 17 6 18 8 19 7 20 18 21 19 22 20 24 21 25
REMARK SMILES IDX 22 26 83 27 23 28 82 29 24 30 25 31 26 32 76 33 27 34 81 35
REMARK SMILES IDX 75 36 77 37 28 38 80 39 74 40 73 41 29 43 61 44 41 45 60 46
REMARK SMILES IDX 42 47 45 48 59 49 78 50 43 51 44 52 58 54 79 55 46 56 30 57
REMARK SMILES IDX 31 58 39 59 32 60 38 61 40 62 37 63 33 64 34 65 35 66 36 67
REMARK SMILES IDX 62 68 63 69 71 70 64 71 70 72 72 73 69 74 65 75 66 76 67 77
REMARK SMILES IDX 68 78 47 79 48 80 56 81 49 82 55 83 57 84 54 85 50 86 51 87
REMARK SMILES IDX 52 88 53 89
REMARK H PARENT 14 7 18 23 77 42 45 53
REMARK Flexibility Score: inf
ROOT
ATOM      1  C   UNL A   1      32.876  29.557  26.275  1.00  0.00     0.118 C 
ENDROOT
BRANCH   1   2
ATOM      2  C   UNL A   1      31.885  28.635  26.978  1.00  0.00     0.042 C 
BRANCH   2   3
ATOM      3  C   UNL A   1      31.091  27.733  26.040  1.00  0.00     0.117 C 
BRANCH   3   4
ATOM      4  N   UNL A   1      31.085  26.355  26.500  1.00  0.00    -0.354 N 
ATOM      5  C   UNL A   1      32.063  25.407  26.460  1.00  0.00     0.240 C 
ATOM      6  O   UNL A   1      31.820  24.324  27.003  1.00  0.00    -0.273 OA
ATOM      7  H   UNL A   1      30.239  26.058  26.906  1.00  0.00     0.163 HD
BRANCH   5   8
ATOM      8  C   UNL A   1      33.440  25.678  25.837  1.00  0.00     0.225 C 
BRANCH   8   9
ATOM      9  N   UNL A   1      33.812  24.840  24.695  1.00  0.00    -0.296 N 
ATOM     10  C   UNL A   1      32.398  22.582  22.710  1.00  0.00     0.064 C 
ATOM     11  C   UNL A   1      33.310  23.788  22.511  1.00  0.00     0.259 C 
ATOM     12  O   UNL A   1      34.639  23.323  22.385  1.00  0.00    -0.479 OA
ATOM     13  C   UNL A   1      32.993  24.845  23.574  1.00  0.00     0.268 C 
ATOM     14  C   UNL A   1      35.358  23.330  23.547  1.00  0.00     0.144 A 
ATOM     15  O   UNL A   1      32.014  25.587  23.458  1.00  0.00    -0.270 OA
ATOM     16  C   UNL A   1      36.513  22.542  23.520  1.00  0.00     0.049 A 
ATOM     17  C   UNL A   1      35.022  24.087  24.680  1.00  0.00     0.087 A 
ATOM     18  C   UNL A   1      37.369  22.515  24.616  1.00  0.00     0.004 A 
ATOM     19  C   UNL A   1      35.928  24.091  25.751  1.00  0.00     0.030 A 
ATOM     20  C   UNL A   1      37.086  23.306  25.723  1.00  0.00     0.002 A 
ENDBRANCH   8   9
ENDBRANCH   5   8
ENDBRANCH   3   4
ENDBRANCH   2   3
ENDBRANCH   1   2
BRANCH   1  21
ATOM     21  N   UNL A   1      32.846  30.925  26.777  1.00  0.00    -0.352 N 
ATOM     22  C   UNL A   1      33.716  31.632  27.578  1.00  0.00     0.251 C 
ATOM     23  H   UNL A   1      32.058  31.440  26.490  1.00  0.00     0.163 HD
ATOM     24  O   UNL A   1      33.362  32.745  27.976  1.00  0.00    -0.269 OA
BRANCH  22  25
ATOM     25  C   UNL A   1      35.028  31.085  28.011  1.00  0.00     0.039 A 
ATOM     26  C   UNL A   1      35.193  29.755  28.387  1.00  0.00     0.014 A 
ATOM     27  C   UNL A   1      36.149  31.927  28.001  1.00  0.00     0.014 A 
ATOM     28  C   UNL A   1      36.395  29.329  28.953  1.00  0.00     0.010 A 
ATOM     29  C   UNL A   1      37.391  31.461  28.456  1.00  0.00     0.010 A 
ATOM     30  C   UNL A   1      37.515  30.174  28.999  1.00  0.00    -0.014 A 
BRANCH  30  31
ATOM     31  C   UNL A   1      38.790  29.692  29.611  1.00  0.00     0.031 A 
ATOM     32  C   UNL A   1      39.229  30.177  30.971  1.00  0.00     0.074 A 
ATOM     33  C   UNL A   1      39.536  28.772  28.966  1.00  0.00     0.049 A 
ATOM     34  N   UNL A   1      40.287  29.838  31.666  1.00  0.00    -0.248 NA
ATOM     35  C   UNL A   1      38.379  31.177  31.637  1.00  0.00     0.031 C 
ATOM     36  C   UNL A   1      39.225  28.222  27.646  1.00  0.00     0.029 A 
ATOM     37  N   UNL A   1      40.689  28.117  29.332  1.00  0.00    -0.354 N 
ATOM     38  C   UNL A   1      40.235  30.588  32.837  1.00  0.00     0.074 A 
ATOM     39  C   UNL A   1      39.072  31.440  32.736  1.00  0.00     0.031 C 
ATOM     40  C   UNL A   1      40.117  27.271  27.344  1.00  0.00     0.029 A 
ATOM     41  C   UNL A   1      41.118  27.194  28.405  1.00  0.00     0.049 A 
ATOM     42  H   UNL A   1      41.161  28.292  30.178  1.00  0.00     0.167 HD
ATOM     43  C   UNL A   1      41.064  30.552  33.910  1.00  0.00     0.034 A 
ATOM     44  C   UNL A   1      42.196  26.381  28.396  1.00  0.00     0.034 A 
ATOM     45  C   UNL A   1      42.215  29.689  34.008  1.00  0.00     0.049 A 
ATOM     46  C   UNL A   1      43.128  26.388  29.579  1.00  0.00     0.074 A 
ATOM     47  C   UNL A   1      43.105  29.569  35.061  1.00  0.00     0.029 A 
ATOM     48  N   UNL A   1      42.634  28.795  33.031  1.00  0.00    -0.354 N 
ATOM     49  N   UNL A   1      43.039  27.075  30.693  1.00  0.00    -0.248 NA
ATOM     50  C   UNL A   1      44.304  25.508  29.512  1.00  0.00     0.031 C 
ATOM     51  C   UNL A   1      44.100  28.664  34.694  1.00  0.00     0.029 A 
ATOM     52  C   UNL A   1      43.784  28.143  33.449  1.00  0.00     0.049 A 
ATOM     53  H   UNL A   1      42.182  28.647  32.170  1.00  0.00     0.167 HD
ATOM     54  C   UNL A   1      44.128  26.690  31.472  1.00  0.00     0.074 A 
ATOM     55  C   UNL A   1      44.848  25.691  30.709  1.00  0.00     0.031 C 
ATOM     56  C   UNL A   1      44.493  27.128  32.702  1.00  0.00     0.034 A 
BRANCH  43  57
ATOM     57  C   UNL A   1      40.767  31.457  35.086  1.00  0.00     0.023 A 
ATOM     58  C   UNL A   1      39.656  31.200  35.913  1.00  0.00     0.031 A 
ATOM     59  C   UNL A   1      41.497  32.638  35.311  1.00  0.00     0.131 A 
ATOM     60  C   UNL A   1      39.289  32.125  36.899  1.00  0.00     0.055 A 
ATOM     61  C   UNL A   1      41.159  33.531  36.329  1.00  0.00     0.041 A 
ATOM     62  F   UNL A   1      42.562  32.937  34.549  1.00  0.00    -0.206 F 
ATOM     63  C   UNL A   1      40.041  33.284  37.119  1.00  0.00     0.022 A 
BRANCH  60  64
ATOM     64  S   UNL A   1      37.778  31.905  37.880  1.00  0.00     0.124 S 
ATOM     65  O   UNL A   1      37.404  30.533  37.547  1.00  0.00    -0.237 OA
ATOM     66  O   UNL A   1      38.268  32.105  39.241  1.00  0.00    -0.237 OA
ATOM     67  O   UNL A   1      36.878  32.935  37.375  1.00  0.00    -0.744 OA
ENDBRANCH  60  64
ENDBRANCH  43  57
BRANCH  44  68
ATOM     68  C   UNL A   1      42.397  25.459  27.237  1.00  0.00     0.023 A 
ATOM     69  C   UNL A   1      41.878  24.150  27.256  1.00  0.00     0.031 A 
ATOM     70  C   UNL A   1      43.215  25.828  26.155  1.00  0.00     0.131 A 
ATOM     71  C   UNL A   1      42.258  23.234  26.265  1.00  0.00     0.055 A 
ATOM     72  C   UNL A   1      43.521  24.936  25.126  1.00  0.00     0.041 A 
ATOM     73  F   UNL A   1      43.742  27.059  26.096  1.00  0.00    -0.206 F 
ATOM     74  C   UNL A   1      43.059  23.624  25.189  1.00  0.00     0.022 A 
BRANCH  71  75
ATOM     75  S   UNL A   1      41.849  21.474  26.424  1.00  0.00     0.124 S 
ATOM     76  O   UNL A   1      40.411  21.469  26.169  1.00  0.00    -0.237 OA
ATOM     77  O   UNL A   1      42.678  20.883  25.377  1.00  0.00    -0.237 OA
ATOM     78  O   UNL A   1      42.248  21.149  27.789  1.00  0.00    -0.744 OA
ENDBRANCH  71  75
ENDBRANCH  44  68
BRANCH  56  79
ATOM     79  C   UNL A   1      45.721  26.534  33.357  1.00  0.00     0.023 A 
ATOM     80  C   UNL A   1      45.597  25.379  34.155  1.00  0.00     0.031 A 
ATOM     81  C   UNL A   1      46.963  27.191  33.333  1.00  0.00     0.131 A 
ATOM     82  C   UNL A   1      46.677  24.947  34.934  1.00  0.00     0.055 A 
ATOM     83  C   UNL A   1      48.055  26.722  34.066  1.00  0.00     0.041 A 
ATOM     84  F   UNL A   1      47.133  28.304  32.601  1.00  0.00    -0.206 F 
ATOM     85  C   UNL A   1      47.909  25.606  34.886  1.00  0.00     0.022 A 
BRANCH  82  86
ATOM     86  S   UNL A   1      46.491  23.585  36.119  1.00  0.00     0.124 S 
ATOM     87  O   UNL A   1      47.119  24.139  37.317  1.00  0.00    -0.237 OA
ATOM     88  O   UNL A   1      45.039  23.436  36.189  1.00  0.00    -0.237 OA
ATOM     89  O   UNL A   1      47.207  22.476  35.498  1.00  0.00    -0.744 OA
ENDBRANCH  82  86
ENDBRANCH  56  79
ENDBRANCH  30  31
ENDBRANCH  22  25
ENDBRANCH   1  21
TORSDOF 14
ENDMDL
MODEL 2
REMARK VINA RESULT:     -11.8      4.882     10.123
REMARK SMILES C[C@@H]1Oc2ccccc2N(CC(=O)NCCCNC(=O)c2ccc(-c3c4nc(c(-c5cc(S(=O)(=O)[O-])ccc5F)c5ccc([nH]5)c(-c5cc(S(=O)(=O)[O-])ccc5F)c5nc(c(-c6cc(S(=O)(=O)[O-])ccc6F)c6ccc3[nH]6)C=C5)C=C4)cc2)C1=O
REMARK SMILES IDX 17 1 16 2 15 3 14 4 12 5 13 6 11 8 10 9 1 10 2 11 3 12 84 13
REMARK SMILES IDX 4 14 85 15 5 16 9 17 6 18 8 19 7 20 18 21 19 22 20 24 21 25
REMARK SMILES IDX 22 26 83 27 23 28 82 29 24 30 25 31 26 32 76 33 27 34 81 35
REMARK SMILES IDX 75 36 77 37 28 38 80 39 74 40 73 41 29 43 61 44 41 45 60 46
REMARK SMILES IDX 42 47 45 48 59 49 78 50 43 51 44 52 58 54 79 55 46 56 30 57
REMARK SMILES IDX 31 58 39 59 32 60 38 61 40 62 37 63 33 64 34 65 35 66 36 67
REMARK SMILES IDX 62 68 63 69 71 70 64 71 70 72 72 73 69 74 65 75 66 76 67 77
REMARK SMILES IDX 68 78 47 79 48 80 56 81 49 82 55 83 57 84 54 85 50 86 51 87
REMARK SMILES IDX 52 88 53 89
REMARK H PARENT 14 7 18 23 77 42 45 53
REMARK Flexibility Score: inf
ROOT
ATOM      1  C   UNL A   1      37.070  21.235  25.121  1.00  0.00     0.118 C 
ENDROOT
BRANCH   1   2
ATOM      2  C   UNL A   1      35.720  20.548  24.939  1.00  0.00     0.042 C 
BRANCH   2   3
ATOM      3  C   UNL A   1      34.517  21.465  25.132  1.00  0.00     0.117 C 
BRANCH   3   4
ATOM      4  N   UNL A   1      34.417  22.447  24.066  1.00  0.00    -0.354 N 
ATOM      5  C   UNL A   1      34.311  23.805  24.123  1.00  0.00     0.240 C 
ATOM      6  O   UNL A   1      34.325  24.416  23.049  1.00  0.00    -0.273 OA
ATOM      7  H   UNL A   1      34.427  22.072  23.156  1.00  0.00     0.163 HD
BRANCH   5   8
ATOM      8  C   UNL A   1      34.250  24.565  25.456  1.00  0.00     0.225 C 
BRANCH   8   9
ATOM      9  N   UNL A   1      32.981  25.224  25.769  1.00  0.00    -0.296 N 
ATOM     10  C   UNL A   1      29.953  25.541  24.436  1.00  0.00     0.064 C 
ATOM     11  C   UNL A   1      30.506  25.268  25.831  1.00  0.00     0.259 C 
ATOM     12  O   UNL A   1      30.506  26.483  26.553  1.00  0.00    -0.479 OA
ATOM     13  C   UNL A   1      31.813  24.476  25.714  1.00  0.00     0.268 C 
ATOM     14  C   UNL A   1      31.692  27.162  26.526  1.00  0.00     0.144 A 
ATOM     15  O   UNL A   1      31.800  23.261  25.500  1.00  0.00    -0.270 OA
ATOM     16  C   UNL A   1      31.600  28.505  26.902  1.00  0.00     0.049 A 
ATOM     17  C   UNL A   1      32.926  26.583  26.198  1.00  0.00     0.087 A 
ATOM     18  C   UNL A   1      32.745  29.291  26.982  1.00  0.00     0.004 A 
ATOM     19  C   UNL A   1      34.075  27.376  26.340  1.00  0.00     0.030 A 
ATOM     20  C   UNL A   1      33.984  28.720  26.721  1.00  0.00     0.002 A 
ENDBRANCH   8   9
ENDBRANCH   5   8
ENDBRANCH   3   4
ENDBRANCH   2   3
ENDBRANCH   1   2
BRANCH   1  21
ATOM     21  N   UNL A   1      38.147  20.309  25.450  1.00  0.00    -0.352 N 
ATOM     22  C   UNL A   1      39.393  20.505  26.003  1.00  0.00     0.251 C 
ATOM     23  H   UNL A   1      37.947  19.370  25.237  1.00  0.00     0.163 HD
ATOM     24  O   UNL A   1      40.171  19.547  26.031  1.00  0.00    -0.269 OA
BRANCH  22  25
ATOM     25  C   UNL A   1      39.842  21.824  26.518  1.00  0.00     0.039 A 
ATOM     26  C   UNL A   1      39.244  23.019  26.126  1.00  0.00     0.014 A 
ATOM     27  C   UNL A   1      40.876  21.867  27.463  1.00  0.00     0.014 A 
ATOM     28  C   UNL A   1      39.807  24.241  26.495  1.00  0.00     0.010 A 
ATOM     29  C   UNL A   1      41.362  23.097  27.929  1.00  0.00     0.010 A 
ATOM     30  C   UNL A   1      40.877  24.302  27.401  1.00  0.00    -0.014 A 
BRANCH  30  31
ATOM     31  C   UNL A   1      41.462  25.625  27.778  1.00  0.00     0.031 A 
ATOM     32  C   UNL A   1      42.844  26.020  27.320  1.00  0.00     0.074 A 
ATOM     33  C   UNL A   1      40.728  26.501  28.494  1.00  0.00     0.049 A 
ATOM     34  N   UNL A   1      43.493  27.139  27.526  1.00  0.00    -0.248 NA
ATOM     35  C   UNL A   1      43.603  25.031  26.538  1.00  0.00     0.031 C 
ATOM     36  C   UNL A   1      39.379  26.243  28.999  1.00  0.00     0.029 A 
ATOM     37  N   UNL A   1      40.992  27.788  28.901  1.00  0.00    -0.354 N 
ATOM     38  C   UNL A   1      44.733  26.985  26.913  1.00  0.00     0.074 A 
ATOM     39  C   UNL A   1      44.768  25.643  26.374  1.00  0.00     0.031 C 
ATOM     40  C   UNL A   1      38.909  27.352  29.585  1.00  0.00     0.029 A 
ATOM     41  C   UNL A   1      39.948  28.379  29.577  1.00  0.00     0.049 A 
ATOM     42  H   UNL A   1      41.847  28.243  28.725  1.00  0.00     0.167 HD
ATOM     43  C   UNL A   1      45.740  27.885  26.786  1.00  0.00     0.034 A 
ATOM     44  C   UNL A   1      39.832  29.602  30.137  1.00  0.00     0.034 A 
ATOM     45  C   UNL A   1      45.691  29.225  27.314  1.00  0.00     0.049 A 
ATOM     46  C   UNL A   1      40.979  30.571  30.022  1.00  0.00     0.074 A 
ATOM     47  C   UNL A   1      46.654  30.214  27.222  1.00  0.00     0.029 A 
ATOM     48  N   UNL A   1      44.629  29.771  28.023  1.00  0.00    -0.354 N 
ATOM     49  N   UNL A   1      42.126  30.420  29.404  1.00  0.00    -0.248 NA
ATOM     50  C   UNL A   1      40.820  31.880  30.672  1.00  0.00     0.031 C 
ATOM     51  C   UNL A   1      46.210  31.327  27.935  1.00  0.00     0.029 A 
ATOM     52  C   UNL A   1      44.927  31.073  28.395  1.00  0.00     0.049 A 
ATOM     53  H   UNL A   1      43.788  29.303  28.231  1.00  0.00     0.167 HD
ATOM     54  C   UNL A   1      42.812  31.621  29.564  1.00  0.00     0.074 A 
ATOM     55  C   UNL A   1      41.940  32.497  30.318  1.00  0.00     0.031 C 
ATOM     56  C   UNL A   1      44.051  31.960  29.127  1.00  0.00     0.034 A 
BRANCH  43  57
ATOM     57  C   UNL A   1      46.988  27.474  26.035  1.00  0.00     0.023 A 
ATOM     58  C   UNL A   1      47.146  27.824  24.680  1.00  0.00     0.031 A 
ATOM     59  C   UNL A   1      47.954  26.632  26.616  1.00  0.00     0.131 A 
ATOM     60  C   UNL A   1      48.221  27.307  23.945  1.00  0.00     0.055 A 
ATOM     61  C   UNL A   1      49.052  26.163  25.893  1.00  0.00     0.041 A 
ATOM     62  F   UNL A   1      47.851  26.261  27.902  1.00  0.00    -0.206 F 
ATOM     63  C   UNL A   1      49.181  26.488  24.547  1.00  0.00     0.022 A 
BRANCH  60  64
ATOM     64  S   UNL A   1      48.374  27.610  22.162  1.00  0.00     0.124 S 
ATOM     65  O   UNL A   1      49.527  28.507  22.110  1.00  0.00    -0.237 OA
ATOM     66  O   UNL A   1      48.607  26.265  21.644  1.00  0.00    -0.237 OA
ATOM     67  O   UNL A   1      47.099  28.216  21.798  1.00  0.00    -0.744 OA
ENDBRANCH  60  64
ENDBRANCH  43  57
BRANCH  44  68
ATOM     68  C   UNL A   1      38.547  29.974  30.803  1.00  0.00     0.023 A 
ATOM     69  C   UNL A   1      37.550  30.682  30.107  1.00  0.00     0.031 A 
ATOM     70  C   UNL A   1      38.352  29.739  32.176  1.00  0.00     0.131 A 
ATOM     71  C   UNL A   1      36.453  31.209  30.802  1.00  0.00     0.055 A 
ATOM     72  C   UNL A   1      37.215  30.193  32.846  1.00  0.00     0.041 A 
ATOM     73  F   UNL A   1      39.278  29.079  32.887  1.00  0.00    -0.206 F 
ATOM     74  C   UNL A   1      36.269  30.952  32.164  1.00  0.00     0.022 A 
BRANCH  71  75
ATOM     75  S   UNL A   1      35.315  32.369  29.996  1.00  0.00     0.124 S 
ATOM     76  O   UNL A   1      34.369  32.666  31.069  1.00  0.00    -0.237 OA
ATOM     77  O   UNL A   1      36.215  33.459  29.629  1.00  0.00    -0.237 OA
ATOM     78  O   UNL A   1      34.778  31.604  28.876  1.00  0.00    -0.744 OA
ENDBRANCH  71  75
ENDBRANCH  44  68
BRANCH  56  79
ATOM     79  C   UNL A   1      44.574  33.350  29.414  1.00  0.00     0.023 A 
ATOM     80  C   UNL A   1      44.212  34.420  28.571  1.00  0.00     0.031 A 
ATOM     81  C   UNL A   1      45.548  33.585  30.400  1.00  0.00     0.131 A 
ATOM     82  C   UNL A   1      44.854  35.658  28.696  1.00  0.00     0.055 A 
ATOM     83  C   UNL A   1      46.142  34.838  30.559  1.00  0.00     0.041 A 
ATOM     84  F   UNL A   1      45.940  32.598  31.220  1.00  0.00    -0.206 F 
ATOM     85  C   UNL A   1      45.810  35.877  29.693  1.00  0.00     0.022 A 
BRANCH  82  86
ATOM     86  S   UNL A   1      44.554  36.992  27.503  1.00  0.00     0.124 S 
ATOM     87  O   UNL A   1      45.888  37.205  26.947  1.00  0.00    -0.237 OA
ATOM     88  O   UNL A   1      43.590  36.378  26.592  1.00  0.00    -0.237 OA
ATOM     89  O   UNL A   1      44.039  38.086  28.319  1.00  0.00    -0.744 OA
ENDBRANCH  82  86
ENDBRANCH  56  79
ENDBRANCH  30  31
ENDBRANCH  22  25
ENDBRANCH   1  21
TORSDOF 14
ENDMDL
MODEL 3
REMARK VINA RESULT:     -11.8      5.002     10.119
REMARK SMILES C[C@@H]1Oc2ccccc2N(CC(=O)NCCCNC(=O)c2ccc(-c3c4nc(c(-c5cc(S(=O)(=O)[O-])ccc5F)c5ccc([nH]5)c(-c5cc(S(=O)(=O)[O-])ccc5F)c5nc(c(-c6cc(S(=O)(=O)[O-])ccc6F)c6ccc3[nH]6)C=C5)C=C4)cc2)C1=O
REMARK SMILES IDX 17 1 16 2 15 3 14 4 12 5 13 6 11 8 10 9 1 10 2 11 3 12 84 13
REMARK SMILES IDX 4 14 85 15 5 16 9 17 6 18 8 19 7 20 18 21 19 22 20 24 21 25
REMARK SMILES IDX 22 26 83 27 23 28 82 29 24 30 25 31 26 32 76 33 27 34 81 35
REMARK SMILES IDX 75 36 77 37 28 38 80 39 74 40 73 41 29 43 61 44 41 45 60 46
REMARK SMILES IDX 42 47 45 48 59 49 78 50 43 51 44 52 58 54 79 55 46 56 30 57
REMARK SMILES IDX 31 58 39 59 32 60 38 61 40 62 37 63 33 64 34 65 35 66 36 67
REMARK SMILES IDX 62 68 63 69 71 70 64 71 70 72 72 73 69 74 65 75 66 76 67 77
REMARK SMILES IDX 68 78 47 79 48 80 56 81 49 82 55 83 57 84 54 85 50 86 51 87
REMARK SMILES IDX 52 88 53 89
REMARK H PARENT 14 7 18 23 77 42 45 53
REMARK Flexibility Score: inf
ROOT
ATOM      1  C   UNL A   1      36.508  21.857  25.213  1.00  0.00     0.118 C 
ENDROOT
BRANCH   1   2
ATOM      2  C   UNL A   1      35.326  21.701  26.165  1.00  0.00     0.042 C 
BRANCH   2   3
ATOM      3  C   UNL A   1      33.972  22.026  25.545  1.00  0.00     0.117 C 
BRANCH   3   4
ATOM      4  N   UNL A   1      33.093  22.685  26.495  1.00  0.00    -0.354 N 
ATOM      5  C   UNL A   1      32.179  23.679  26.311  1.00  0.00     0.240 C 
ATOM      6  O   UNL A   1      31.496  24.005  27.288  1.00  0.00    -0.273 OA
ATOM      7  H   UNL A   1      33.170  22.363  27.423  1.00  0.00     0.163 HD
BRANCH   5   8
ATOM      8  C   UNL A   1      31.942  24.327  24.939  1.00  0.00     0.225 C 
BRANCH   8   9
ATOM      9  N   UNL A   1      32.237  25.757  24.838  1.00  0.00    -0.296 N 
ATOM     10  C   UNL A   1      33.568  28.156  26.713  1.00  0.00     0.064 C 
ATOM     11  C   UNL A   1      33.691  27.716  25.258  1.00  0.00     0.259 C 
ATOM     12  O   UNL A   1      32.864  28.549  24.471  1.00  0.00    -0.479 OA
ATOM     13  C   UNL A   1      33.511  26.197  25.169  1.00  0.00     0.268 C 
ATOM     14  C   UNL A   1      31.620  28.043  24.220  1.00  0.00     0.144 A 
ATOM     15  O   UNL A   1      34.433  25.431  25.461  1.00  0.00    -0.270 OA
ATOM     16  C   UNL A   1      30.687  28.988  23.781  1.00  0.00     0.049 A 
ATOM     17  C   UNL A   1      31.279  26.688  24.339  1.00  0.00     0.087 A 
ATOM     18  C   UNL A   1      29.402  28.592  23.427  1.00  0.00     0.004 A 
ATOM     19  C   UNL A   1      29.997  26.301  23.922  1.00  0.00     0.030 A 
ATOM     20  C   UNL A   1      29.063  27.245  23.478  1.00  0.00     0.002 A 
ENDBRANCH   8   9
ENDBRANCH   5   8
ENDBRANCH   3   4
ENDBRANCH   2   3
ENDBRANCH   1   2
BRANCH   1  21
ATOM     21  N   UNL A   1      37.564  20.878  25.440  1.00  0.00    -0.352 N 
ATOM     22  C   UNL A   1      38.849  21.004  25.919  1.00  0.00     0.251 C 
ATOM     23  H   UNL A   1      37.311  19.956  25.208  1.00  0.00     0.163 HD
ATOM     24  O   UNL A   1      39.586  20.016  25.864  1.00  0.00    -0.269 OA
BRANCH  22  25
ATOM     25  C   UNL A   1      39.383  22.285  26.450  1.00  0.00     0.039 A 
ATOM     26  C   UNL A   1      38.818  23.516  26.132  1.00  0.00     0.014 A 
ATOM     27  C   UNL A   1      40.470  22.251  27.335  1.00  0.00     0.014 A 
ATOM     28  C   UNL A   1      39.455  24.700  26.506  1.00  0.00     0.010 A 
ATOM     29  C   UNL A   1      41.035  23.442  27.812  1.00  0.00     0.010 A 
ATOM     30  C   UNL A   1      40.575  24.684  27.351  1.00  0.00    -0.014 A 
BRANCH  30  31
ATOM     31  C   UNL A   1      41.238  25.967  27.736  1.00  0.00     0.031 A 
ATOM     32  C   UNL A   1      42.635  26.290  27.266  1.00  0.00     0.074 A 
ATOM     33  C   UNL A   1      40.563  26.874  28.472  1.00  0.00     0.049 A 
ATOM     34  N   UNL A   1      43.348  27.368  27.477  1.00  0.00    -0.248 NA
ATOM     35  C   UNL A   1      43.327  25.270  26.462  1.00  0.00     0.031 C 
ATOM     36  C   UNL A   1      39.208  26.686  28.992  1.00  0.00     0.029 A 
ATOM     37  N   UNL A   1      40.904  28.139  28.891  1.00  0.00    -0.354 N 
ATOM     38  C   UNL A   1      44.570  27.152  26.846  1.00  0.00     0.074 A 
ATOM     39  C   UNL A   1      44.522  25.818  26.291  1.00  0.00     0.031 C 
ATOM     40  C   UNL A   1      38.808  27.812  29.596  1.00  0.00     0.029 A 
ATOM     41  C   UNL A   1      39.903  28.779  29.587  1.00  0.00     0.049 A 
ATOM     42  H   UNL A   1      41.781  28.548  28.710  1.00  0.00     0.167 HD
ATOM     43  C   UNL A   1      45.624  27.996  26.717  1.00  0.00     0.034 A 
ATOM     44  C   UNL A   1      39.863  29.999  30.164  1.00  0.00     0.034 A 
ATOM     45  C   UNL A   1      45.656  29.330  27.261  1.00  0.00     0.049 A 
ATOM     46  C   UNL A   1      41.061  30.904  30.045  1.00  0.00     0.074 A 
ATOM     47  C   UNL A   1      46.673  30.265  27.169  1.00  0.00     0.029 A 
ATOM     48  N   UNL A   1      44.636  29.926  27.991  1.00  0.00    -0.354 N 
ATOM     49  N   UNL A   1      42.190  30.696  29.411  1.00  0.00    -0.248 NA
ATOM     50  C   UNL A   1      40.983  32.211  30.713  1.00  0.00     0.031 C 
ATOM     51  C   UNL A   1      46.301  31.392  27.901  1.00  0.00     0.029 A 
ATOM     52  C   UNL A   1      45.011  31.204  28.374  1.00  0.00     0.049 A 
ATOM     53  H   UNL A   1      43.773  29.503  28.203  1.00  0.00     0.167 HD
ATOM     54  C   UNL A   1      42.945  31.855  29.576  1.00  0.00     0.074 A 
ATOM     55  C   UNL A   1      42.133  32.769  30.352  1.00  0.00     0.031 C 
ATOM     56  C   UNL A   1      44.195  32.129  29.128  1.00  0.00     0.034 A 
BRANCH  43  57
ATOM     57  C   UNL A   1      46.838  27.525  25.946  1.00  0.00     0.023 A 
ATOM     58  C   UNL A   1      47.024  27.923  24.607  1.00  0.00     0.031 A 
ATOM     59  C   UNL A   1      47.736  26.586  26.485  1.00  0.00     0.131 A 
ATOM     60  C   UNL A   1      48.057  27.360  23.847  1.00  0.00     0.055 A 
ATOM     61  C   UNL A   1      48.795  26.068  25.739  1.00  0.00     0.041 A 
ATOM     62  F   UNL A   1      47.602  26.166  27.753  1.00  0.00    -0.206 F 
ATOM     63  C   UNL A   1      48.951  26.443  24.409  1.00  0.00     0.022 A 
BRANCH  60  64
ATOM     64  S   UNL A   1      48.235  27.731  22.080  1.00  0.00     0.124 S 
ATOM     65  O   UNL A   1      48.417  26.397  21.512  1.00  0.00    -0.237 OA
ATOM     66  O   UNL A   1      46.958  28.371  21.773  1.00  0.00    -0.237 OA
ATOM     67  O   UNL A   1      49.406  28.598  22.019  1.00  0.00    -0.744 OA
ENDBRANCH  60  64
ENDBRANCH  43  57
BRANCH  44  68
ATOM     68  C   UNL A   1      38.609  30.434  30.850  1.00  0.00     0.023 A 
ATOM     69  C   UNL A   1      37.553  31.018  30.126  1.00  0.00     0.031 A 
ATOM     70  C   UNL A   1      38.502  30.390  32.251  1.00  0.00     0.131 A 
ATOM     71  C   UNL A   1      36.483  31.614  30.809  1.00  0.00     0.055 A 
ATOM     72  C   UNL A   1      37.393  30.911  32.922  1.00  0.00     0.041 A 
ATOM     73  F   UNL A   1      39.486  29.855  32.988  1.00  0.00    -0.206 F 
ATOM     74  C   UNL A   1      36.387  31.546  32.201  1.00  0.00     0.022 A 
BRANCH  71  75
ATOM     75  S   UNL A   1      35.267  32.626  29.922  1.00  0.00     0.124 S 
ATOM     76  O   UNL A   1      36.078  33.750  29.464  1.00  0.00    -0.237 OA
ATOM     77  O   UNL A   1      34.820  31.705  28.880  1.00  0.00    -0.237 OA
ATOM     78  O   UNL A   1      34.271  32.940  30.941  1.00  0.00    -0.744 OA
ENDBRANCH  71  75
ENDBRANCH  44  68
BRANCH  56  79
ATOM     79  C   UNL A   1      44.800  33.484  29.424  1.00  0.00     0.023 A 
ATOM     80  C   UNL A   1      44.594  34.552  28.527  1.00  0.00     0.031 A 
ATOM     81  C   UNL A   1      45.702  33.676  30.485  1.00  0.00     0.131 A 
ATOM     82  C   UNL A   1      45.318  35.741  28.676  1.00  0.00     0.055 A 
ATOM     83  C   UNL A   1      46.377  34.885  30.664  1.00  0.00     0.041 A 
ATOM     84  F   UNL A   1      45.946  32.688  31.360  1.00  0.00    -0.206 F 
ATOM     85  C   UNL A   1      46.201  35.918  29.746  1.00  0.00     0.022 A 
BRANCH  82  86
ATOM     86  S   UNL A   1      45.224  37.056  27.430  1.00  0.00     0.124 S 
ATOM     87  O   UNL A   1      43.920  36.803  26.821  1.00  0.00    -0.237 OA
ATOM     88  O   UNL A   1      45.305  38.263  28.250  1.00  0.00    -0.237 OA
ATOM     89  O   UNL A   1      46.372  36.806  26.565  1.00  0.00    -0.744 OA
ENDBRANCH  82  86
ENDBRANCH  56  79
ENDBRANCH  30  31
ENDBRANCH  22  25
ENDBRANCH   1  21
TORSDOF 14
ENDMDL
