MODEL 1
REMARK VINA RESULT:     -12.4      0.000      0.000
REMARK SMILES O=C(NCCCNC(=O)c1cc(-c2ccc(C(F)(F)F)cc2)cc([N+](=O)[O-])c1)c1ccc(-c2c3nc(c(-c4cc(S(=O)(=O)[O-])ccc4F)c4ccc([nH]4)c(-c4cc(S(=O)(=O)[O-])ccc4F)c4nc(c(-c5cc(S(=O)(=O)[O-])ccc5F)c5ccc2[nH]5)C=C4)C=C3)cc1
REMARK SMILES IDX 4 1 3 2 1 3 2 4 29 6 30 7 91 8 31 9 90 10 32 11 33 12 34 13
REMARK SMILES IDX 84 14 35 15 89 16 83 17 85 18 36 19 88 20 82 21 81 22 37 24
REMARK SMILES IDX 69 25 49 26 68 27 50 28 53 29 67 30 86 31 51 32 52 33 66 35
REMARK SMILES IDX 87 36 54 37 38 38 39 39 47 40 40 41 46 42 48 43 45 44 41 45
REMARK SMILES IDX 42 46 43 47 44 48 70 49 71 50 79 51 72 52 78 53 80 54 77 55
REMARK SMILES IDX 73 56 74 57 75 58 76 59 55 60 56 61 64 62 57 63 63 64 65 65
REMARK SMILES IDX 62 66 58 67 59 68 60 69 61 70 5 71 6 72 7 73 8 74 9 76 10 77
REMARK SMILES IDX 11 78 28 79 12 80 24 81 23 82 13 83 14 84 22 85 15 86 21 87
REMARK SMILES IDX 16 88 17 89 18 90 19 91 20 92 25 93 26 94 27 95
REMARK H PARENT 3 5 85 23 53 34 7 75
REMARK Flexibility Score: inf
ROOT
ATOM      1  C   UNL A   1      33.960  28.811  25.292  1.00  0.00     0.118 C 
ENDROOT
BRANCH   1   2
ATOM      2  N   UNL A   1      33.340  30.047  25.747  1.00  0.00    -0.352 N 
ATOM      3  O   UNL A   1      32.839  31.730  27.146  1.00  0.00    -0.269 OA
ATOM      4  C   UNL A   1      33.611  30.821  26.847  1.00  0.00     0.251 C 
ATOM      5  H   UNL A   1      32.611  30.380  25.174  1.00  0.00     0.163 HD
BRANCH   4   6
ATOM      6  C   UNL A   1      34.806  30.562  27.679  1.00  0.00     0.039 A 
ATOM      7  C   UNL A   1      34.974  29.345  28.345  1.00  0.00     0.014 A 
ATOM      8  C   UNL A   1      35.798  31.544  27.762  1.00  0.00     0.014 A 
ATOM      9  C   UNL A   1      36.059  29.162  29.198  1.00  0.00     0.010 A 
ATOM     10  C   UNL A   1      36.928  31.327  28.553  1.00  0.00     0.010 A 
ATOM     11  C   UNL A   1      37.054  30.144  29.300  1.00  0.00    -0.014 A 
BRANCH  11  12
ATOM     12  C   UNL A   1      38.249  29.908  30.149  1.00  0.00     0.031 A 
ATOM     13  C   UNL A   1      39.370  29.031  29.668  1.00  0.00     0.074 A 
ATOM     14  C   UNL A   1      38.303  30.471  31.370  1.00  0.00     0.049 A 
ATOM     15  N   UNL A   1      40.449  28.645  30.301  1.00  0.00    -0.248 NA
ATOM     16  C   UNL A   1      39.255  28.509  28.300  1.00  0.00     0.031 C 
ATOM     17  C   UNL A   1      37.267  31.333  31.946  1.00  0.00     0.029 A 
ATOM     18  N   UNL A   1      39.256  30.395  32.353  1.00  0.00    -0.354 N 
ATOM     19  C   UNL A   1      41.132  27.816  29.419  1.00  0.00     0.074 A 
ATOM     20  C   UNL A   1      40.324  27.731  28.219  1.00  0.00     0.031 C 
ATOM     21  C   UNL A   1      37.642  31.707  33.177  1.00  0.00     0.029 A 
ATOM     22  C   UNL A   1      38.910  31.063  33.502  1.00  0.00     0.049 A 
ATOM     23  H   UNL A   1      40.106  29.909  32.246  1.00  0.00     0.167 HD
ATOM     24  C   UNL A   1      42.325  27.191  29.595  1.00  0.00     0.034 A 
ATOM     25  C   UNL A   1      39.519  31.120  34.702  1.00  0.00     0.034 A 
ATOM     26  C   UNL A   1      43.111  27.292  30.801  1.00  0.00     0.049 A 
ATOM     27  C   UNL A   1      40.814  30.386  34.895  1.00  0.00     0.074 A 
ATOM     28  C   UNL A   1      44.355  26.747  31.070  1.00  0.00     0.029 A 
ATOM     29  N   UNL A   1      42.722  27.970  31.951  1.00  0.00    -0.354 N 
ATOM     30  N   UNL A   1      41.464  29.628  34.043  1.00  0.00    -0.248 NA
ATOM     31  C   UNL A   1      41.461  30.517  36.206  1.00  0.00     0.031 C 
ATOM     32  C   UNL A   1      44.687  27.040  32.399  1.00  0.00     0.029 A 
ATOM     33  C   UNL A   1      43.682  27.827  32.941  1.00  0.00     0.049 A 
ATOM     34  H   UNL A   1      41.883  28.479  32.048  1.00  0.00     0.167 HD
ATOM     35  C   UNL A   1      42.608  29.203  34.710  1.00  0.00     0.074 A 
ATOM     36  C   UNL A   1      42.560  29.795  36.033  1.00  0.00     0.031 C 
ATOM     37  C   UNL A   1      43.610  28.406  34.263  1.00  0.00     0.034 A 
BRANCH  24  38
ATOM     38  C   UNL A   1      42.813  26.307  28.471  1.00  0.00     0.023 A 
ATOM     39  C   UNL A   1      43.934  26.648  27.693  1.00  0.00     0.031 A 
ATOM     40  C   UNL A   1      42.116  25.132  28.137  1.00  0.00     0.131 A 
ATOM     41  C   UNL A   1      44.271  25.876  26.571  1.00  0.00     0.055 A 
ATOM     42  C   UNL A   1      42.506  24.322  27.069  1.00  0.00     0.041 A 
ATOM     43  F   UNL A   1      41.028  24.763  28.830  1.00  0.00    -0.206 F 
ATOM     44  C   UNL A   1      43.578  24.702  26.265  1.00  0.00     0.022 A 
BRANCH  41  45
ATOM     45  S   UNL A   1      45.513  26.523  25.418  1.00  0.00     0.124 S 
ATOM     46  O   UNL A   1      45.836  25.338  24.627  1.00  0.00    -0.237 OA
ATOM     47  O   UNL A   1      44.779  27.573  24.722  1.00  0.00    -0.237 OA
ATOM     48  O   UNL A   1      46.588  26.986  26.294  1.00  0.00    -0.744 OA
ENDBRANCH  41  45
ENDBRANCH  24  38
BRANCH  25  49
ATOM     49  C   UNL A   1      38.863  31.854  35.818  1.00  0.00     0.023 A 
ATOM     50  C   UNL A   1      38.168  31.176  36.829  1.00  0.00     0.031 A 
ATOM     51  C   UNL A   1      38.965  33.254  35.903  1.00  0.00     0.131 A 
ATOM     52  C   UNL A   1      37.587  31.905  37.879  1.00  0.00     0.055 A 
ATOM     53  C   UNL A   1      38.420  33.970  36.967  1.00  0.00     0.041 A 
ATOM     54  F   UNL A   1      39.636  33.944  34.965  1.00  0.00    -0.206 F 
ATOM     55  C   UNL A   1      37.721  33.294  37.962  1.00  0.00     0.022 A 
BRANCH  52  56
ATOM     56  S   UNL A   1      36.631  31.011  39.133  1.00  0.00     0.124 S 
ATOM     57  O   UNL A   1      35.442  31.849  39.254  1.00  0.00    -0.237 OA
ATOM     58  O   UNL A   1      36.437  29.711  38.500  1.00  0.00    -0.237 OA
ATOM     59  O   UNL A   1      37.514  31.008  40.298  1.00  0.00    -0.744 OA
ENDBRANCH  52  56
ENDBRANCH  25  49
BRANCH  37  60
ATOM     60  C   UNL A   1      44.759  28.161  35.207  1.00  0.00     0.023 A 
ATOM     61  C   UNL A   1      44.772  27.066  36.087  1.00  0.00     0.031 A 
ATOM     62  C   UNL A   1      45.858  29.038  35.215  1.00  0.00     0.131 A 
ATOM     63  C   UNL A   1      45.852  26.894  36.965  1.00  0.00     0.055 A 
ATOM     64  C   UNL A   1      46.949  28.836  36.059  1.00  0.00     0.041 A 
ATOM     65  F   UNL A   1      45.890  30.099  34.395  1.00  0.00    -0.206 F 
ATOM     66  C   UNL A   1      46.947  27.763  36.947  1.00  0.00     0.022 A 
BRANCH  63  67
ATOM     67  S   UNL A   1      45.791  25.542  38.173  1.00  0.00     0.124 S 
ATOM     68  O   UNL A   1      44.472  24.970  37.921  1.00  0.00    -0.237 OA
ATOM     69  O   UNL A   1      46.929  24.718  37.782  1.00  0.00    -0.237 OA
ATOM     70  O   UNL A   1      45.935  26.223  39.459  1.00  0.00    -0.744 OA
ENDBRANCH  63  67
ENDBRANCH  37  60
ENDBRANCH  11  12
ENDBRANCH   4   6
ENDBRANCH   1   2
BRANCH   1  71
ATOM     71  C   UNL A   1      33.983  28.683  23.775  1.00  0.00     0.042 C 
BRANCH  71  72
ATOM     72  C   UNL A   1      32.665  28.242  23.154  1.00  0.00     0.118 C 
BRANCH  72  73
ATOM     73  N   UNL A   1      32.833  27.181  22.172  1.00  0.00    -0.352 N 
ATOM     74  C   UNL A   1      33.277  25.894  22.309  1.00  0.00     0.251 C 
ATOM     75  H   UNL A   1      32.584  27.431  21.253  1.00  0.00     0.163 HD
ATOM     76  O   UNL A   1      33.491  25.216  21.306  1.00  0.00    -0.269 OA
BRANCH  74  77
ATOM     77  C   UNL A   1      33.493  25.290  23.641  1.00  0.00     0.047 A 
ATOM     78  C   UNL A   1      34.765  24.779  23.938  1.00  0.00     0.023 A 
ATOM     79  C   UNL A   1      32.441  25.103  24.539  1.00  0.00     0.099 A 
ATOM     80  C   UNL A   1      35.013  24.105  25.145  1.00  0.00    -0.011 A 
ATOM     81  C   UNL A   1      32.693  24.491  25.771  1.00  0.00     0.270 A 
ATOM     82  C   UNL A   1      33.968  23.999  26.078  1.00  0.00     0.094 A 
BRANCH  80  83
ATOM     83  C   UNL A   1      36.297  23.432  25.377  1.00  0.00    -0.018 A 
ATOM     84  C   UNL A   1      36.553  22.134  24.915  1.00  0.00     0.009 A 
ATOM     85  C   UNL A   1      37.293  24.078  26.129  1.00  0.00     0.009 A 
ATOM     86  C   UNL A   1      37.768  21.499  25.203  1.00  0.00     0.014 A 
ATOM     87  C   UNL A   1      38.503  23.445  26.422  1.00  0.00     0.014 A 
ATOM     88  C   UNL A   1      38.751  22.146  25.966  1.00  0.00     0.056 A 
BRANCH  88  89
ATOM     89  C   UNL A   1      40.043  21.443  26.301  1.00  0.00     0.416 C 
ATOM     90  F   UNL A   1      41.085  21.870  25.536  1.00  0.00    -0.166 F 
ATOM     91  F   UNL A   1      40.424  21.630  27.594  1.00  0.00    -0.166 F 
ATOM     92  F   UNL A   1      39.987  20.091  26.125  1.00  0.00    -0.166 F 
ENDBRANCH  88  89
ENDBRANCH  80  83
BRANCH  81  93
ATOM     93  N   UNL A   1      31.597  24.327  26.732  1.00  0.00     0.062 N 
ATOM     94  O   UNL A   1      30.689  25.169  26.720  1.00  0.00    -0.258 OA
ATOM     95  O   UNL A   1      31.654  23.362  27.507  1.00  0.00    -0.258 OA
ENDBRANCH  81  93
ENDBRANCH  74  77
ENDBRANCH  72  73
ENDBRANCH  71  72
ENDBRANCH   1  71
TORSDOF 16
ENDMDL
MODEL 2
REMARK VINA RESULT:     -12.3      2.433      2.939
REMARK SMILES O=C(NCCCNC(=O)c1cc(-c2ccc(C(F)(F)F)cc2)cc([N+](=O)[O-])c1)c1ccc(-c2c3nc(c(-c4cc(S(=O)(=O)[O-])ccc4F)c4ccc([nH]4)c(-c4cc(S(=O)(=O)[O-])ccc4F)c4nc(c(-c5cc(S(=O)(=O)[O-])ccc5F)c5ccc2[nH]5)C=C4)C=C3)cc1
REMARK SMILES IDX 4 1 3 2 1 3 2 4 29 6 30 7 91 8 31 9 90 10 32 11 33 12 34 13
REMARK SMILES IDX 84 14 35 15 89 16 83 17 85 18 36 19 88 20 82 21 81 22 37 24
REMARK SMILES IDX 69 25 49 26 68 27 50 28 53 29 67 30 86 31 51 32 52 33 66 35
REMARK SMILES IDX 87 36 54 37 38 38 39 39 47 40 40 41 46 42 48 43 45 44 41 45
REMARK SMILES IDX 42 46 43 47 44 48 70 49 71 50 79 51 72 52 78 53 80 54 77 55
REMARK SMILES IDX 73 56 74 57 75 58 76 59 55 60 56 61 64 62 57 63 63 64 65 65
REMARK SMILES IDX 62 66 58 67 59 68 60 69 61 70 5 71 6 72 7 73 8 74 9 76 10 77
REMARK SMILES IDX 11 78 28 79 12 80 24 81 23 82 13 83 14 84 22 85 15 86 21 87
REMARK SMILES IDX 16 88 17 89 18 90 19 91 20 92 25 93 26 94 27 95
REMARK H PARENT 3 5 85 23 53 34 7 75
REMARK Flexibility Score: inf
ROOT
ATOM      1  C   UNL A   1      32.837  28.856  25.601  1.00  0.00     0.118 C 
ENDROOT
BRANCH   1   2
ATOM      2  N   UNL A   1      32.452  30.234  25.867  1.00  0.00    -0.352 N 
ATOM      3  O   UNL A   1      32.349  32.190  26.966  1.00  0.00    -0.269 OA
ATOM      4  C   UNL A   1      32.948  31.131  26.779  1.00  0.00     0.251 C 
ATOM      5  H   UNL A   1      31.720  30.576  25.304  1.00  0.00     0.163 HD
BRANCH   4   6
ATOM      6  C   UNL A   1      34.177  30.833  27.545  1.00  0.00     0.039 A 
ATOM      7  C   UNL A   1      34.409  29.559  28.071  1.00  0.00     0.014 A 
ATOM      8  C   UNL A   1      35.136  31.837  27.703  1.00  0.00     0.014 A 
ATOM      9  C   UNL A   1      35.527  29.329  28.869  1.00  0.00     0.010 A 
ATOM     10  C   UNL A   1      36.299  31.581  28.433  1.00  0.00     0.010 A 
ATOM     11  C   UNL A   1      36.490  30.332  29.046  1.00  0.00    -0.014 A 
BRANCH  11  12
ATOM     12  C   UNL A   1      37.719  30.053  29.831  1.00  0.00     0.031 A 
ATOM     13  C   UNL A   1      38.791  29.154  29.284  1.00  0.00     0.074 A 
ATOM     14  C   UNL A   1      37.850  30.598  31.055  1.00  0.00     0.049 A 
ATOM     15  N   UNL A   1      39.889  28.731  29.856  1.00  0.00    -0.248 NA
ATOM     16  C   UNL A   1      38.593  28.653  27.916  1.00  0.00     0.031 C 
ATOM     17  C   UNL A   1      36.868  31.479  31.692  1.00  0.00     0.029 A 
ATOM     18  N   UNL A   1      38.849  30.484  31.987  1.00  0.00    -0.354 N 
ATOM     19  C   UNL A   1      40.504  27.895  28.931  1.00  0.00     0.074 A 
ATOM     20  C   UNL A   1      39.635  27.848  27.772  1.00  0.00     0.031 C 
ATOM     21  C   UNL A   1      37.315  31.827  32.907  1.00  0.00     0.029 A 
ATOM     22  C   UNL A   1      38.579  31.146  33.160  1.00  0.00     0.049 A 
ATOM     23  H   UNL A   1      39.679  29.977  31.831  1.00  0.00     0.167 HD
ATOM     24  C   UNL A   1      41.687  27.238  29.038  1.00  0.00     0.034 A 
ATOM     25  C   UNL A   1      39.249  31.170  34.328  1.00  0.00     0.034 A 
ATOM     26  C   UNL A   1      42.536  27.302  30.205  1.00  0.00     0.049 A 
ATOM     27  C   UNL A   1      40.533  30.401  34.447  1.00  0.00     0.074 A 
ATOM     28  C   UNL A   1      43.777  26.721  30.404  1.00  0.00     0.029 A 
ATOM     29  N   UNL A   1      42.223  27.974  31.381  1.00  0.00    -0.354 N 
ATOM     30  N   UNL A   1      41.118  29.637  33.553  1.00  0.00    -0.248 NA
ATOM     31  C   UNL A   1      41.248  30.497  35.724  1.00  0.00     0.031 C 
ATOM     32  C   UNL A   1      44.183  26.987  31.717  1.00  0.00     0.029 A 
ATOM     33  C   UNL A   1      43.228  27.793  32.319  1.00  0.00     0.049 A 
ATOM     34  H   UNL A   1      41.405  28.503  31.526  1.00  0.00     0.167 HD
ATOM     35  C   UNL A   1      42.282  29.173  34.156  1.00  0.00     0.074 A 
ATOM     36  C   UNL A   1      42.317  29.749  35.487  1.00  0.00     0.031 C 
ATOM     37  C   UNL A   1      43.238  28.356  33.649  1.00  0.00     0.034 A 
BRANCH  24  38
ATOM     38  C   UNL A   1      42.095  26.356  27.881  1.00  0.00     0.023 A 
ATOM     39  C   UNL A   1      41.765  24.990  27.838  1.00  0.00     0.031 A 
ATOM     40  C   UNL A   1      42.872  26.875  26.831  1.00  0.00     0.131 A 
ATOM     41  C   UNL A   1      42.281  24.174  26.820  1.00  0.00     0.055 A 
ATOM     42  C   UNL A   1      43.314  26.076  25.775  1.00  0.00     0.041 A 
ATOM     43  F   UNL A   1      43.235  28.167  26.824  1.00  0.00    -0.206 F 
ATOM     44  C   UNL A   1      43.037  24.711  25.775  1.00  0.00     0.022 A 
BRANCH  41  45
ATOM     45  S   UNL A   1      42.101  22.375  26.978  1.00  0.00     0.124 S 
ATOM     46  O   UNL A   1      40.963  22.109  26.102  1.00  0.00    -0.237 OA
ATOM     47  O   UNL A   1      43.394  21.887  26.512  1.00  0.00    -0.237 OA
ATOM     48  O   UNL A   1      41.836  22.180  28.402  1.00  0.00    -0.744 OA
ENDBRANCH  41  45
ENDBRANCH  24  38
BRANCH  25  49
ATOM     49  C   UNL A   1      38.671  31.907  35.484  1.00  0.00     0.023 A 
ATOM     50  C   UNL A   1      38.108  31.228  36.575  1.00  0.00     0.031 A 
ATOM     51  C   UNL A   1      38.715  33.312  35.525  1.00  0.00     0.131 A 
ATOM     52  C   UNL A   1      37.597  31.961  37.658  1.00  0.00     0.055 A 
ATOM     53  C   UNL A   1      38.242  34.033  36.620  1.00  0.00     0.041 A 
ATOM     54  F   UNL A   1      39.260  34.003  34.510  1.00  0.00    -0.206 F 
ATOM     55  C   UNL A   1      37.674  33.356  37.694  1.00  0.00     0.022 A 
BRANCH  52  56
ATOM     56  S   UNL A   1      36.809  31.062  39.021  1.00  0.00     0.124 S 
ATOM     57  O   UNL A   1      37.790  31.221  40.089  1.00  0.00    -0.237 OA
ATOM     58  O   UNL A   1      35.557  31.794  39.186  1.00  0.00    -0.237 OA
ATOM     59  O   UNL A   1      36.669  29.704  38.499  1.00  0.00    -0.744 OA
ENDBRANCH  52  56
ENDBRANCH  25  49
BRANCH  37  60
ATOM     60  C   UNL A   1      44.426  28.069  34.531  1.00  0.00     0.023 A 
ATOM     61  C   UNL A   1      44.453  26.965  35.399  1.00  0.00     0.031 A 
ATOM     62  C   UNL A   1      45.549  28.913  34.490  1.00  0.00     0.131 A 
ATOM     63  C   UNL A   1      45.570  26.752  36.220  1.00  0.00     0.055 A 
ATOM     64  C   UNL A   1      46.676  28.671  35.276  1.00  0.00     0.041 A 
ATOM     65  F   UNL A   1      45.571  29.982  33.679  1.00  0.00    -0.206 F 
ATOM     66  C   UNL A   1      46.688  27.590  36.153  1.00  0.00     0.022 A 
BRANCH  63  67
ATOM     67  S   UNL A   1      45.532  25.391  37.417  1.00  0.00     0.124 S 
ATOM     68  O   UNL A   1      46.180  25.992  38.579  1.00  0.00    -0.237 OA
ATOM     69  O   UNL A   1      44.103  25.127  37.549  1.00  0.00    -0.237 OA
ATOM     70  O   UNL A   1      46.297  24.333  36.760  1.00  0.00    -0.744 OA
ENDBRANCH  63  67
ENDBRANCH  37  60
ENDBRANCH  11  12
ENDBRANCH   4   6
ENDBRANCH   1   2
BRANCH   1  71
ATOM     71  C   UNL A   1      33.022  28.569  24.117  1.00  0.00     0.042 C 
BRANCH  71  72
ATOM     72  C   UNL A   1      33.912  27.373  23.807  1.00  0.00     0.118 C 
BRANCH  72  73
ATOM     73  N   UNL A   1      33.581  26.739  22.539  1.00  0.00    -0.352 N 
ATOM     74  C   UNL A   1      33.123  25.481  22.258  1.00  0.00     0.251 C 
ATOM     75  H   UNL A   1      33.708  27.313  21.749  1.00  0.00     0.163 HD
ATOM     76  O   UNL A   1      33.063  25.104  21.089  1.00  0.00    -0.269 OA
BRANCH  74  77
ATOM     77  C   UNL A   1      32.680  24.563  23.330  1.00  0.00     0.047 A 
ATOM     78  C   UNL A   1      33.130  23.235  23.291  1.00  0.00     0.023 A 
ATOM     79  C   UNL A   1      31.738  24.952  24.284  1.00  0.00     0.099 A 
ATOM     80  C   UNL A   1      32.671  22.287  24.220  1.00  0.00    -0.011 A 
ATOM     81  C   UNL A   1      31.327  24.033  25.252  1.00  0.00     0.270 A 
ATOM     82  C   UNL A   1      31.790  22.710  25.228  1.00  0.00     0.094 A 
BRANCH  80  83
ATOM     83  C   UNL A   1      33.016  20.867  24.073  1.00  0.00    -0.018 A 
ATOM     84  C   UNL A   1      32.202  19.971  23.368  1.00  0.00     0.009 A 
ATOM     85  C   UNL A   1      34.171  20.366  24.697  1.00  0.00     0.009 A 
ATOM     86  C   UNL A   1      32.531  18.611  23.295  1.00  0.00     0.014 A 
ATOM     87  C   UNL A   1      34.499  19.010  24.631  1.00  0.00     0.014 A 
ATOM     88  C   UNL A   1      33.678  18.116  23.934  1.00  0.00     0.056 A 
BRANCH  88  89
ATOM     89  C   UNL A   1      34.007  16.645  23.879  1.00  0.00     0.416 C 
ATOM     90  F   UNL A   1      34.372  16.236  22.633  1.00  0.00    -0.166 F 
ATOM     91  F   UNL A   1      35.037  16.306  24.703  1.00  0.00    -0.166 F 
ATOM     92  F   UNL A   1      32.966  15.842  24.241  1.00  0.00    -0.166 F 
ENDBRANCH  88  89
ENDBRANCH  80  83
BRANCH  81  93
ATOM     93  N   UNL A   1      30.365  24.449  26.279  1.00  0.00     0.062 N 
ATOM     94  O   UNL A   1      29.785  25.532  26.120  1.00  0.00    -0.258 OA
ATOM     95  O   UNL A   1      30.201  23.698  27.251  1.00  0.00    -0.258 OA
ENDBRANCH  81  93
ENDBRANCH  74  77
ENDBRANCH  72  73
ENDBRANCH  71  72
ENDBRANCH   1  71
TORSDOF 16
ENDMDL
MODEL 3
REMARK VINA RESULT:     -12.3      3.289      8.170
REMARK SMILES O=C(NCCCNC(=O)c1cc(-c2ccc(C(F)(F)F)cc2)cc([N+](=O)[O-])c1)c1ccc(-c2c3nc(c(-c4cc(S(=O)(=O)[O-])ccc4F)c4ccc([nH]4)c(-c4cc(S(=O)(=O)[O-])ccc4F)c4nc(c(-c5cc(S(=O)(=O)[O-])ccc5F)c5ccc2[nH]5)C=C4)C=C3)cc1
REMARK SMILES IDX 4 1 3 2 1 3 2 4 29 6 30 7 91 8 31 9 90 10 32 11 33 12 34 13
REMARK SMILES IDX 84 14 35 15 89 16 83 17 85 18 36 19 88 20 82 21 81 22 37 24
REMARK SMILES IDX 69 25 49 26 68 27 50 28 53 29 67 30 86 31 51 32 52 33 66 35
REMARK SMILES IDX 87 36 54 37 38 38 39 39 47 40 40 41 46 42 48 43 45 44 41 45
REMARK SMILES IDX 42 46 43 47 44 48 70 49 71 50 79 51 72 52 78 53 80 54 77 55
REMARK SMILES IDX 73 56 74 57 75 58 76 59 55 60 56 61 64 62 57 63 63 64 65 65
REMARK SMILES IDX 62 66 58 67 59 68 60 69 61 70 5 71 6 72 7 73 8 74 9 76 10 77
REMARK SMILES IDX 11 78 28 79 12 80 24 81 23 82 13 83 14 84 22 85 15 86 21 87
REMARK SMILES IDX 16 88 17 89 18 90 19 91 20 92 25 93 26 94 27 95
REMARK H PARENT 3 5 85 23 53 34 7 75
REMARK Flexibility Score: inf
ROOT
ATOM      1  C   UNL A   1      33.978  29.057  26.183  1.00  0.00     0.118 C 
ENDROOT
BRANCH   1   2
ATOM      2  N   UNL A   1      33.767  30.405  26.690  1.00  0.00    -0.352 N 
ATOM      3  O   UNL A   1      33.984  32.169  28.063  1.00  0.00    -0.269 OA
ATOM      4  C   UNL A   1      34.447  31.105  27.656  1.00  0.00     0.251 C 
ATOM      5  H   UNL A   1      33.018  30.892  26.275  1.00  0.00     0.163 HD
BRANCH   4   6
ATOM      6  C   UNL A   1      35.714  30.587  28.216  1.00  0.00     0.039 A 
ATOM      7  C   UNL A   1      36.949  30.974  27.688  1.00  0.00     0.014 A 
ATOM      8  C   UNL A   1      35.665  29.729  29.318  1.00  0.00     0.014 A 
ATOM      9  C   UNL A   1      38.122  30.399  28.169  1.00  0.00     0.010 A 
ATOM     10  C   UNL A   1      36.849  29.218  29.855  1.00  0.00     0.010 A 
ATOM     11  C   UNL A   1      38.086  29.527  29.266  1.00  0.00    -0.014 A 
BRANCH  11  12
ATOM     12  C   UNL A   1      39.348  28.982  29.825  1.00  0.00     0.031 A 
ATOM     13  C   UNL A   1      40.021  29.648  30.991  1.00  0.00     0.074 A 
ATOM     14  C   UNL A   1      39.898  27.894  29.255  1.00  0.00     0.049 A 
ATOM     15  N   UNL A   1      41.166  29.365  31.559  1.00  0.00    -0.248 NA
ATOM     16  C   UNL A   1      39.319  30.792  31.589  1.00  0.00     0.031 C 
ATOM     17  C   UNL A   1      39.338  27.169  28.111  1.00  0.00     0.029 A 
ATOM     18  N   UNL A   1      41.052  27.213  29.546  1.00  0.00    -0.354 N 
ATOM     19  C   UNL A   1      41.337  30.309  32.565  1.00  0.00     0.074 A 
ATOM     20  C   UNL A   1      40.189  31.191  32.505  1.00  0.00     0.031 C 
ATOM     21  C   UNL A   1      40.147  26.147  27.800  1.00  0.00     0.029 A 
ATOM     22  C   UNL A   1      41.311  26.180  28.678  1.00  0.00     0.049 A 
ATOM     23  H   UNL A   1      41.639  27.443  30.303  1.00  0.00     0.167 HD
ATOM     24  C   UNL A   1      42.353  30.420  33.459  1.00  0.00     0.034 A 
ATOM     25  C   UNL A   1      42.383  25.373  28.568  1.00  0.00     0.034 A 
ATOM     26  C   UNL A   1      43.486  29.526  33.498  1.00  0.00     0.049 A 
ATOM     27  C   UNL A   1      43.520  25.539  29.535  1.00  0.00     0.074 A 
ATOM     28  C   UNL A   1      44.545  29.512  34.390  1.00  0.00     0.029 A 
ATOM     29  N   UNL A   1      43.719  28.496  32.594  1.00  0.00    -0.354 N 
ATOM     30  N   UNL A   1      43.655  26.417  30.501  1.00  0.00    -0.248 NA
ATOM     31  C   UNL A   1      44.644  24.606  29.403  1.00  0.00     0.031 C 
ATOM     32  C   UNL A   1      45.447  28.520  33.988  1.00  0.00     0.029 A 
ATOM     33  C   UNL A   1      44.920  27.866  32.884  1.00  0.00     0.049 A 
ATOM     34  H   UNL A   1      43.118  28.251  31.854  1.00  0.00     0.167 HD
ATOM     35  C   UNL A   1      44.875  26.133  31.104  1.00  0.00     0.074 A 
ATOM     36  C   UNL A   1      45.432  24.996  30.395  1.00  0.00     0.031 C 
ATOM     37  C   UNL A   1      45.472  26.748  32.155  1.00  0.00     0.034 A 
BRANCH  24  38
ATOM     38  C   UNL A   1      42.299  31.581  34.425  1.00  0.00     0.023 A 
ATOM     39  C   UNL A   1      41.480  31.557  35.568  1.00  0.00     0.031 A 
ATOM     40  C   UNL A   1      43.036  32.751  34.171  1.00  0.00     0.131 A 
ATOM     41  C   UNL A   1      41.348  32.707  36.361  1.00  0.00     0.055 A 
ATOM     42  C   UNL A   1      42.965  33.864  35.011  1.00  0.00     0.041 A 
ATOM     43  F   UNL A   1      43.821  32.842  33.087  1.00  0.00    -0.206 F 
ATOM     44  C   UNL A   1      42.102  33.855  36.104  1.00  0.00     0.022 A 
BRANCH  41  45
ATOM     45  S   UNL A   1      40.048  32.740  37.626  1.00  0.00     0.124 S 
ATOM     46  O   UNL A   1      39.161  31.672  37.173  1.00  0.00    -0.237 OA
ATOM     47  O   UNL A   1      40.793  32.475  38.851  1.00  0.00    -0.237 OA
ATOM     48  O   UNL A   1      39.492  34.088  37.512  1.00  0.00    -0.744 OA
ENDBRANCH  41  45
ENDBRANCH  24  38
BRANCH  25  49
ATOM     49  C   UNL A   1      42.440  24.384  27.458  1.00  0.00     0.023 A 
ATOM     50  C   UNL A   1      41.713  23.186  27.510  1.00  0.00     0.031 A 
ATOM     51  C   UNL A   1      43.200  24.654  26.305  1.00  0.00     0.131 A 
ATOM     52  C   UNL A   1      41.773  22.292  26.429  1.00  0.00     0.055 A 
ATOM     53  C   UNL A   1      43.225  23.781  25.219  1.00  0.00     0.041 A 
ATOM     54  F   UNL A   1      43.899  25.796  26.205  1.00  0.00    -0.206 F 
ATOM     55  C   UNL A   1      42.511  22.588  25.279  1.00  0.00     0.022 A 
BRANCH  52  56
ATOM     56  S   UNL A   1      40.882  20.718  26.553  1.00  0.00     0.124 S 
ATOM     57  O   UNL A   1      40.938  20.457  27.987  1.00  0.00    -0.237 OA
ATOM     58  O   UNL A   1      39.571  21.066  26.015  1.00  0.00    -0.237 OA
ATOM     59  O   UNL A   1      41.672  19.812  25.722  1.00  0.00    -0.744 OA
ENDBRANCH  52  56
ENDBRANCH  25  49
BRANCH  37  60
ATOM     60  C   UNL A   1      46.784  26.174  32.625  1.00  0.00     0.023 A 
ATOM     61  C   UNL A   1      46.841  25.130  33.563  1.00  0.00     0.031 A 
ATOM     62  C   UNL A   1      47.993  26.681  32.116  1.00  0.00     0.131 A 
ATOM     63  C   UNL A   1      48.086  24.646  33.990  1.00  0.00     0.055 A 
ATOM     64  C   UNL A   1      49.227  26.164  32.511  1.00  0.00     0.041 A 
ATOM     65  F   UNL A   1      47.990  27.679  31.220  1.00  0.00    -0.206 F 
ATOM     66  C   UNL A   1      49.279  25.146  33.459  1.00  0.00     0.022 A 
BRANCH  63  67
ATOM     67  S   UNL A   1      48.135  23.381  35.289  1.00  0.00     0.124 S 
ATOM     68  O   UNL A   1      46.775  23.436  35.817  1.00  0.00    -0.237 OA
ATOM     69  O   UNL A   1      48.482  22.177  34.544  1.00  0.00    -0.237 OA
ATOM     70  O   UNL A   1      49.172  23.864  36.200  1.00  0.00    -0.744 OA
ENDBRANCH  63  67
ENDBRANCH  37  60
ENDBRANCH  11  12
ENDBRANCH   4   6
ENDBRANCH   1   2
BRANCH   1  71
ATOM     71  C   UNL A   1      33.080  28.026  26.853  1.00  0.00     0.042 C 
BRANCH  71  72
ATOM     72  C   UNL A   1      32.123  27.309  25.910  1.00  0.00     0.118 C 
BRANCH  72  73
ATOM     73  N   UNL A   1      31.393  26.232  26.562  1.00  0.00    -0.352 N 
ATOM     74  C   UNL A   1      31.091  24.967  26.138  1.00  0.00     0.251 C 
ATOM     75  H   UNL A   1      31.059  26.450  27.463  1.00  0.00     0.163 HD
ATOM     76  O   UNL A   1      30.317  24.274  26.797  1.00  0.00    -0.269 OA
BRANCH  74  77
ATOM     77  C   UNL A   1      31.687  24.402  24.908  1.00  0.00     0.047 A 
ATOM     78  C   UNL A   1      31.890  23.016  24.847  1.00  0.00     0.023 A 
ATOM     79  C   UNL A   1      32.163  25.221  23.883  1.00  0.00     0.099 A 
ATOM     80  C   UNL A   1      32.540  22.425  23.750  1.00  0.00    -0.011 A 
ATOM     81  C   UNL A   1      32.752  24.637  22.758  1.00  0.00     0.270 A 
ATOM     82  C   UNL A   1      32.937  23.250  22.685  1.00  0.00     0.094 A 
BRANCH  80  83
ATOM     83  C   UNL A   1      32.894  21.001  23.768  1.00  0.00    -0.018 A 
ATOM     84  C   UNL A   1      32.191  20.047  23.020  1.00  0.00     0.009 A 
ATOM     85  C   UNL A   1      33.938  20.556  24.598  1.00  0.00     0.009 A 
ATOM     86  C   UNL A   1      32.519  18.688  23.105  1.00  0.00     0.014 A 
ATOM     87  C   UNL A   1      34.264  19.201  24.688  1.00  0.00     0.014 A 
ATOM     88  C   UNL A   1      33.553  18.251  23.946  1.00  0.00     0.056 A 
BRANCH  88  89
ATOM     89  C   UNL A   1      33.878  16.783  24.058  1.00  0.00     0.416 C 
ATOM     90  F   UNL A   1      32.821  16.043  24.492  1.00  0.00    -0.166 F 
ATOM     91  F   UNL A   1      34.257  16.236  22.869  1.00  0.00    -0.166 F 
ATOM     92  F   UNL A   1      34.896  16.516  24.926  1.00  0.00    -0.166 F 
ENDBRANCH  88  89
ENDBRANCH  80  83
BRANCH  81  93
ATOM     93  N   UNL A   1      33.219  25.494  21.662  1.00  0.00     0.062 N 
ATOM     94  O   UNL A   1      33.054  25.088  20.504  1.00  0.00    -0.258 OA
ATOM     95  O   UNL A   1      33.763  26.565  21.963  1.00  0.00    -0.258 OA
ENDBRANCH  81  93
ENDBRANCH  74  77
ENDBRANCH  72  73
ENDBRANCH  71  72
ENDBRANCH   1  71
TORSDOF 16
ENDMDL
