MODEL 1
REMARK VINA RESULT:     -11.0      0.000      0.000
REMARK SMILES Cc1noc(C)c1[C@@H](C)NC(=O)N(CC(=O)NCCCNC(=O)c1ccc(-c2c3nc(c(-c4cc(S(=O)(=O)[O-])ccc4F)c4ccc([nH]4)c(-c4cc(S(=O)(=O)[O-])ccc4F)c4nc(c(-c5cc(S(=O)(=O)[O-])ccc5F)c5ccc2[nH]5)C=C4)C=C3)cc1)C(C)C
REMARK SMILES IDX 18 1 17 2 15 3 16 4 14 6 13 7 11 8 10 9 12 11 8 12 9 13 7 14
REMARK SMILES IDX 1 15 2 16 3 17 4 18 5 19 6 20 87 21 88 22 89 23 19 24 20 25
REMARK SMILES IDX 21 26 22 27 23 29 24 30 25 31 86 32 26 33 85 34 27 35 28 36
REMARK SMILES IDX 29 37 79 38 30 39 84 40 78 41 80 42 31 43 83 44 77 45 76 46
REMARK SMILES IDX 32 48 64 49 44 50 63 51 45 52 48 53 62 54 81 55 46 56 47 57
REMARK SMILES IDX 61 59 82 60 49 61 33 62 34 63 42 64 35 65 41 66 43 67 40 68
REMARK SMILES IDX 36 69 37 70 38 71 39 72 65 73 66 74 74 75 67 76 73 77 75 78
REMARK SMILES IDX 72 79 68 80 69 81 70 82 71 83 50 84 51 85 59 86 52 87 58 88
REMARK SMILES IDX 60 89 57 90 53 91 54 92 55 93 56 94
REMARK H PARENT 17 5 10 10 21 28 80 47 48 58
REMARK Flexibility Score: inf
ROOT
ATOM      1  C   UNL A   1      36.696  20.488  24.981  1.00  0.00     0.117 C 
ENDROOT
BRANCH   1   2
ATOM      2  N   UNL A   1      36.922  21.903  25.162  1.00  0.00    -0.354 N 
ATOM      3  C   UNL A   1      36.347  22.956  24.513  1.00  0.00     0.239 C 
ATOM      4  O   UNL A   1      36.455  24.070  25.037  1.00  0.00    -0.273 OA
ATOM      5  H   UNL A   1      37.586  22.141  25.851  1.00  0.00     0.163 HD
BRANCH   3   6
ATOM      6  C   UNL A   1      35.452  22.771  23.273  1.00  0.00     0.221 C 
BRANCH   6   7
ATOM      7  N   UNL A   1      34.011  22.664  23.509  1.00  0.00    -0.313 N 
BRANCH   7   8
ATOM      8  C   UNL A   1      33.344  21.817  24.349  1.00  0.00     0.318 C 
ATOM      9  N   UNL A   1      33.053  22.048  25.639  1.00  0.00    -0.331 N 
ATOM     10  H   UNL A   1      32.533  21.288  25.990  1.00  0.00     0.165 HD
ATOM     11  O   UNL A   1      32.941  20.714  23.964  1.00  0.00    -0.249 OA
BRANCH   9  12
ATOM     12  C   UNL A   1      33.235  23.032  26.705  1.00  0.00     0.116 C 
ATOM     13  C   UNL A   1      33.250  22.349  28.079  1.00  0.00     0.036 C 
BRANCH  12  14
ATOM     14  C   UNL A   1      32.159  24.063  26.577  1.00  0.00     0.040 A 
ATOM     15  C   UNL A   1      33.459  26.301  26.072  1.00  0.00     0.071 C 
ATOM     16  C   UNL A   1      32.255  25.463  26.295  1.00  0.00     0.086 A 
ATOM     17  N   UNL A   1      31.047  26.033  26.223  1.00  0.00    -0.085 NA
ATOM     18  O   UNL A   1      30.139  25.033  26.484  1.00  0.00    -0.361 OA
ATOM     19  C   UNL A   1      30.796  23.865  26.697  1.00  0.00     0.139 A 
ATOM     20  C   UNL A   1      29.945  22.698  26.998  1.00  0.00     0.091 C 
ENDBRANCH  12  14
ENDBRANCH   9  12
ENDBRANCH   7   8
BRANCH   7  21
ATOM     21  C   UNL A   1      33.222  23.676  22.743  1.00  0.00     0.081 C 
ATOM     22  C   UNL A   1      31.727  23.677  23.063  1.00  0.00     0.031 C 
ATOM     23  C   UNL A   1      33.809  25.090  22.815  1.00  0.00     0.031 C 
ENDBRANCH   7  21
ENDBRANCH   6   7
ENDBRANCH   3   6
ENDBRANCH   1   2
BRANCH   1  24
ATOM     24  C   UNL A   1      37.948  19.628  24.990  1.00  0.00     0.042 C 
BRANCH  24  25
ATOM     25  C   UNL A   1      39.106  20.243  25.757  1.00  0.00     0.118 C 
BRANCH  25  26
ATOM     26  N   UNL A   1      40.187  19.292  25.961  1.00  0.00    -0.352 N 
ATOM     27  C   UNL A   1      41.531  19.518  26.135  1.00  0.00     0.251 C 
ATOM     28  H   UNL A   1      39.916  18.346  25.978  1.00  0.00     0.163 HD
ATOM     29  O   UNL A   1      42.304  18.566  26.072  1.00  0.00    -0.269 OA
BRANCH  27  30
ATOM     30  C   UNL A   1      42.046  20.889  26.371  1.00  0.00     0.039 A 
ATOM     31  C   UNL A   1      42.257  21.721  25.270  1.00  0.00     0.014 A 
ATOM     32  C   UNL A   1      42.355  21.346  27.655  1.00  0.00     0.014 A 
ATOM     33  C   UNL A   1      42.738  23.019  25.461  1.00  0.00     0.010 A 
ATOM     34  C   UNL A   1      42.752  22.667  27.852  1.00  0.00     0.010 A 
ATOM     35  C   UNL A   1      42.967  23.513  26.756  1.00  0.00    -0.014 A 
BRANCH  35  36
ATOM     36  C   UNL A   1      43.447  24.905  26.964  1.00  0.00     0.031 A 
ATOM     37  C   UNL A   1      42.536  25.942  27.570  1.00  0.00     0.074 A 
ATOM     38  C   UNL A   1      44.694  25.240  26.576  1.00  0.00     0.049 A 
ATOM     39  N   UNL A   1      42.776  27.201  27.832  1.00  0.00    -0.248 NA
ATOM     40  C   UNL A   1      41.164  25.516  27.891  1.00  0.00     0.031 C 
ATOM     41  C   UNL A   1      45.642  24.340  25.913  1.00  0.00     0.029 A 
ATOM     42  N   UNL A   1      45.381  26.423  26.680  1.00  0.00    -0.354 N 
ATOM     43  C   UNL A   1      41.586  27.720  28.334  1.00  0.00     0.074 A 
ATOM     44  C   UNL A   1      40.610  26.655  28.281  1.00  0.00     0.031 C 
ATOM     45  C   UNL A   1      46.795  24.995  25.700  1.00  0.00     0.029 A 
ATOM     46  C   UNL A   1      46.660  26.367  26.176  1.00  0.00     0.049 A 
ATOM     47  H   UNL A   1      44.994  27.237  27.077  1.00  0.00     0.167 HD
ATOM     48  C   UNL A   1      41.339  28.965  28.813  1.00  0.00     0.034 A 
ATOM     49  C   UNL A   1      47.617  27.313  26.109  1.00  0.00     0.034 A 
ATOM     50  C   UNL A   1      42.333  30.008  28.883  1.00  0.00     0.049 A 
ATOM     51  C   UNL A   1      47.329  28.674  26.690  1.00  0.00     0.074 A 
ATOM     52  C   UNL A   1      42.214  31.277  29.423  1.00  0.00     0.029 A 
ATOM     53  N   UNL A   1      43.629  29.905  28.397  1.00  0.00    -0.354 N 
ATOM     54  N   UNL A   1      46.223  29.123  27.238  1.00  0.00    -0.248 NA
ATOM     55  C   UNL A   1      48.427  29.648  26.665  1.00  0.00     0.031 C 
ATOM     56  C   UNL A   1      43.413  31.962  29.203  1.00  0.00     0.029 A 
ATOM     57  C   UNL A   1      44.310  31.097  28.597  1.00  0.00     0.049 A 
ATOM     58  H   UNL A   1      44.010  29.103  27.971  1.00  0.00     0.167 HD
ATOM     59  C   UNL A   1      46.503  30.423  27.646  1.00  0.00     0.074 A 
ATOM     60  C   UNL A   1      47.890  30.671  27.311  1.00  0.00     0.031 C 
ATOM     61  C   UNL A   1      45.689  31.335  28.239  1.00  0.00     0.034 A 
BRANCH  48  62
ATOM     62  C   UNL A   1      39.933  29.271  29.277  1.00  0.00     0.023 A 
ATOM     63  C   UNL A   1      39.587  29.290  30.640  1.00  0.00     0.031 A 
ATOM     64  C   UNL A   1      38.921  29.546  28.340  1.00  0.00     0.131 A 
ATOM     65  C   UNL A   1      38.256  29.515  31.024  1.00  0.00     0.055 A 
ATOM     66  C   UNL A   1      37.614  29.843  28.732  1.00  0.00     0.041 A 
ATOM     67  F   UNL A   1      39.184  29.522  27.024  1.00  0.00    -0.206 F 
ATOM     68  C   UNL A   1      37.272  29.817  30.080  1.00  0.00     0.022 A 
BRANCH  65  69
ATOM     69  S   UNL A   1      37.803  29.287  32.765  1.00  0.00     0.124 S 
ATOM     70  O   UNL A   1      36.548  30.032  32.843  1.00  0.00    -0.237 OA
ATOM     71  O   UNL A   1      37.692  27.838  32.876  1.00  0.00    -0.237 OA
ATOM     72  O   UNL A   1      38.920  29.885  33.493  1.00  0.00    -0.744 OA
ENDBRANCH  65  69
ENDBRANCH  48  62
BRANCH  49  73
ATOM     73  C   UNL A   1      48.935  27.018  25.472  1.00  0.00     0.023 A 
ATOM     74  C   UNL A   1      50.005  26.504  26.221  1.00  0.00     0.031 A 
ATOM     75  C   UNL A   1      49.158  27.302  24.114  1.00  0.00     0.131 A 
ATOM     76  C   UNL A   1      51.266  26.344  25.624  1.00  0.00     0.055 A 
ATOM     77  C   UNL A   1      50.398  27.087  23.509  1.00  0.00     0.041 A 
ATOM     78  F   UNL A   1      48.167  27.788  23.349  1.00  0.00    -0.206 F 
ATOM     79  C   UNL A   1      51.466  26.621  24.269  1.00  0.00     0.022 A 
BRANCH  76  80
ATOM     80  S   UNL A   1      52.668  25.865  26.670  1.00  0.00     0.124 S 
ATOM     81  O   UNL A   1      52.927  24.503  26.214  1.00  0.00    -0.237 OA
ATOM     82  O   UNL A   1      53.669  26.863  26.310  1.00  0.00    -0.237 OA
ATOM     83  O   UNL A   1      52.136  25.978  28.026  1.00  0.00    -0.744 OA
ENDBRANCH  76  80
ENDBRANCH  49  73
BRANCH  61  84
ATOM     84  C   UNL A   1      46.305  32.668  28.586  1.00  0.00     0.023 A 
ATOM     85  C   UNL A   1      46.284  33.747  27.683  1.00  0.00     0.031 A 
ATOM     86  C   UNL A   1      46.963  32.850  29.815  1.00  0.00     0.131 A 
ATOM     87  C   UNL A   1      46.979  34.926  27.987  1.00  0.00     0.055 A 
ATOM     88  C   UNL A   1      47.592  34.053  30.142  1.00  0.00     0.041 A 
ATOM     89  F   UNL A   1      47.017  31.855  30.717  1.00  0.00    -0.206 F 
ATOM     90  C   UNL A   1      47.620  35.092  29.217  1.00  0.00     0.022 A 
BRANCH  87  91
ATOM     91  S   UNL A   1      47.148  36.189  26.695  1.00  0.00     0.124 S 
ATOM     92  O   UNL A   1      48.132  37.093  27.281  1.00  0.00    -0.237 OA
ATOM     93  O   UNL A   1      47.605  35.404  25.552  1.00  0.00    -0.237 OA
ATOM     94  O   UNL A   1      45.798  36.735  26.572  1.00  0.00    -0.744 OA
ENDBRANCH  87  91
ENDBRANCH  61  84
ENDBRANCH  35  36
ENDBRANCH  27  30
ENDBRANCH  25  26
ENDBRANCH  24  25
ENDBRANCH   1  24
TORSDOF 18
ENDMDL
MODEL 2
REMARK VINA RESULT:     -11.0      5.390      8.558
REMARK SMILES Cc1noc(C)c1[C@@H](C)NC(=O)N(CC(=O)NCCCNC(=O)c1ccc(-c2c3nc(c(-c4cc(S(=O)(=O)[O-])ccc4F)c4ccc([nH]4)c(-c4cc(S(=O)(=O)[O-])ccc4F)c4nc(c(-c5cc(S(=O)(=O)[O-])ccc5F)c5ccc2[nH]5)C=C4)C=C3)cc1)C(C)C
REMARK SMILES IDX 18 1 17 2 15 3 16 4 14 6 13 7 11 8 10 9 12 11 8 12 9 13 7 14
REMARK SMILES IDX 1 15 2 16 3 17 4 18 5 19 6 20 87 21 88 22 89 23 19 24 20 25
REMARK SMILES IDX 21 26 22 27 23 29 24 30 25 31 86 32 26 33 85 34 27 35 28 36
REMARK SMILES IDX 29 37 79 38 30 39 84 40 78 41 80 42 31 43 83 44 77 45 76 46
REMARK SMILES IDX 32 48 64 49 44 50 63 51 45 52 48 53 62 54 81 55 46 56 47 57
REMARK SMILES IDX 61 59 82 60 49 61 33 62 34 63 42 64 35 65 41 66 43 67 40 68
REMARK SMILES IDX 36 69 37 70 38 71 39 72 65 73 66 74 74 75 67 76 73 77 75 78
REMARK SMILES IDX 72 79 68 80 69 81 70 82 71 83 50 84 51 85 59 86 52 87 58 88
REMARK SMILES IDX 60 89 57 90 53 91 54 92 55 93 56 94
REMARK H PARENT 17 5 10 10 21 28 80 47 48 58
REMARK Flexibility Score: inf
ROOT
ATOM      1  C   UNL A   1      31.698  28.254  26.607  1.00  0.00     0.117 C 
ENDROOT
BRANCH   1   2
ATOM      2  N   UNL A   1      31.133  26.943  26.825  1.00  0.00    -0.354 N 
ATOM      3  C   UNL A   1      31.525  25.742  26.312  1.00  0.00     0.239 C 
ATOM      4  O   UNL A   1      31.103  24.724  26.870  1.00  0.00    -0.273 OA
ATOM      5  H   UNL A   1      30.355  26.912  27.430  1.00  0.00     0.163 HD
BRANCH   3   6
ATOM      6  C   UNL A   1      32.580  25.627  25.195  1.00  0.00     0.221 C 
BRANCH   6   7
ATOM      7  N   UNL A   1      32.080  25.501  23.825  1.00  0.00    -0.313 N 
BRANCH   7   8
ATOM      8  C   UNL A   1      31.180  24.602  23.325  1.00  0.00     0.318 C 
ATOM      9  N   UNL A   1      31.457  23.368  22.875  1.00  0.00    -0.331 N 
ATOM     10  H   UNL A   1      30.617  22.928  22.612  1.00  0.00     0.165 HD
ATOM     11  O   UNL A   1      29.977  24.876  23.240  1.00  0.00    -0.249 OA
BRANCH   9  12
ATOM     12  C   UNL A   1      32.570  22.449  22.642  1.00  0.00     0.116 C 
ATOM     13  C   UNL A   1      32.059  21.093  22.137  1.00  0.00     0.036 C 
BRANCH  12  14
ATOM     14  C   UNL A   1      33.359  22.340  23.909  1.00  0.00     0.040 A 
ATOM     15  C   UNL A   1      35.815  22.991  23.203  1.00  0.00     0.071 C 
ATOM     16  C   UNL A   1      34.749  22.583  24.150  1.00  0.00     0.086 A 
ATOM     17  N   UNL A   1      35.059  22.413  25.440  1.00  0.00    -0.085 NA
ATOM     18  O   UNL A   1      33.895  22.027  26.063  1.00  0.00    -0.361 OA
ATOM     19  C   UNL A   1      32.886  21.981  25.157  1.00  0.00     0.139 A 
ATOM     20  C   UNL A   1      31.570  21.573  25.685  1.00  0.00     0.091 C 
ENDBRANCH  12  14
ENDBRANCH   9  12
ENDBRANCH   7   8
BRANCH   7  21
ATOM     21  C   UNL A   1      32.618  26.554  22.912  1.00  0.00     0.081 C 
ATOM     22  C   UNL A   1      33.726  27.409  23.526  1.00  0.00     0.031 C 
ATOM     23  C   UNL A   1      33.027  26.017  21.535  1.00  0.00     0.031 C 
ENDBRANCH   7  21
ENDBRANCH   6   7
ENDBRANCH   3   6
ENDBRANCH   1   2
BRANCH   1  24
ATOM     24  C   UNL A   1      33.036  28.500  27.282  1.00  0.00     0.042 C 
BRANCH  24  25
ATOM     25  C   UNL A   1      33.897  29.534  26.578  1.00  0.00     0.118 C 
BRANCH  25  26
ATOM     26  N   UNL A   1      33.706  30.866  27.130  1.00  0.00    -0.352 N 
ATOM     27  C   UNL A   1      34.427  31.526  28.095  1.00  0.00     0.251 C 
ATOM     28  H   UNL A   1      32.947  31.370  26.756  1.00  0.00     0.163 HD
ATOM     29  O   UNL A   1      33.968  32.559  28.573  1.00  0.00    -0.269 OA
BRANCH  27  30
ATOM     30  C   UNL A   1      35.727  30.992  28.568  1.00  0.00     0.039 A 
ATOM     31  C   UNL A   1      35.721  29.909  29.451  1.00  0.00     0.014 A 
ATOM     32  C   UNL A   1      36.941  31.566  28.184  1.00  0.00     0.014 A 
ATOM     33  C   UNL A   1      36.930  29.382  29.912  1.00  0.00     0.010 A 
ATOM     34  C   UNL A   1      38.146  30.986  28.576  1.00  0.00     0.010 A 
ATOM     35  C   UNL A   1      38.155  29.899  29.460  1.00  0.00    -0.014 A 
BRANCH  35  36
ATOM     36  C   UNL A   1      39.442  29.318  29.924  1.00  0.00     0.031 A 
ATOM     37  C   UNL A   1      40.165  29.916  31.104  1.00  0.00     0.074 A 
ATOM     38  C   UNL A   1      39.974  28.272  29.261  1.00  0.00     0.049 A 
ATOM     39  N   UNL A   1      41.292  29.547  31.657  1.00  0.00    -0.248 NA
ATOM     40  C   UNL A   1      39.560  31.107  31.722  1.00  0.00     0.031 C 
ATOM     41  C   UNL A   1      39.402  27.654  28.062  1.00  0.00     0.029 A 
ATOM     42  N   UNL A   1      41.112  27.542  29.497  1.00  0.00    -0.354 N 
ATOM     43  C   UNL A   1      41.537  30.464  32.675  1.00  0.00     0.074 A 
ATOM     44  C   UNL A   1      40.473  31.441  32.622  1.00  0.00     0.031 C 
ATOM     45  C   UNL A   1      40.174  26.620  27.688  1.00  0.00     0.029 A 
ATOM     46  C   UNL A   1      41.312  26.522  28.595  1.00  0.00     0.049 A 
ATOM     47  H   UNL A   1      41.729  27.731  30.241  1.00  0.00     0.167 HD
ATOM     48  C   UNL A   1      42.546  30.476  33.581  1.00  0.00     0.034 A 
ATOM     49  C   UNL A   1      42.300  25.609  28.511  1.00  0.00     0.034 A 
ATOM     50  C   UNL A   1      43.584  29.476  33.637  1.00  0.00     0.049 A 
ATOM     51  C   UNL A   1      43.384  25.619  29.559  1.00  0.00     0.074 A 
ATOM     52  C   UNL A   1      44.607  29.346  34.561  1.00  0.00     0.029 A 
ATOM     53  N   UNL A   1      43.737  28.436  32.730  1.00  0.00    -0.354 N 
ATOM     54  N   UNL A   1      43.553  26.444  30.566  1.00  0.00    -0.248 NA
ATOM     55  C   UNL A   1      44.394  24.558  29.473  1.00  0.00     0.031 C 
ATOM     56  C   UNL A   1      45.414  28.270  34.175  1.00  0.00     0.029 A 
ATOM     57  C   UNL A   1      44.852  27.678  33.055  1.00  0.00     0.049 A 
ATOM     58  H   UNL A   1      43.140  28.262  31.966  1.00  0.00     0.167 HD
ATOM     59  C   UNL A   1      44.676  25.985  31.247  1.00  0.00     0.074 A 
ATOM     60  C   UNL A   1      45.119  24.792  30.555  1.00  0.00     0.031 C 
ATOM     61  C   UNL A   1      45.292  26.502  32.343  1.00  0.00     0.034 A 
BRANCH  48  62
ATOM     62  C   UNL A   1      42.585  31.618  34.572  1.00  0.00     0.023 A 
ATOM     63  C   UNL A   1      41.793  31.622  35.734  1.00  0.00     0.031 A 
ATOM     64  C   UNL A   1      43.427  32.721  34.348  1.00  0.00     0.131 A 
ATOM     65  C   UNL A   1      41.812  32.732  36.593  1.00  0.00     0.055 A 
ATOM     66  C   UNL A   1      43.498  33.789  35.245  1.00  0.00     0.041 A 
ATOM     67  F   UNL A   1      44.192  32.785  33.246  1.00  0.00    -0.206 F 
ATOM     68  C   UNL A   1      42.679  33.804  36.370  1.00  0.00     0.022 A 
BRANCH  65  69
ATOM     69  S   UNL A   1      40.601  32.809  37.941  1.00  0.00     0.124 S 
ATOM     70  O   UNL A   1      41.368  32.263  39.058  1.00  0.00    -0.237 OA
ATOM     71  O   UNL A   1      40.297  34.233  38.011  1.00  0.00    -0.237 OA
ATOM     72  O   UNL A   1      39.509  31.960  37.470  1.00  0.00    -0.744 OA
ENDBRANCH  65  69
ENDBRANCH  48  62
BRANCH  49  73
ATOM     73  C   UNL A   1      42.319  24.610  27.402  1.00  0.00     0.023 A 
ATOM     74  C   UNL A   1      41.542  23.442  27.463  1.00  0.00     0.031 A 
ATOM     75  C   UNL A   1      43.162  24.783  26.290  1.00  0.00     0.131 A 
ATOM     76  C   UNL A   1      41.666  22.465  26.462  1.00  0.00     0.055 A 
ATOM     77  C   UNL A   1      43.238  23.835  25.268  1.00  0.00     0.041 A 
ATOM     78  F   UNL A   1      43.921  25.885  26.178  1.00  0.00    -0.206 F 
ATOM     79  C   UNL A   1      42.500  22.660  25.358  1.00  0.00     0.022 A 
BRANCH  76  80
ATOM     80  S   UNL A   1      40.794  20.888  26.674  1.00  0.00     0.124 S 
ATOM     81  O   UNL A   1      40.799  20.739  28.125  1.00  0.00    -0.237 OA
ATOM     82  O   UNL A   1      39.500  21.173  26.063  1.00  0.00    -0.237 OA
ATOM     83  O   UNL A   1      41.631  19.937  25.947  1.00  0.00    -0.744 OA
ENDBRANCH  76  80
ENDBRANCH  49  73
BRANCH  61  84
ATOM     84  C   UNL A   1      46.490  25.748  32.865  1.00  0.00     0.023 A 
ATOM     85  C   UNL A   1      46.356  24.720  33.816  1.00  0.00     0.031 A 
ATOM     86  C   UNL A   1      47.787  26.092  32.445  1.00  0.00     0.131 A 
ATOM     87  C   UNL A   1      47.499  24.131  34.376  1.00  0.00     0.055 A 
ATOM     88  C   UNL A   1      48.919  25.451  32.952  1.00  0.00     0.041 A 
ATOM     89  F   UNL A   1      47.977  27.066  31.540  1.00  0.00    -0.206 F 
ATOM     90  C   UNL A   1      48.780  24.479  33.939  1.00  0.00     0.022 A 
BRANCH  87  91
ATOM     91  S   UNL A   1      47.293  23.001  35.780  1.00  0.00     0.124 S 
ATOM     92  O   UNL A   1      46.276  22.081  35.282  1.00  0.00    -0.237 OA
ATOM     93  O   UNL A   1      48.634  22.447  35.933  1.00  0.00    -0.237 OA
ATOM     94  O   UNL A   1      46.857  23.880  36.864  1.00  0.00    -0.744 OA
ENDBRANCH  87  91
ENDBRANCH  61  84
ENDBRANCH  35  36
ENDBRANCH  27  30
ENDBRANCH  25  26
ENDBRANCH  24  25
ENDBRANCH   1  24
TORSDOF 18
ENDMDL
MODEL 3
REMARK VINA RESULT:     -11.0      5.142      8.823
REMARK SMILES Cc1noc(C)c1[C@@H](C)NC(=O)N(CC(=O)NCCCNC(=O)c1ccc(-c2c3nc(c(-c4cc(S(=O)(=O)[O-])ccc4F)c4ccc([nH]4)c(-c4cc(S(=O)(=O)[O-])ccc4F)c4nc(c(-c5cc(S(=O)(=O)[O-])ccc5F)c5ccc2[nH]5)C=C4)C=C3)cc1)C(C)C
REMARK SMILES IDX 18 1 17 2 15 3 16 4 14 6 13 7 11 8 10 9 12 11 8 12 9 13 7 14
REMARK SMILES IDX 1 15 2 16 3 17 4 18 5 19 6 20 87 21 88 22 89 23 19 24 20 25
REMARK SMILES IDX 21 26 22 27 23 29 24 30 25 31 86 32 26 33 85 34 27 35 28 36
REMARK SMILES IDX 29 37 79 38 30 39 84 40 78 41 80 42 31 43 83 44 77 45 76 46
REMARK SMILES IDX 32 48 64 49 44 50 63 51 45 52 48 53 62 54 81 55 46 56 47 57
REMARK SMILES IDX 61 59 82 60 49 61 33 62 34 63 42 64 35 65 41 66 43 67 40 68
REMARK SMILES IDX 36 69 37 70 38 71 39 72 65 73 66 74 74 75 67 76 73 77 75 78
REMARK SMILES IDX 72 79 68 80 69 81 70 82 71 83 50 84 51 85 59 86 52 87 58 88
REMARK SMILES IDX 60 89 57 90 53 91 54 92 55 93 56 94
REMARK H PARENT 17 5 10 10 21 28 80 47 48 58
REMARK Flexibility Score: inf
ROOT
ATOM      1  C   UNL A   1      31.852  29.618  25.485  1.00  0.00     0.117 C 
ENDROOT
BRANCH   1   2
ATOM      2  N   UNL A   1      32.934  29.658  24.528  1.00  0.00    -0.354 N 
ATOM      3  C   UNL A   1      33.492  28.635  23.818  1.00  0.00     0.239 C 
ATOM      4  O   UNL A   1      34.183  28.938  22.840  1.00  0.00    -0.273 OA
ATOM      5  H   UNL A   1      33.324  30.548  24.366  1.00  0.00     0.163 HD
BRANCH   3   6
ATOM      6  C   UNL A   1      33.155  27.158  24.097  1.00  0.00     0.221 C 
BRANCH   6   7
ATOM      7  N   UNL A   1      32.491  26.418  23.023  1.00  0.00    -0.313 N 
BRANCH   7   8
ATOM      8  C   UNL A   1      33.050  25.627  22.059  1.00  0.00     0.318 C 
ATOM      9  N   UNL A   1      33.295  24.311  22.157  1.00  0.00    -0.331 N 
ATOM     10  H   UNL A   1      33.664  23.990  21.302  1.00  0.00     0.165 HD
ATOM     11  O   UNL A   1      33.395  26.091  20.966  1.00  0.00    -0.249 OA
BRANCH   9  12
ATOM     12  C   UNL A   1      33.204  23.187  23.088  1.00  0.00     0.116 C 
ATOM     13  C   UNL A   1      31.759  22.992  23.566  1.00  0.00     0.036 C 
BRANCH  12  14
ATOM     14  C   UNL A   1      34.163  23.433  24.210  1.00  0.00     0.040 A 
ATOM     15  C   UNL A   1      36.530  22.922  23.168  1.00  0.00     0.071 C 
ATOM     16  C   UNL A   1      35.590  23.329  24.241  1.00  0.00     0.086 A 
ATOM     17  N   UNL A   1      36.082  23.676  25.435  1.00  0.00    -0.085 NA
ATOM     18  O   UNL A   1      34.993  23.985  26.218  1.00  0.00    -0.361 OA
ATOM     19  C   UNL A   1      33.855  23.838  25.496  1.00  0.00     0.139 A 
ATOM     20  C   UNL A   1      32.599  24.130  26.213  1.00  0.00     0.091 C 
ENDBRANCH  12  14
ENDBRANCH   9  12
ENDBRANCH   7   8
BRANCH   7  21
ATOM     21  C   UNL A   1      31.002  26.539  23.070  1.00  0.00     0.081 C 
ATOM     22  C   UNL A   1      30.405  26.371  24.467  1.00  0.00     0.031 C 
ATOM     23  C   UNL A   1      30.469  27.802  22.385  1.00  0.00     0.031 C 
ENDBRANCH   7  21
ENDBRANCH   6   7
ENDBRANCH   3   6
ENDBRANCH   1   2
BRANCH   1  24
ATOM     24  C   UNL A   1      32.248  29.194  26.888  1.00  0.00     0.042 C 
BRANCH  24  25
ATOM     25  C   UNL A   1      33.641  29.644  27.294  1.00  0.00     0.118 C 
BRANCH  25  26
ATOM     26  N   UNL A   1      33.658  31.030  27.732  1.00  0.00    -0.352 N 
ATOM     27  C   UNL A   1      34.536  31.673  28.570  1.00  0.00     0.251 C 
ATOM     28  H   UNL A   1      32.933  31.591  27.375  1.00  0.00     0.163 HD
ATOM     29  O   UNL A   1      34.247  32.791  28.985  1.00  0.00    -0.269 OA
BRANCH  27  30
ATOM     30  C   UNL A   1      35.802  31.022  28.987  1.00  0.00     0.039 A 
ATOM     31  C   UNL A   1      37.008  31.550  28.522  1.00  0.00     0.014 A 
ATOM     32  C   UNL A   1      35.810  29.882  29.796  1.00  0.00     0.014 A 
ATOM     33  C   UNL A   1      38.217  30.960  28.901  1.00  0.00     0.010 A 
ATOM     34  C   UNL A   1      37.017  29.347  30.242  1.00  0.00     0.010 A 
ATOM     35  C   UNL A   1      38.235  29.868  29.784  1.00  0.00    -0.014 A 
BRANCH  35  36
ATOM     36  C   UNL A   1      39.521  29.260  30.214  1.00  0.00     0.031 A 
ATOM     37  C   UNL A   1      40.249  29.793  31.422  1.00  0.00     0.074 A 
ATOM     38  C   UNL A   1      40.049  28.249  29.495  1.00  0.00     0.049 A 
ATOM     39  N   UNL A   1      41.376  29.392  31.952  1.00  0.00    -0.248 NA
ATOM     40  C   UNL A   1      39.648  30.951  32.103  1.00  0.00     0.031 C 
ATOM     41  C   UNL A   1      39.472  27.697  28.266  1.00  0.00     0.029 A 
ATOM     42  N   UNL A   1      41.185  27.505  29.688  1.00  0.00    -0.354 N 
ATOM     43  C   UNL A   1      41.626  30.253  33.015  1.00  0.00     0.074 A 
ATOM     44  C   UNL A   1      40.564  31.235  33.017  1.00  0.00     0.031 C 
ATOM     45  C   UNL A   1      40.240  26.683  27.836  1.00  0.00     0.029 A 
ATOM     46  C   UNL A   1      41.381  26.534  28.734  1.00  0.00     0.049 A 
ATOM     47  H   UNL A   1      41.804  27.653  30.440  1.00  0.00     0.167 HD
ATOM     48  C   UNL A   1      42.637  30.215  33.919  1.00  0.00     0.034 A 
ATOM     49  C   UNL A   1      42.366  25.624  28.598  1.00  0.00     0.034 A 
ATOM     50  C   UNL A   1      43.673  29.211  33.919  1.00  0.00     0.049 A 
ATOM     51  C   UNL A   1      43.453  25.576  29.643  1.00  0.00     0.074 A 
ATOM     52  C   UNL A   1      44.697  29.029  34.832  1.00  0.00     0.029 A 
ATOM     53  N   UNL A   1      43.821  28.220  32.957  1.00  0.00    -0.354 N 
ATOM     54  N   UNL A   1      43.626  26.346  30.692  1.00  0.00    -0.248 NA
ATOM     55  C   UNL A   1      44.460  24.518  29.498  1.00  0.00     0.031 C 
ATOM     56  C   UNL A   1      45.501  27.974  34.387  1.00  0.00     0.029 A 
ATOM     57  C   UNL A   1      44.935  27.443  33.239  1.00  0.00     0.049 A 
ATOM     58  H   UNL A   1      43.221  28.088  32.187  1.00  0.00     0.167 HD
ATOM     59  C   UNL A   1      44.750  25.849  31.344  1.00  0.00     0.074 A 
ATOM     60  C   UNL A   1      45.188  24.693  30.589  1.00  0.00     0.031 C 
ATOM     61  C   UNL A   1      45.370  26.305  32.464  1.00  0.00     0.034 A 
BRANCH  48  62
ATOM     62  C   UNL A   1      42.682  31.302  34.968  1.00  0.00     0.023 A 
ATOM     63  C   UNL A   1      43.324  32.532  34.739  1.00  0.00     0.031 A 
ATOM     64  C   UNL A   1      42.074  31.104  36.221  1.00  0.00     0.131 A 
ATOM     65  C   UNL A   1      43.398  33.488  35.764  1.00  0.00     0.055 A 
ATOM     66  C   UNL A   1      42.086  32.088  37.211  1.00  0.00     0.041 A 
ATOM     67  F   UNL A   1      41.463  29.943  36.508  1.00  0.00    -0.206 F 
ATOM     68  C   UNL A   1      42.761  33.285  36.990  1.00  0.00     0.022 A 
BRANCH  65  69
ATOM     69  S   UNL A   1      44.443  34.950  35.516  1.00  0.00     0.124 S 
ATOM     70  O   UNL A   1      45.391  34.468  34.514  1.00  0.00    -0.237 OA
ATOM     71  O   UNL A   1      43.484  35.949  35.059  1.00  0.00    -0.237 OA
ATOM     72  O   UNL A   1      45.015  35.192  36.838  1.00  0.00    -0.744 OA
ENDBRANCH  65  69
ENDBRANCH  48  62
BRANCH  49  73
ATOM     73  C   UNL A   1      42.380  24.685  27.438  1.00  0.00     0.023 A 
ATOM     74  C   UNL A   1      41.595  23.521  27.436  1.00  0.00     0.031 A 
ATOM     75  C   UNL A   1      43.224  24.911  26.338  1.00  0.00     0.131 A 
ATOM     76  C   UNL A   1      41.714  22.597  26.385  1.00  0.00     0.055 A 
ATOM     77  C   UNL A   1      43.296  24.019  25.267  1.00  0.00     0.041 A 
ATOM     78  F   UNL A   1      43.991  26.013  26.284  1.00  0.00    -0.206 F 
ATOM     79  C   UNL A   1      42.550  22.845  25.294  1.00  0.00     0.022 A 
BRANCH  76  80
ATOM     80  S   UNL A   1      40.833  21.017  26.514  1.00  0.00     0.124 S 
ATOM     81  O   UNL A   1      40.812  20.804  27.957  1.00  0.00    -0.237 OA
ATOM     82  O   UNL A   1      39.551  21.334  25.893  1.00  0.00    -0.237 OA
ATOM     83  O   UNL A   1      41.678  20.094  25.759  1.00  0.00    -0.744 OA
ENDBRANCH  76  80
ENDBRANCH  49  73
BRANCH  61  84
ATOM     84  C   UNL A   1      46.567  25.521  32.943  1.00  0.00     0.023 A 
ATOM     85  C   UNL A   1      46.433  24.446  33.839  1.00  0.00     0.031 A 
ATOM     86  C   UNL A   1      47.864  25.884  32.537  1.00  0.00     0.131 A 
ATOM     87  C   UNL A   1      47.576  23.825  34.364  1.00  0.00     0.055 A 
ATOM     88  C   UNL A   1      48.995  25.215  33.007  1.00  0.00     0.041 A 
ATOM     89  F   UNL A   1      48.054  26.903  31.684  1.00  0.00    -0.206 F 
ATOM     90  C   UNL A   1      48.856  24.193  33.942  1.00  0.00     0.022 A 
BRANCH  87  91
ATOM     91  S   UNL A   1      47.371  22.624  35.708  1.00  0.00     0.124 S 
ATOM     92  O   UNL A   1      47.256  21.367  34.976  1.00  0.00    -0.237 OA
ATOM     93  O   UNL A   1      48.597  22.805  36.477  1.00  0.00    -0.237 OA
ATOM     94  O   UNL A   1      46.148  23.066  36.377  1.00  0.00    -0.744 OA
ENDBRANCH  87  91
ENDBRANCH  61  84
ENDBRANCH  35  36
ENDBRANCH  27  30
ENDBRANCH  25  26
ENDBRANCH  24  25
ENDBRANCH   1  24
TORSDOF 18
ENDMDL
