MODEL 1
REMARK VINA RESULT:     -10.7      0.000      0.000
REMARK SMILES COc1cc(/C=N/[NH+]=C2\NC(=O)[C@@H](CC(=O)NCCCNC(=O)c3ccc(-c4c5nc(c(-c6cc(S(=O)(=O)[O-])ccc6F)c6ccc([nH]6)c(-c6cc(S(=O)(=O)[O-])ccc6F)c6nc(c(-c7cc(S(=O)(=O)[O-])ccc7F)c7ccc4[nH]7)C=C6)C=C5)cc3)S2)cc(I)c1OC
REMARK SMILES IDX 18 1 17 2 15 3 16 4 14 6 13 7 8 8 9 9 10 11 87 12 11 13
REMARK SMILES IDX 12 15 7 16 6 17 5 18 3 19 4 20 91 21 89 22 88 23 90 24 2 25
REMARK SMILES IDX 1 26 92 27 93 28 19 29 20 30 21 31 22 32 23 34 24 35 25 36
REMARK SMILES IDX 86 37 26 38 85 39 27 40 28 41 29 42 79 43 30 44 84 45 78 46
REMARK SMILES IDX 80 47 31 48 83 49 77 50 76 51 32 53 64 54 44 55 63 56 45 57
REMARK SMILES IDX 48 58 62 59 81 60 46 61 47 62 61 64 82 65 49 66 33 67 34 68
REMARK SMILES IDX 42 69 35 70 41 71 43 72 40 73 36 74 37 75 38 76 39 77 65 78
REMARK SMILES IDX 66 79 74 80 67 81 73 82 75 83 72 84 68 85 69 86 70 87 71 88
REMARK SMILES IDX 50 89 51 90 59 91 52 92 58 93 60 94 57 95 53 96 54 97 55 98
REMARK SMILES IDX 56 99
REMARK H PARENT 17 5 8 10 10 14 21 33 80 52 48 63
REMARK Flexibility Score: inf
ROOT
ATOM      1  C   UNL A   1      43.626  24.324  24.974  1.00  0.00     0.117 C 
ENDROOT
BRANCH   1   2
ATOM      2  N   UNL A   1      44.625  23.374  25.455  1.00  0.00    -0.356 N 
ATOM      3  C   UNL A   1      44.553  22.034  25.704  1.00  0.00     0.221 C 
ATOM      4  O   UNL A   1      45.559  21.456  26.118  1.00  0.00    -0.275 OA
ATOM      5  H   UNL A   1      45.507  23.770  25.632  1.00  0.00     0.163 HD
BRANCH   3   6
ATOM      6  C   UNL A   1      43.281  21.264  25.442  1.00  0.00     0.127 C 
BRANCH   6   7
ATOM      7  C   UNL A   1      42.456  20.860  26.673  1.00  0.00     0.183 C 
ATOM      8  N   UNL A   1      39.100  22.685  26.798  1.00  0.00    -0.142 N 
ATOM      9  C   UNL A   1      40.099  21.871  26.819  1.00  0.00     0.337 C 
ATOM     10  H   UNL A   1      39.062  23.527  27.307  1.00  0.00     0.343 HD
ATOM     11  N   UNL A   1      40.132  20.675  26.188  1.00  0.00    -0.202 N 
ATOM     12  S   UNL A   1      41.609  22.201  27.597  1.00  0.00    -0.020 SA
ATOM     13  C   UNL A   1      41.310  19.999  26.166  1.00  0.00     0.322 C 
ATOM     14  H   UNL A   1      39.327  20.306  25.759  1.00  0.00     0.316 HD
ATOM     15  O   UNL A   1      41.441  18.874  25.696  1.00  0.00    -0.246 OA
BRANCH   8  16
ATOM     16  N   UNL A   1      38.071  22.225  25.961  1.00  0.00    -0.093 NA
ATOM     17  C   UNL A   1      37.339  23.214  25.565  1.00  0.00     0.166 C 
BRANCH  17  18
ATOM     18  C   UNL A   1      36.102  22.988  24.820  1.00  0.00     0.002 A 
ATOM     19  C   UNL A   1      34.469  23.506  23.154  1.00  0.00     0.162 A 
ATOM     20  C   UNL A   1      35.681  23.809  23.785  1.00  0.00     0.060 A 
ATOM     21  C   UNL A   1      33.700  22.358  23.501  1.00  0.00     0.174 A 
ATOM     22  C   UNL A   1      34.184  21.521  24.519  1.00  0.00     0.060 A 
ATOM     23  C   UNL A   1      35.369  21.863  25.191  1.00  0.00     0.028 A 
ATOM     24  I   UNL A   1      33.415  19.671  25.176  1.00  0.00    -0.040 I 
BRANCH  19  25
ATOM     25  O   UNL A   1      33.906  24.397  22.266  1.00  0.00    -0.493 OA
ATOM     26  C   UNL A   1      33.637  25.682  22.810  1.00  0.00     0.278 C 
ENDBRANCH  19  25
BRANCH  21  27
ATOM     27  O   UNL A   1      32.598  22.223  22.704  1.00  0.00    -0.492 OA
ATOM     28  C   UNL A   1      32.089  20.958  22.332  1.00  0.00     0.278 C 
ENDBRANCH  21  27
ENDBRANCH  17  18
ENDBRANCH   8  16
ENDBRANCH   6   7
ENDBRANCH   3   6
ENDBRANCH   1   2
BRANCH   1  29
ATOM     29  C   UNL A   1      43.095  25.230  26.077  1.00  0.00     0.042 C 
BRANCH  29  30
ATOM     30  C   UNL A   1      41.862  26.059  25.725  1.00  0.00     0.118 C 
BRANCH  30  31
ATOM     31  N   UNL A   1      40.695  25.632  26.478  1.00  0.00    -0.352 N 
ATOM     32  C   UNL A   1      40.155  26.097  27.653  1.00  0.00     0.251 C 
ATOM     33  H   UNL A   1      40.205  24.880  26.075  1.00  0.00     0.163 HD
ATOM     34  O   UNL A   1      39.311  25.390  28.206  1.00  0.00    -0.269 OA
BRANCH  32  35
ATOM     35  C   UNL A   1      40.552  27.388  28.283  1.00  0.00     0.039 A 
ATOM     36  C   UNL A   1      41.435  27.340  29.370  1.00  0.00     0.014 A 
ATOM     37  C   UNL A   1      40.009  28.623  27.917  1.00  0.00     0.014 A 
ATOM     38  C   UNL A   1      41.792  28.510  30.055  1.00  0.00     0.010 A 
ATOM     39  C   UNL A   1      40.424  29.802  28.555  1.00  0.00     0.010 A 
ATOM     40  C   UNL A   1      41.311  29.761  29.642  1.00  0.00    -0.014 A 
BRANCH  40  41
ATOM     41  C   UNL A   1      41.713  31.010  30.361  1.00  0.00     0.031 A 
ATOM     42  C   UNL A   1      43.024  31.694  30.048  1.00  0.00     0.074 A 
ATOM     43  C   UNL A   1      40.903  31.540  31.300  1.00  0.00     0.049 A 
ATOM     44  N   UNL A   1      43.554  32.762  30.594  1.00  0.00    -0.248 NA
ATOM     45  C   UNL A   1      43.856  31.089  28.998  1.00  0.00     0.031 C 
ATOM     46  C   UNL A   1      39.613  30.986  31.719  1.00  0.00     0.029 A 
ATOM     47  N   UNL A   1      41.039  32.667  32.075  1.00  0.00    -0.354 N 
ATOM     48  C   UNL A   1      44.775  32.957  29.954  1.00  0.00     0.074 A 
ATOM     49  C   UNL A   1      44.933  31.859  29.023  1.00  0.00     0.031 C 
ATOM     50  C   UNL A   1      39.068  31.783  32.652  1.00  0.00     0.029 A 
ATOM     51  C   UNL A   1      39.986  32.882  32.934  1.00  0.00     0.049 A 
ATOM     52  H   UNL A   1      41.819  33.265  32.021  1.00  0.00     0.167 HD
ATOM     53  C   UNL A   1      45.673  33.965  30.109  1.00  0.00     0.034 A 
ATOM     54  C   UNL A   1      39.786  33.844  33.858  1.00  0.00     0.034 A 
ATOM     55  C   UNL A   1      45.513  35.062  31.035  1.00  0.00     0.049 A 
ATOM     56  C   UNL A   1      40.831  34.914  34.056  1.00  0.00     0.074 A 
ATOM     57  C   UNL A   1      46.353  36.145  31.240  1.00  0.00     0.029 A 
ATOM     58  N   UNL A   1      44.451  35.218  31.914  1.00  0.00    -0.354 N 
ATOM     59  N   UNL A   1      41.970  35.085  33.430  1.00  0.00    -0.248 NA
ATOM     60  C   UNL A   1      40.554  35.922  35.090  1.00  0.00     0.031 C 
ATOM     61  C   UNL A   1      45.840  36.911  32.291  1.00  0.00     0.029 A 
ATOM     62  C   UNL A   1      44.633  36.359  32.684  1.00  0.00     0.049 A 
ATOM     63  H   UNL A   1      43.680  34.609  31.983  1.00  0.00     0.167 HD
ATOM     64  C   UNL A   1      42.529  36.240  33.976  1.00  0.00     0.074 A 
ATOM     65  C   UNL A   1      41.595  36.730  34.965  1.00  0.00     0.031 C 
ATOM     66  C   UNL A   1      43.708  36.841  33.680  1.00  0.00     0.034 A 
BRANCH  53  67
ATOM     67  C   UNL A   1      46.929  33.922  29.269  1.00  0.00     0.023 A 
ATOM     68  C   UNL A   1      47.001  34.557  28.017  1.00  0.00     0.031 A 
ATOM     69  C   UNL A   1      48.076  33.255  29.734  1.00  0.00     0.131 A 
ATOM     70  C   UNL A   1      48.171  34.462  27.249  1.00  0.00     0.055 A 
ATOM     71  C   UNL A   1      49.265  33.231  29.001  1.00  0.00     0.041 A 
ATOM     72  F   UNL A   1      48.063  32.615  30.915  1.00  0.00    -0.206 F 
ATOM     73  C   UNL A   1      49.312  33.827  27.744  1.00  0.00     0.022 A 
BRANCH  70  74
ATOM     74  S   UNL A   1      48.141  35.072  25.542  1.00  0.00     0.124 S 
ATOM     75  O   UNL A   1      48.100  36.518  25.746  1.00  0.00    -0.237 OA
ATOM     76  O   UNL A   1      49.383  34.539  24.994  1.00  0.00    -0.237 OA
ATOM     77  O   UNL A   1      46.917  34.494  24.992  1.00  0.00    -0.744 OA
ENDBRANCH  70  74
ENDBRANCH  53  67
BRANCH  54  78
ATOM     78  C   UNL A   1      38.585  33.828  34.740  1.00  0.00     0.023 A 
ATOM     79  C   UNL A   1      38.622  33.216  36.005  1.00  0.00     0.031 A 
ATOM     80  C   UNL A   1      37.349  34.285  34.257  1.00  0.00     0.131 A 
ATOM     81  C   UNL A   1      37.426  33.003  36.706  1.00  0.00     0.055 A 
ATOM     82  C   UNL A   1      36.171  34.108  34.979  1.00  0.00     0.041 A 
ATOM     83  F   UNL A   1      37.264  34.884  33.057  1.00  0.00    -0.206 F 
ATOM     84  C   UNL A   1      36.202  33.454  36.207  1.00  0.00     0.022 A 
BRANCH  81  85
ATOM     85  S   UNL A   1      37.467  32.000  38.218  1.00  0.00     0.124 S 
ATOM     86  O   UNL A   1      36.261  32.453  38.901  1.00  0.00    -0.237 OA
ATOM     87  O   UNL A   1      37.433  30.642  37.688  1.00  0.00    -0.237 OA
ATOM     88  O   UNL A   1      38.728  32.388  38.847  1.00  0.00    -0.744 OA
ENDBRANCH  81  85
ENDBRANCH  54  78
BRANCH  66  89
ATOM     89  C   UNL A   1      44.025  38.128  34.402  1.00  0.00     0.023 A 
ATOM     90  C   UNL A   1      43.552  39.373  33.949  1.00  0.00     0.031 A 
ATOM     91  C   UNL A   1      44.837  38.111  35.551  1.00  0.00     0.131 A 
ATOM     92  C   UNL A   1      43.945  40.551  34.602  1.00  0.00     0.055 A 
ATOM     93  C   UNL A   1      45.169  39.280  36.236  1.00  0.00     0.041 A 
ATOM     94  F   UNL A   1      45.324  36.953  36.026  1.00  0.00    -0.206 F 
ATOM     95  C   UNL A   1      44.735  40.511  35.753  1.00  0.00     0.022 A 
BRANCH  92  96
ATOM     96  S   UNL A   1      43.497  42.148  33.865  1.00  0.00     0.124 S 
ATOM     97  O   UNL A   1      42.087  42.261  34.222  1.00  0.00    -0.237 OA
ATOM     98  O   UNL A   1      44.402  43.069  34.544  1.00  0.00    -0.237 OA
ATOM     99  O   UNL A   1      43.763  41.955  32.440  1.00  0.00    -0.744 OA
ENDBRANCH  92  96
ENDBRANCH  66  89
ENDBRANCH  40  41
ENDBRANCH  32  35
ENDBRANCH  30  31
ENDBRANCH  29  30
ENDBRANCH   1  29
TORSDOF 18
ENDMDL
MODEL 2
REMARK VINA RESULT:     -10.6      4.514      7.711
REMARK SMILES COc1cc(/C=N/[NH+]=C2\NC(=O)[C@@H](CC(=O)NCCCNC(=O)c3ccc(-c4c5nc(c(-c6cc(S(=O)(=O)[O-])ccc6F)c6ccc([nH]6)c(-c6cc(S(=O)(=O)[O-])ccc6F)c6nc(c(-c7cc(S(=O)(=O)[O-])ccc7F)c7ccc4[nH]7)C=C6)C=C5)cc3)S2)cc(I)c1OC
REMARK SMILES IDX 18 1 17 2 15 3 16 4 14 6 13 7 8 8 9 9 10 11 87 12 11 13
REMARK SMILES IDX 12 15 7 16 6 17 5 18 3 19 4 20 91 21 89 22 88 23 90 24 2 25
REMARK SMILES IDX 1 26 92 27 93 28 19 29 20 30 21 31 22 32 23 34 24 35 25 36
REMARK SMILES IDX 86 37 26 38 85 39 27 40 28 41 29 42 79 43 30 44 84 45 78 46
REMARK SMILES IDX 80 47 31 48 83 49 77 50 76 51 32 53 64 54 44 55 63 56 45 57
REMARK SMILES IDX 48 58 62 59 81 60 46 61 47 62 61 64 82 65 49 66 33 67 34 68
REMARK SMILES IDX 42 69 35 70 41 71 43 72 40 73 36 74 37 75 38 76 39 77 65 78
REMARK SMILES IDX 66 79 74 80 67 81 73 82 75 83 72 84 68 85 69 86 70 87 71 88
REMARK SMILES IDX 50 89 51 90 59 91 52 92 58 93 60 94 57 95 53 96 54 97 55 98
REMARK SMILES IDX 56 99
REMARK H PARENT 17 5 8 10 10 14 21 33 80 52 48 63
REMARK Flexibility Score: inf
ROOT
ATOM      1  C   UNL A   1      33.244  21.830  26.647  1.00  0.00     0.117 C 
ENDROOT
BRANCH   1   2
ATOM      2  N   UNL A   1      32.897  20.870  25.604  1.00  0.00    -0.356 N 
ATOM      3  C   UNL A   1      32.923  20.964  24.243  1.00  0.00     0.221 C 
ATOM      4  O   UNL A   1      32.567  19.990  23.578  1.00  0.00    -0.275 OA
ATOM      5  H   UNL A   1      32.588  19.999  25.942  1.00  0.00     0.163 HD
BRANCH   3   6
ATOM      6  C   UNL A   1      33.414  22.218  23.561  1.00  0.00     0.127 C 
BRANCH   6   7
ATOM      7  C   UNL A   1      32.340  23.202  23.077  1.00  0.00     0.183 C 
ATOM      8  N   UNL A   1      31.478  25.797  25.748  1.00  0.00    -0.142 N 
ATOM      9  C   UNL A   1      31.766  25.115  24.693  1.00  0.00     0.337 C 
ATOM     10  H   UNL A   1      30.724  25.594  26.349  1.00  0.00     0.343 HD
ATOM     11  N   UNL A   1      32.748  25.429  23.817  1.00  0.00    -0.202 N 
ATOM     12  S   UNL A   1      30.996  23.630  24.252  1.00  0.00    -0.020 SA
ATOM     13  C   UNL A   1      33.041  24.531  22.840  1.00  0.00     0.322 C 
ATOM     14  H   UNL A   1      33.234  26.282  23.883  1.00  0.00     0.316 HD
ATOM     15  O   UNL A   1      33.852  24.739  21.944  1.00  0.00    -0.246 OA
BRANCH   8  16
ATOM     16  N   UNL A   1      32.368  26.867  25.936  1.00  0.00    -0.093 NA
ATOM     17  C   UNL A   1      31.865  27.729  26.756  1.00  0.00     0.166 C 
BRANCH  17  18
ATOM     18  C   UNL A   1      32.517  29.016  26.993  1.00  0.00     0.002 A 
ATOM     19  C   UNL A   1      32.559  31.393  27.235  1.00  0.00     0.162 A 
ATOM     20  C   UNL A   1      31.828  30.220  27.016  1.00  0.00     0.060 A 
ATOM     21  C   UNL A   1      33.960  31.377  27.491  1.00  0.00     0.174 A 
ATOM     22  C   UNL A   1      34.614  30.135  27.510  1.00  0.00     0.060 A 
ATOM     23  C   UNL A   1      33.888  28.967  27.230  1.00  0.00     0.028 A 
ATOM     24  I   UNL A   1      36.618  29.713  28.016  1.00  0.00    -0.040 I 
BRANCH  19  25
ATOM     25  O   UNL A   1      31.964  32.624  27.065  1.00  0.00    -0.493 OA
ATOM     26  C   UNL A   1      30.979  32.668  26.042  1.00  0.00     0.278 C 
ENDBRANCH  19  25
BRANCH  21  27
ATOM     27  O   UNL A   1      34.445  32.629  27.749  1.00  0.00    -0.492 OA
ATOM     28  C   UNL A   1      35.822  32.875  27.949  1.00  0.00     0.278 C 
ENDBRANCH  21  27
ENDBRANCH  17  18
ENDBRANCH   8  16
ENDBRANCH   6   7
ENDBRANCH   3   6
ENDBRANCH   1   2
BRANCH   1  29
ATOM     29  C   UNL A   1      34.672  21.666  27.149  1.00  0.00     0.042 C 
BRANCH  29  30
ATOM     30  C   UNL A   1      35.759  22.310  26.292  1.00  0.00     0.118 C 
BRANCH  30  31
ATOM     31  N   UNL A   1      36.768  21.346  25.888  1.00  0.00    -0.352 N 
ATOM     32  C   UNL A   1      38.134  21.450  25.793  1.00  0.00     0.251 C 
ATOM     33  H   UNL A   1      36.409  20.463  25.640  1.00  0.00     0.163 HD
ATOM     34  O   UNL A   1      38.728  20.563  25.177  1.00  0.00    -0.269 OA
BRANCH  32  35
ATOM     35  C   UNL A   1      38.913  22.579  26.377  1.00  0.00     0.039 A 
ATOM     36  C   UNL A   1      38.610  23.876  25.943  1.00  0.00     0.014 A 
ATOM     37  C   UNL A   1      39.993  22.401  27.247  1.00  0.00     0.014 A 
ATOM     38  C   UNL A   1      39.351  24.975  26.397  1.00  0.00     0.010 A 
ATOM     39  C   UNL A   1      40.687  23.508  27.758  1.00  0.00     0.010 A 
ATOM     40  C   UNL A   1      40.385  24.810  27.331  1.00  0.00    -0.014 A 
BRANCH  40  41
ATOM     41  C   UNL A   1      41.159  25.988  27.830  1.00  0.00     0.031 A 
ATOM     42  C   UNL A   1      42.587  26.219  27.391  1.00  0.00     0.074 A 
ATOM     43  C   UNL A   1      40.585  26.862  28.683  1.00  0.00     0.049 A 
ATOM     44  N   UNL A   1      43.423  27.163  27.747  1.00  0.00    -0.248 NA
ATOM     45  C   UNL A   1      43.154  25.251  26.440  1.00  0.00     0.031 C 
ATOM     46  C   UNL A   1      39.220  26.766  29.205  1.00  0.00     0.029 A 
ATOM     47  N   UNL A   1      41.074  28.009  29.262  1.00  0.00    -0.354 N 
ATOM     48  C   UNL A   1      44.610  26.906  27.066  1.00  0.00     0.074 A 
ATOM     49  C   UNL A   1      44.402  25.680  26.323  1.00  0.00     0.031 C 
ATOM     50  C   UNL A   1      38.974  27.816  30.005  1.00  0.00     0.029 A 
ATOM     51  C   UNL A   1      40.175  28.641  30.090  1.00  0.00     0.049 A 
ATOM     52  H   UNL A   1      41.985  28.347  29.099  1.00  0.00     0.167 HD
ATOM     53  C   UNL A   1      45.759  27.630  27.041  1.00  0.00     0.034 A 
ATOM     54  C   UNL A   1      40.305  29.748  30.849  1.00  0.00     0.034 A 
ATOM     55  C   UNL A   1      45.964  28.855  27.778  1.00  0.00     0.049 A 
ATOM     56  C   UNL A   1      41.615  30.497  30.854  1.00  0.00     0.074 A 
ATOM     57  C   UNL A   1      47.082  29.675  27.791  1.00  0.00     0.029 A 
ATOM     58  N   UNL A   1      45.042  29.437  28.636  1.00  0.00    -0.354 N 
ATOM     59  N   UNL A   1      42.718  30.242  30.191  1.00  0.00    -0.248 NA
ATOM     60  C   UNL A   1      41.691  31.686  31.714  1.00  0.00     0.031 C 
ATOM     61  C   UNL A   1      46.865  30.705  28.711  1.00  0.00     0.029 A 
ATOM     62  C   UNL A   1      45.579  30.583  29.207  1.00  0.00     0.049 A 
ATOM     63  H   UNL A   1      44.138  29.088  28.815  1.00  0.00     0.167 HD
ATOM     64  C   UNL A   1      43.605  31.260  30.533  1.00  0.00     0.074 A 
ATOM     65  C   UNL A   1      42.905  32.139  31.443  1.00  0.00     0.031 C 
ATOM     66  C   UNL A   1      44.885  31.452  30.125  1.00  0.00     0.034 A 
BRANCH  53  67
ATOM     67  C   UNL A   1      46.901  27.107  26.200  1.00  0.00     0.023 A 
ATOM     68  C   UNL A   1      47.179  27.632  24.926  1.00  0.00     0.031 A 
ATOM     69  C   UNL A   1      47.735  26.084  26.685  1.00  0.00     0.131 A 
ATOM     70  C   UNL A   1      48.224  27.094  24.160  1.00  0.00     0.055 A 
ATOM     71  C   UNL A   1      48.822  25.606  25.951  1.00  0.00     0.041 A 
ATOM     72  F   UNL A   1      47.508  25.531  27.888  1.00  0.00    -0.206 F 
ATOM     73  C   UNL A   1      49.064  26.104  24.674  1.00  0.00     0.022 A 
BRANCH  70  74
ATOM     74  S   UNL A   1      48.392  27.619  22.432  1.00  0.00     0.124 S 
ATOM     75  O   UNL A   1      47.161  28.380  22.234  1.00  0.00    -0.237 OA
ATOM     76  O   UNL A   1      49.627  28.397  22.457  1.00  0.00    -0.237 OA
ATOM     77  O   UNL A   1      48.463  26.360  21.696  1.00  0.00    -0.744 OA
ENDBRANCH  70  74
ENDBRANCH  53  67
BRANCH  54  78
ATOM     78  C   UNL A   1      39.202  30.206  31.739  1.00  0.00     0.023 A 
ATOM     79  C   UNL A   1      38.338  31.243  31.350  1.00  0.00     0.031 A 
ATOM     80  C   UNL A   1      39.106  29.716  33.052  1.00  0.00     0.131 A 
ATOM     81  C   UNL A   1      37.471  31.815  32.294  1.00  0.00     0.055 A 
ATOM     82  C   UNL A   1      38.212  30.260  33.972  1.00  0.00     0.041 A 
ATOM     83  F   UNL A   1      39.904  28.719  33.469  1.00  0.00    -0.206 F 
ATOM     84  C   UNL A   1      37.395  31.323  33.599  1.00  0.00     0.022 A 
BRANCH  81  85
ATOM     85  S   UNL A   1      36.543  33.306  31.838  1.00  0.00     0.124 S 
ATOM     86  O   UNL A   1      37.399  33.878  30.805  1.00  0.00    -0.237 OA
ATOM     87  O   UNL A   1      35.272  32.751  31.385  1.00  0.00    -0.237 OA
ATOM     88  O   UNL A   1      36.479  34.059  33.088  1.00  0.00    -0.744 OA
ENDBRANCH  81  85
ENDBRANCH  54  78
BRANCH  66  89
ATOM     89  C   UNL A   1      45.588  32.692  30.624  1.00  0.00     0.023 A 
ATOM     90  C   UNL A   1      45.536  33.910  29.924  1.00  0.00     0.031 A 
ATOM     91  C   UNL A   1      46.347  32.644  31.808  1.00  0.00     0.131 A 
ATOM     92  C   UNL A   1      46.277  35.011  30.379  1.00  0.00     0.055 A 
ATOM     93  C   UNL A   1      47.027  33.762  32.292  1.00  0.00     0.041 A 
ATOM     94  F   UNL A   1      46.440  31.506  32.515  1.00  0.00    -0.206 F 
ATOM     95  C   UNL A   1      47.007  34.950  31.568  1.00  0.00     0.022 A 
BRANCH  92  96
ATOM     96  S   UNL A   1      46.360  36.496  29.339  1.00  0.00     0.124 S 
ATOM     97  O   UNL A   1      45.193  36.331  28.479  1.00  0.00    -0.237 OA
ATOM     98  O   UNL A   1      46.280  37.571  30.323  1.00  0.00    -0.237 OA
ATOM     99  O   UNL A   1      47.652  36.370  28.664  1.00  0.00    -0.744 OA
ENDBRANCH  92  96
ENDBRANCH  66  89
ENDBRANCH  40  41
ENDBRANCH  32  35
ENDBRANCH  30  31
ENDBRANCH  29  30
ENDBRANCH   1  29
TORSDOF 18
ENDMDL
MODEL 3
REMARK VINA RESULT:     -10.5      5.274     10.323
REMARK SMILES COc1cc(/C=N/[NH+]=C2\NC(=O)[C@@H](CC(=O)NCCCNC(=O)c3ccc(-c4c5nc(c(-c6cc(S(=O)(=O)[O-])ccc6F)c6ccc([nH]6)c(-c6cc(S(=O)(=O)[O-])ccc6F)c6nc(c(-c7cc(S(=O)(=O)[O-])ccc7F)c7ccc4[nH]7)C=C6)C=C5)cc3)S2)cc(I)c1OC
REMARK SMILES IDX 18 1 17 2 15 3 16 4 14 6 13 7 8 8 9 9 10 11 87 12 11 13
REMARK SMILES IDX 12 15 7 16 6 17 5 18 3 19 4 20 91 21 89 22 88 23 90 24 2 25
REMARK SMILES IDX 1 26 92 27 93 28 19 29 20 30 21 31 22 32 23 34 24 35 25 36
REMARK SMILES IDX 86 37 26 38 85 39 27 40 28 41 29 42 79 43 30 44 84 45 78 46
REMARK SMILES IDX 80 47 31 48 83 49 77 50 76 51 32 53 64 54 44 55 63 56 45 57
REMARK SMILES IDX 48 58 62 59 81 60 46 61 47 62 61 64 82 65 49 66 33 67 34 68
REMARK SMILES IDX 42 69 35 70 41 71 43 72 40 73 36 74 37 75 38 76 39 77 65 78
REMARK SMILES IDX 66 79 74 80 67 81 73 82 75 83 72 84 68 85 69 86 70 87 71 88
REMARK SMILES IDX 50 89 51 90 59 91 52 92 58 93 60 94 57 95 53 96 54 97 55 98
REMARK SMILES IDX 56 99
REMARK H PARENT 17 5 8 10 10 14 21 33 80 52 48 63
REMARK Flexibility Score: inf
ROOT
ATOM      1  C   UNL A   1      31.788  27.319  25.585  1.00  0.00     0.117 C 
ENDROOT
BRANCH   1   2
ATOM      2  N   UNL A   1      32.250  26.159  26.342  1.00  0.00    -0.356 N 
ATOM      3  C   UNL A   1      31.744  24.898  26.464  1.00  0.00     0.221 C 
ATOM      4  O   UNL A   1      32.334  24.092  27.185  1.00  0.00    -0.275 OA
ATOM      5  H   UNL A   1      33.073  26.315  26.857  1.00  0.00     0.163 HD
BRANCH   3   6
ATOM      6  C   UNL A   1      30.508  24.481  25.703  1.00  0.00     0.127 C 
BRANCH   6   7
ATOM      7  C   UNL A   1      30.735  23.717  24.390  1.00  0.00     0.183 C 
ATOM      8  N   UNL A   1      34.385  23.875  23.264  1.00  0.00    -0.142 N 
ATOM      9  C   UNL A   1      33.170  23.583  23.582  1.00  0.00     0.337 C 
ATOM     10  H   UNL A   1      34.635  24.598  22.644  1.00  0.00     0.343 HD
ATOM     11  N   UNL A   1      32.808  22.544  24.369  1.00  0.00    -0.202 N 
ATOM     12  S   UNL A   1      31.790  24.518  23.120  1.00  0.00    -0.020 SA
ATOM     13  C   UNL A   1      31.507  22.456  24.748  1.00  0.00     0.322 C 
ATOM     14  H   UNL A   1      33.467  21.872  24.657  1.00  0.00     0.316 HD
ATOM     15  O   UNL A   1      31.046  21.518  25.391  1.00  0.00    -0.246 OA
BRANCH   8  16
ATOM     16  N   UNL A   1      35.308  23.036  23.909  1.00  0.00    -0.093 NA
ATOM     17  C   UNL A   1      36.151  23.738  24.591  1.00  0.00     0.166 C 
BRANCH  17  18
ATOM     18  C   UNL A   1      37.315  23.118  25.221  1.00  0.00     0.002 A 
ATOM     19  C   UNL A   1      38.858  21.334  25.604  1.00  0.00     0.162 A 
ATOM     20  C   UNL A   1      37.739  21.830  24.927  1.00  0.00     0.060 A 
ATOM     21  C   UNL A   1      39.598  22.126  26.528  1.00  0.00     0.174 A 
ATOM     22  C   UNL A   1      39.169  23.442  26.763  1.00  0.00     0.060 A 
ATOM     23  C   UNL A   1      38.011  23.915  26.127  1.00  0.00     0.028 A 
ATOM     24  I   UNL A   1      40.100  24.942  27.917  1.00  0.00    -0.040 I 
BRANCH  19  25
ATOM     25  O   UNL A   1      39.197  20.002  25.504  1.00  0.00    -0.493 OA
ATOM     26  C   UNL A   1      38.108  19.136  25.215  1.00  0.00     0.278 C 
ENDBRANCH  19  25
BRANCH  21  27
ATOM     27  O   UNL A   1      40.691  21.460  27.009  1.00  0.00    -0.492 OA
ATOM     28  C   UNL A   1      41.988  21.671  26.490  1.00  0.00     0.278 C 
ENDBRANCH  21  27
ENDBRANCH  17  18
ENDBRANCH   8  16
ENDBRANCH   6   7
ENDBRANCH   3   6
ENDBRANCH   1   2
BRANCH   1  29
ATOM     29  C   UNL A   1      32.888  27.947  24.740  1.00  0.00     0.042 C 
BRANCH  29  30
ATOM     30  C   UNL A   1      33.913  28.788  25.496  1.00  0.00     0.118 C 
BRANCH  30  31
ATOM     31  N   UNL A   1      33.326  30.008  26.021  1.00  0.00    -0.352 N 
ATOM     32  C   UNL A   1      33.715  30.831  27.051  1.00  0.00     0.251 C 
ATOM     33  H   UNL A   1      32.508  30.298  25.557  1.00  0.00     0.163 HD
ATOM     34  O   UNL A   1      32.897  31.660  27.452  1.00  0.00    -0.269 OA
BRANCH  32  35
ATOM     35  C   UNL A   1      35.054  30.754  27.700  1.00  0.00     0.039 A 
ATOM     36  C   UNL A   1      35.422  29.541  28.297  1.00  0.00     0.014 A 
ATOM     37  C   UNL A   1      35.909  31.852  27.838  1.00  0.00     0.014 A 
ATOM     38  C   UNL A   1      36.635  29.420  28.988  1.00  0.00     0.010 A 
ATOM     39  C   UNL A   1      37.156  31.711  28.466  1.00  0.00     0.010 A 
ATOM     40  C   UNL A   1      37.532  30.497  29.062  1.00  0.00    -0.014 A 
BRANCH  40  41
ATOM     41  C   UNL A   1      38.836  30.358  29.780  1.00  0.00     0.031 A 
ATOM     42  C   UNL A   1      39.025  30.945  31.160  1.00  0.00     0.074 A 
ATOM     43  C   UNL A   1      39.862  29.703  29.199  1.00  0.00     0.049 A 
ATOM     44  N   UNL A   1      40.093  30.954  31.919  1.00  0.00    -0.248 NA
ATOM     45  C   UNL A   1      37.866  31.625  31.757  1.00  0.00     0.031 C 
ATOM     46  C   UNL A   1      39.834  29.094  27.867  1.00  0.00     0.029 A 
ATOM     47  N   UNL A   1      41.131  29.433  29.652  1.00  0.00    -0.354 N 
ATOM     48  C   UNL A   1      39.738  31.636  33.080  1.00  0.00     0.074 A 
ATOM     49  C   UNL A   1      38.371  32.078  32.896  1.00  0.00     0.031 C 
ATOM     50  C   UNL A   1      41.015  28.506  27.621  1.00  0.00     0.029 A 
ATOM     51  C   UNL A   1      41.904  28.730  28.757  1.00  0.00     0.049 A 
ATOM     52  H   UNL A   1      41.458  29.719  30.536  1.00  0.00     0.167 HD
ATOM     53  C   UNL A   1      40.469  31.857  34.203  1.00  0.00     0.034 A 
ATOM     54  C   UNL A   1      43.188  28.326  28.830  1.00  0.00     0.034 A 
ATOM     55  C   UNL A   1      41.830  31.412  34.388  1.00  0.00     0.049 A 
ATOM     56  C   UNL A   1      43.999  28.643  30.063  1.00  0.00     0.074 A 
ATOM     57  C   UNL A   1      42.641  31.561  35.503  1.00  0.00     0.029 A 
ATOM     58  N   UNL A   1      42.588  30.739  33.440  1.00  0.00    -0.354 N 
ATOM     59  N   UNL A   1      43.636  29.276  31.152  1.00  0.00    -0.248 NA
ATOM     60  C   UNL A   1      45.395  28.184  30.070  1.00  0.00     0.031 C 
ATOM     61  C   UNL A   1      43.906  31.049  35.201  1.00  0.00     0.029 A 
ATOM     62  C   UNL A   1      43.863  30.498  33.932  1.00  0.00     0.049 A 
ATOM     63  H   UNL A   1      42.268  30.470  32.548  1.00  0.00     0.167 HD
ATOM     64  C   UNL A   1      44.754  29.262  31.985  1.00  0.00     0.074 A 
ATOM     65  C   UNL A   1      45.792  28.544  31.281  1.00  0.00     0.031 C 
ATOM     66  C   UNL A   1      44.903  29.793  33.224  1.00  0.00     0.034 A 
BRANCH  53  67
ATOM     67  C   UNL A   1      39.818  32.635  35.323  1.00  0.00     0.023 A 
ATOM     68  C   UNL A   1      39.126  31.991  36.363  1.00  0.00     0.031 A 
ATOM     69  C   UNL A   1      39.906  34.038  35.363  1.00  0.00     0.131 A 
ATOM     70  C   UNL A   1      38.501  32.750  37.365  1.00  0.00     0.055 A 
ATOM     71  C   UNL A   1      39.351  34.784  36.405  1.00  0.00     0.041 A 
ATOM     72  F   UNL A   1      40.540  34.711  34.388  1.00  0.00    -0.206 F 
ATOM     73  C   UNL A   1      38.632  34.140  37.408  1.00  0.00     0.022 A 
BRANCH  70  74
ATOM     74  S   UNL A   1      37.410  31.904  38.541  1.00  0.00     0.124 S 
ATOM     75  O   UNL A   1      38.199  31.960  39.768  1.00  0.00    -0.237 OA
ATOM     76  O   UNL A   1      36.211  32.735  38.513  1.00  0.00    -0.237 OA
ATOM     77  O   UNL A   1      37.257  30.569  37.968  1.00  0.00    -0.744 OA
ENDBRANCH  70  74
ENDBRANCH  53  67
BRANCH  54  78
ATOM     78  C   UNL A   1      43.846  27.635  27.686  1.00  0.00     0.023 A 
ATOM     79  C   UNL A   1      44.071  26.248  27.708  1.00  0.00     0.031 A 
ATOM     80  C   UNL A   1      44.395  28.382  26.632  1.00  0.00     0.131 A 
ATOM     81  C   UNL A   1      44.900  25.665  26.738  1.00  0.00     0.055 A 
ATOM     82  C   UNL A   1      45.183  27.789  25.648  1.00  0.00     0.041 A 
ATOM     83  F   UNL A   1      44.201  29.710  26.562  1.00  0.00    -0.206 F 
ATOM     84  C   UNL A   1      45.448  26.424  25.702  1.00  0.00     0.022 A 
BRANCH  81  85
ATOM     85  S   UNL A   1      45.372  23.922  26.925  1.00  0.00     0.124 S 
ATOM     86  O   UNL A   1      44.575  23.527  28.079  1.00  0.00    -0.237 OA
ATOM     87  O   UNL A   1      44.970  23.355  25.642  1.00  0.00    -0.237 OA
ATOM     88  O   UNL A   1      46.814  23.986  27.149  1.00  0.00    -0.744 OA
ENDBRANCH  81  85
ENDBRANCH  54  78
BRANCH  66  89
ATOM     89  C   UNL A   1      46.227  29.567  33.915  1.00  0.00     0.023 A 
ATOM     90  C   UNL A   1      46.457  28.448  34.736  1.00  0.00     0.031 A 
ATOM     91  C   UNL A   1      47.267  30.503  33.769  1.00  0.00     0.131 A 
ATOM     92  C   UNL A   1      47.672  28.326  35.427  1.00  0.00     0.055 A 
ATOM     93  C   UNL A   1      48.498  30.340  34.405  1.00  0.00     0.041 A 
ATOM     94  F   UNL A   1      47.103  31.594  33.004  1.00  0.00    -0.206 F 
ATOM     95  C   UNL A   1      48.701  29.255  35.252  1.00  0.00     0.022 A 
BRANCH  92  96
ATOM     96  S   UNL A   1      47.854  26.990  36.642  1.00  0.00     0.124 S 
ATOM     97  O   UNL A   1      48.309  25.882  35.809  1.00  0.00    -0.237 OA
ATOM     98  O   UNL A   1      48.841  27.541  37.565  1.00  0.00    -0.237 OA
ATOM     99  O   UNL A   1      46.507  26.841  37.192  1.00  0.00    -0.744 OA
ENDBRANCH  92  96
ENDBRANCH  66  89
ENDBRANCH  40  41
ENDBRANCH  32  35
ENDBRANCH  30  31
ENDBRANCH  29  30
ENDBRANCH   1  29
TORSDOF 18
ENDMDL
