MODEL 1
REMARK VINA RESULT:     -12.9      0.000      0.000
REMARK SMILES Cc1nn(C)c(=O)c(C(=O)N[C@H]2C=C[C@H](C(=O)NCCCNC(=O)c3ccc(-c4c5nc(c(-c6cc(S(=O)(=O)[O-])ccc6F)c6ccc([nH]6)c(-c6cc(S(=O)(=O)[O-])ccc6F)c6nc(c(-c7cc(S(=O)(=O)[O-])ccc7F)c7ccc4[nH]7)C=C6)C=C5)cc3)C2)c1C
REMARK SMILES IDX 20 1 19 2 18 3 16 4 17 5 15 7 12 8 13 9 88 10 14 11 11 12
REMARK SMILES IDX 9 13 10 14 8 16 1 17 2 18 3 19 89 20 4 21 90 22 5 23 6 24
REMARK SMILES IDX 7 25 21 26 22 27 23 28 24 30 25 31 26 32 87 33 27 34 86 35
REMARK SMILES IDX 28 36 29 37 30 38 80 39 31 40 85 41 79 42 81 43 32 44 84 45
REMARK SMILES IDX 78 46 77 47 33 49 65 50 45 51 64 52 46 53 49 54 63 55 82 56
REMARK SMILES IDX 47 57 48 58 62 60 83 61 50 62 34 63 35 64 43 65 36 66 42 67
REMARK SMILES IDX 44 68 41 69 37 70 38 71 39 72 40 73 66 74 67 75 75 76 68 77
REMARK SMILES IDX 74 78 76 79 73 80 69 81 70 82 71 83 72 84 51 85 52 86 60 87
REMARK SMILES IDX 53 88 59 89 61 90 58 91 54 92 55 93 56 94 57 95
REMARK H PARENT 18 6 11 15 22 29 81 48 49 59
REMARK Flexibility Score: inf
ROOT
ATOM      1  C   UNL A   1      31.539  31.734  26.690  1.00  0.00     0.042 C 
ENDROOT
BRANCH   1   2
ATOM      2  C   UNL A   1      31.841  30.378  26.077  1.00  0.00     0.117 C 
BRANCH   2   3
ATOM      3  N   UNL A   1      31.097  30.142  24.854  1.00  0.00    -0.356 N 
ATOM      4  C   UNL A   1      31.112  29.152  23.930  1.00  0.00     0.227 C 
ATOM      5  O   UNL A   1      30.327  29.295  22.983  1.00  0.00    -0.274 OA
ATOM      6  H   UNL A   1      30.443  30.850  24.653  1.00  0.00     0.163 HD
BRANCH   4   7
ATOM      7  C   UNL A   1      31.888  27.829  24.055  1.00  0.00     0.103 C 
ATOM      8  C   UNL A   1      31.219  26.622  26.047  1.00  0.00     0.106 C 
ATOM      9  C   UNL A   1      32.696  26.851  26.045  1.00  0.00    -0.006 C 
ATOM     10  C   UNL A   1      30.935  26.735  24.543  1.00  0.00     0.047 C 
ATOM     11  C   UNL A   1      33.037  27.624  24.997  1.00  0.00    -0.016 C 
BRANCH   8  12
ATOM     12  N   UNL A   1      30.805  25.355  26.573  1.00  0.00    -0.346 N 
ATOM     13  C   UNL A   1      31.401  24.124  26.576  1.00  0.00     0.257 C 
ATOM     14  O   UNL A   1      31.004  23.371  27.472  1.00  0.00    -0.269 OA
ATOM     15  H   UNL A   1      29.925  25.375  27.015  1.00  0.00     0.164 HD
BRANCH  13  16
ATOM     16  C   UNL A   1      32.406  23.614  25.553  1.00  0.00     0.111 A 
ATOM     17  C   UNL A   1      36.011  22.994  24.540  1.00  0.00     0.069 C 
ATOM     18  C   UNL A   1      34.498  22.878  24.540  1.00  0.00     0.062 A 
ATOM     19  N   UNL A   1      33.969  22.358  23.485  1.00  0.00    -0.175 NA
ATOM     20  C   UNL A   1      33.718  23.337  25.730  1.00  0.00    -0.010 A 
ATOM     21  N   UNL A   1      32.613  22.379  23.402  1.00  0.00    -0.232 N 
ATOM     22  C   UNL A   1      34.501  23.282  26.997  1.00  0.00     0.047 C 
ATOM     23  C   UNL A   1      32.069  21.673  22.255  1.00  0.00     0.178 C 
ATOM     24  C   UNL A   1      31.801  23.147  24.234  1.00  0.00     0.279 A 
ATOM     25  O   UNL A   1      30.631  23.390  23.941  1.00  0.00    -0.267 OA
ENDBRANCH  13  16
ENDBRANCH   8  12
ENDBRANCH   4   7
ENDBRANCH   2   3
ENDBRANCH   1   2
BRANCH   1  26
ATOM     26  C   UNL A   1      32.780  32.452  27.210  1.00  0.00     0.118 C 
BRANCH  26  27
ATOM     27  N   UNL A   1      32.529  33.851  27.544  1.00  0.00    -0.352 N 
ATOM     28  C   UNL A   1      33.059  34.639  28.536  1.00  0.00     0.251 C 
ATOM     29  H   UNL A   1      31.874  34.301  26.965  1.00  0.00     0.163 HD
ATOM     30  O   UNL A   1      32.550  35.738  28.761  1.00  0.00    -0.269 OA
BRANCH  28  31
ATOM     31  C   UNL A   1      34.206  34.167  29.340  1.00  0.00     0.039 A 
ATOM     32  C   UNL A   1      33.968  33.433  30.505  1.00  0.00     0.014 A 
ATOM     33  C   UNL A   1      35.516  34.453  28.952  1.00  0.00     0.014 A 
ATOM     34  C   UNL A   1      35.045  32.914  31.227  1.00  0.00     0.010 A 
ATOM     35  C   UNL A   1      36.584  33.856  29.615  1.00  0.00     0.010 A 
ATOM     36  C   UNL A   1      36.360  33.085  30.764  1.00  0.00    -0.014 A 
BRANCH  36  37
ATOM     37  C   UNL A   1      37.516  32.477  31.472  1.00  0.00     0.031 A 
ATOM     38  C   UNL A   1      38.264  31.332  30.845  1.00  0.00     0.074 A 
ATOM     39  C   UNL A   1      37.859  32.922  32.697  1.00  0.00     0.049 A 
ATOM     40  N   UNL A   1      39.251  30.627  31.331  1.00  0.00    -0.248 NA
ATOM     41  C   UNL A   1      37.827  30.907  29.504  1.00  0.00     0.031 C 
ATOM     42  C   UNL A   1      37.189  34.008  33.419  1.00  0.00     0.029 A 
ATOM     43  N   UNL A   1      38.855  32.523  33.552  1.00  0.00    -0.354 N 
ATOM     44  C   UNL A   1      39.551  29.677  30.363  1.00  0.00     0.074 A 
ATOM     45  C   UNL A   1      38.599  29.852  29.289  1.00  0.00     0.031 C 
ATOM     46  C   UNL A   1      37.818  34.213  34.587  1.00  0.00     0.029 A 
ATOM     47  C   UNL A   1      38.903  33.245  34.722  1.00  0.00     0.049 A 
ATOM     48  H   UNL A   1      39.477  31.789  33.347  1.00  0.00     0.167 HD
ATOM     49  C   UNL A   1      40.548  28.760  30.358  1.00  0.00     0.034 A 
ATOM     50  C   UNL A   1      39.722  33.136  35.788  1.00  0.00     0.034 A 
ATOM     51  C   UNL A   1      41.504  28.609  31.424  1.00  0.00     0.049 A 
ATOM     52  C   UNL A   1      40.795  32.081  35.778  1.00  0.00     0.074 A 
ATOM     53  C   UNL A   1      42.581  27.745  31.494  1.00  0.00     0.029 A 
ATOM     54  N   UNL A   1      41.497  29.336  32.607  1.00  0.00    -0.354 N 
ATOM     55  N   UNL A   1      41.079  31.205  34.842  1.00  0.00    -0.248 NA
ATOM     56  C   UNL A   1      41.659  31.998  36.964  1.00  0.00     0.031 C 
ATOM     57  C   UNL A   1      43.184  27.899  32.745  1.00  0.00     0.029 A 
ATOM     58  C   UNL A   1      42.531  28.914  33.427  1.00  0.00     0.049 A 
ATOM     59  H   UNL A   1      40.854  30.047  32.829  1.00  0.00     0.167 HD
ATOM     60  C   UNL A   1      42.165  30.479  35.319  1.00  0.00     0.074 A 
ATOM     61  C   UNL A   1      42.492  31.025  36.621  1.00  0.00     0.031 C 
ATOM     62  C   UNL A   1      42.833  29.455  34.730  1.00  0.00     0.034 A 
BRANCH  49  63
ATOM     63  C   UNL A   1      40.649  27.842  29.167  1.00  0.00     0.023 A 
ATOM     64  C   UNL A   1      41.565  28.085  28.129  1.00  0.00     0.031 A 
ATOM     65  C   UNL A   1      39.836  26.699  29.078  1.00  0.00     0.131 A 
ATOM     66  C   UNL A   1      41.613  27.222  27.023  1.00  0.00     0.055 A 
ATOM     67  C   UNL A   1      39.937  25.807  28.009  1.00  0.00     0.041 A 
ATOM     68  F   UNL A   1      38.931  26.430  30.031  1.00  0.00    -0.206 F 
ATOM     69  C   UNL A   1      40.825  26.071  26.969  1.00  0.00     0.022 A 
BRANCH  66  70
ATOM     70  S   UNL A   1      42.661  27.675  25.615  1.00  0.00     0.124 S 
ATOM     71  O   UNL A   1      43.953  27.882  26.266  1.00  0.00    -0.237 OA
ATOM     72  O   UNL A   1      42.561  26.501  24.754  1.00  0.00    -0.237 OA
ATOM     73  O   UNL A   1      42.030  28.886  25.094  1.00  0.00    -0.744 OA
ENDBRANCH  66  70
ENDBRANCH  49  63
BRANCH  50  74
ATOM     74  C   UNL A   1      39.552  34.052  36.951  1.00  0.00     0.023 A 
ATOM     75  C   UNL A   1      38.969  33.601  38.145  1.00  0.00     0.031 A 
ATOM     76  C   UNL A   1      39.988  35.387  36.889  1.00  0.00     0.131 A 
ATOM     77  C   UNL A   1      38.822  34.484  39.227  1.00  0.00     0.055 A 
ATOM     78  C   UNL A   1      39.874  36.251  37.981  1.00  0.00     0.041 A 
ATOM     79  F   UNL A   1      40.561  35.863  35.772  1.00  0.00    -0.206 F 
ATOM     80  C   UNL A   1      39.283  35.801  39.157  1.00  0.00     0.022 A 
BRANCH  77  81
ATOM     81  S   UNL A   1      37.996  33.893  40.729  1.00  0.00     0.124 S 
ATOM     82  O   UNL A   1      37.572  35.145  41.346  1.00  0.00    -0.237 OA
ATOM     83  O   UNL A   1      36.934  33.053  40.183  1.00  0.00    -0.237 OA
ATOM     84  O   UNL A   1      39.051  33.173  41.437  1.00  0.00    -0.744 OA
ENDBRANCH  77  81
ENDBRANCH  50  74
BRANCH  62  85
ATOM     85  C   UNL A   1      43.999  28.862  35.477  1.00  0.00     0.023 A 
ATOM     86  C   UNL A   1      43.824  27.810  36.390  1.00  0.00     0.031 A 
ATOM     87  C   UNL A   1      45.306  29.317  35.226  1.00  0.00     0.131 A 
ATOM     88  C   UNL A   1      44.939  27.261  37.041  1.00  0.00     0.055 A 
ATOM     89  C   UNL A   1      46.415  28.732  35.837  1.00  0.00     0.041 A 
ATOM     90  F   UNL A   1      45.526  30.318  34.358  1.00  0.00    -0.206 F 
ATOM     91  C   UNL A   1      46.235  27.702  36.755  1.00  0.00     0.022 A 
BRANCH  88  92
ATOM     92  S   UNL A   1      44.670  25.981  38.296  1.00  0.00     0.124 S 
ATOM     93  O   UNL A   1      43.761  25.070  37.608  1.00  0.00    -0.237 OA
ATOM     94  O   UNL A   1      46.020  25.479  38.530  1.00  0.00    -0.237 OA
ATOM     95  O   UNL A   1      44.082  26.716  39.415  1.00  0.00    -0.744 OA
ENDBRANCH  88  92
ENDBRANCH  62  85
ENDBRANCH  36  37
ENDBRANCH  28  31
ENDBRANCH  26  27
ENDBRANCH   1  26
TORSDOF 15
ENDMDL
MODEL 2
REMARK VINA RESULT:     -12.9      0.986      1.549
REMARK SMILES Cc1nn(C)c(=O)c(C(=O)N[C@H]2C=C[C@H](C(=O)NCCCNC(=O)c3ccc(-c4c5nc(c(-c6cc(S(=O)(=O)[O-])ccc6F)c6ccc([nH]6)c(-c6cc(S(=O)(=O)[O-])ccc6F)c6nc(c(-c7cc(S(=O)(=O)[O-])ccc7F)c7ccc4[nH]7)C=C6)C=C5)cc3)C2)c1C
REMARK SMILES IDX 20 1 19 2 18 3 16 4 17 5 15 7 12 8 13 9 88 10 14 11 11 12
REMARK SMILES IDX 9 13 10 14 8 16 1 17 2 18 3 19 89 20 4 21 90 22 5 23 6 24
REMARK SMILES IDX 7 25 21 26 22 27 23 28 24 30 25 31 26 32 87 33 27 34 86 35
REMARK SMILES IDX 28 36 29 37 30 38 80 39 31 40 85 41 79 42 81 43 32 44 84 45
REMARK SMILES IDX 78 46 77 47 33 49 65 50 45 51 64 52 46 53 49 54 63 55 82 56
REMARK SMILES IDX 47 57 48 58 62 60 83 61 50 62 34 63 35 64 43 65 36 66 42 67
REMARK SMILES IDX 44 68 41 69 37 70 38 71 39 72 40 73 66 74 67 75 75 76 68 77
REMARK SMILES IDX 74 78 76 79 73 80 69 81 70 82 71 83 72 84 51 85 52 86 60 87
REMARK SMILES IDX 53 88 59 89 61 90 58 91 54 92 55 93 56 94 57 95
REMARK H PARENT 18 6 11 15 22 29 81 48 49 59
REMARK Flexibility Score: inf
ROOT
ATOM      1  C   UNL A   1      31.671  32.040  26.761  1.00  0.00     0.042 C 
ENDROOT
BRANCH   1   2
ATOM      2  C   UNL A   1      31.935  30.574  26.471  1.00  0.00     0.117 C 
BRANCH   2   3
ATOM      3  N   UNL A   1      31.223  30.100  25.299  1.00  0.00    -0.356 N 
ATOM      4  C   UNL A   1      31.606  29.450  24.174  1.00  0.00     0.227 C 
ATOM      5  O   UNL A   1      30.703  29.215  23.360  1.00  0.00    -0.274 OA
ATOM      6  H   UNL A   1      30.257  30.292  25.327  1.00  0.00     0.163 HD
BRANCH   4   7
ATOM      7  C   UNL A   1      33.003  28.858  23.921  1.00  0.00     0.103 C 
ATOM      8  C   UNL A   1      32.839  26.616  23.014  1.00  0.00     0.106 C 
ATOM      9  C   UNL A   1      33.669  26.618  24.257  1.00  0.00    -0.006 C 
ATOM     10  C   UNL A   1      32.987  28.087  22.598  1.00  0.00     0.047 C 
ATOM     11  C   UNL A   1      33.653  27.843  24.815  1.00  0.00    -0.016 C 
BRANCH   8  12
ATOM     12  N   UNL A   1      33.291  25.725  21.987  1.00  0.00    -0.346 N 
ATOM     13  C   UNL A   1      33.263  24.362  21.877  1.00  0.00     0.257 C 
ATOM     14  O   UNL A   1      33.319  23.946  20.715  1.00  0.00    -0.269 OA
ATOM     15  H   UNL A   1      33.699  26.181  21.215  1.00  0.00     0.164 HD
BRANCH  13  16
ATOM     16  C   UNL A   1      33.255  23.372  23.033  1.00  0.00     0.111 A 
ATOM     17  C   UNL A   1      35.054  20.750  25.105  1.00  0.00     0.069 C 
ATOM     18  C   UNL A   1      34.019  21.793  24.726  1.00  0.00     0.062 A 
ATOM     19  N   UNL A   1      32.930  21.787  25.417  1.00  0.00    -0.175 NA
ATOM     20  C   UNL A   1      34.307  22.758  23.621  1.00  0.00    -0.010 A 
ATOM     21  N   UNL A   1      31.933  22.611  25.001  1.00  0.00    -0.232 N 
ATOM     22  C   UNL A   1      35.764  23.004  23.426  1.00  0.00     0.047 C 
ATOM     23  C   UNL A   1      30.780  22.656  25.883  1.00  0.00     0.178 C 
ATOM     24  C   UNL A   1      31.920  23.238  23.757  1.00  0.00     0.279 A 
ATOM     25  O   UNL A   1      30.884  23.710  23.288  1.00  0.00    -0.267 OA
ENDBRANCH  13  16
ENDBRANCH   8  12
ENDBRANCH   4   7
ENDBRANCH   2   3
ENDBRANCH   1   2
BRANCH   1  26
ATOM     26  C   UNL A   1      32.911  32.799  27.223  1.00  0.00     0.118 C 
BRANCH  26  27
ATOM     27  N   UNL A   1      32.616  34.163  27.649  1.00  0.00    -0.352 N 
ATOM     28  C   UNL A   1      33.116  34.898  28.696  1.00  0.00     0.251 C 
ATOM     29  H   UNL A   1      31.952  34.633  27.095  1.00  0.00     0.163 HD
ATOM     30  O   UNL A   1      32.574  35.963  28.990  1.00  0.00    -0.269 OA
BRANCH  28  31
ATOM     31  C   UNL A   1      34.271  34.405  29.476  1.00  0.00     0.039 A 
ATOM     32  C   UNL A   1      34.047  33.767  30.699  1.00  0.00     0.014 A 
ATOM     33  C   UNL A   1      35.575  34.578  29.009  1.00  0.00     0.014 A 
ATOM     34  C   UNL A   1      35.125  33.228  31.405  1.00  0.00     0.010 A 
ATOM     35  C   UNL A   1      36.635  33.958  29.662  1.00  0.00     0.010 A 
ATOM     36  C   UNL A   1      36.423  33.280  30.870  1.00  0.00    -0.014 A 
BRANCH  36  37
ATOM     37  C   UNL A   1      37.573  32.646  31.564  1.00  0.00     0.031 A 
ATOM     38  C   UNL A   1      38.294  31.492  30.923  1.00  0.00     0.074 A 
ATOM     39  C   UNL A   1      37.935  33.076  32.789  1.00  0.00     0.049 A 
ATOM     40  N   UNL A   1      39.271  30.765  31.396  1.00  0.00    -0.248 NA
ATOM     41  C   UNL A   1      37.838  31.084  29.584  1.00  0.00     0.031 C 
ATOM     42  C   UNL A   1      37.292  34.169  33.525  1.00  0.00     0.029 A 
ATOM     43  N   UNL A   1      38.930  32.653  33.633  1.00  0.00    -0.354 N 
ATOM     44  C   UNL A   1      39.546  29.816  30.419  1.00  0.00     0.074 A 
ATOM     45  C   UNL A   1      38.588  30.016  29.354  1.00  0.00     0.031 C 
ATOM     46  C   UNL A   1      37.934  34.354  34.689  1.00  0.00     0.029 A 
ATOM     47  C   UNL A   1      39.002  33.365  34.808  1.00  0.00     0.049 A 
ATOM     48  H   UNL A   1      39.537  31.908  33.418  1.00  0.00     0.167 HD
ATOM     49  C   UNL A   1      40.525  28.880  30.399  1.00  0.00     0.034 A 
ATOM     50  C   UNL A   1      39.827  33.234  35.866  1.00  0.00     0.034 A 
ATOM     51  C   UNL A   1      41.487  28.704  31.456  1.00  0.00     0.049 A 
ATOM     52  C   UNL A   1      40.881  32.159  35.840  1.00  0.00     0.074 A 
ATOM     53  C   UNL A   1      42.548  27.819  31.511  1.00  0.00     0.029 A 
ATOM     54  N   UNL A   1      41.504  29.423  32.644  1.00  0.00    -0.354 N 
ATOM     55  N   UNL A   1      41.140  31.284  34.895  1.00  0.00    -0.248 NA
ATOM     56  C   UNL A   1      41.752  32.051  37.017  1.00  0.00     0.031 C 
ATOM     57  C   UNL A   1      43.164  27.954  32.757  1.00  0.00     0.029 A 
ATOM     58  C   UNL A   1      42.536  28.975  33.452  1.00  0.00     0.049 A 
ATOM     59  H   UNL A   1      40.876  30.144  32.876  1.00  0.00     0.167 HD
ATOM     60  C   UNL A   1      42.216  30.534  35.358  1.00  0.00     0.074 A 
ATOM     61  C   UNL A   1      42.564  31.065  36.661  1.00  0.00     0.031 C 
ATOM     62  C   UNL A   1      42.859  29.502  34.756  1.00  0.00     0.034 A 
BRANCH  49  63
ATOM     63  C   UNL A   1      40.599  27.969  29.201  1.00  0.00     0.023 A 
ATOM     64  C   UNL A   1      41.525  28.190  28.168  1.00  0.00     0.031 A 
ATOM     65  C   UNL A   1      39.748  26.855  29.101  1.00  0.00     0.131 A 
ATOM     66  C   UNL A   1      41.548  27.334  27.056  1.00  0.00     0.055 A 
ATOM     67  C   UNL A   1      39.822  25.968  28.025  1.00  0.00     0.041 A 
ATOM     68  F   UNL A   1      38.831  26.609  30.049  1.00  0.00    -0.206 F 
ATOM     69  C   UNL A   1      40.721  26.210  26.990  1.00  0.00     0.022 A 
BRANCH  66  70
ATOM     70  S   UNL A   1      42.615  27.762  25.654  1.00  0.00     0.124 S 
ATOM     71  O   UNL A   1      43.877  28.063  26.327  1.00  0.00    -0.237 OA
ATOM     72  O   UNL A   1      42.592  26.543  24.853  1.00  0.00    -0.237 OA
ATOM     73  O   UNL A   1      41.946  28.915  25.054  1.00  0.00    -0.744 OA
ENDBRANCH  66  70
ENDBRANCH  49  63
BRANCH  50  74
ATOM     74  C   UNL A   1      39.685  34.144  37.036  1.00  0.00     0.023 A 
ATOM     75  C   UNL A   1      39.066  33.708  38.219  1.00  0.00     0.031 A 
ATOM     76  C   UNL A   1      40.182  35.459  36.995  1.00  0.00     0.131 A 
ATOM     77  C   UNL A   1      38.946  34.586  39.308  1.00  0.00     0.055 A 
ATOM     78  C   UNL A   1      40.094  36.315  38.094  1.00  0.00     0.041 A 
ATOM     79  F   UNL A   1      40.790  35.919  35.890  1.00  0.00    -0.206 F 
ATOM     80  C   UNL A   1      39.468  35.881  39.258  1.00  0.00     0.022 A 
BRANCH  77  81
ATOM     81  S   UNL A   1      38.075  34.018  40.793  1.00  0.00     0.124 S 
ATOM     82  O   UNL A   1      37.656  35.281  41.392  1.00  0.00    -0.237 OA
ATOM     83  O   UNL A   1      37.013  33.192  40.227  1.00  0.00    -0.237 OA
ATOM     84  O   UNL A   1      39.101  33.286  41.531  1.00  0.00    -0.744 OA
ENDBRANCH  77  81
ENDBRANCH  50  74
BRANCH  62  85
ATOM     85  C   UNL A   1      44.020  28.882  35.489  1.00  0.00     0.023 A 
ATOM     86  C   UNL A   1      43.839  27.801  36.367  1.00  0.00     0.031 A 
ATOM     87  C   UNL A   1      45.330  29.341  35.259  1.00  0.00     0.131 A 
ATOM     88  C   UNL A   1      44.949  27.229  37.005  1.00  0.00     0.055 A 
ATOM     89  C   UNL A   1      46.435  28.734  35.856  1.00  0.00     0.041 A 
ATOM     90  F   UNL A   1      45.556  30.369  34.425  1.00  0.00    -0.206 F 
ATOM     91  C   UNL A   1      46.247  27.675  36.739  1.00  0.00     0.022 A 
BRANCH  88  92
ATOM     92  S   UNL A   1      44.671  25.910  38.217  1.00  0.00     0.124 S 
ATOM     93  O   UNL A   1      46.029  25.622  38.667  1.00  0.00    -0.237 OA
ATOM     94  O   UNL A   1      43.799  26.556  39.193  1.00  0.00    -0.237 OA
ATOM     95  O   UNL A   1      44.040  24.850  37.432  1.00  0.00    -0.744 OA
ENDBRANCH  88  92
ENDBRANCH  62  85
ENDBRANCH  36  37
ENDBRANCH  28  31
ENDBRANCH  26  27
ENDBRANCH   1  26
TORSDOF 15
ENDMDL
MODEL 3
REMARK VINA RESULT:     -12.8      2.344      3.174
REMARK SMILES Cc1nn(C)c(=O)c(C(=O)N[C@H]2C=C[C@H](C(=O)NCCCNC(=O)c3ccc(-c4c5nc(c(-c6cc(S(=O)(=O)[O-])ccc6F)c6ccc([nH]6)c(-c6cc(S(=O)(=O)[O-])ccc6F)c6nc(c(-c7cc(S(=O)(=O)[O-])ccc7F)c7ccc4[nH]7)C=C6)C=C5)cc3)C2)c1C
REMARK SMILES IDX 20 1 19 2 18 3 16 4 17 5 15 7 12 8 13 9 88 10 14 11 11 12
REMARK SMILES IDX 9 13 10 14 8 16 1 17 2 18 3 19 89 20 4 21 90 22 5 23 6 24
REMARK SMILES IDX 7 25 21 26 22 27 23 28 24 30 25 31 26 32 87 33 27 34 86 35
REMARK SMILES IDX 28 36 29 37 30 38 80 39 31 40 85 41 79 42 81 43 32 44 84 45
REMARK SMILES IDX 78 46 77 47 33 49 65 50 45 51 64 52 46 53 49 54 63 55 82 56
REMARK SMILES IDX 47 57 48 58 62 60 83 61 50 62 34 63 35 64 43 65 36 66 42 67
REMARK SMILES IDX 44 68 41 69 37 70 38 71 39 72 40 73 66 74 67 75 75 76 68 77
REMARK SMILES IDX 74 78 76 79 73 80 69 81 70 82 71 83 72 84 51 85 52 86 60 87
REMARK SMILES IDX 53 88 59 89 61 90 58 91 54 92 55 93 56 94 57 95
REMARK H PARENT 18 6 11 15 22 29 81 48 49 59
REMARK Flexibility Score: inf
ROOT
ATOM      1  C   UNL A   1      31.815  28.498  26.211  1.00  0.00     0.042 C 
ENDROOT
BRANCH   1   2
ATOM      2  C   UNL A   1      31.368  27.417  25.243  1.00  0.00     0.117 C 
BRANCH   2   3
ATOM      3  N   UNL A   1      30.628  27.951  24.115  1.00  0.00    -0.356 N 
ATOM      4  C   UNL A   1      30.903  28.077  22.795  1.00  0.00     0.227 C 
ATOM      5  O   UNL A   1      30.017  28.609  22.114  1.00  0.00    -0.274 OA
ATOM      6  H   UNL A   1      29.738  28.293  24.360  1.00  0.00     0.163 HD
BRANCH   4   7
ATOM      7  C   UNL A   1      32.127  27.478  22.080  1.00  0.00     0.103 C 
ATOM      8  C   UNL A   1      32.347  25.116  22.580  1.00  0.00     0.106 C 
ATOM      9  C   UNL A   1      33.602  25.846  22.936  1.00  0.00    -0.006 C 
ATOM     10  C   UNL A   1      31.763  26.090  21.546  1.00  0.00     0.047 C 
ATOM     11  C   UNL A   1      33.425  27.170  22.766  1.00  0.00    -0.016 C 
BRANCH   8  12
ATOM     12  N   UNL A   1      32.545  23.809  22.028  1.00  0.00    -0.346 N 
ATOM     13  C   UNL A   1      32.865  22.610  22.602  1.00  0.00     0.257 C 
ATOM     14  O   UNL A   1      32.528  21.624  21.937  1.00  0.00    -0.269 OA
ATOM     15  H   UNL A   1      32.429  23.767  21.052  1.00  0.00     0.164 HD
BRANCH  13  16
ATOM     16  C   UNL A   1      33.642  22.417  23.896  1.00  0.00     0.111 A 
ATOM     17  C   UNL A   1      33.655  21.814  27.643  1.00  0.00     0.069 C 
ATOM     18  C   UNL A   1      34.168  21.885  26.217  1.00  0.00     0.062 A 
ATOM     19  N   UNL A   1      35.449  21.875  26.074  1.00  0.00    -0.175 NA
ATOM     20  C   UNL A   1      33.196  21.941  25.081  1.00  0.00    -0.010 A 
ATOM     21  N   UNL A   1      35.930  22.084  24.821  1.00  0.00    -0.232 N 
ATOM     22  C   UNL A   1      31.883  21.314  25.405  1.00  0.00     0.047 C 
ATOM     23  C   UNL A   1      37.370  21.940  24.695  1.00  0.00     0.178 C 
ATOM     24  C   UNL A   1      35.154  22.564  23.767  1.00  0.00     0.279 A 
ATOM     25  O   UNL A   1      35.670  23.037  22.755  1.00  0.00    -0.267 OA
ENDBRANCH  13  16
ENDBRANCH   8  12
ENDBRANCH   4   7
ENDBRANCH   2   3
ENDBRANCH   1   2
BRANCH   1  26
ATOM     26  C   UNL A   1      32.684  29.569  25.561  1.00  0.00     0.118 C 
BRANCH  26  27
ATOM     27  N   UNL A   1      32.345  30.920  25.999  1.00  0.00    -0.352 N 
ATOM     28  C   UNL A   1      32.908  31.709  26.971  1.00  0.00     0.251 C 
ATOM     29  H   UNL A   1      31.591  31.331  25.519  1.00  0.00     0.163 HD
ATOM     30  O   UNL A   1      32.329  32.742  27.310  1.00  0.00    -0.269 OA
BRANCH  28  31
ATOM     31  C   UNL A   1      34.176  31.314  27.620  1.00  0.00     0.039 A 
ATOM     32  C   UNL A   1      35.159  32.282  27.843  1.00  0.00     0.014 A 
ATOM     33  C   UNL A   1      34.402  29.990  28.001  1.00  0.00     0.014 A 
ATOM     34  C   UNL A   1      36.327  31.935  28.527  1.00  0.00     0.010 A 
ATOM     35  C   UNL A   1      35.519  29.668  28.765  1.00  0.00     0.010 A 
ATOM     36  C   UNL A   1      36.497  30.636  29.032  1.00  0.00    -0.014 A 
BRANCH  36  37
ATOM     37  C   UNL A   1      37.694  30.265  29.829  1.00  0.00     0.031 A 
ATOM     38  C   UNL A   1      38.750  29.377  29.230  1.00  0.00     0.074 A 
ATOM     39  C   UNL A   1      37.805  30.686  31.104  1.00  0.00     0.049 A 
ATOM     40  N   UNL A   1      39.828  28.888  29.783  1.00  0.00    -0.248 NA
ATOM     41  C   UNL A   1      38.554  28.961  27.831  1.00  0.00     0.031 C 
ATOM     42  C   UNL A   1      36.830  31.528  31.804  1.00  0.00     0.029 A 
ATOM     43  N   UNL A   1      38.785  30.470  32.040  1.00  0.00    -0.354 N 
ATOM     44  C   UNL A   1      40.436  28.109  28.807  1.00  0.00     0.074 A 
ATOM     45  C   UNL A   1      39.573  28.135  27.647  1.00  0.00     0.031 C 
ATOM     46  C   UNL A   1      37.281  31.788  33.042  1.00  0.00     0.029 A 
ATOM     47  C   UNL A   1      38.549  31.094  33.244  1.00  0.00     0.049 A 
ATOM     48  H   UNL A   1      39.582  29.918  31.867  1.00  0.00     0.167 HD
ATOM     49  C   UNL A   1      41.620  27.454  28.862  1.00  0.00     0.034 A 
ATOM     50  C   UNL A   1      39.268  31.101  34.385  1.00  0.00     0.034 A 
ATOM     51  C   UNL A   1      42.482  27.452  30.016  1.00  0.00     0.049 A 
ATOM     52  C   UNL A   1      40.560  30.331  34.437  1.00  0.00     0.074 A 
ATOM     53  C   UNL A   1      43.724  26.862  30.159  1.00  0.00     0.029 A 
ATOM     54  N   UNL A   1      42.191  28.069  31.227  1.00  0.00    -0.354 N 
ATOM     55  N   UNL A   1      41.131  29.617  33.494  1.00  0.00    -0.248 NA
ATOM     56  C   UNL A   1      41.305  30.365  35.703  1.00  0.00     0.031 C 
ATOM     57  C   UNL A   1      44.154  27.060  31.473  1.00  0.00     0.029 A 
ATOM     58  C   UNL A   1      43.216  27.840  32.131  1.00  0.00     0.049 A 
ATOM     59  H   UNL A   1      41.379  28.590  31.413  1.00  0.00     0.167 HD
ATOM     60  C   UNL A   1      42.311  29.132  34.049  1.00  0.00     0.074 A 
ATOM     61  C   UNL A   1      42.376  29.641  35.404  1.00  0.00     0.031 C 
ATOM     62  C   UNL A   1      43.257  28.339  33.484  1.00  0.00     0.034 A 
BRANCH  49  63
ATOM     63  C   UNL A   1      42.049  26.676  27.645  1.00  0.00     0.023 A 
ATOM     64  C   UNL A   1      41.797  25.298  27.529  1.00  0.00     0.031 A 
ATOM     65  C   UNL A   1      42.698  27.323  26.580  1.00  0.00     0.131 A 
ATOM     66  C   UNL A   1      42.234  24.602  26.392  1.00  0.00     0.055 A 
ATOM     67  C   UNL A   1      43.068  26.638  25.421  1.00  0.00     0.041 A 
ATOM     68  F   UNL A   1      42.981  28.632  26.646  1.00  0.00    -0.206 F 
ATOM     69  C   UNL A   1      42.844  25.267  25.326  1.00  0.00     0.022 A 
BRANCH  66  70
ATOM     70  S   UNL A   1      42.070  22.797  26.365  1.00  0.00     0.124 S 
ATOM     71  O   UNL A   1      42.859  22.413  27.533  1.00  0.00    -0.237 OA
ATOM     72  O   UNL A   1      40.628  22.606  26.476  1.00  0.00    -0.237 OA
ATOM     73  O   UNL A   1      42.651  22.420  25.077  1.00  0.00    -0.744 OA
ENDBRANCH  66  70
ENDBRANCH  49  63
BRANCH  50  74
ATOM     74  C   UNL A   1      38.777  31.863  35.566  1.00  0.00     0.023 A 
ATOM     75  C   UNL A   1      38.148  31.208  36.637  1.00  0.00     0.031 A 
ATOM     76  C   UNL A   1      38.946  33.256  35.651  1.00  0.00     0.131 A 
ATOM     77  C   UNL A   1      37.695  31.949  37.739  1.00  0.00     0.055 A 
ATOM     78  C   UNL A   1      38.528  33.984  36.767  1.00  0.00     0.041 A 
ATOM     79  F   UNL A   1      39.551  33.927  34.657  1.00  0.00    -0.206 F 
ATOM     80  C   UNL A   1      37.894  33.330  37.818  1.00  0.00     0.022 A 
BRANCH  77  81
ATOM     81  S   UNL A   1      36.818  31.085  39.071  1.00  0.00     0.124 S 
ATOM     82  O   UNL A   1      35.615  31.898  39.209  1.00  0.00    -0.237 OA
ATOM     83  O   UNL A   1      36.632  29.754  38.500  1.00  0.00    -0.237 OA
ATOM     84  O   UNL A   1      37.751  31.151  40.192  1.00  0.00    -0.744 OA
ENDBRANCH  77  81
ENDBRANCH  50  74
BRANCH  62  85
ATOM     85  C   UNL A   1      44.457  27.983  34.321  1.00  0.00     0.023 A 
ATOM     86  C   UNL A   1      44.497  26.800  35.077  1.00  0.00     0.031 A 
ATOM     87  C   UNL A   1      45.597  28.807  34.314  1.00  0.00     0.131 A 
ATOM     88  C   UNL A   1      45.646  26.485  35.817  1.00  0.00     0.055 A 
ATOM     89  C   UNL A   1      46.755  28.463  35.011  1.00  0.00     0.041 A 
ATOM     90  F   UNL A   1      45.610  29.947  33.604  1.00  0.00    -0.206 F 
ATOM     91  C   UNL A   1      46.782  27.299  35.772  1.00  0.00     0.022 A 
BRANCH  88  92
ATOM     92  S   UNL A   1      45.625  25.010  36.871  1.00  0.00     0.124 S 
ATOM     93  O   UNL A   1      45.080  24.001  35.967  1.00  0.00    -0.237 OA
ATOM     94  O   UNL A   1      47.032  24.854  37.226  1.00  0.00    -0.237 OA
ATOM     95  O   UNL A   1      44.747  25.391  37.976  1.00  0.00    -0.744 OA
ENDBRANCH  88  92
ENDBRANCH  62  85
ENDBRANCH  36  37
ENDBRANCH  28  31
ENDBRANCH  26  27
ENDBRANCH   1  26
TORSDOF 15
ENDMDL
