MODEL 1
REMARK VINA RESULT:     -12.0      0.000      0.000
REMARK SMILES Cc1ccc(F)c(O[C@H]2CC[C@]([NH2+]C(C)C)(C(=O)NCCCNC(=O)c3ccc(-c4c5nc(c(-c6cc(S(=O)(=O)[O-])ccc6F)c6ccc([nH]6)c(-c6cc(S(=O)(=O)[O-])ccc6F)c6nc(c(-c7cc(S(=O)(=O)[O-])ccc7F)c7ccc4[nH]7)C=C6)C=C5)cc3)C2)c1
REMARK SMILES IDX 21 1 20 2 19 3 17 4 18 5 12 7 9 8 10 9 89 10 11 11 8 12 7 13
REMARK SMILES IDX 1 14 2 15 3 16 90 17 4 18 5 19 6 20 13 21 14 24 15 25 16 26
REMARK SMILES IDX 22 27 23 28 24 29 25 31 26 32 27 33 88 34 28 35 87 36 29 37
REMARK SMILES IDX 30 38 31 39 81 40 32 41 86 42 80 43 82 44 33 45 85 46 79 47
REMARK SMILES IDX 78 48 34 50 66 51 46 52 65 53 47 54 50 55 64 56 83 57 48 58
REMARK SMILES IDX 49 59 63 61 84 62 51 63 35 64 36 65 44 66 37 67 43 68 45 69
REMARK SMILES IDX 42 70 38 71 39 72 40 73 41 74 67 75 68 76 76 77 69 78 75 79
REMARK SMILES IDX 77 80 74 81 70 82 71 83 72 84 73 85 52 86 53 87 61 88 54 89
REMARK SMILES IDX 60 90 62 91 59 92 55 93 56 94 57 95 58 96
REMARK H PARENT 19 6 13 22 13 23 23 30 82 49 50 60
REMARK Flexibility Score: inf
ROOT
ATOM      1  C   UNL A   1      33.736  28.177  25.552  1.00  0.00     0.042 C 
ENDROOT
BRANCH   1   2
ATOM      2  C   UNL A   1      33.608  26.675  25.343  1.00  0.00     0.118 C 
BRANCH   2   3
ATOM      3  N   UNL A   1      32.596  26.069  26.187  1.00  0.00    -0.351 N 
ATOM      4  C   UNL A   1      32.227  24.776  26.426  1.00  0.00     0.281 C 
ATOM      5  O   UNL A   1      31.263  24.663  27.192  1.00  0.00    -0.268 OA
ATOM      6  H   UNL A   1      32.064  26.725  26.693  1.00  0.00     0.163 HD
BRANCH   4   7
ATOM      7  C   UNL A   1      32.943  23.555  25.751  1.00  0.00     0.179 C 
ATOM      8  C   UNL A   1      33.263  21.145  26.057  1.00  0.00     0.180 C 
ATOM      9  C   UNL A   1      34.306  21.836  26.927  1.00  0.00     0.052 C 
ATOM     10  C   UNL A   1      32.184  22.214  25.870  1.00  0.00     0.124 C 
ATOM     11  C   UNL A   1      34.287  23.302  26.501  1.00  0.00     0.083 C 
BRANCH   8  12
ATOM     12  O   UNL A   1      33.777  20.847  24.756  1.00  0.00    -0.487 OA
BRANCH  12  13
ATOM     13  C   UNL A   1      33.542  19.614  24.221  1.00  0.00     0.155 A 
ATOM     14  C   UNL A   1      35.057  16.198  24.977  1.00  0.00     0.044 C 
ATOM     15  C   UNL A   1      34.209  17.272  24.365  1.00  0.00    -0.047 A 
ATOM     16  C   UNL A   1      33.259  16.949  23.389  1.00  0.00     0.007 A 
ATOM     17  C   UNL A   1      34.340  18.606  24.775  1.00  0.00     0.053 A 
ATOM     18  C   UNL A   1      32.467  17.948  22.825  1.00  0.00     0.043 A 
ATOM     19  C   UNL A   1      32.616  19.270  23.236  1.00  0.00     0.165 A 
ATOM     20  F   UNL A   1      31.827  20.188  22.658  1.00  0.00    -0.203 F 
ENDBRANCH  12  13
ENDBRANCH   8  12
BRANCH   7  21
ATOM     21  N   UNL A   1      33.363  23.809  24.341  1.00  0.00    -0.332 N 
ATOM     22  H   UNL A   1      34.234  23.298  24.202  1.00  0.00     0.347 HD
ATOM     23  H   UNL A   1      33.384  24.828  24.296  1.00  0.00     0.347 HD
BRANCH  21  24
ATOM     24  C   UNL A   1      32.492  23.461  23.214  1.00  0.00     0.176 C 
ATOM     25  C   UNL A   1      31.634  24.703  22.936  1.00  0.00     0.075 C 
ATOM     26  C   UNL A   1      33.218  23.066  21.930  1.00  0.00     0.075 C 
ENDBRANCH  21  24
ENDBRANCH   7  21
ENDBRANCH   4   7
ENDBRANCH   2   3
ENDBRANCH   1   2
BRANCH   1  27
ATOM     27  C   UNL A   1      33.373  28.643  26.954  1.00  0.00     0.118 C 
BRANCH  27  28
ATOM     28  N   UNL A   1      33.425  30.092  27.087  1.00  0.00    -0.352 N 
ATOM     29  C   UNL A   1      34.323  30.896  27.738  1.00  0.00     0.251 C 
ATOM     30  H   UNL A   1      32.694  30.573  26.635  1.00  0.00     0.163 HD
ATOM     31  O   UNL A   1      34.030  32.080  27.923  1.00  0.00    -0.269 OA
BRANCH  29  32
ATOM     32  C   UNL A   1      35.616  30.367  28.225  1.00  0.00     0.039 A 
ATOM     33  C   UNL A   1      35.675  29.798  29.501  1.00  0.00     0.014 A 
ATOM     34  C   UNL A   1      36.782  30.477  27.464  1.00  0.00     0.014 A 
ATOM     35  C   UNL A   1      36.888  29.305  29.990  1.00  0.00     0.010 A 
ATOM     36  C   UNL A   1      37.968  29.899  27.911  1.00  0.00     0.010 A 
ATOM     37  C   UNL A   1      38.041  29.329  29.189  1.00  0.00    -0.014 A 
BRANCH  37  38
ATOM     38  C   UNL A   1      39.337  28.802  29.693  1.00  0.00     0.031 A 
ATOM     39  C   UNL A   1      40.038  29.493  30.835  1.00  0.00     0.074 A 
ATOM     40  C   UNL A   1      39.906  27.739  29.089  1.00  0.00     0.049 A 
ATOM     41  N   UNL A   1      41.194  29.221  31.384  1.00  0.00    -0.248 NA
ATOM     42  C   UNL A   1      39.364  30.667  31.413  1.00  0.00     0.031 C 
ATOM     43  C   UNL A   1      39.353  27.027  27.934  1.00  0.00     0.029 A 
ATOM     44  N   UNL A   1      41.077  27.075  29.355  1.00  0.00    -0.354 N 
ATOM     45  C   UNL A   1      41.398  30.203  32.348  1.00  0.00     0.074 A 
ATOM     46  C   UNL A   1      40.273  31.108  32.270  1.00  0.00     0.031 C 
ATOM     47  C   UNL A   1      40.172  26.013  27.608  1.00  0.00     0.029 A 
ATOM     48  C   UNL A   1      41.325  26.025  28.502  1.00  0.00     0.049 A 
ATOM     49  H   UNL A   1      41.684  27.327  30.089  1.00  0.00     0.167 HD
ATOM     50  C   UNL A   1      42.419  30.326  33.233  1.00  0.00     0.034 A 
ATOM     51  C   UNL A   1      42.366  25.170  28.445  1.00  0.00     0.034 A 
ATOM     52  C   UNL A   1      43.515  29.392  33.322  1.00  0.00     0.049 A 
ATOM     53  C   UNL A   1      43.465  25.300  29.471  1.00  0.00     0.074 A 
ATOM     54  C   UNL A   1      44.561  29.374  34.227  1.00  0.00     0.029 A 
ATOM     55  N   UNL A   1      43.708  28.309  32.473  1.00  0.00    -0.354 N 
ATOM     56  N   UNL A   1      43.604  26.192  30.425  1.00  0.00    -0.248 NA
ATOM     57  C   UNL A   1      44.530  24.292  29.428  1.00  0.00     0.031 C 
ATOM     58  C   UNL A   1      45.418  28.321  33.889  1.00  0.00     0.029 A 
ATOM     59  C   UNL A   1      44.867  27.632  32.820  1.00  0.00     0.049 A 
ATOM     60  H   UNL A   1      43.108  28.059  31.733  1.00  0.00     0.167 HD
ATOM     61  C   UNL A   1      44.758  25.830  31.115  1.00  0.00     0.074 A 
ATOM     62  C   UNL A   1      45.257  24.626  30.482  1.00  0.00     0.031 C 
ATOM     63  C   UNL A   1      45.354  26.436  32.174  1.00  0.00     0.034 A 
BRANCH  50  64
ATOM     64  C   UNL A   1      42.409  31.523  34.156  1.00  0.00     0.023 A 
ATOM     65  C   UNL A   1      41.687  31.525  35.362  1.00  0.00     0.031 A 
ATOM     66  C   UNL A   1      43.125  32.684  33.817  1.00  0.00     0.131 A 
ATOM     67  C   UNL A   1      41.642  32.686  36.150  1.00  0.00     0.055 A 
ATOM     68  C   UNL A   1      43.141  33.809  34.645  1.00  0.00     0.041 A 
ATOM     69  F   UNL A   1      43.817  32.749  32.668  1.00  0.00    -0.206 F 
ATOM     70  C   UNL A   1      42.386  33.819  35.812  1.00  0.00     0.022 A 
BRANCH  67  71
ATOM     71  S   UNL A   1      40.499  32.737  37.558  1.00  0.00     0.124 S 
ATOM     72  O   UNL A   1      40.099  34.141  37.560  1.00  0.00    -0.237 OA
ATOM     73  O   UNL A   1      39.472  31.779  37.166  1.00  0.00    -0.237 OA
ATOM     74  O   UNL A   1      41.331  32.332  38.690  1.00  0.00    -0.744 OA
ENDBRANCH  67  71
ENDBRANCH  50  64
BRANCH  51  75
ATOM     75  C   UNL A   1      42.431  24.120  27.387  1.00  0.00     0.023 A 
ATOM     76  C   UNL A   1      41.782  22.886  27.547  1.00  0.00     0.031 A 
ATOM     77  C   UNL A   1      43.194  24.316  26.221  1.00  0.00     0.131 A 
ATOM     78  C   UNL A   1      41.957  21.874  26.591  1.00  0.00     0.055 A 
ATOM     79  C   UNL A   1      43.317  23.327  25.245  1.00  0.00     0.041 A 
ATOM     80  F   UNL A   1      43.827  25.481  26.013  1.00  0.00    -0.206 F 
ATOM     81  C   UNL A   1      42.710  22.089  25.435  1.00  0.00     0.022 A 
BRANCH  78  82
ATOM     82  S   UNL A   1      41.266  20.230  26.930  1.00  0.00     0.124 S 
ATOM     83  O   UNL A   1      42.402  19.363  26.636  1.00  0.00    -0.237 OA
ATOM     84  O   UNL A   1      40.893  20.344  28.336  1.00  0.00    -0.237 OA
ATOM     85  O   UNL A   1      40.147  20.132  25.996  1.00  0.00    -0.744 OA
ENDBRANCH  78  82
ENDBRANCH  51  75
BRANCH  63  86
ATOM     86  C   UNL A   1      46.584  25.767  32.738  1.00  0.00     0.023 A 
ATOM     87  C   UNL A   1      47.857  25.961  32.173  1.00  0.00     0.031 A 
ATOM     88  C   UNL A   1      46.474  24.891  33.832  1.00  0.00     0.131 A 
ATOM     89  C   UNL A   1      48.954  25.230  32.654  1.00  0.00     0.055 A 
ATOM     90  C   UNL A   1      47.581  24.219  34.351  1.00  0.00     0.041 A 
ATOM     91  F   UNL A   1      45.283  24.665  34.411  1.00  0.00    -0.206 F 
ATOM     92  C   UNL A   1      48.828  24.373  33.749  1.00  0.00     0.022 A 
BRANCH  89  93
ATOM     93  S   UNL A   1      50.521  25.318  31.744  1.00  0.00     0.124 S 
ATOM     94  O   UNL A   1      51.346  26.126  32.635  1.00  0.00    -0.237 OA
ATOM     95  O   UNL A   1      50.893  23.911  31.632  1.00  0.00    -0.237 OA
ATOM     96  O   UNL A   1      50.150  25.963  30.486  1.00  0.00    -0.744 OA
ENDBRANCH  89  93
ENDBRANCH  63  86
ENDBRANCH  37  38
ENDBRANCH  29  32
ENDBRANCH  27  28
ENDBRANCH   1  27
TORSDOF 17
ENDMDL
MODEL 2
REMARK VINA RESULT:     -11.7      3.021      3.900
REMARK SMILES Cc1ccc(F)c(O[C@H]2CC[C@]([NH2+]C(C)C)(C(=O)NCCCNC(=O)c3ccc(-c4c5nc(c(-c6cc(S(=O)(=O)[O-])ccc6F)c6ccc([nH]6)c(-c6cc(S(=O)(=O)[O-])ccc6F)c6nc(c(-c7cc(S(=O)(=O)[O-])ccc7F)c7ccc4[nH]7)C=C6)C=C5)cc3)C2)c1
REMARK SMILES IDX 21 1 20 2 19 3 17 4 18 5 12 7 9 8 10 9 89 10 11 11 8 12 7 13
REMARK SMILES IDX 1 14 2 15 3 16 90 17 4 18 5 19 6 20 13 21 14 24 15 25 16 26
REMARK SMILES IDX 22 27 23 28 24 29 25 31 26 32 27 33 88 34 28 35 87 36 29 37
REMARK SMILES IDX 30 38 31 39 81 40 32 41 86 42 80 43 82 44 33 45 85 46 79 47
REMARK SMILES IDX 78 48 34 50 66 51 46 52 65 53 47 54 50 55 64 56 83 57 48 58
REMARK SMILES IDX 49 59 63 61 84 62 51 63 35 64 36 65 44 66 37 67 43 68 45 69
REMARK SMILES IDX 42 70 38 71 39 72 40 73 41 74 67 75 68 76 76 77 69 78 75 79
REMARK SMILES IDX 77 80 74 81 70 82 71 83 72 84 73 85 52 86 53 87 61 88 54 89
REMARK SMILES IDX 60 90 62 91 59 92 55 93 56 94 57 95 58 96
REMARK H PARENT 19 6 13 22 13 23 23 30 82 49 50 60
REMARK Flexibility Score: inf
ROOT
ATOM      1  C   UNL A   1      33.168  29.119  24.094  1.00  0.00     0.042 C 
ENDROOT
BRANCH   1   2
ATOM      2  C   UNL A   1      32.245  28.190  23.318  1.00  0.00     0.118 C 
BRANCH   2   3
ATOM      3  N   UNL A   1      31.173  27.646  24.131  1.00  0.00    -0.351 N 
ATOM      4  C   UNL A   1      30.956  26.423  24.699  1.00  0.00     0.281 C 
ATOM      5  O   UNL A   1      29.874  26.331  25.291  1.00  0.00    -0.268 OA
ATOM      6  H   UNL A   1      30.451  28.292  24.308  1.00  0.00     0.163 HD
BRANCH   4   7
ATOM      7  C   UNL A   1      31.976  25.240  24.571  1.00  0.00     0.179 C 
ATOM      8  C   UNL A   1      34.353  24.831  24.139  1.00  0.00     0.180 C 
ATOM      9  C   UNL A   1      33.683  24.977  22.778  1.00  0.00     0.052 C 
ATOM     10  C   UNL A   1      33.398  25.553  25.092  1.00  0.00     0.124 C 
ATOM     11  C   UNL A   1      32.181  24.934  23.056  1.00  0.00     0.083 C 
BRANCH   8  12
ATOM     12  O   UNL A   1      34.398  23.465  24.559  1.00  0.00    -0.487 OA
BRANCH  12  13
ATOM     13  C   UNL A   1      35.601  22.921  24.904  1.00  0.00     0.155 A 
ATOM     14  C   UNL A   1      38.704  24.449  26.507  1.00  0.00     0.044 C 
ATOM     15  C   UNL A   1      37.764  23.453  25.899  1.00  0.00    -0.047 A 
ATOM     16  C   UNL A   1      38.139  22.109  25.784  1.00  0.00     0.007 A 
ATOM     17  C   UNL A   1      36.493  23.846  25.459  1.00  0.00     0.053 A 
ATOM     18  C   UNL A   1      37.261  21.183  25.223  1.00  0.00     0.043 A 
ATOM     19  C   UNL A   1      36.006  21.591  24.781  1.00  0.00     0.165 A 
ATOM     20  F   UNL A   1      35.204  20.655  24.252  1.00  0.00    -0.203 F 
ENDBRANCH  12  13
ENDBRANCH   8  12
BRANCH   7  21
ATOM     21  N   UNL A   1      31.474  23.950  25.132  1.00  0.00    -0.332 N 
ATOM     22  H   UNL A   1      32.056  23.215  24.732  1.00  0.00     0.347 HD
ATOM     23  H   UNL A   1      30.483  23.973  24.887  1.00  0.00     0.347 HD
BRANCH  21  24
ATOM     24  C   UNL A   1      31.437  23.712  26.578  1.00  0.00     0.176 C 
ATOM     25  C   UNL A   1      30.055  23.115  26.879  1.00  0.00     0.075 C 
ATOM     26  C   UNL A   1      32.509  22.763  27.107  1.00  0.00     0.075 C 
ENDBRANCH  21  24
ENDBRANCH   7  21
ENDBRANCH   4   7
ENDBRANCH   2   3
ENDBRANCH   1   2
BRANCH   1  27
ATOM     27  C   UNL A   1      32.803  29.273  25.563  1.00  0.00     0.118 C 
BRANCH  27  28
ATOM     28  N   UNL A   1      32.521  30.655  25.921  1.00  0.00    -0.352 N 
ATOM     29  C   UNL A   1      33.053  31.447  26.905  1.00  0.00     0.251 C 
ATOM     30  H   UNL A   1      31.836  31.093  25.366  1.00  0.00     0.163 HD
ATOM     31  O   UNL A   1      32.486  32.508  27.180  1.00  0.00    -0.269 OA
BRANCH  29  32
ATOM     32  C   UNL A   1      34.273  31.047  27.639  1.00  0.00     0.039 A 
ATOM     33  C   UNL A   1      34.415  29.714  28.035  1.00  0.00     0.014 A 
ATOM     34  C   UNL A   1      35.251  31.980  27.992  1.00  0.00     0.014 A 
ATOM     35  C   UNL A   1      35.552  29.313  28.743  1.00  0.00     0.010 A 
ATOM     36  C   UNL A   1      36.426  31.563  28.612  1.00  0.00     0.010 A 
ATOM     37  C   UNL A   1      36.580  30.230  29.016  1.00  0.00    -0.014 A 
BRANCH  37  38
ATOM     38  C   UNL A   1      37.799  29.818  29.763  1.00  0.00     0.031 A 
ATOM     39  C   UNL A   1      37.996  30.266  31.189  1.00  0.00     0.074 A 
ATOM     40  C   UNL A   1      38.748  29.088  29.142  1.00  0.00     0.049 A 
ATOM     41  N   UNL A   1      39.008  30.056  31.991  1.00  0.00    -0.248 NA
ATOM     42  C   UNL A   1      36.928  31.090  31.779  1.00  0.00     0.031 C 
ATOM     43  C   UNL A   1      38.697  28.650  27.744  1.00  0.00     0.029 A 
ATOM     44  N   UNL A   1      39.942  28.593  29.599  1.00  0.00    -0.354 N 
ATOM     45  C   UNL A   1      38.712  30.743  33.165  1.00  0.00     0.074 A 
ATOM     46  C   UNL A   1      37.453  31.420  32.948  1.00  0.00     0.031 C 
ATOM     47  C   UNL A   1      39.798  27.932  27.468  1.00  0.00     0.029 A 
ATOM     48  C   UNL A   1      40.650  27.890  28.651  1.00  0.00     0.049 A 
ATOM     49  H   UNL A   1      40.263  28.728  30.520  1.00  0.00     0.167 HD
ATOM     50  C   UNL A   1      39.416  30.785  34.324  1.00  0.00     0.034 A 
ATOM     51  C   UNL A   1      41.851  27.284  28.727  1.00  0.00     0.034 A 
ATOM     52  C   UNL A   1      40.652  30.073  34.534  1.00  0.00     0.049 A 
ATOM     53  C   UNL A   1      42.591  27.306  30.043  1.00  0.00     0.074 A 
ATOM     54  C   UNL A   1      41.409  29.981  35.689  1.00  0.00     0.029 A 
ATOM     55  N   UNL A   1      41.315  29.328  33.567  1.00  0.00    -0.354 N 
ATOM     56  N   UNL A   1      42.259  27.899  31.167  1.00  0.00    -0.248 NA
ATOM     57  C   UNL A   1      43.850  26.556  30.105  1.00  0.00     0.031 C 
ATOM     58  C   UNL A   1      42.559  29.235  35.403  1.00  0.00     0.029 A 
ATOM     59  C   UNL A   1      42.482  28.795  34.092  1.00  0.00     0.049 A 
ATOM     60  H   UNL A   1      41.002  29.198  32.642  1.00  0.00     0.167 HD
ATOM     61  C   UNL A   1      43.257  27.564  32.079  1.00  0.00     0.074 A 
ATOM     62  C   UNL A   1      44.183  26.698  31.378  1.00  0.00     0.031 C 
ATOM     63  C   UNL A   1      43.398  27.938  33.377  1.00  0.00     0.034 A 
BRANCH  50  64
ATOM     64  C   UNL A   1      38.876  31.648  35.441  1.00  0.00     0.023 A 
ATOM     65  C   UNL A   1      38.336  31.093  36.615  1.00  0.00     0.031 A 
ATOM     66  C   UNL A   1      38.893  33.049  35.325  1.00  0.00     0.131 A 
ATOM     67  C   UNL A   1      37.776  31.929  37.593  1.00  0.00     0.055 A 
ATOM     68  C   UNL A   1      38.405  33.879  36.336  1.00  0.00     0.041 A 
ATOM     69  F   UNL A   1      39.377  33.637  34.219  1.00  0.00    -0.206 F 
ATOM     70  C   UNL A   1      37.831  33.320  37.473  1.00  0.00     0.022 A 
BRANCH  67  71
ATOM     71  S   UNL A   1      36.863  31.172  38.965  1.00  0.00     0.124 S 
ATOM     72  O   UNL A   1      35.673  32.016  39.028  1.00  0.00    -0.237 OA
ATOM     73  O   UNL A   1      36.655  29.808  38.491  1.00  0.00    -0.237 OA
ATOM     74  O   UNL A   1      37.775  31.306  40.099  1.00  0.00    -0.744 OA
ENDBRANCH  67  71
ENDBRANCH  50  64
BRANCH  51  75
ATOM     75  C   UNL A   1      42.440  26.607  27.535  1.00  0.00     0.023 A 
ATOM     76  C   UNL A   1      42.270  25.230  27.323  1.00  0.00     0.031 A 
ATOM     77  C   UNL A   1      43.230  27.322  26.616  1.00  0.00     0.131 A 
ATOM     78  C   UNL A   1      42.931  24.599  26.258  1.00  0.00     0.055 A 
ATOM     79  C   UNL A   1      43.838  26.700  25.525  1.00  0.00     0.041 A 
ATOM     80  F   UNL A   1      43.417  28.643  26.765  1.00  0.00    -0.206 F 
ATOM     81  C   UNL A   1      43.704  25.326  25.350  1.00  0.00     0.022 A 
BRANCH  78  82
ATOM     82  S   UNL A   1      42.848  22.790  26.135  1.00  0.00     0.124 S 
ATOM     83  O   UNL A   1      43.028  22.580  24.703  1.00  0.00    -0.237 OA
ATOM     84  O   UNL A   1      43.958  22.379  26.988  1.00  0.00    -0.237 OA
ATOM     85  O   UNL A   1      41.518  22.475  26.650  1.00  0.00    -0.744 OA
ENDBRANCH  78  82
ENDBRANCH  51  75
BRANCH  63  86
ATOM     86  C   UNL A   1      44.575  27.362  34.127  1.00  0.00     0.023 A 
ATOM     87  C   UNL A   1      44.469  26.173  34.870  1.00  0.00     0.031 A 
ATOM     88  C   UNL A   1      45.810  28.034  34.129  1.00  0.00     0.131 A 
ATOM     89  C   UNL A   1      45.552  25.735  35.647  1.00  0.00     0.055 A 
ATOM     90  C   UNL A   1      46.907  27.555  34.848  1.00  0.00     0.041 A 
ATOM     91  F   UNL A   1      45.970  29.175  33.438  1.00  0.00    -0.206 F 
ATOM     92  C   UNL A   1      46.775  26.409  35.627  1.00  0.00     0.022 A 
BRANCH  89  93
ATOM     93  S   UNL A   1      45.299  24.343  36.783  1.00  0.00     0.124 S 
ATOM     94  O   UNL A   1      46.609  24.223  37.413  1.00  0.00    -0.237 OA
ATOM     95  O   UNL A   1      44.223  24.834  37.638  1.00  0.00    -0.237 OA
ATOM     96  O   UNL A   1      44.933  23.241  35.896  1.00  0.00    -0.744 OA
ENDBRANCH  89  93
ENDBRANCH  63  86
ENDBRANCH  37  38
ENDBRANCH  29  32
ENDBRANCH  27  28
ENDBRANCH   1  27
TORSDOF 17
ENDMDL
MODEL 3
REMARK VINA RESULT:     -11.6      2.954      3.684
REMARK SMILES Cc1ccc(F)c(O[C@H]2CC[C@]([NH2+]C(C)C)(C(=O)NCCCNC(=O)c3ccc(-c4c5nc(c(-c6cc(S(=O)(=O)[O-])ccc6F)c6ccc([nH]6)c(-c6cc(S(=O)(=O)[O-])ccc6F)c6nc(c(-c7cc(S(=O)(=O)[O-])ccc7F)c7ccc4[nH]7)C=C6)C=C5)cc3)C2)c1
REMARK SMILES IDX 21 1 20 2 19 3 17 4 18 5 12 7 9 8 10 9 89 10 11 11 8 12 7 13
REMARK SMILES IDX 1 14 2 15 3 16 90 17 4 18 5 19 6 20 13 21 14 24 15 25 16 26
REMARK SMILES IDX 22 27 23 28 24 29 25 31 26 32 27 33 88 34 28 35 87 36 29 37
REMARK SMILES IDX 30 38 31 39 81 40 32 41 86 42 80 43 82 44 33 45 85 46 79 47
REMARK SMILES IDX 78 48 34 50 66 51 46 52 65 53 47 54 50 55 64 56 83 57 48 58
REMARK SMILES IDX 49 59 63 61 84 62 51 63 35 64 36 65 44 66 37 67 43 68 45 69
REMARK SMILES IDX 42 70 38 71 39 72 40 73 41 74 67 75 68 76 76 77 69 78 75 79
REMARK SMILES IDX 77 80 74 81 70 82 71 83 72 84 73 85 52 86 53 87 61 88 54 89
REMARK SMILES IDX 60 90 62 91 59 92 55 93 56 94 57 95 58 96
REMARK H PARENT 19 6 13 22 13 23 23 30 82 49 50 60
REMARK Flexibility Score: inf
ROOT
ATOM      1  C   UNL A   1      32.371  28.136  25.930  1.00  0.00     0.042 C 
ENDROOT
BRANCH   1   2
ATOM      2  C   UNL A   1      32.770  26.750  26.414  1.00  0.00     0.118 C 
BRANCH   2   3
ATOM      3  N   UNL A   1      31.631  25.906  26.723  1.00  0.00    -0.351 N 
ATOM      4  C   UNL A   1      31.359  24.585  26.510  1.00  0.00     0.281 C 
ATOM      5  O   UNL A   1      30.231  24.240  26.882  1.00  0.00    -0.268 OA
ATOM      6  H   UNL A   1      30.902  26.385  27.179  1.00  0.00     0.163 HD
BRANCH   4   7
ATOM      7  C   UNL A   1      32.377  23.614  25.818  1.00  0.00     0.179 C 
ATOM      8  C   UNL A   1      33.589  21.528  26.246  1.00  0.00     0.180 C 
ATOM      9  C   UNL A   1      34.412  22.646  26.875  1.00  0.00     0.052 C 
ATOM     10  C   UNL A   1      32.180  22.120  26.163  1.00  0.00     0.124 C 
ATOM     11  C   UNL A   1      33.805  23.945  26.350  1.00  0.00     0.083 C 
BRANCH   8  12
ATOM     12  O   UNL A   1      34.004  21.261  24.904  1.00  0.00    -0.487 OA
BRANCH  12  13
ATOM     13  C   UNL A   1      33.613  20.096  24.312  1.00  0.00     0.155 A 
ATOM     14  C   UNL A   1      34.834  16.509  24.735  1.00  0.00     0.044 C 
ATOM     15  C   UNL A   1      34.055  17.697  24.258  1.00  0.00    -0.047 A 
ATOM     16  C   UNL A   1      33.012  17.533  23.339  1.00  0.00     0.007 A 
ATOM     17  C   UNL A   1      34.344  18.981  24.739  1.00  0.00     0.053 A 
ATOM     18  C   UNL A   1      32.285  18.639  22.900  1.00  0.00     0.043 A 
ATOM     19  C   UNL A   1      32.591  19.909  23.381  1.00  0.00     0.165 A 
ATOM     20  F   UNL A   1      31.856  20.934  22.923  1.00  0.00    -0.203 F 
ENDBRANCH  12  13
ENDBRANCH   8  12
BRANCH   7  21
ATOM     21  N   UNL A   1      32.489  23.812  24.342  1.00  0.00    -0.332 N 
ATOM     22  H   UNL A   1      31.678  24.364  24.063  1.00  0.00     0.347 HD
ATOM     23  H   UNL A   1      32.569  22.856  23.996  1.00  0.00     0.347 HD
BRANCH  21  24
ATOM     24  C   UNL A   1      33.660  24.464  23.749  1.00  0.00     0.176 C 
ATOM     25  C   UNL A   1      34.209  23.486  22.700  1.00  0.00     0.075 C 
ATOM     26  C   UNL A   1      33.385  25.806  23.075  1.00  0.00     0.075 C 
ENDBRANCH  21  24
ENDBRANCH   7  21
ENDBRANCH   4   7
ENDBRANCH   2   3
ENDBRANCH   1   2
BRANCH   1  27
ATOM     27  C   UNL A   1      33.545  29.080  25.713  1.00  0.00     0.118 C 
BRANCH  27  28
ATOM     28  N   UNL A   1      33.213  30.459  26.044  1.00  0.00    -0.352 N 
ATOM     29  C   UNL A   1      33.678  31.273  27.044  1.00  0.00     0.251 C 
ATOM     30  H   UNL A   1      32.546  30.875  25.451  1.00  0.00     0.163 HD
ATOM     31  O   UNL A   1      33.073  32.322  27.280  1.00  0.00    -0.269 OA
BRANCH  29  32
ATOM     32  C   UNL A   1      34.870  30.909  27.840  1.00  0.00     0.039 A 
ATOM     33  C   UNL A   1      34.882  29.685  28.517  1.00  0.00     0.014 A 
ATOM     34  C   UNL A   1      35.952  31.782  27.974  1.00  0.00     0.014 A 
ATOM     35  C   UNL A   1      35.991  29.325  29.288  1.00  0.00     0.010 A 
ATOM     36  C   UNL A   1      37.094  31.382  28.663  1.00  0.00     0.010 A 
ATOM     37  C   UNL A   1      37.118  30.160  29.347  1.00  0.00    -0.014 A 
BRANCH  37  38
ATOM     38  C   UNL A   1      38.308  29.787  30.158  1.00  0.00     0.031 A 
ATOM     39  C   UNL A   1      38.480  30.350  31.546  1.00  0.00     0.074 A 
ATOM     40  C   UNL A   1      39.255  28.988  29.626  1.00  0.00     0.049 A 
ATOM     41  N   UNL A   1      39.467  30.188  32.390  1.00  0.00    -0.248 NA
ATOM     42  C   UNL A   1      37.416  31.243  32.036  1.00  0.00     0.031 C 
ATOM     43  C   UNL A   1      39.229  28.433  28.270  1.00  0.00     0.029 A 
ATOM     44  N   UNL A   1      40.426  28.508  30.155  1.00  0.00    -0.354 N 
ATOM     45  C   UNL A   1      39.158  30.978  33.493  1.00  0.00     0.074 A 
ATOM     46  C   UNL A   1      37.920  31.660  33.187  1.00  0.00     0.031 C 
ATOM     47  C   UNL A   1      40.319  27.672  28.084  1.00  0.00     0.029 A 
ATOM     48  C   UNL A   1      41.141  27.713  29.289  1.00  0.00     0.049 A 
ATOM     49  H   UNL A   1      40.727  28.714  31.070  1.00  0.00     0.167 HD
ATOM     50  C   UNL A   1      39.833  31.103  34.663  1.00  0.00     0.034 A 
ATOM     51  C   UNL A   1      42.326  27.091  29.448  1.00  0.00     0.034 A 
ATOM     52  C   UNL A   1      41.047  30.386  34.965  1.00  0.00     0.049 A 
ATOM     53  C   UNL A   1      43.032  27.209  30.776  1.00  0.00     0.074 A 
ATOM     54  C   UNL A   1      41.773  30.376  36.144  1.00  0.00     0.029 A 
ATOM     55  N   UNL A   1      41.717  29.548  34.082  1.00  0.00    -0.354 N 
ATOM     56  N   UNL A   1      42.687  27.901  31.838  1.00  0.00    -0.248 NA
ATOM     57  C   UNL A   1      44.272  26.441  30.935  1.00  0.00     0.031 C 
ATOM     58  C   UNL A   1      42.912  29.586  35.953  1.00  0.00     0.029 A 
ATOM     59  C   UNL A   1      42.858  29.037  34.681  1.00  0.00     0.049 A 
ATOM     60  H   UNL A   1      41.423  29.346  33.163  1.00  0.00     0.167 HD
ATOM     61  C   UNL A   1      43.653  27.624  32.800  1.00  0.00     0.074 A 
ATOM     62  C   UNL A   1      44.577  26.683  32.200  1.00  0.00     0.031 C 
ATOM     63  C   UNL A   1      43.771  28.104  34.066  1.00  0.00     0.034 A 
BRANCH  50  64
ATOM     64  C   UNL A   1      39.285  32.069  35.689  1.00  0.00     0.023 A 
ATOM     65  C   UNL A   1      39.726  33.401  35.766  1.00  0.00     0.031 A 
ATOM     66  C   UNL A   1      38.313  31.645  36.612  1.00  0.00     0.131 A 
ATOM     67  C   UNL A   1      39.248  34.241  36.784  1.00  0.00     0.055 A 
ATOM     68  C   UNL A   1      37.783  32.508  37.573  1.00  0.00     0.041 A 
ATOM     69  F   UNL A   1      37.867  30.378  36.601  1.00  0.00    -0.206 F 
ATOM     70  C   UNL A   1      38.259  33.810  37.671  1.00  0.00     0.022 A 
BRANCH  67  71
ATOM     71  S   UNL A   1      40.026  35.864  37.009  1.00  0.00     0.124 S 
ATOM     72  O   UNL A   1      39.349  36.350  38.209  1.00  0.00    -0.237 OA
ATOM     73  O   UNL A   1      41.435  35.521  37.164  1.00  0.00    -0.237 OA
ATOM     74  O   UNL A   1      39.689  36.579  35.779  1.00  0.00    -0.744 OA
ENDBRANCH  67  71
ENDBRANCH  50  64
BRANCH  51  75
ATOM     75  C   UNL A   1      42.928  26.303  28.333  1.00  0.00     0.023 A 
ATOM     76  C   UNL A   1      43.983  26.820  27.565  1.00  0.00     0.031 A 
ATOM     77  C   UNL A   1      42.417  25.040  27.984  1.00  0.00     0.131 A 
ATOM     78  C   UNL A   1      44.452  26.108  26.450  1.00  0.00     0.055 A 
ATOM     79  C   UNL A   1      42.926  24.309  26.909  1.00  0.00     0.041 A 
ATOM     80  F   UNL A   1      41.415  24.494  28.691  1.00  0.00    -0.206 F 
ATOM     81  C   UNL A   1      43.939  24.851  26.124  1.00  0.00     0.022 A 
BRANCH  78  82
ATOM     82  S   UNL A   1      45.676  26.898  25.367  1.00  0.00     0.124 S 
ATOM     83  O   UNL A   1      46.604  27.470  26.335  1.00  0.00    -0.237 OA
ATOM     84  O   UNL A   1      46.172  25.763  24.595  1.00  0.00    -0.237 OA
ATOM     85  O   UNL A   1      44.885  27.866  24.611  1.00  0.00    -0.744 OA
ENDBRANCH  78  82
ENDBRANCH  51  75
BRANCH  63  86
ATOM     86  C   UNL A   1      44.916  27.569  34.893  1.00  0.00     0.023 A 
ATOM     87  C   UNL A   1      44.814  26.360  35.602  1.00  0.00     0.031 A 
ATOM     88  C   UNL A   1      46.111  28.301  35.003  1.00  0.00     0.131 A 
ATOM     89  C   UNL A   1      45.856  25.957  36.451  1.00  0.00     0.055 A 
ATOM     90  C   UNL A   1      47.173  27.861  35.795  1.00  0.00     0.041 A 
ATOM     91  F   UNL A   1      46.264  29.464  34.349  1.00  0.00    -0.206 F 
ATOM     92  C   UNL A   1      47.041  26.691  36.539  1.00  0.00     0.022 A 
BRANCH  89  93
ATOM     93  S   UNL A   1      45.589  24.529  37.537  1.00  0.00     0.124 S 
ATOM     94  O   UNL A   1      44.933  25.140  38.688  1.00  0.00    -0.237 OA
ATOM     95  O   UNL A   1      44.751  23.664  36.711  1.00  0.00    -0.237 OA
ATOM     96  O   UNL A   1      46.940  24.030  37.784  1.00  0.00    -0.744 OA
ENDBRANCH  89  93
ENDBRANCH  63  86
ENDBRANCH  37  38
ENDBRANCH  29  32
ENDBRANCH  27  28
ENDBRANCH   1  27
TORSDOF 17
ENDMDL
