MODEL 1
REMARK VINA RESULT:     -11.7      0.000      0.000
REMARK SMILES CC(C)[C@@H]([NH3+])C(=O)N[C@@H](Cc1ccccc1)C(=O)NCCCNC(=O)c1ccc(-c2c3nc(c(-c4cc(S(=O)(=O)[O-])ccc4F)c4ccc([nH]4)c(-c4cc(S(=O)(=O)[O-])ccc4F)c4nc(c(-c5cc(S(=O)(=O)[O-])ccc5F)c5ccc2[nH]5)C=C4)C=C3)cc1
REMARK SMILES IDX 21 1 20 2 19 3 17 4 18 5 9 7 8 8 6 9 7 10 4 12 2 13 1 14
REMARK SMILES IDX 3 15 5 16 10 20 11 21 12 22 16 23 13 24 15 25 14 26 22 27
REMARK SMILES IDX 23 28 24 29 25 31 26 32 27 33 88 34 28 35 87 36 29 37 30 38
REMARK SMILES IDX 31 39 81 40 32 41 86 42 80 43 82 44 33 45 85 46 79 47 78 48
REMARK SMILES IDX 34 50 66 51 46 52 65 53 47 54 50 55 64 56 83 57 48 58 49 59
REMARK SMILES IDX 63 61 84 62 51 63 35 64 36 65 44 66 37 67 43 68 45 69 42 70
REMARK SMILES IDX 38 71 39 72 40 73 41 74 67 75 68 76 76 77 69 78 75 79 77 80
REMARK SMILES IDX 74 81 70 82 71 83 72 84 73 85 52 86 53 87 61 88 54 89 60 90
REMARK SMILES IDX 62 91 59 92 55 93 56 94 57 95 58 96
REMARK H PARENT 19 6 8 11 5 17 5 18 5 19 23 30 82 49 50 60
REMARK Flexibility Score: inf
ROOT
ATOM      1  C   UNL A   1      31.743  29.811  25.416  1.00  0.00     0.042 C 
ENDROOT
BRANCH   1   2
ATOM      2  C   UNL A   1      32.069  28.343  25.261  1.00  0.00     0.117 C 
BRANCH   2   3
ATOM      3  N   UNL A   1      31.225  27.458  26.038  1.00  0.00    -0.354 N 
ATOM      4  C   UNL A   1      30.534  26.355  25.631  1.00  0.00     0.242 C 
ATOM      5  O   UNL A   1      30.354  25.474  26.481  1.00  0.00    -0.273 OA
ATOM      6  H   UNL A   1      31.138  27.685  26.992  1.00  0.00     0.163 HD
BRANCH   4   7
ATOM      7  C   UNL A   1      30.106  26.123  24.164  1.00  0.00     0.175 C 
BRANCH   7   8
ATOM      8  N   UNL A   1      30.242  24.733  23.710  1.00  0.00    -0.339 N 
ATOM      9  C   UNL A   1      31.344  24.054  23.291  1.00  0.00     0.279 C 
ATOM     10  O   UNL A   1      31.252  22.827  23.182  1.00  0.00    -0.268 OA
ATOM     11  H   UNL A   1      29.406  24.211  23.710  1.00  0.00     0.164 HD
BRANCH   9  12
ATOM     12  C   UNL A   1      32.655  24.775  22.908  1.00  0.00     0.273 C 
BRANCH  12  13
ATOM     13  C   UNL A   1      32.405  25.975  21.960  1.00  0.00     0.051 C 
ATOM     14  C   UNL A   1      33.405  27.114  22.186  1.00  0.00     0.014 C 
ATOM     15  C   UNL A   1      32.460  25.538  20.492  1.00  0.00     0.014 C 
ENDBRANCH  12  13
BRANCH  12  16
ATOM     16  N   UNL A   1      33.395  25.130  24.134  1.00  0.00    -0.347 N 
ATOM     17  H   UNL A   1      32.909  25.888  24.617  1.00  0.00     0.345 HD
ATOM     18  H   UNL A   1      34.337  25.435  23.887  1.00  0.00     0.345 HD
ATOM     19  H   UNL A   1      33.449  24.317  24.747  1.00  0.00     0.345 HD
ENDBRANCH  12  16
ENDBRANCH   9  12
ENDBRANCH   7   8
BRANCH   7  20
ATOM     20  C   UNL A   1      28.751  26.768  23.796  1.00  0.00     0.070 C 
BRANCH  20  21
ATOM     21  C   UNL A   1      28.779  28.099  23.083  1.00  0.00    -0.045 A 
ATOM     22  C   UNL A   1      27.647  28.929  23.060  1.00  0.00     0.004 A 
ATOM     23  C   UNL A   1      29.960  28.546  22.470  1.00  0.00     0.004 A 
ATOM     24  C   UNL A   1      27.719  30.205  22.497  1.00  0.00     0.000 A 
ATOM     25  C   UNL A   1      30.025  29.819  21.899  1.00  0.00     0.000 A 
ATOM     26  C   UNL A   1      28.910  30.653  21.928  1.00  0.00     0.000 A 
ENDBRANCH  20  21
ENDBRANCH   7  20
ENDBRANCH   4   7
ENDBRANCH   2   3
ENDBRANCH   1   2
BRANCH   1  27
ATOM     27  C   UNL A   1      32.058  30.343  26.804  1.00  0.00     0.118 C 
BRANCH  27  28
ATOM     28  N   UNL A   1      31.999  31.803  26.888  1.00  0.00    -0.352 N 
ATOM     29  C   UNL A   1      32.869  32.707  27.451  1.00  0.00     0.251 C 
ATOM     30  H   UNL A   1      31.203  32.205  26.472  1.00  0.00     0.163 HD
ATOM     31  O   UNL A   1      32.528  33.881  27.575  1.00  0.00    -0.269 OA
BRANCH  29  32
ATOM     32  C   UNL A   1      34.189  32.255  27.936  1.00  0.00     0.039 A 
ATOM     33  C   UNL A   1      35.241  33.169  28.029  1.00  0.00     0.014 A 
ATOM     34  C   UNL A   1      34.377  30.932  28.334  1.00  0.00     0.014 A 
ATOM     35  C   UNL A   1      36.443  32.778  28.624  1.00  0.00     0.010 A 
ATOM     36  C   UNL A   1      35.518  30.583  29.041  1.00  0.00     0.010 A 
ATOM     37  C   UNL A   1      36.569  31.498  29.188  1.00  0.00    -0.014 A 
BRANCH  37  38
ATOM     38  C   UNL A   1      37.788  31.074  29.926  1.00  0.00     0.031 A 
ATOM     39  C   UNL A   1      38.718  30.064  29.305  1.00  0.00     0.074 A 
ATOM     40  C   UNL A   1      37.993  31.504  31.187  1.00  0.00     0.049 A 
ATOM     41  N   UNL A   1      39.738  29.439  29.833  1.00  0.00    -0.248 NA
ATOM     42  C   UNL A   1      38.422  29.662  27.921  1.00  0.00     0.031 C 
ATOM     43  C   UNL A   1      37.122  32.425  31.923  1.00  0.00     0.029 A 
ATOM     44  N   UNL A   1      38.990  31.210  32.083  1.00  0.00    -0.354 N 
ATOM     45  C   UNL A   1      40.173  28.542  28.864  1.00  0.00     0.074 A 
ATOM     46  C   UNL A   1      39.261  28.654  27.747  1.00  0.00     0.031 C 
ATOM     47  C   UNL A   1      37.637  32.639  33.143  1.00  0.00     0.029 A 
ATOM     48  C   UNL A   1      38.845  31.837  33.299  1.00  0.00     0.049 A 
ATOM     49  H   UNL A   1      39.739  30.606  31.875  1.00  0.00     0.167 HD
ATOM     50  C   UNL A   1      41.252  27.720  28.890  1.00  0.00     0.034 A 
ATOM     51  C   UNL A   1      39.593  31.762  34.417  1.00  0.00     0.034 A 
ATOM     52  C   UNL A   1      42.176  27.661  29.996  1.00  0.00     0.049 A 
ATOM     53  C   UNL A   1      40.812  30.876  34.411  1.00  0.00     0.074 A 
ATOM     54  C   UNL A   1      43.353  26.940  30.101  1.00  0.00     0.029 A 
ATOM     55  N   UNL A   1      42.027  28.354  31.191  1.00  0.00    -0.354 N 
ATOM     56  N   UNL A   1      41.251  30.082  33.462  1.00  0.00    -0.248 NA
ATOM     57  C   UNL A   1      41.644  30.887  35.621  1.00  0.00     0.031 C 
ATOM     58  C   UNL A   1      43.884  27.152  31.378  1.00  0.00     0.029 A 
ATOM     59  C   UNL A   1      43.077  28.059  32.046  1.00  0.00     0.049 A 
ATOM     60  H   UNL A   1      41.284  28.966  31.400  1.00  0.00     0.167 HD
ATOM     61  C   UNL A   1      42.425  29.518  33.952  1.00  0.00     0.074 A 
ATOM     62  C   UNL A   1      42.633  30.076  35.272  1.00  0.00     0.031 C 
ATOM     63  C   UNL A   1      43.259  28.622  33.364  1.00  0.00     0.034 A 
BRANCH  50  64
ATOM     64  C   UNL A   1      41.470  26.819  27.696  1.00  0.00     0.023 A 
ATOM     65  C   UNL A   1      41.033  25.482  27.689  1.00  0.00     0.031 A 
ATOM     66  C   UNL A   1      42.168  27.286  26.568  1.00  0.00     0.131 A 
ATOM     67  C   UNL A   1      41.383  24.634  26.627  1.00  0.00     0.055 A 
ATOM     68  C   UNL A   1      42.431  26.462  25.472  1.00  0.00     0.041 A 
ATOM     69  F   UNL A   1      42.625  28.547  26.520  1.00  0.00    -0.206 F 
ATOM     70  C   UNL A   1      42.056  25.121  25.505  1.00  0.00     0.022 A 
BRANCH  67  71
ATOM     71  S   UNL A   1      41.092  22.854  26.812  1.00  0.00     0.124 S 
ATOM     72  O   UNL A   1      41.841  22.315  25.678  1.00  0.00    -0.237 OA
ATOM     73  O   UNL A   1      41.647  22.579  28.132  1.00  0.00    -0.237 OA
ATOM     74  O   UNL A   1      39.640  22.731  26.705  1.00  0.00    -0.744 OA
ENDBRANCH  67  71
ENDBRANCH  50  64
BRANCH  51  75
ATOM     75  C   UNL A   1      39.217  32.541  35.631  1.00  0.00     0.023 A 
ATOM     76  C   UNL A   1      39.660  33.861  35.809  1.00  0.00     0.031 A 
ATOM     77  C   UNL A   1      38.428  31.968  36.644  1.00  0.00     0.131 A 
ATOM     78  C   UNL A   1      39.348  34.551  36.989  1.00  0.00     0.055 A 
ATOM     79  C   UNL A   1      38.081  32.675  37.796  1.00  0.00     0.041 A 
ATOM     80  F   UNL A   1      37.969  30.712  36.518  1.00  0.00    -0.206 F 
ATOM     81  C   UNL A   1      38.552  33.972  37.979  1.00  0.00     0.022 A 
BRANCH  78  82
ATOM     82  S   UNL A   1      40.060  36.200  37.246  1.00  0.00     0.124 S 
ATOM     83  O   UNL A   1      39.154  36.763  38.241  1.00  0.00    -0.237 OA
ATOM     84  O   UNL A   1      41.406  35.880  37.711  1.00  0.00    -0.237 OA
ATOM     85  O   UNL A   1      39.990  36.811  35.920  1.00  0.00    -0.744 OA
ENDBRANCH  78  82
ENDBRANCH  51  75
BRANCH  63  86
ATOM     86  C   UNL A   1      44.493  28.231  34.137  1.00  0.00     0.023 A 
ATOM     87  C   UNL A   1      44.498  27.132  35.013  1.00  0.00     0.031 A 
ATOM     88  C   UNL A   1      45.677  28.976  33.999  1.00  0.00     0.131 A 
ATOM     89  C   UNL A   1      45.650  26.840  35.758  1.00  0.00     0.055 A 
ATOM     90  C   UNL A   1      46.837  28.646  34.699  1.00  0.00     0.041 A 
ATOM     91  F   UNL A   1      45.725  30.036  33.176  1.00  0.00    -0.206 F 
ATOM     92  C   UNL A   1      46.825  27.580  35.594  1.00  0.00     0.022 A 
BRANCH  89  93
ATOM     93  S   UNL A   1      45.568  25.531  37.011  1.00  0.00     0.124 S 
ATOM     94  O   UNL A   1      45.012  24.418  36.249  1.00  0.00    -0.237 OA
ATOM     95  O   UNL A   1      46.964  25.396  37.413  1.00  0.00    -0.237 OA
ATOM     96  O   UNL A   1      44.682  26.089  38.032  1.00  0.00    -0.744 OA
ENDBRANCH  89  93
ENDBRANCH  63  86
ENDBRANCH  37  38
ENDBRANCH  29  32
ENDBRANCH  27  28
ENDBRANCH   1  27
TORSDOF 19
ENDMDL
MODEL 2
REMARK VINA RESULT:     -11.6      0.893      7.880
REMARK SMILES CC(C)[C@@H]([NH3+])C(=O)N[C@@H](Cc1ccccc1)C(=O)NCCCNC(=O)c1ccc(-c2c3nc(c(-c4cc(S(=O)(=O)[O-])ccc4F)c4ccc([nH]4)c(-c4cc(S(=O)(=O)[O-])ccc4F)c4nc(c(-c5cc(S(=O)(=O)[O-])ccc5F)c5ccc2[nH]5)C=C4)C=C3)cc1
REMARK SMILES IDX 21 1 20 2 19 3 17 4 18 5 9 7 8 8 6 9 7 10 4 12 2 13 1 14
REMARK SMILES IDX 3 15 5 16 10 20 11 21 12 22 16 23 13 24 15 25 14 26 22 27
REMARK SMILES IDX 23 28 24 29 25 31 26 32 27 33 88 34 28 35 87 36 29 37 30 38
REMARK SMILES IDX 31 39 81 40 32 41 86 42 80 43 82 44 33 45 85 46 79 47 78 48
REMARK SMILES IDX 34 50 66 51 46 52 65 53 47 54 50 55 64 56 83 57 48 58 49 59
REMARK SMILES IDX 63 61 84 62 51 63 35 64 36 65 44 66 37 67 43 68 45 69 42 70
REMARK SMILES IDX 38 71 39 72 40 73 41 74 67 75 68 76 76 77 69 78 75 79 77 80
REMARK SMILES IDX 74 81 70 82 71 83 72 84 73 85 52 86 53 87 61 88 54 89 60 90
REMARK SMILES IDX 62 91 59 92 55 93 56 94 57 95 58 96
REMARK H PARENT 19 6 8 11 5 17 5 18 5 19 23 30 82 49 50 60
REMARK Flexibility Score: inf
ROOT
ATOM      1  C   UNL A   1      32.589  29.546  25.232  1.00  0.00     0.042 C 
ENDROOT
BRANCH   1   2
ATOM      2  C   UNL A   1      32.484  28.051  25.036  1.00  0.00     0.117 C 
BRANCH   2   3
ATOM      3  N   UNL A   1      31.530  27.399  25.911  1.00  0.00    -0.354 N 
ATOM      4  C   UNL A   1      30.636  26.411  25.620  1.00  0.00     0.242 C 
ATOM      5  O   UNL A   1      30.338  25.647  26.546  1.00  0.00    -0.273 OA
ATOM      6  H   UNL A   1      31.526  27.712  26.843  1.00  0.00     0.163 HD
BRANCH   4   7
ATOM      7  C   UNL A   1      30.110  26.144  24.190  1.00  0.00     0.175 C 
BRANCH   7   8
ATOM      8  N   UNL A   1      30.154  24.733  23.786  1.00  0.00    -0.339 N 
ATOM      9  C   UNL A   1      31.217  23.954  23.444  1.00  0.00     0.279 C 
ATOM     10  O   UNL A   1      31.031  22.736  23.368  1.00  0.00    -0.268 OA
ATOM     11  H   UNL A   1      29.280  24.280  23.759  1.00  0.00     0.164 HD
BRANCH   9  12
ATOM     12  C   UNL A   1      32.599  24.555  23.107  1.00  0.00     0.273 C 
BRANCH  12  13
ATOM     13  C   UNL A   1      33.730  23.936  23.967  1.00  0.00     0.051 C 
ATOM     14  C   UNL A   1      34.735  23.145  23.124  1.00  0.00     0.014 C 
ATOM     15  C   UNL A   1      34.475  25.018  24.759  1.00  0.00     0.014 C 
ENDBRANCH  12  13
BRANCH  12  16
ATOM     16  N   UNL A   1      32.836  24.456  21.654  1.00  0.00    -0.347 N 
ATOM     17  H   UNL A   1      33.806  24.701  21.450  1.00  0.00     0.345 HD
ATOM     18  H   UNL A   1      32.213  25.098  21.163  1.00  0.00     0.345 HD
ATOM     19  H   UNL A   1      32.655  23.502  21.344  1.00  0.00     0.345 HD
ENDBRANCH  12  16
ENDBRANCH   9  12
ENDBRANCH   7   8
BRANCH   7  20
ATOM     20  C   UNL A   1      28.766  26.839  23.877  1.00  0.00     0.070 C 
BRANCH  20  21
ATOM     21  C   UNL A   1      28.816  28.179  23.181  1.00  0.00    -0.045 A 
ATOM     22  C   UNL A   1      30.002  28.642  22.590  1.00  0.00     0.004 A 
ATOM     23  C   UNL A   1      27.655  28.962  23.075  1.00  0.00     0.004 A 
ATOM     24  C   UNL A   1      30.006  29.828  21.852  1.00  0.00     0.000 A 
ATOM     25  C   UNL A   1      27.666  30.152  22.345  1.00  0.00     0.000 A 
ATOM     26  C   UNL A   1      28.837  30.576  21.721  1.00  0.00     0.000 A 
ENDBRANCH  20  21
ENDBRANCH   7  20
ENDBRANCH   4   7
ENDBRANCH   2   3
ENDBRANCH   1   2
BRANCH   1  27
ATOM     27  C   UNL A   1      32.178  29.990  26.626  1.00  0.00     0.118 C 
BRANCH  27  28
ATOM     28  N   UNL A   1      32.197  31.442  26.797  1.00  0.00    -0.352 N 
ATOM     29  C   UNL A   1      33.092  32.260  27.445  1.00  0.00     0.251 C 
ATOM     30  H   UNL A   1      31.442  31.914  26.377  1.00  0.00     0.163 HD
ATOM     31  O   UNL A   1      32.813  33.443  27.627  1.00  0.00    -0.269 OA
BRANCH  29  32
ATOM     32  C   UNL A   1      34.365  31.705  27.950  1.00  0.00     0.039 A 
ATOM     33  C   UNL A   1      35.439  32.560  28.207  1.00  0.00     0.014 A 
ATOM     34  C   UNL A   1      34.484  30.339  28.205  1.00  0.00     0.014 A 
ATOM     35  C   UNL A   1      36.589  32.057  28.820  1.00  0.00     0.010 A 
ATOM     36  C   UNL A   1      35.567  29.869  28.932  1.00  0.00     0.010 A 
ATOM     37  C   UNL A   1      36.638  30.719  29.241  1.00  0.00    -0.014 A 
BRANCH  37  38
ATOM     38  C   UNL A   1      37.794  30.167  29.995  1.00  0.00     0.031 A 
ATOM     39  C   UNL A   1      38.036  30.610  31.415  1.00  0.00     0.074 A 
ATOM     40  C   UNL A   1      38.681  29.367  29.371  1.00  0.00     0.049 A 
ATOM     41  N   UNL A   1      39.062  30.385  32.192  1.00  0.00    -0.248 NA
ATOM     42  C   UNL A   1      37.007  31.473  32.017  1.00  0.00     0.031 C 
ATOM     43  C   UNL A   1      38.596  28.928  27.975  1.00  0.00     0.029 A 
ATOM     44  N   UNL A   1      39.844  28.793  29.823  1.00  0.00    -0.354 N 
ATOM     45  C   UNL A   1      38.823  31.112  33.353  1.00  0.00     0.074 A 
ATOM     46  C   UNL A   1      37.591  31.842  33.146  1.00  0.00     0.031 C 
ATOM     47  C   UNL A   1      39.642  28.135  27.696  1.00  0.00     0.029 A 
ATOM     48  C   UNL A   1      40.500  28.047  28.871  1.00  0.00     0.049 A 
ATOM     49  H   UNL A   1      40.176  28.905  30.743  1.00  0.00     0.167 HD
ATOM     50  C   UNL A   1      39.548  31.146  34.500  1.00  0.00     0.034 A 
ATOM     51  C   UNL A   1      41.668  27.379  28.936  1.00  0.00     0.034 A 
ATOM     52  C   UNL A   1      40.747  30.371  34.701  1.00  0.00     0.049 A 
ATOM     53  C   UNL A   1      42.437  27.393  30.232  1.00  0.00     0.074 A 
ATOM     54  C   UNL A   1      41.515  30.250  35.846  1.00  0.00     0.029 A 
ATOM     55  N   UNL A   1      41.352  29.581  33.731  1.00  0.00    -0.354 N 
ATOM     56  N   UNL A   1      42.165  28.033  31.346  1.00  0.00    -0.248 NA
ATOM     57  C   UNL A   1      43.662  26.586  30.285  1.00  0.00     0.031 C 
ATOM     58  C   UNL A   1      42.613  29.434  35.553  1.00  0.00     0.029 A 
ATOM     59  C   UNL A   1      42.495  28.989  34.246  1.00  0.00     0.049 A 
ATOM     60  H   UNL A   1      41.018  29.458  32.814  1.00  0.00     0.167 HD
ATOM     61  C   UNL A   1      43.172  27.683  32.240  1.00  0.00     0.074 A 
ATOM     62  C   UNL A   1      44.047  26.765  31.540  1.00  0.00     0.031 C 
ATOM     63  C   UNL A   1      43.359  28.082  33.525  1.00  0.00     0.034 A 
BRANCH  50  64
ATOM     64  C   UNL A   1      39.064  32.060  35.602  1.00  0.00     0.023 A 
ATOM     65  C   UNL A   1      39.488  33.399  35.692  1.00  0.00     0.031 A 
ATOM     66  C   UNL A   1      38.208  31.575  36.606  1.00  0.00     0.131 A 
ATOM     67  C   UNL A   1      39.138  34.172  36.809  1.00  0.00     0.055 A 
ATOM     68  C   UNL A   1      37.787  32.380  37.666  1.00  0.00     0.041 A 
ATOM     69  F   UNL A   1      37.781  30.302  36.586  1.00  0.00    -0.206 F 
ATOM     70  C   UNL A   1      38.268  33.681  37.784  1.00  0.00     0.022 A 
BRANCH  67  71
ATOM     71  S   UNL A   1      39.970  35.765  37.051  1.00  0.00     0.124 S 
ATOM     72  O   UNL A   1      39.653  36.454  35.801  1.00  0.00    -0.237 OA
ATOM     73  O   UNL A   1      39.318  36.284  38.247  1.00  0.00    -0.237 OA
ATOM     74  O   UNL A   1      41.375  35.397  37.213  1.00  0.00    -0.744 OA
ENDBRANCH  67  71
ENDBRANCH  50  64
BRANCH  51  75
ATOM     75  C   UNL A   1      42.184  26.642  27.747  1.00  0.00     0.023 A 
ATOM     76  C   UNL A   1      41.891  25.283  27.555  1.00  0.00     0.031 A 
ATOM     77  C   UNL A   1      42.998  27.282  26.796  1.00  0.00     0.131 A 
ATOM     78  C   UNL A   1      42.442  24.595  26.464  1.00  0.00     0.055 A 
ATOM     79  C   UNL A   1      43.506  26.605  25.685  1.00  0.00     0.041 A 
ATOM     80  F   UNL A   1      43.300  28.585  26.927  1.00  0.00    -0.206 F 
ATOM     81  C   UNL A   1      43.237  25.250  25.521  1.00  0.00     0.022 A 
BRANCH  78  82
ATOM     82  S   UNL A   1      42.160  22.809  26.330  1.00  0.00     0.124 S 
ATOM     83  O   UNL A   1      42.694  22.521  25.003  1.00  0.00    -0.237 OA
ATOM     84  O   UNL A   1      42.931  22.295  27.457  1.00  0.00    -0.237 OA
ATOM     85  O   UNL A   1      40.710  22.682  26.461  1.00  0.00    -0.744 OA
ENDBRANCH  78  82
ENDBRANCH  51  75
BRANCH  63  86
ATOM     86  C   UNL A   1      44.532  27.486  34.260  1.00  0.00     0.023 A 
ATOM     87  C   UNL A   1      44.429  26.268  34.952  1.00  0.00     0.031 A 
ATOM     88  C   UNL A   1      45.770  28.155  34.272  1.00  0.00     0.131 A 
ATOM     89  C   UNL A   1      45.529  25.780  35.672  1.00  0.00     0.055 A 
ATOM     90  C   UNL A   1      46.876  27.635  34.943  1.00  0.00     0.041 A 
ATOM     91  F   UNL A   1      45.921  29.323  33.628  1.00  0.00    -0.206 F 
ATOM     92  C   UNL A   1      46.757  26.448  35.658  1.00  0.00     0.022 A 
BRANCH  89  93
ATOM     93  S   UNL A   1      45.309  24.303  36.702  1.00  0.00     0.124 S 
ATOM     94  O   UNL A   1      46.683  23.838  36.860  1.00  0.00    -0.237 OA
ATOM     95  O   UNL A   1      44.678  24.848  37.900  1.00  0.00    -0.237 OA
ATOM     96  O   UNL A   1      44.452  23.442  35.888  1.00  0.00    -0.744 OA
ENDBRANCH  89  93
ENDBRANCH  63  86
ENDBRANCH  37  38
ENDBRANCH  29  32
ENDBRANCH  27  28
ENDBRANCH   1  27
TORSDOF 19
ENDMDL
MODEL 3
REMARK VINA RESULT:     -11.6      2.036      2.337
REMARK SMILES CC(C)[C@@H]([NH3+])C(=O)N[C@@H](Cc1ccccc1)C(=O)NCCCNC(=O)c1ccc(-c2c3nc(c(-c4cc(S(=O)(=O)[O-])ccc4F)c4ccc([nH]4)c(-c4cc(S(=O)(=O)[O-])ccc4F)c4nc(c(-c5cc(S(=O)(=O)[O-])ccc5F)c5ccc2[nH]5)C=C4)C=C3)cc1
REMARK SMILES IDX 21 1 20 2 19 3 17 4 18 5 9 7 8 8 6 9 7 10 4 12 2 13 1 14
REMARK SMILES IDX 3 15 5 16 10 20 11 21 12 22 16 23 13 24 15 25 14 26 22 27
REMARK SMILES IDX 23 28 24 29 25 31 26 32 27 33 88 34 28 35 87 36 29 37 30 38
REMARK SMILES IDX 31 39 81 40 32 41 86 42 80 43 82 44 33 45 85 46 79 47 78 48
REMARK SMILES IDX 34 50 66 51 46 52 65 53 47 54 50 55 64 56 83 57 48 58 49 59
REMARK SMILES IDX 63 61 84 62 51 63 35 64 36 65 44 66 37 67 43 68 45 69 42 70
REMARK SMILES IDX 38 71 39 72 40 73 41 74 67 75 68 76 76 77 69 78 75 79 77 80
REMARK SMILES IDX 74 81 70 82 71 83 72 84 73 85 52 86 53 87 61 88 54 89 60 90
REMARK SMILES IDX 62 91 59 92 55 93 56 94 57 95 58 96
REMARK H PARENT 19 6 8 11 5 17 5 18 5 19 23 30 82 49 50 60
REMARK Flexibility Score: inf
ROOT
ATOM      1  C   UNL A   1      31.701  29.761  25.393  1.00  0.00     0.042 C 
ENDROOT
BRANCH   1   2
ATOM      2  C   UNL A   1      32.021  28.297  25.198  1.00  0.00     0.117 C 
BRANCH   2   3
ATOM      3  N   UNL A   1      31.231  27.398  26.015  1.00  0.00    -0.354 N 
ATOM      4  C   UNL A   1      30.544  26.281  25.643  1.00  0.00     0.242 C 
ATOM      5  O   UNL A   1      30.420  25.398  26.501  1.00  0.00    -0.273 OA
ATOM      6  H   UNL A   1      31.184  27.626  26.971  1.00  0.00     0.163 HD
BRANCH   4   7
ATOM      7  C   UNL A   1      30.054  26.035  24.197  1.00  0.00     0.175 C 
BRANCH   7   8
ATOM      8  N   UNL A   1      30.149  24.638  23.757  1.00  0.00    -0.339 N 
ATOM      9  C   UNL A   1      31.239  23.908  23.392  1.00  0.00     0.279 C 
ATOM     10  O   UNL A   1      31.098  22.686  23.286  1.00  0.00    -0.268 OA
ATOM     11  H   UNL A   1      29.293  24.153  23.722  1.00  0.00     0.164 HD
BRANCH   9  12
ATOM     12  C   UNL A   1      32.596  24.569  23.065  1.00  0.00     0.273 C 
BRANCH  12  13
ATOM     13  C   UNL A   1      33.730  24.063  23.992  1.00  0.00     0.051 C 
ATOM     14  C   UNL A   1      34.837  23.341  23.217  1.00  0.00     0.014 C 
ATOM     15  C   UNL A   1      34.344  25.218  24.792  1.00  0.00     0.014 C 
ENDBRANCH  12  13
BRANCH  12  16
ATOM     16  N   UNL A   1      32.886  24.406  21.627  1.00  0.00    -0.347 N 
ATOM     17  H   UNL A   1      33.427  25.207  21.297  1.00  0.00     0.345 HD
ATOM     18  H   UNL A   1      32.011  24.350  21.107  1.00  0.00     0.345 HD
ATOM     19  H   UNL A   1      33.424  23.551  21.484  1.00  0.00     0.345 HD
ENDBRANCH  12  16
ENDBRANCH   9  12
ENDBRANCH   7   8
BRANCH   7  20
ATOM     20  C   UNL A   1      28.696  26.698  23.875  1.00  0.00     0.070 C 
BRANCH  20  21
ATOM     21  C   UNL A   1      28.715  28.018  23.141  1.00  0.00    -0.045 A 
ATOM     22  C   UNL A   1      27.586  28.851  23.125  1.00  0.00     0.004 A 
ATOM     23  C   UNL A   1      29.887  28.451  22.501  1.00  0.00     0.004 A 
ATOM     24  C   UNL A   1      27.653  30.119  22.542  1.00  0.00     0.000 A 
ATOM     25  C   UNL A   1      29.947  29.715  21.910  1.00  0.00     0.000 A 
ATOM     26  C   UNL A   1      28.835  30.554  21.945  1.00  0.00     0.000 A 
ENDBRANCH  20  21
ENDBRANCH   7  20
ENDBRANCH   4   7
ENDBRANCH   2   3
ENDBRANCH   1   2
BRANCH   1  27
ATOM     27  C   UNL A   1      32.102  30.277  26.765  1.00  0.00     0.118 C 
BRANCH  27  28
ATOM     28  N   UNL A   1      32.042  31.734  26.872  1.00  0.00    -0.352 N 
ATOM     29  C   UNL A   1      32.900  32.627  27.471  1.00  0.00     0.251 C 
ATOM     30  H   UNL A   1      31.257  32.145  26.444  1.00  0.00     0.163 HD
ATOM     31  O   UNL A   1      32.558  33.800  27.606  1.00  0.00    -0.269 OA
BRANCH  29  32
ATOM     32  C   UNL A   1      34.208  32.165  27.980  1.00  0.00     0.039 A 
ATOM     33  C   UNL A   1      35.234  33.089  28.189  1.00  0.00     0.014 A 
ATOM     34  C   UNL A   1      34.407  30.820  28.287  1.00  0.00     0.014 A 
ATOM     35  C   UNL A   1      36.418  32.676  28.805  1.00  0.00     0.010 A 
ATOM     36  C   UNL A   1      35.523  30.440  29.016  1.00  0.00     0.010 A 
ATOM     37  C   UNL A   1      36.547  31.361  29.278  1.00  0.00    -0.014 A 
BRANCH  37  38
ATOM     38  C   UNL A   1      37.742  30.905  30.037  1.00  0.00     0.031 A 
ATOM     39  C   UNL A   1      38.718  29.960  29.386  1.00  0.00     0.074 A 
ATOM     40  C   UNL A   1      37.883  31.246  31.333  1.00  0.00     0.049 A 
ATOM     41  N   UNL A   1      39.727  29.316  29.912  1.00  0.00    -0.248 NA
ATOM     42  C   UNL A   1      38.490  29.655  27.965  1.00  0.00     0.031 C 
ATOM     43  C   UNL A   1      36.963  32.095  32.095  1.00  0.00     0.029 A 
ATOM     44  N   UNL A   1      38.847  30.904  32.249  1.00  0.00    -0.354 N 
ATOM     45  C   UNL A   1      40.222  28.499  28.901  1.00  0.00     0.074 A 
ATOM     46  C   UNL A   1      39.357  28.677  27.756  1.00  0.00     0.031 C 
ATOM     47  C   UNL A   1      37.421  32.228  33.349  1.00  0.00     0.029 A 
ATOM     48  C   UNL A   1      38.637  31.438  33.500  1.00  0.00     0.049 A 
ATOM     49  H   UNL A   1      39.617  30.330  32.031  1.00  0.00     0.167 HD
ATOM     50  C   UNL A   1      41.316  27.697  28.915  1.00  0.00     0.034 A 
ATOM     51  C   UNL A   1      39.338  31.294  34.641  1.00  0.00     0.034 A 
ATOM     52  C   UNL A   1      42.192  27.574  30.054  1.00  0.00     0.049 A 
ATOM     53  C   UNL A   1      40.575  30.433  34.625  1.00  0.00     0.074 A 
ATOM     54  C   UNL A   1      43.378  26.868  30.158  1.00  0.00     0.029 A 
ATOM     55  N   UNL A   1      41.978  28.175  31.288  1.00  0.00    -0.354 N 
ATOM     56  N   UNL A   1      41.070  29.718  33.642  1.00  0.00    -0.248 NA
ATOM     57  C   UNL A   1      41.354  30.370  35.868  1.00  0.00     0.031 C 
ATOM     58  C   UNL A   1      43.849  26.994  31.469  1.00  0.00     0.029 A 
ATOM     59  C   UNL A   1      42.996  27.837  32.165  1.00  0.00     0.049 A 
ATOM     60  H   UNL A   1      41.215  28.757  31.508  1.00  0.00     0.167 HD
ATOM     61  C   UNL A   1      42.233  29.141  34.141  1.00  0.00     0.074 A 
ATOM     62  C   UNL A   1      42.373  29.604  35.506  1.00  0.00     0.031 C 
ATOM     63  C   UNL A   1      43.110  28.305  33.528  1.00  0.00     0.034 A 
BRANCH  50  64
ATOM     64  C   UNL A   1      41.603  26.890  27.671  1.00  0.00     0.023 A 
ATOM     65  C   UNL A   1      41.279  25.524  27.583  1.00  0.00     0.031 A 
ATOM     66  C   UNL A   1      42.255  27.479  26.573  1.00  0.00     0.131 A 
ATOM     67  C   UNL A   1      41.694  24.773  26.473  1.00  0.00     0.055 A 
ATOM     68  C   UNL A   1      42.582  26.746  25.430  1.00  0.00     0.041 A 
ATOM     69  F   UNL A   1      42.607  28.775  26.601  1.00  0.00    -0.206 F 
ATOM     70  C   UNL A   1      42.320  25.380  25.383  1.00  0.00     0.022 A 
BRANCH  67  71
ATOM     71  S   UNL A   1      41.552  22.967  26.551  1.00  0.00     0.124 S 
ATOM     72  O   UNL A   1      42.284  22.563  25.352  1.00  0.00    -0.237 OA
ATOM     73  O   UNL A   1      42.192  22.655  27.824  1.00  0.00    -0.237 OA
ATOM     74  O   UNL A   1      40.110  22.733  26.501  1.00  0.00    -0.744 OA
ENDBRANCH  67  71
ENDBRANCH  50  64
BRANCH  51  75
ATOM     75  C   UNL A   1      38.895  31.976  35.890  1.00  0.00     0.023 A 
ATOM     76  C   UNL A   1      38.171  31.284  36.875  1.00  0.00     0.031 A 
ATOM     77  C   UNL A   1      39.169  33.338  36.109  1.00  0.00     0.131 A 
ATOM     78  C   UNL A   1      37.708  31.964  38.011  1.00  0.00     0.055 A 
ATOM     79  C   UNL A   1      38.747  33.999  37.264  1.00  0.00     0.041 A 
ATOM     80  F   UNL A   1      39.868  34.043  35.204  1.00  0.00    -0.206 F 
ATOM     81  C   UNL A   1      38.001  33.313  38.219  1.00  0.00     0.022 A 
BRANCH  78  82
ATOM     82  S   UNL A   1      36.653  31.073  39.187  1.00  0.00     0.124 S 
ATOM     83  O   UNL A   1      35.496  31.957  39.277  1.00  0.00    -0.237 OA
ATOM     84  O   UNL A   1      36.439  29.803  38.501  1.00  0.00    -0.237 OA
ATOM     85  O   UNL A   1      37.476  30.996  40.392  1.00  0.00    -0.744 OA
ENDBRANCH  78  82
ENDBRANCH  51  75
BRANCH  63  86
ATOM     86  C   UNL A   1      44.317  27.880  34.324  1.00  0.00     0.023 A 
ATOM     87  C   UNL A   1      45.507  28.626  34.317  1.00  0.00     0.031 A 
ATOM     88  C   UNL A   1      44.275  26.704  35.095  1.00  0.00     0.131 A 
ATOM     89  C   UNL A   1      46.625  28.162  35.024  1.00  0.00     0.055 A 
ATOM     90  C   UNL A   1      45.373  26.278  35.842  1.00  0.00     0.041 A 
ATOM     91  F   UNL A   1      43.163  25.953  35.135  1.00  0.00    -0.206 F 
ATOM     92  C   UNL A   1      46.561  27.002  35.801  1.00  0.00     0.022 A 
BRANCH  89  93
ATOM     93  S   UNL A   1      48.197  29.051  34.848  1.00  0.00     0.124 S 
ATOM     94  O   UNL A   1      49.167  28.025  35.215  1.00  0.00    -0.237 OA
ATOM     95  O   UNL A   1      48.181  29.439  33.441  1.00  0.00    -0.237 OA
ATOM     96  O   UNL A   1      48.074  30.157  35.797  1.00  0.00    -0.744 OA
ENDBRANCH  89  93
ENDBRANCH  63  86
ENDBRANCH  37  38
ENDBRANCH  29  32
ENDBRANCH  27  28
ENDBRANCH   1  27
TORSDOF 19
ENDMDL
