MODEL 1
REMARK VINA RESULT:     -13.4      0.000      0.000
REMARK SMILES CC1(C)[C@@]2(C(=O)NCCCNC(=O)c3ccc(-c4c5nc(c(-c6cc(S(=O)(=O)[O-])ccc6F)c6ccc([nH]6)c(-c6cc(S(=O)(=O)[O-])ccc6F)c6nc(c(-c7cc(S(=O)(=O)[O-])ccc7F)c7ccc4[nH]7)C=C6)C=C5)cc3)CC[C@]1(C)/C(=N/NC(=O)c1ccc(Cl)cc1)C2
REMARK SMILES IDX 9 1 8 2 7 3 5 4 6 5 4 7 1 8 2 9 3 10 79 11 77 12 93 13 78 14
REMARK SMILES IDX 80 15 81 16 82 17 83 18 84 19 85 21 86 22 87 23 92 24 88 25
REMARK SMILES IDX 91 26 89 27 90 28 10 29 11 30 12 31 13 33 14 34 15 35 76 36
REMARK SMILES IDX 16 37 75 38 17 39 18 40 19 41 69 42 20 43 74 44 68 45 70 46
REMARK SMILES IDX 21 47 73 48 67 49 66 50 22 52 54 53 34 54 53 55 35 56 38 57
REMARK SMILES IDX 52 58 71 59 36 60 37 61 51 63 72 64 39 65 23 66 24 67 32 68
REMARK SMILES IDX 25 69 31 70 33 71 30 72 26 73 27 74 28 75 29 76 55 77 56 78
REMARK SMILES IDX 64 79 57 80 63 81 65 82 62 83 58 84 59 85 60 86 61 87 40 88
REMARK SMILES IDX 41 89 49 90 42 91 48 92 50 93 47 94 43 95 44 96 45 97 46 98
REMARK H PARENT 7 6 83 20 11 32 70 51 38 62
REMARK Flexibility Score: inf
ROOT
ATOM      1  C   UNL A   1      30.777  31.199  25.633  1.00  0.00     0.042 C 
ENDROOT
BRANCH   1   2
ATOM      2  C   UNL A   1      31.032  30.069  24.622  1.00  0.00     0.117 C 
BRANCH   2   3
ATOM      3  N   UNL A   1      32.412  29.656  24.410  1.00  0.00    -0.356 N 
ATOM      4  C   UNL A   1      32.929  28.500  23.890  1.00  0.00     0.227 C 
ATOM      5  O   UNL A   1      33.932  28.635  23.185  1.00  0.00    -0.274 OA
ATOM      6  H   UNL A   1      33.086  30.318  24.686  1.00  0.00     0.163 HD
BRANCH   4   7
ATOM      7  C   UNL A   1      32.427  27.106  24.281  1.00  0.00     0.060 C 
ATOM      8  C   UNL A   1      30.148  27.088  23.014  1.00  0.00     0.013 C 
ATOM      9  C   UNL A   1      31.499  26.369  23.244  1.00  0.00    -0.010 C 
ATOM     10  C   UNL A   1      32.075  26.060  21.845  1.00  0.00     0.013 C 
ATOM     11  C   UNL A   1      31.415  25.086  24.128  1.00  0.00     0.014 C 
ATOM     12  C   UNL A   1      31.609  26.975  25.602  1.00  0.00     0.019 C 
ATOM     13  C   UNL A   1      33.631  26.138  24.407  1.00  0.00     0.071 C 
ATOM     14  C   UNL A   1      30.874  25.624  25.464  1.00  0.00     0.014 C 
ATOM     15  C   UNL A   1      30.652  23.896  23.581  1.00  0.00     0.018 C 
ATOM     16  C   UNL A   1      32.914  24.827  24.444  1.00  0.00     0.046 C 
ATOM     17  N   UNL A   1      33.284  23.647  24.811  1.00  0.00    -0.181 NA
BRANCH  17  18
ATOM     18  N   UNL A   1      34.453  23.140  25.272  1.00  0.00    -0.243 N 
ATOM     19  C   UNL A   1      35.145  21.955  25.378  1.00  0.00     0.271 C 
ATOM     20  H   UNL A   1      34.989  23.866  25.665  1.00  0.00     0.194 HD
ATOM     21  O   UNL A   1      36.253  21.966  25.920  1.00  0.00    -0.267 OA
BRANCH  19  22
ATOM     22  C   UNL A   1      34.658  20.656  24.934  1.00  0.00     0.041 A 
ATOM     23  C   UNL A   1      35.546  19.576  24.883  1.00  0.00     0.015 A 
ATOM     24  C   UNL A   1      33.369  20.528  24.423  1.00  0.00     0.015 A 
ATOM     25  C   UNL A   1      35.080  18.314  24.511  1.00  0.00     0.021 A 
ATOM     26  C   UNL A   1      32.899  19.258  24.089  1.00  0.00     0.021 A 
ATOM     27  C   UNL A   1      33.739  18.150  24.178  1.00  0.00     0.041 A 
ATOM     28  Cl  UNL A   1      33.107  16.573  23.912  1.00  0.00    -0.084 Cl
ENDBRANCH  19  22
ENDBRANCH  17  18
ENDBRANCH   4   7
ENDBRANCH   2   3
ENDBRANCH   1   2
BRANCH   1  29
ATOM     29  C   UNL A   1      31.797  31.403  26.766  1.00  0.00     0.118 C 
BRANCH  29  30
ATOM     30  N   UNL A   1      32.051  32.813  27.002  1.00  0.00    -0.352 N 
ATOM     31  C   UNL A   1      33.041  33.462  27.700  1.00  0.00     0.251 C 
ATOM     32  H   UNL A   1      31.393  33.415  26.584  1.00  0.00     0.163 HD
ATOM     33  O   UNL A   1      32.833  34.638  28.002  1.00  0.00    -0.269 OA
BRANCH  31  34
ATOM     34  C   UNL A   1      34.335  32.835  28.092  1.00  0.00     0.039 A 
ATOM     35  C   UNL A   1      34.290  31.541  28.636  1.00  0.00     0.014 A 
ATOM     36  C   UNL A   1      35.549  33.529  28.119  1.00  0.00     0.014 A 
ATOM     37  C   UNL A   1      35.429  30.959  29.211  1.00  0.00     0.010 A 
ATOM     38  C   UNL A   1      36.701  32.929  28.663  1.00  0.00     0.010 A 
ATOM     39  C   UNL A   1      36.649  31.648  29.243  1.00  0.00    -0.014 A 
BRANCH  39  40
ATOM     40  C   UNL A   1      37.833  31.053  29.940  1.00  0.00     0.031 A 
ATOM     41  C   UNL A   1      38.138  31.403  31.377  1.00  0.00     0.074 A 
ATOM     42  C   UNL A   1      38.636  30.178  29.300  1.00  0.00     0.049 A 
ATOM     43  N   UNL A   1      39.110  30.983  32.151  1.00  0.00    -0.248 NA
ATOM     44  C   UNL A   1      37.236  32.366  32.021  1.00  0.00     0.031 C 
ATOM     45  C   UNL A   1      38.468  29.742  27.915  1.00  0.00     0.029 A 
ATOM     46  N   UNL A   1      39.751  29.498  29.730  1.00  0.00    -0.354 N 
ATOM     47  C   UNL A   1      38.946  31.639  33.369  1.00  0.00     0.074 A 
ATOM     48  C   UNL A   1      37.808  32.522  33.206  1.00  0.00     0.031 C 
ATOM     49  C   UNL A   1      39.430  28.852  27.616  1.00  0.00     0.029 A 
ATOM     50  C   UNL A   1      40.304  28.678  28.774  1.00  0.00     0.049 A 
ATOM     51  H   UNL A   1      40.119  29.589  30.639  1.00  0.00     0.167 HD
ATOM     52  C   UNL A   1      39.662  31.511  34.517  1.00  0.00     0.034 A 
ATOM     53  C   UNL A   1      41.393  27.882  28.815  1.00  0.00     0.034 A 
ATOM     54  C   UNL A   1      40.792  30.624  34.679  1.00  0.00     0.049 A 
ATOM     55  C   UNL A   1      42.201  27.786  30.084  1.00  0.00     0.074 A 
ATOM     56  C   UNL A   1      41.546  30.383  35.817  1.00  0.00     0.029 A 
ATOM     57  N   UNL A   1      41.342  29.839  33.674  1.00  0.00    -0.354 N 
ATOM     58  N   UNL A   1      42.009  28.386  31.235  1.00  0.00    -0.248 NA
ATOM     59  C   UNL A   1      43.369  26.894  30.059  1.00  0.00     0.031 C 
ATOM     60  C   UNL A   1      42.590  29.513  35.482  1.00  0.00     0.029 A 
ATOM     61  C   UNL A   1      42.446  29.144  34.155  1.00  0.00     0.049 A 
ATOM     62  H   UNL A   1      40.999  29.782  32.753  1.00  0.00     0.167 HD
ATOM     63  C   UNL A   1      43.011  27.915  32.080  1.00  0.00     0.074 A 
ATOM     64  C   UNL A   1      43.802  26.980  31.308  1.00  0.00     0.031 C 
ATOM     65  C   UNL A   1      43.246  28.222  33.383  1.00  0.00     0.034 A 
BRANCH  52  66
ATOM     66  C   UNL A   1      39.263  32.393  35.683  1.00  0.00     0.023 A 
ATOM     67  C   UNL A   1      39.687  33.730  35.781  1.00  0.00     0.031 A 
ATOM     68  C   UNL A   1      38.486  31.875  36.735  1.00  0.00     0.131 A 
ATOM     69  C   UNL A   1      39.418  34.469  36.943  1.00  0.00     0.055 A 
ATOM     70  C   UNL A   1      38.144  32.645  37.849  1.00  0.00     0.041 A 
ATOM     71  F   UNL A   1      38.061  30.602  36.710  1.00  0.00    -0.206 F 
ATOM     72  C   UNL A   1      38.628  33.945  37.968  1.00  0.00     0.022 A 
BRANCH  69  73
ATOM     73  S   UNL A   1      40.264  36.058  37.171  1.00  0.00     0.124 S 
ATOM     74  O   UNL A   1      39.874  36.776  35.959  1.00  0.00    -0.237 OA
ATOM     75  O   UNL A   1      39.693  36.545  38.417  1.00  0.00    -0.237 OA
ATOM     76  O   UNL A   1      41.679  35.686  37.233  1.00  0.00    -0.744 OA
ENDBRANCH  69  73
ENDBRANCH  52  66
BRANCH  53  77
ATOM     77  C   UNL A   1      41.794  27.103  27.608  1.00  0.00     0.023 A 
ATOM     78  C   UNL A   1      41.577  25.718  27.536  1.00  0.00     0.031 A 
ATOM     79  C   UNL A   1      42.428  27.731  26.522  1.00  0.00     0.131 A 
ATOM     80  C   UNL A   1      42.020  24.999  26.417  1.00  0.00     0.055 A 
ATOM     81  C   UNL A   1      42.828  27.019  25.391  1.00  0.00     0.041 A 
ATOM     82  F   UNL A   1      42.657  29.054  26.543  1.00  0.00    -0.206 F 
ATOM     83  C   UNL A   1      42.632  25.642  25.337  1.00  0.00     0.022 A 
BRANCH  80  84
ATOM     84  S   UNL A   1      41.832  23.194  26.407  1.00  0.00     0.124 S 
ATOM     85  O   UNL A   1      40.380  23.047  26.460  1.00  0.00    -0.237 OA
ATOM     86  O   UNL A   1      42.466  22.831  25.142  1.00  0.00    -0.237 OA
ATOM     87  O   UNL A   1      42.547  22.769  27.603  1.00  0.00    -0.744 OA
ENDBRANCH  80  84
ENDBRANCH  53  77
BRANCH  65  88
ATOM     88  C   UNL A   1      44.378  27.495  34.069  1.00  0.00     0.023 A 
ATOM     89  C   UNL A   1      44.190  26.262  34.719  1.00  0.00     0.031 A 
ATOM     90  C   UNL A   1      45.668  28.059  34.089  1.00  0.00     0.131 A 
ATOM     91  C   UNL A   1      45.257  25.661  35.406  1.00  0.00     0.055 A 
ATOM     92  C   UNL A   1      46.738  27.429  34.727  1.00  0.00     0.041 A 
ATOM     93  F   UNL A   1      45.908  29.236  33.489  1.00  0.00    -0.206 F 
ATOM     94  C   UNL A   1      46.533  26.229  35.402  1.00  0.00     0.022 A 
BRANCH  91  95
ATOM     95  S   UNL A   1      44.937  24.167  36.387  1.00  0.00     0.124 S 
ATOM     96  O   UNL A   1      44.067  23.401  35.500  1.00  0.00    -0.237 OA
ATOM     97  O   UNL A   1      46.279  23.629  36.584  1.00  0.00    -0.237 OA
ATOM     98  O   UNL A   1      44.292  24.680  37.594  1.00  0.00    -0.744 OA
ENDBRANCH  91  95
ENDBRANCH  65  88
ENDBRANCH  39  40
ENDBRANCH  31  34
ENDBRANCH  29  30
ENDBRANCH   1  29
TORSDOF 15
ENDMDL
MODEL 2
REMARK VINA RESULT:     -13.4      3.157      4.714
REMARK SMILES CC1(C)[C@@]2(C(=O)NCCCNC(=O)c3ccc(-c4c5nc(c(-c6cc(S(=O)(=O)[O-])ccc6F)c6ccc([nH]6)c(-c6cc(S(=O)(=O)[O-])ccc6F)c6nc(c(-c7cc(S(=O)(=O)[O-])ccc7F)c7ccc4[nH]7)C=C6)C=C5)cc3)CC[C@]1(C)/C(=N/NC(=O)c1ccc(Cl)cc1)C2
REMARK SMILES IDX 9 1 8 2 7 3 5 4 6 5 4 7 1 8 2 9 3 10 79 11 77 12 93 13 78 14
REMARK SMILES IDX 80 15 81 16 82 17 83 18 84 19 85 21 86 22 87 23 92 24 88 25
REMARK SMILES IDX 91 26 89 27 90 28 10 29 11 30 12 31 13 33 14 34 15 35 76 36
REMARK SMILES IDX 16 37 75 38 17 39 18 40 19 41 69 42 20 43 74 44 68 45 70 46
REMARK SMILES IDX 21 47 73 48 67 49 66 50 22 52 54 53 34 54 53 55 35 56 38 57
REMARK SMILES IDX 52 58 71 59 36 60 37 61 51 63 72 64 39 65 23 66 24 67 32 68
REMARK SMILES IDX 25 69 31 70 33 71 30 72 26 73 27 74 28 75 29 76 55 77 56 78
REMARK SMILES IDX 64 79 57 80 63 81 65 82 62 83 58 84 59 85 60 86 61 87 40 88
REMARK SMILES IDX 41 89 49 90 42 91 48 92 50 93 47 94 43 95 44 96 45 97 46 98
REMARK H PARENT 7 6 83 20 11 32 70 51 38 62
REMARK Flexibility Score: inf
ROOT
ATOM      1  C   UNL A   1      31.831  27.658  27.291  1.00  0.00     0.042 C 
ENDROOT
BRANCH   1   2
ATOM      2  C   UNL A   1      31.120  26.795  26.235  1.00  0.00     0.117 C 
BRANCH   2   3
ATOM      3  N   UNL A   1      30.887  25.395  26.558  1.00  0.00    -0.356 N 
ATOM      4  C   UNL A   1      31.765  24.364  26.754  1.00  0.00     0.227 C 
ATOM      5  O   UNL A   1      31.460  23.564  27.641  1.00  0.00    -0.274 OA
ATOM      6  H   UNL A   1      29.938  25.148  26.650  1.00  0.00     0.163 HD
BRANCH   4   7
ATOM      7  C   UNL A   1      32.962  24.095  25.834  1.00  0.00     0.060 C 
ATOM      8  C   UNL A   1      34.216  22.307  27.259  1.00  0.00     0.013 C 
ATOM      9  C   UNL A   1      33.587  22.650  25.887  1.00  0.00    -0.010 C 
ATOM     10  C   UNL A   1      32.686  21.455  25.506  1.00  0.00     0.013 C 
ATOM     11  C   UNL A   1      34.614  22.979  24.760  1.00  0.00     0.014 C 
ATOM     12  C   UNL A   1      34.220  25.001  25.999  1.00  0.00     0.019 C 
ATOM     13  C   UNL A   1      32.518  24.219  24.355  1.00  0.00     0.071 C 
ATOM     14  C   UNL A   1      35.356  24.207  25.318  1.00  0.00     0.014 C 
ATOM     15  C   UNL A   1      35.524  21.866  24.282  1.00  0.00     0.018 C 
ATOM     16  C   UNL A   1      33.694  23.600  23.672  1.00  0.00     0.046 C 
ATOM     17  N   UNL A   1      34.100  23.630  22.448  1.00  0.00    -0.181 NA
BRANCH  17  18
ATOM     18  N   UNL A   1      33.613  24.202  21.320  1.00  0.00    -0.243 N 
ATOM     19  C   UNL A   1      32.935  25.318  20.886  1.00  0.00     0.271 C 
ATOM     20  H   UNL A   1      33.811  23.622  20.551  1.00  0.00     0.194 HD
ATOM     21  O   UNL A   1      32.679  25.422  19.683  1.00  0.00    -0.267 OA
BRANCH  19  22
ATOM     22  C   UNL A   1      32.446  26.390  21.743  1.00  0.00     0.041 A 
ATOM     23  C   UNL A   1      33.369  27.197  22.417  1.00  0.00     0.015 A 
ATOM     24  C   UNL A   1      31.084  26.511  22.006  1.00  0.00     0.015 A 
ATOM     25  C   UNL A   1      32.915  28.262  23.197  1.00  0.00     0.021 A 
ATOM     26  C   UNL A   1      30.637  27.599  22.756  1.00  0.00     0.021 A 
ATOM     27  C   UNL A   1      31.548  28.496  23.310  1.00  0.00     0.041 A 
ATOM     28  Cl  UNL A   1      30.982  29.914  24.099  1.00  0.00    -0.084 Cl
ENDBRANCH  19  22
ENDBRANCH  17  18
ENDBRANCH   4   7
ENDBRANCH   2   3
ENDBRANCH   1   2
BRANCH   1  29
ATOM     29  C   UNL A   1      33.267  28.127  26.998  1.00  0.00     0.118 C 
BRANCH  29  30
ATOM     30  N   UNL A   1      33.323  29.563  26.796  1.00  0.00    -0.352 N 
ATOM     31  C   UNL A   1      34.119  30.537  27.351  1.00  0.00     0.251 C 
ATOM     32  H   UNL A   1      32.671  29.903  26.141  1.00  0.00     0.163 HD
ATOM     33  O   UNL A   1      33.737  31.702  27.238  1.00  0.00    -0.269 OA
BRANCH  31  34
ATOM     34  C   UNL A   1      35.402  30.263  28.057  1.00  0.00     0.039 A 
ATOM     35  C   UNL A   1      36.588  30.376  27.315  1.00  0.00     0.014 A 
ATOM     36  C   UNL A   1      35.471  29.729  29.348  1.00  0.00     0.014 A 
ATOM     37  C   UNL A   1      37.815  29.947  27.842  1.00  0.00     0.010 A 
ATOM     38  C   UNL A   1      36.709  29.334  29.891  1.00  0.00     0.010 A 
ATOM     39  C   UNL A   1      37.892  29.410  29.134  1.00  0.00    -0.014 A 
BRANCH  39  40
ATOM     40  C   UNL A   1      39.190  28.872  29.651  1.00  0.00     0.031 A 
ATOM     41  C   UNL A   1      39.821  29.446  30.898  1.00  0.00     0.074 A 
ATOM     42  C   UNL A   1      39.808  27.851  29.021  1.00  0.00     0.049 A 
ATOM     43  N   UNL A   1      40.934  29.106  31.503  1.00  0.00    -0.248 NA
ATOM     44  C   UNL A   1      39.110  30.560  31.537  1.00  0.00     0.031 C 
ATOM     45  C   UNL A   1      39.320  27.192  27.811  1.00  0.00     0.029 A 
ATOM     46  N   UNL A   1      40.976  27.187  29.314  1.00  0.00    -0.354 N 
ATOM     47  C   UNL A   1      41.065  29.972  32.586  1.00  0.00     0.074 A 
ATOM     48  C   UNL A   1      39.939  30.883  32.519  1.00  0.00     0.031 C 
ATOM     49  C   UNL A   1      40.169  26.206  27.476  1.00  0.00     0.029 A 
ATOM     50  C   UNL A   1      41.280  26.182  28.426  1.00  0.00     0.049 A 
ATOM     51  H   UNL A   1      41.542  27.411  30.088  1.00  0.00     0.167 HD
ATOM     52  C   UNL A   1      42.020  30.001  33.553  1.00  0.00     0.034 A 
ATOM     53  C   UNL A   1      42.332  25.338  28.372  1.00  0.00     0.034 A 
ATOM     54  C   UNL A   1      43.138  29.086  33.622  1.00  0.00     0.049 A 
ATOM     55  C   UNL A   1      43.405  25.413  29.428  1.00  0.00     0.074 A 
ATOM     56  C   UNL A   1      44.125  29.000  34.591  1.00  0.00     0.029 A 
ATOM     57  N   UNL A   1      43.428  28.106  32.681  1.00  0.00    -0.354 N 
ATOM     58  N   UNL A   1      43.492  26.214  30.464  1.00  0.00    -0.248 NA
ATOM     59  C   UNL A   1      44.516  24.460  29.311  1.00  0.00     0.031 C 
ATOM     60  C   UNL A   1      45.047  28.021  34.200  1.00  0.00     0.029 A 
ATOM     61  C   UNL A   1      44.597  27.439  33.028  1.00  0.00     0.049 A 
ATOM     62  H   UNL A   1      42.884  27.913  31.885  1.00  0.00     0.167 HD
ATOM     63  C   UNL A   1      44.649  25.836  31.140  1.00  0.00     0.074 A 
ATOM     64  C   UNL A   1      45.223  24.733  30.398  1.00  0.00     0.031 C 
ATOM     65  C   UNL A   1      45.180  26.348  32.280  1.00  0.00     0.034 A 
BRANCH  52  66
ATOM     66  C   UNL A   1      41.916  31.095  34.596  1.00  0.00     0.023 A 
ATOM     67  C   UNL A   1      40.874  31.123  35.540  1.00  0.00     0.031 A 
ATOM     68  C   UNL A   1      42.845  32.150  34.617  1.00  0.00     0.131 A 
ATOM     69  C   UNL A   1      40.730  32.227  36.394  1.00  0.00     0.055 A 
ATOM     70  C   UNL A   1      42.749  33.202  35.532  1.00  0.00     0.041 A 
ATOM     71  F   UNL A   1      43.856  32.190  33.734  1.00  0.00    -0.206 F 
ATOM     72  C   UNL A   1      41.674  33.256  36.414  1.00  0.00     0.022 A 
BRANCH  69  73
ATOM     73  S   UNL A   1      39.196  32.384  37.351  1.00  0.00     0.124 S 
ATOM     74  O   UNL A   1      38.520  31.128  37.032  1.00  0.00    -0.237 OA
ATOM     75  O   UNL A   1      39.685  32.522  38.714  1.00  0.00    -0.237 OA
ATOM     76  O   UNL A   1      38.563  33.579  36.789  1.00  0.00    -0.744 OA
ENDBRANCH  69  73
ENDBRANCH  52  66
BRANCH  53  77
ATOM     77  C   UNL A   1      42.432  24.339  27.270  1.00  0.00     0.023 A 
ATOM     78  C   UNL A   1      41.808  23.085  27.371  1.00  0.00     0.031 A 
ATOM     79  C   UNL A   1      43.179  24.615  26.111  1.00  0.00     0.131 A 
ATOM     80  C   UNL A   1      41.969  22.140  26.348  1.00  0.00     0.055 A 
ATOM     81  C   UNL A   1      43.300  23.687  25.075  1.00  0.00     0.041 A 
ATOM     82  F   UNL A   1      43.792  25.800  25.966  1.00  0.00    -0.206 F 
ATOM     83  C   UNL A   1      42.700  22.438  25.194  1.00  0.00     0.022 A 
BRANCH  80  84
ATOM     84  S   UNL A   1      41.251  20.488  26.563  1.00  0.00     0.124 S 
ATOM     85  O   UNL A   1      39.828  20.755  26.365  1.00  0.00    -0.237 OA
ATOM     86  O   UNL A   1      41.913  19.730  25.506  1.00  0.00    -0.237 OA
ATOM     87  O   UNL A   1      41.633  20.123  27.921  1.00  0.00    -0.744 OA
ENDBRANCH  80  84
ENDBRANCH  53  77
BRANCH  65  88
ATOM     88  C   UNL A   1      46.423  25.682  32.823  1.00  0.00     0.023 A 
ATOM     89  C   UNL A   1      47.703  25.951  32.304  1.00  0.00     0.031 A 
ATOM     90  C   UNL A   1      46.321  24.745  33.867  1.00  0.00     0.131 A 
ATOM     91  C   UNL A   1      48.819  25.252  32.791  1.00  0.00     0.055 A 
ATOM     92  C   UNL A   1      47.442  24.093  34.386  1.00  0.00     0.041 A 
ATOM     93  F   UNL A   1      45.126  24.444  34.401  1.00  0.00    -0.206 F 
ATOM     94  C   UNL A   1      48.698  24.336  33.839  1.00  0.00     0.022 A 
BRANCH  91  95
ATOM     95  S   UNL A   1      50.424  25.487  31.977  1.00  0.00     0.124 S 
ATOM     96  O   UNL A   1      51.266  25.928  33.085  1.00  0.00    -0.237 OA
ATOM     97  O   UNL A   1      50.706  24.155  31.453  1.00  0.00    -0.237 OA
ATOM     98  O   UNL A   1      50.151  26.505  30.965  1.00  0.00    -0.744 OA
ENDBRANCH  91  95
ENDBRANCH  65  88
ENDBRANCH  39  40
ENDBRANCH  31  34
ENDBRANCH  29  30
ENDBRANCH   1  29
TORSDOF 15
ENDMDL
MODEL 3
REMARK VINA RESULT:     -13.2      5.053      8.454
REMARK SMILES CC1(C)[C@@]2(C(=O)NCCCNC(=O)c3ccc(-c4c5nc(c(-c6cc(S(=O)(=O)[O-])ccc6F)c6ccc([nH]6)c(-c6cc(S(=O)(=O)[O-])ccc6F)c6nc(c(-c7cc(S(=O)(=O)[O-])ccc7F)c7ccc4[nH]7)C=C6)C=C5)cc3)CC[C@]1(C)/C(=N/NC(=O)c1ccc(Cl)cc1)C2
REMARK SMILES IDX 9 1 8 2 7 3 5 4 6 5 4 7 1 8 2 9 3 10 79 11 77 12 93 13 78 14
REMARK SMILES IDX 80 15 81 16 82 17 83 18 84 19 85 21 86 22 87 23 92 24 88 25
REMARK SMILES IDX 91 26 89 27 90 28 10 29 11 30 12 31 13 33 14 34 15 35 76 36
REMARK SMILES IDX 16 37 75 38 17 39 18 40 19 41 69 42 20 43 74 44 68 45 70 46
REMARK SMILES IDX 21 47 73 48 67 49 66 50 22 52 54 53 34 54 53 55 35 56 38 57
REMARK SMILES IDX 52 58 71 59 36 60 37 61 51 63 72 64 39 65 23 66 24 67 32 68
REMARK SMILES IDX 25 69 31 70 33 71 30 72 26 73 27 74 28 75 29 76 55 77 56 78
REMARK SMILES IDX 64 79 57 80 63 81 65 82 62 83 58 84 59 85 60 86 61 87 40 88
REMARK SMILES IDX 41 89 49 90 42 91 48 92 50 93 47 94 43 95 44 96 45 97 46 98
REMARK H PARENT 7 6 83 20 11 32 70 51 38 62
REMARK Flexibility Score: inf
ROOT
ATOM      1  C   UNL A   1      35.618  21.952  25.558  1.00  0.00     0.042 C 
ENDROOT
BRANCH   1   2
ATOM      2  C   UNL A   1      35.387  23.343  26.171  1.00  0.00     0.117 C 
BRANCH   2   3
ATOM      3  N   UNL A   1      34.027  23.687  26.565  1.00  0.00    -0.356 N 
ATOM      4  C   UNL A   1      32.904  23.894  25.811  1.00  0.00     0.227 C 
ATOM      5  O   UNL A   1      31.851  23.474  26.297  1.00  0.00    -0.274 OA
ATOM      6  H   UNL A   1      33.894  23.786  27.535  1.00  0.00     0.163 HD
BRANCH   4   7
ATOM      7  C   UNL A   1      32.895  24.741  24.534  1.00  0.00     0.060 C 
ATOM      8  C   UNL A   1      33.454  22.895  22.779  1.00  0.00     0.013 C 
ATOM      9  C   UNL A   1      32.472  24.014  23.202  1.00  0.00    -0.010 C 
ATOM     10  C   UNL A   1      31.055  23.405  23.127  1.00  0.00     0.013 C 
ATOM     11  C   UNL A   1      32.579  25.329  22.370  1.00  0.00     0.014 C 
ATOM     12  C   UNL A   1      34.227  25.437  24.117  1.00  0.00     0.019 C 
ATOM     13  C   UNL A   1      31.832  25.861  24.662  1.00  0.00     0.071 C 
ATOM     14  C   UNL A   1      34.028  25.780  22.624  1.00  0.00     0.014 C 
ATOM     15  C   UNL A   1      32.191  25.276  20.906  1.00  0.00     0.018 C 
ATOM     16  C   UNL A   1      31.755  26.317  23.241  1.00  0.00     0.046 C 
ATOM     17  N   UNL A   1      31.279  27.386  22.698  1.00  0.00    -0.181 NA
BRANCH  17  18
ATOM     18  N   UNL A   1      30.651  28.480  23.194  1.00  0.00    -0.243 N 
ATOM     19  C   UNL A   1      30.797  29.469  24.141  1.00  0.00     0.271 C 
ATOM     20  H   UNL A   1      29.803  28.613  22.714  1.00  0.00     0.194 HD
ATOM     21  O   UNL A   1      29.906  30.313  24.254  1.00  0.00    -0.267 OA
BRANCH  19  22
ATOM     22  C   UNL A   1      31.917  29.585  25.067  1.00  0.00     0.041 A 
ATOM     23  C   UNL A   1      31.768  30.360  26.221  1.00  0.00     0.015 A 
ATOM     24  C   UNL A   1      33.161  29.059  24.731  1.00  0.00     0.015 A 
ATOM     25  C   UNL A   1      32.813  30.435  27.144  1.00  0.00     0.021 A 
ATOM     26  C   UNL A   1      34.189  29.106  25.673  1.00  0.00     0.021 A 
ATOM     27  C   UNL A   1      33.999  29.752  26.893  1.00  0.00     0.041 A 
ATOM     28  Cl  UNL A   1      35.216  29.670  28.103  1.00  0.00    -0.084 Cl
ENDBRANCH  19  22
ENDBRANCH  17  18
ENDBRANCH   4   7
ENDBRANCH   2   3
ENDBRANCH   1   2
BRANCH   1  29
ATOM     29  C   UNL A   1      36.889  21.730  24.720  1.00  0.00     0.118 C 
BRANCH  29  30
ATOM     30  N   UNL A   1      37.754  20.734  25.326  1.00  0.00    -0.352 N 
ATOM     31  C   UNL A   1      38.968  20.838  25.960  1.00  0.00     0.251 C 
ATOM     32  H   UNL A   1      37.406  19.814  25.272  1.00  0.00     0.163 HD
ATOM     33  O   UNL A   1      39.622  19.802  26.090  1.00  0.00    -0.269 OA
BRANCH  31  34
ATOM     34  C   UNL A   1      39.521  22.112  26.502  1.00  0.00     0.039 A 
ATOM     35  C   UNL A   1      39.008  23.312  25.987  1.00  0.00     0.014 A 
ATOM     36  C   UNL A   1      40.635  22.169  27.345  1.00  0.00     0.014 A 
ATOM     37  C   UNL A   1      39.605  24.544  26.293  1.00  0.00     0.010 A 
ATOM     38  C   UNL A   1      41.211  23.410  27.683  1.00  0.00     0.010 A 
ATOM     39  C   UNL A   1      40.722  24.611  27.136  1.00  0.00    -0.014 A 
BRANCH  39  40
ATOM     40  C   UNL A   1      41.405  25.920  27.382  1.00  0.00     0.031 A 
ATOM     41  C   UNL A   1      40.730  27.002  28.191  1.00  0.00     0.074 A 
ATOM     42  C   UNL A   1      42.644  26.146  26.900  1.00  0.00     0.049 A 
ATOM     43  N   UNL A   1      41.165  28.195  28.518  1.00  0.00    -0.248 NA
ATOM     44  C   UNL A   1      39.379  26.704  28.683  1.00  0.00     0.031 C 
ATOM     45  C   UNL A   1      43.424  25.198  26.106  1.00  0.00     0.029 A 
ATOM     46  N   UNL A   1      43.467  27.243  27.011  1.00  0.00    -0.354 N 
ATOM     47  C   UNL A   1      40.139  28.797  29.241  1.00  0.00     0.074 A 
ATOM     48  C   UNL A   1      39.042  27.849  29.259  1.00  0.00     0.031 C 
ATOM     49  C   UNL A   1      44.618  25.744  25.820  1.00  0.00     0.029 A 
ATOM     50  C   UNL A   1      44.679  27.093  26.378  1.00  0.00     0.049 A 
ATOM     51  H   UNL A   1      43.212  28.059  27.498  1.00  0.00     0.167 HD
ATOM     52  C   UNL A   1      40.112  30.014  29.847  1.00  0.00     0.034 A 
ATOM     53  C   UNL A   1      45.722  27.940  26.253  1.00  0.00     0.034 A 
ATOM     54  C   UNL A   1      41.211  30.954  29.835  1.00  0.00     0.049 A 
ATOM     55  C   UNL A   1      45.658  29.303  26.894  1.00  0.00     0.074 A 
ATOM     56  C   UNL A   1      41.300  32.186  30.464  1.00  0.00     0.029 A 
ATOM     57  N   UNL A   1      42.407  30.778  29.151  1.00  0.00    -0.354 N 
ATOM     58  N   UNL A   1      44.694  29.840  27.605  1.00  0.00    -0.248 NA
ATOM     59  C   UNL A   1      46.832  30.170  26.723  1.00  0.00     0.031 C 
ATOM     60  C   UNL A   1      42.515  32.782  30.103  1.00  0.00     0.029 A 
ATOM     61  C   UNL A   1      43.222  31.892  29.312  1.00  0.00     0.049 A 
ATOM     62  H   UNL A   1      42.643  29.978  28.628  1.00  0.00     0.167 HD
ATOM     63  C   UNL A   1      45.161  31.092  27.994  1.00  0.00     0.074 A 
ATOM     64  C   UNL A   1      46.493  31.230  27.444  1.00  0.00     0.031 C 
ATOM     65  C   UNL A   1      44.545  32.038  28.751  1.00  0.00     0.034 A 
BRANCH  52  66
ATOM     66  C   UNL A   1      38.826  30.414  30.541  1.00  0.00     0.023 A 
ATOM     67  C   UNL A   1      37.865  31.226  29.913  1.00  0.00     0.031 A 
ATOM     68  C   UNL A   1      38.579  30.015  31.868  1.00  0.00     0.131 A 
ATOM     69  C   UNL A   1      36.759  31.692  30.638  1.00  0.00     0.055 A 
ATOM     70  C   UNL A   1      37.428  30.409  32.555  1.00  0.00     0.041 A 
ATOM     71  F   UNL A   1      39.462  29.250  32.529  1.00  0.00    -0.206 F 
ATOM     72  C   UNL A   1      36.519  31.270  31.947  1.00  0.00     0.022 A 
BRANCH  69  73
ATOM     73  S   UNL A   1      35.734  32.998  29.904  1.00  0.00     0.124 S 
ATOM     74  O   UNL A   1      35.994  34.119  30.806  1.00  0.00    -0.237 OA
ATOM     75  O   UNL A   1      36.282  33.114  28.562  1.00  0.00    -0.237 OA
ATOM     76  O   UNL A   1      34.377  32.453  29.983  1.00  0.00    -0.744 OA
ENDBRANCH  69  73
ENDBRANCH  52  66
BRANCH  53  77
ATOM     77  C   UNL A   1      46.929  27.530  25.481  1.00  0.00     0.023 A 
ATOM     78  C   UNL A   1      47.070  27.867  24.125  1.00  0.00     0.031 A 
ATOM     79  C   UNL A   1      47.947  26.769  26.082  1.00  0.00     0.131 A 
ATOM     80  C   UNL A   1      48.186  27.416  23.405  1.00  0.00     0.055 A 
ATOM     81  C   UNL A   1      49.077  26.359  25.374  1.00  0.00     0.041 A 
ATOM     82  F   UNL A   1      47.859  26.422  27.376  1.00  0.00    -0.206 F 
ATOM     83  C   UNL A   1      49.198  26.676  24.024  1.00  0.00     0.022 A 
BRANCH  80  84
ATOM     84  S   UNL A   1      48.279  27.766  21.628  1.00  0.00     0.124 S 
ATOM     85  O   UNL A   1      49.374  28.732  21.573  1.00  0.00    -0.237 OA
ATOM     86  O   UNL A   1      48.562  26.446  21.073  1.00  0.00    -0.237 OA
ATOM     87  O   UNL A   1      46.960  28.301  21.314  1.00  0.00    -0.744 OA
ENDBRANCH  80  84
ENDBRANCH  53  77
BRANCH  65  88
ATOM     88  C   UNL A   1      45.333  33.286  29.070  1.00  0.00     0.023 A 
ATOM     89  C   UNL A   1      45.285  34.431  28.253  1.00  0.00     0.031 A 
ATOM     90  C   UNL A   1      46.164  33.323  30.205  1.00  0.00     0.131 A 
ATOM     91  C   UNL A   1      46.092  35.540  28.552  1.00  0.00     0.055 A 
ATOM     92  C   UNL A   1      46.923  34.451  30.528  1.00  0.00     0.041 A 
ATOM     93  F   UNL A   1      46.255  32.261  31.021  1.00  0.00    -0.206 F 
ATOM     94  C   UNL A   1      46.900  35.563  29.691  1.00  0.00     0.022 A 
BRANCH  91  95
ATOM     95  S   UNL A   1      46.145  36.925  27.380  1.00  0.00     0.124 S 
ATOM     96  O   UNL A   1      44.729  37.141  27.099  1.00  0.00    -0.237 OA
ATOM     97  O   UNL A   1      46.807  37.968  28.158  1.00  0.00    -0.237 OA
ATOM     98  O   UNL A   1      46.924  36.400  26.261  1.00  0.00    -0.744 OA
ENDBRANCH  91  95
ENDBRANCH  65  88
ENDBRANCH  39  40
ENDBRANCH  31  34
ENDBRANCH  29  30
ENDBRANCH   1  29
TORSDOF 15
ENDMDL
