MODEL 1
REMARK VINA RESULT:     -13.1      0.000      0.000
REMARK SMILES O=C(NCCCNC(=O)[C@H](c1cnn(Cc2ccccc2)c1)[NH+]1CCOCC1)c1ccc(-c2c3nc(c(-c4cc(S(=O)(=O)[O-])ccc4F)c4ccc([nH]4)c(-c4cc(S(=O)(=O)[O-])ccc4F)c4nc(c(-c5cc(S(=O)(=O)[O-])ccc5F)c5ccc2[nH]5)C=C4)C=C3)cc1
REMARK SMILES IDX 5 1 4 2 3 3 1 4 2 5 29 7 30 8 91 9 31 10 90 11 32 12 33 13
REMARK SMILES IDX 34 14 84 15 35 16 89 17 83 18 85 19 36 20 88 21 82 22 81 23
REMARK SMILES IDX 37 25 69 26 49 27 68 28 50 29 53 30 67 31 86 32 51 33 52 34
REMARK SMILES IDX 66 36 87 37 54 38 38 39 39 40 47 41 40 42 46 43 48 44 45 45
REMARK SMILES IDX 41 46 42 47 43 48 44 49 70 50 71 51 79 52 72 53 78 54 80 55
REMARK SMILES IDX 77 56 73 57 74 58 75 59 76 60 55 61 56 62 64 63 57 64 63 65
REMARK SMILES IDX 65 66 62 67 58 68 59 69 60 70 61 71 6 72 7 73 8 74 9 76
REMARK SMILES IDX 10 77 23 78 24 79 28 80 25 82 27 83 26 84 11 85 12 86 22 87
REMARK SMILES IDX 13 88 14 89 15 90 16 91 17 92 21 93 18 94 20 95 19 96
REMARK H PARENT 3 6 85 24 53 35 7 75 23 81
REMARK Flexibility Score: inf
ROOT
ATOM      1  C   UNL A   1      32.626  29.269  27.224  1.00  0.00     0.042 C 
ENDROOT
BRANCH   1   2
ATOM      2  C   UNL A   1      33.777  30.250  27.070  1.00  0.00     0.118 C 
BRANCH   2   3
ATOM      3  N   UNL A   1      33.874  31.257  28.105  1.00  0.00    -0.352 N 
ATOM      4  O   UNL A   1      34.597  32.771  29.524  1.00  0.00    -0.269 OA
ATOM      5  C   UNL A   1      34.875  31.740  28.903  1.00  0.00     0.251 C 
ATOM      6  H   UNL A   1      33.012  31.701  28.277  1.00  0.00     0.163 HD
BRANCH   5   7
ATOM      7  C   UNL A   1      36.213  31.112  29.114  1.00  0.00     0.039 A 
ATOM      8  C   UNL A   1      37.437  31.777  29.188  1.00  0.00     0.014 A 
ATOM      9  C   UNL A   1      36.215  29.706  29.211  1.00  0.00     0.014 A 
ATOM     10  C   UNL A   1      38.631  31.054  29.279  1.00  0.00     0.010 A 
ATOM     11  C   UNL A   1      37.401  28.983  29.321  1.00  0.00     0.010 A 
ATOM     12  C   UNL A   1      38.619  29.655  29.325  1.00  0.00    -0.014 A 
BRANCH  12  13
ATOM     13  C   UNL A   1      39.881  28.940  29.558  1.00  0.00     0.031 A 
ATOM     14  C   UNL A   1      40.254  28.782  30.998  1.00  0.00     0.074 A 
ATOM     15  C   UNL A   1      40.593  28.299  28.605  1.00  0.00     0.049 A 
ATOM     16  N   UNL A   1      41.325  29.183  31.603  1.00  0.00    -0.248 NA
ATOM     17  C   UNL A   1      39.260  28.176  31.899  1.00  0.00     0.031 C 
ATOM     18  C   UNL A   1      40.241  28.091  27.199  1.00  0.00     0.029 A 
ATOM     19  N   UNL A   1      41.763  27.602  28.730  1.00  0.00    -0.354 N 
ATOM     20  C   UNL A   1      41.231  28.727  32.918  1.00  0.00     0.074 A 
ATOM     21  C   UNL A   1      39.889  28.233  33.073  1.00  0.00     0.031 C 
ATOM     22  C   UNL A   1      41.058  27.154  26.664  1.00  0.00     0.029 A 
ATOM     23  C   UNL A   1      42.075  26.794  27.639  1.00  0.00     0.049 A 
ATOM     24  H   UNL A   1      42.339  27.667  29.526  1.00  0.00     0.167 HD
ATOM     25  C   UNL A   1      42.317  28.644  33.740  1.00  0.00     0.034 A 
ATOM     26  C   UNL A   1      43.066  25.863  27.551  1.00  0.00     0.034 A 
ATOM     27  C   UNL A   1      43.398  29.472  33.266  1.00  0.00     0.049 A 
ATOM     28  C   UNL A   1      44.077  26.201  28.579  1.00  0.00     0.074 A 
ATOM     29  C   UNL A   1      43.543  30.827  33.037  1.00  0.00     0.029 A 
ATOM     30  N   UNL A   1      44.439  28.880  32.591  1.00  0.00    -0.354 N 
ATOM     31  N   UNL A   1      44.801  27.285  28.544  1.00  0.00    -0.248 NA
ATOM     32  C   UNL A   1      43.961  25.577  29.888  1.00  0.00     0.031 C 
ATOM     33  C   UNL A   1      44.300  30.913  31.831  1.00  0.00     0.029 A 
ATOM     34  C   UNL A   1      44.635  29.614  31.445  1.00  0.00     0.049 A 
ATOM     35  H   UNL A   1      44.944  28.084  32.873  1.00  0.00     0.167 HD
ATOM     36  C   UNL A   1      44.860  27.720  29.858  1.00  0.00     0.074 A 
ATOM     37  C   UNL A   1      44.408  26.578  30.651  1.00  0.00     0.031 C 
ATOM     38  C   UNL A   1      45.007  29.042  30.164  1.00  0.00     0.034 A 
BRANCH  25  39
ATOM     39  C   UNL A   1      42.506  27.612  34.829  1.00  0.00     0.023 A 
ATOM     40  C   UNL A   1      43.248  26.449  34.533  1.00  0.00     0.031 A 
ATOM     41  C   UNL A   1      41.779  27.582  36.042  1.00  0.00     0.131 A 
ATOM     42  C   UNL A   1      43.196  25.322  35.375  1.00  0.00     0.055 A 
ATOM     43  C   UNL A   1      41.783  26.483  36.907  1.00  0.00     0.041 A 
ATOM     44  F   UNL A   1      40.954  28.568  36.410  1.00  0.00    -0.206 F 
ATOM     45  C   UNL A   1      42.473  25.334  36.564  1.00  0.00     0.022 A 
BRANCH  42  46
ATOM     46  S   UNL A   1      43.954  23.773  34.808  1.00  0.00     0.124 S 
ATOM     47  O   UNL A   1      42.791  23.023  34.345  1.00  0.00    -0.237 OA
ATOM     48  O   UNL A   1      44.869  24.245  33.776  1.00  0.00    -0.237 OA
ATOM     49  O   UNL A   1      44.592  23.248  36.013  1.00  0.00    -0.744 OA
ENDBRANCH  42  46
ENDBRANCH  25  39
BRANCH  26  50
ATOM     50  C   UNL A   1      43.006  24.531  26.879  1.00  0.00     0.023 A 
ATOM     51  C   UNL A   1      43.999  24.059  25.991  1.00  0.00     0.031 A 
ATOM     52  C   UNL A   1      42.054  23.586  27.323  1.00  0.00     0.131 A 
ATOM     53  C   UNL A   1      44.005  22.702  25.582  1.00  0.00     0.055 A 
ATOM     54  C   UNL A   1      42.066  22.249  26.917  1.00  0.00     0.041 A 
ATOM     55  F   UNL A   1      41.131  23.909  28.241  1.00  0.00    -0.206 F 
ATOM     56  C   UNL A   1      43.047  21.800  26.049  1.00  0.00     0.022 A 
BRANCH  53  57
ATOM     57  S   UNL A   1      45.324  22.057  24.496  1.00  0.00     0.124 S 
ATOM     58  O   UNL A   1      46.392  21.758  25.449  1.00  0.00    -0.237 OA
ATOM     59  O   UNL A   1      44.682  20.916  23.862  1.00  0.00    -0.237 OA
ATOM     60  O   UNL A   1      45.605  23.179  23.597  1.00  0.00    -0.744 OA
ENDBRANCH  53  57
ENDBRANCH  26  50
BRANCH  38  61
ATOM     61  C   UNL A   1      45.358  30.011  29.048  1.00  0.00     0.023 A 
ATOM     62  C   UNL A   1      46.675  30.344  28.652  1.00  0.00     0.031 A 
ATOM     63  C   UNL A   1      44.301  30.525  28.276  1.00  0.00     0.131 A 
ATOM     64  C   UNL A   1      46.889  31.174  27.532  1.00  0.00     0.055 A 
ATOM     65  C   UNL A   1      44.517  31.325  27.155  1.00  0.00     0.041 A 
ATOM     66  F   UNL A   1      43.027  30.226  28.582  1.00  0.00    -0.206 F 
ATOM     67  C   UNL A   1      45.813  31.658  26.782  1.00  0.00     0.022 A 
BRANCH  64  68
ATOM     68  S   UNL A   1      48.577  31.650  27.034  1.00  0.00     0.124 S 
ATOM     69  O   UNL A   1      49.200  32.064  28.286  1.00  0.00    -0.237 OA
ATOM     70  O   UNL A   1      49.090  30.420  26.438  1.00  0.00    -0.237 OA
ATOM     71  O   UNL A   1      48.355  32.738  26.078  1.00  0.00    -0.744 OA
ENDBRANCH  64  68
ENDBRANCH  38  61
ENDBRANCH  12  13
ENDBRANCH   5   7
ENDBRANCH   2   3
ENDBRANCH   1   2
BRANCH   1  72
ATOM     72  C   UNL A   1      32.858  27.887  26.636  1.00  0.00     0.118 C 
BRANCH  72  73
ATOM     73  N   UNL A   1      31.890  26.869  27.000  1.00  0.00    -0.351 N 
ATOM     74  C   UNL A   1      31.367  25.858  26.233  1.00  0.00     0.283 C 
ATOM     75  H   UNL A   1      31.564  26.908  27.928  1.00  0.00     0.163 HD
ATOM     76  O   UNL A   1      30.623  25.054  26.813  1.00  0.00    -0.268 OA
BRANCH  74  77
ATOM     77  C   UNL A   1      31.619  25.717  24.693  1.00  0.00     0.308 C 
BRANCH  77  78
ATOM     78  N   UNL A   1      31.474  24.318  24.193  1.00  0.00    -0.317 N 
ATOM     79  C   UNL A   1      32.425  23.342  24.779  1.00  0.00     0.292 C 
ATOM     80  C   UNL A   1      31.634  24.231  22.718  1.00  0.00     0.292 C 
ATOM     81  H   UNL A   1      30.528  24.072  24.486  1.00  0.00     0.349 HD
ATOM     82  C   UNL A   1      33.871  23.475  24.288  1.00  0.00     0.221 C 
ATOM     83  C   UNL A   1      33.098  24.310  22.227  1.00  0.00     0.221 C 
ATOM     84  O   UNL A   1      33.940  23.343  22.867  1.00  0.00    -0.370 OA
ENDBRANCH  77  78
BRANCH  77  85
ATOM     85  C   UNL A   1      30.754  26.694  23.910  1.00  0.00     0.057 A 
ATOM     86  C   UNL A   1      31.150  27.631  22.928  1.00  0.00     0.145 A 
ATOM     87  C   UNL A   1      29.374  26.889  23.965  1.00  0.00     0.119 A 
ATOM     88  N   UNL A   1      30.129  28.187  22.292  1.00  0.00    -0.181 NA
ATOM     89  N   UNL A   1      29.078  27.882  23.062  1.00  0.00    -0.268 N 
BRANCH  89  90
ATOM     90  C   UNL A   1      27.807  28.555  22.799  1.00  0.00     0.179 C 
BRANCH  90  91
ATOM     91  C   UNL A   1      27.979  30.031  22.483  1.00  0.00    -0.027 A 
ATOM     92  C   UNL A   1      28.118  30.973  23.511  1.00  0.00     0.005 A 
ATOM     93  C   UNL A   1      27.999  30.496  21.154  1.00  0.00     0.005 A 
ATOM     94  C   UNL A   1      28.315  32.327  23.214  1.00  0.00     0.000 A 
ATOM     95  C   UNL A   1      28.221  31.841  20.858  1.00  0.00     0.000 A 
ATOM     96  C   UNL A   1      28.381  32.757  21.890  1.00  0.00     0.000 A 
ENDBRANCH  90  91
ENDBRANCH  89  90
ENDBRANCH  77  85
ENDBRANCH  74  77
ENDBRANCH  72  73
ENDBRANCH   1  72
TORSDOF 17
ENDMDL
MODEL 2
REMARK VINA RESULT:     -13.0      2.864      8.159
REMARK SMILES O=C(NCCCNC(=O)[C@H](c1cnn(Cc2ccccc2)c1)[NH+]1CCOCC1)c1ccc(-c2c3nc(c(-c4cc(S(=O)(=O)[O-])ccc4F)c4ccc([nH]4)c(-c4cc(S(=O)(=O)[O-])ccc4F)c4nc(c(-c5cc(S(=O)(=O)[O-])ccc5F)c5ccc2[nH]5)C=C4)C=C3)cc1
REMARK SMILES IDX 5 1 4 2 3 3 1 4 2 5 29 7 30 8 91 9 31 10 90 11 32 12 33 13
REMARK SMILES IDX 34 14 84 15 35 16 89 17 83 18 85 19 36 20 88 21 82 22 81 23
REMARK SMILES IDX 37 25 69 26 49 27 68 28 50 29 53 30 67 31 86 32 51 33 52 34
REMARK SMILES IDX 66 36 87 37 54 38 38 39 39 40 47 41 40 42 46 43 48 44 45 45
REMARK SMILES IDX 41 46 42 47 43 48 44 49 70 50 71 51 79 52 72 53 78 54 80 55
REMARK SMILES IDX 77 56 73 57 74 58 75 59 76 60 55 61 56 62 64 63 57 64 63 65
REMARK SMILES IDX 65 66 62 67 58 68 59 69 60 70 61 71 6 72 7 73 8 74 9 76
REMARK SMILES IDX 10 77 23 78 24 79 28 80 25 82 27 83 26 84 11 85 12 86 22 87
REMARK SMILES IDX 13 88 14 89 15 90 16 91 17 92 21 93 18 94 20 95 19 96
REMARK H PARENT 3 6 85 24 53 35 7 75 23 81
REMARK Flexibility Score: inf
ROOT
ATOM      1  C   UNL A   1      33.427  28.811  26.826  1.00  0.00     0.042 C 
ENDROOT
BRANCH   1   2
ATOM      2  C   UNL A   1      34.886  28.973  27.221  1.00  0.00     0.118 C 
BRANCH   2   3
ATOM      3  N   UNL A   1      35.111  29.524  28.541  1.00  0.00    -0.352 N 
ATOM      4  O   UNL A   1      35.979  30.507  30.304  1.00  0.00    -0.269 OA
ATOM      5  C   UNL A   1      36.212  29.847  29.286  1.00  0.00     0.251 C 
ATOM      6  H   UNL A   1      34.270  29.711  29.017  1.00  0.00     0.163 HD
BRANCH   5   7
ATOM      7  C   UNL A   1      37.619  29.437  29.003  1.00  0.00     0.039 A 
ATOM      8  C   UNL A   1      38.340  29.702  27.838  1.00  0.00     0.014 A 
ATOM      9  C   UNL A   1      38.246  28.680  30.013  1.00  0.00     0.014 A 
ATOM     10  C   UNL A   1      39.619  29.163  27.658  1.00  0.00     0.010 A 
ATOM     11  C   UNL A   1      39.527  28.157  29.846  1.00  0.00     0.010 A 
ATOM     12  C   UNL A   1      40.208  28.372  28.652  1.00  0.00    -0.014 A 
BRANCH  12  13
ATOM     13  C   UNL A   1      41.601  27.939  28.484  1.00  0.00     0.031 A 
ATOM     14  C   UNL A   1      41.768  26.628  27.783  1.00  0.00     0.074 A 
ATOM     15  C   UNL A   1      42.685  28.699  28.756  1.00  0.00     0.049 A 
ATOM     16  N   UNL A   1      42.351  25.554  28.207  1.00  0.00    -0.248 NA
ATOM     17  C   UNL A   1      41.123  26.469  26.470  1.00  0.00     0.031 C 
ATOM     18  C   UNL A   1      42.724  30.103  29.169  1.00  0.00     0.029 A 
ATOM     19  N   UNL A   1      44.009  28.386  28.621  1.00  0.00    -0.354 N 
ATOM     20  C   UNL A   1      42.307  24.638  27.156  1.00  0.00     0.074 A 
ATOM     21  C   UNL A   1      41.429  25.207  26.168  1.00  0.00     0.031 C 
ATOM     22  C   UNL A   1      43.987  30.574  29.043  1.00  0.00     0.029 A 
ATOM     23  C   UNL A   1      44.871  29.479  28.676  1.00  0.00     0.049 A 
ATOM     24  H   UNL A   1      44.328  27.462  28.495  1.00  0.00     0.167 HD
ATOM     25  C   UNL A   1      43.125  23.547  27.105  1.00  0.00     0.034 A 
ATOM     26  C   UNL A   1      46.205  29.501  28.397  1.00  0.00     0.034 A 
ATOM     27  C   UNL A   1      43.658  23.231  28.407  1.00  0.00     0.049 A 
ATOM     28  C   UNL A   1      46.704  28.113  28.536  1.00  0.00     0.074 A 
ATOM     29  C   UNL A   1      43.094  22.883  29.620  1.00  0.00     0.029 A 
ATOM     30  N   UNL A   1      44.946  23.610  28.705  1.00  0.00    -0.354 N 
ATOM     31  N   UNL A   1      46.734  27.472  29.671  1.00  0.00    -0.248 NA
ATOM     32  C   UNL A   1      46.732  27.272  27.350  1.00  0.00     0.031 C 
ATOM     33  C   UNL A   1      43.868  23.580  30.594  1.00  0.00     0.029 A 
ATOM     34  C   UNL A   1      44.899  24.242  29.925  1.00  0.00     0.049 A 
ATOM     35  H   UNL A   1      45.746  23.458  28.151  1.00  0.00     0.167 HD
ATOM     36  C   UNL A   1      46.345  26.179  29.364  1.00  0.00     0.074 A 
ATOM     37  C   UNL A   1      46.452  26.091  27.908  1.00  0.00     0.031 C 
ATOM     38  C   UNL A   1      45.715  25.388  30.281  1.00  0.00     0.034 A 
BRANCH  25  39
ATOM     39  C   UNL A   1      43.660  22.919  25.838  1.00  0.00     0.023 A 
ATOM     40  C   UNL A   1      43.622  21.515  25.714  1.00  0.00     0.031 A 
ATOM     41  C   UNL A   1      44.441  23.597  24.873  1.00  0.00     0.131 A 
ATOM     42  C   UNL A   1      44.377  20.852  24.727  1.00  0.00     0.055 A 
ATOM     43  C   UNL A   1      45.137  22.939  23.854  1.00  0.00     0.041 A 
ATOM     44  F   UNL A   1      44.652  24.918  24.918  1.00  0.00    -0.206 F 
ATOM     45  C   UNL A   1      45.129  21.557  23.792  1.00  0.00     0.022 A 
BRANCH  42  46
ATOM     46  S   UNL A   1      44.496  19.042  24.787  1.00  0.00     0.124 S 
ATOM     47  O   UNL A   1      44.774  18.715  23.393  1.00  0.00    -0.237 OA
ATOM     48  O   UNL A   1      45.593  18.844  25.728  1.00  0.00    -0.237 OA
ATOM     49  O   UNL A   1      43.179  18.632  25.270  1.00  0.00    -0.744 OA
ENDBRANCH  42  46
ENDBRANCH  25  39
BRANCH  26  50
ATOM     50  C   UNL A   1      46.969  30.572  27.692  1.00  0.00     0.023 A 
ATOM     51  C   UNL A   1      46.360  31.674  27.052  1.00  0.00     0.031 A 
ATOM     52  C   UNL A   1      48.369  30.640  27.870  1.00  0.00     0.131 A 
ATOM     53  C   UNL A   1      47.145  32.772  26.617  1.00  0.00     0.055 A 
ATOM     54  C   UNL A   1      49.138  31.724  27.440  1.00  0.00     0.041 A 
ATOM     55  F   UNL A   1      49.029  29.691  28.552  1.00  0.00    -0.206 F 
ATOM     56  C   UNL A   1      48.527  32.799  26.817  1.00  0.00     0.022 A 
BRANCH  53  57
ATOM     57  S   UNL A   1      46.366  34.238  25.857  1.00  0.00     0.124 S 
ATOM     58  O   UNL A   1      47.470  34.816  25.093  1.00  0.00    -0.237 OA
ATOM     59  O   UNL A   1      45.279  33.654  25.086  1.00  0.00    -0.237 OA
ATOM     60  O   UNL A   1      45.939  35.034  27.009  1.00  0.00    -0.744 OA
ENDBRANCH  53  57
ENDBRANCH  26  50
BRANCH  38  61
ATOM     61  C   UNL A   1      45.667  25.851  31.727  1.00  0.00     0.023 A 
ATOM     62  C   UNL A   1      44.518  26.368  32.373  1.00  0.00     0.031 A 
ATOM     63  C   UNL A   1      46.813  25.645  32.514  1.00  0.00     0.131 A 
ATOM     64  C   UNL A   1      44.555  26.669  33.750  1.00  0.00     0.055 A 
ATOM     65  C   UNL A   1      46.839  25.922  33.881  1.00  0.00     0.041 A 
ATOM     66  F   UNL A   1      47.930  25.134  31.969  1.00  0.00    -0.206 F 
ATOM     67  C   UNL A   1      45.710  26.441  34.503  1.00  0.00     0.022 A 
BRANCH  64  68
ATOM     68  S   UNL A   1      43.098  27.376  34.588  1.00  0.00     0.124 S 
ATOM     69  O   UNL A   1      42.262  27.841  33.489  1.00  0.00    -0.237 OA
ATOM     70  O   UNL A   1      42.588  26.238  35.348  1.00  0.00    -0.237 OA
ATOM     71  O   UNL A   1      43.668  28.446  35.412  1.00  0.00    -0.744 OA
ENDBRANCH  64  68
ENDBRANCH  38  61
ENDBRANCH  12  13
ENDBRANCH   5   7
ENDBRANCH   2   3
ENDBRANCH   1   2
BRANCH   1  72
ATOM     72  C   UNL A   1      32.993  29.582  25.590  1.00  0.00     0.118 C 
BRANCH  72  73
ATOM     73  N   UNL A   1      33.711  29.281  24.366  1.00  0.00    -0.351 N 
ATOM     74  C   UNL A   1      33.531  28.240  23.490  1.00  0.00     0.283 C 
ATOM     75  H   UNL A   1      34.429  29.912  24.130  1.00  0.00     0.163 HD
ATOM     76  O   UNL A   1      34.218  28.262  22.458  1.00  0.00    -0.268 OA
BRANCH  74  77
ATOM     77  C   UNL A   1      32.566  27.035  23.759  1.00  0.00     0.308 C 
BRANCH  77  78
ATOM     78  N   UNL A   1      31.553  26.833  22.682  1.00  0.00    -0.317 N 
ATOM     79  C   UNL A   1      30.756  28.037  22.339  1.00  0.00     0.292 C 
ATOM     80  C   UNL A   1      30.579  25.764  23.023  1.00  0.00     0.292 C 
ATOM     81  H   UNL A   1      32.127  26.579  21.878  1.00  0.00     0.349 HD
ATOM     82  C   UNL A   1      29.711  28.439  23.386  1.00  0.00     0.221 C 
ATOM     83  C   UNL A   1      29.492  26.188  24.037  1.00  0.00     0.221 C 
ATOM     84  O   UNL A   1      28.794  27.370  23.627  1.00  0.00    -0.370 OA
ENDBRANCH  77  78
BRANCH  77  85
ATOM     85  C   UNL A   1      33.352  25.765  24.046  1.00  0.00     0.057 A 
ATOM     86  C   UNL A   1      33.495  25.074  25.271  1.00  0.00     0.145 A 
ATOM     87  C   UNL A   1      34.104  24.977  23.174  1.00  0.00     0.119 A 
ATOM     88  N   UNL A   1      34.077  23.890  25.142  1.00  0.00    -0.181 NA
ATOM     89  N   UNL A   1      34.613  23.939  23.918  1.00  0.00    -0.268 N 
BRANCH  89  90
ATOM     90  C   UNL A   1      35.558  22.891  23.532  1.00  0.00     0.179 C 
BRANCH  90  91
ATOM     91  C   UNL A   1      36.704  22.743  24.518  1.00  0.00    -0.027 A 
ATOM     92  C   UNL A   1      37.370  21.518  24.665  1.00  0.00     0.005 A 
ATOM     93  C   UNL A   1      37.127  23.824  25.315  1.00  0.00     0.005 A 
ATOM     94  C   UNL A   1      38.451  21.397  25.546  1.00  0.00     0.000 A 
ATOM     95  C   UNL A   1      38.220  23.710  26.174  1.00  0.00     0.000 A 
ATOM     96  C   UNL A   1      38.884  22.495  26.287  1.00  0.00     0.000 A 
ENDBRANCH  90  91
ENDBRANCH  89  90
ENDBRANCH  77  85
ENDBRANCH  74  77
ENDBRANCH  72  73
ENDBRANCH   1  72
TORSDOF 17
ENDMDL
MODEL 3
REMARK VINA RESULT:     -12.9      1.344      1.644
REMARK SMILES O=C(NCCCNC(=O)[C@H](c1cnn(Cc2ccccc2)c1)[NH+]1CCOCC1)c1ccc(-c2c3nc(c(-c4cc(S(=O)(=O)[O-])ccc4F)c4ccc([nH]4)c(-c4cc(S(=O)(=O)[O-])ccc4F)c4nc(c(-c5cc(S(=O)(=O)[O-])ccc5F)c5ccc2[nH]5)C=C4)C=C3)cc1
REMARK SMILES IDX 5 1 4 2 3 3 1 4 2 5 29 7 30 8 91 9 31 10 90 11 32 12 33 13
REMARK SMILES IDX 34 14 84 15 35 16 89 17 83 18 85 19 36 20 88 21 82 22 81 23
REMARK SMILES IDX 37 25 69 26 49 27 68 28 50 29 53 30 67 31 86 32 51 33 52 34
REMARK SMILES IDX 66 36 87 37 54 38 38 39 39 40 47 41 40 42 46 43 48 44 45 45
REMARK SMILES IDX 41 46 42 47 43 48 44 49 70 50 71 51 79 52 72 53 78 54 80 55
REMARK SMILES IDX 77 56 73 57 74 58 75 59 76 60 55 61 56 62 64 63 57 64 63 65
REMARK SMILES IDX 65 66 62 67 58 68 59 69 60 70 61 71 6 72 7 73 8 74 9 76
REMARK SMILES IDX 10 77 23 78 24 79 28 80 25 82 27 83 26 84 11 85 12 86 22 87
REMARK SMILES IDX 13 88 14 89 15 90 16 91 17 92 21 93 18 94 20 95 19 96
REMARK H PARENT 3 6 85 24 53 35 7 75 23 81
REMARK Flexibility Score: inf
ROOT
ATOM      1  C   UNL A   1      32.951  28.605  26.530  1.00  0.00     0.042 C 
ENDROOT
BRANCH   1   2
ATOM      2  C   UNL A   1      33.350  29.234  27.856  1.00  0.00     0.118 C 
BRANCH   2   3
ATOM      3  N   UNL A   1      33.667  30.645  27.800  1.00  0.00    -0.352 N 
ATOM      4  O   UNL A   1      34.675  32.578  27.525  1.00  0.00    -0.269 OA
ATOM      5  C   UNL A   1      34.818  31.385  27.812  1.00  0.00     0.251 C 
ATOM      6  H   UNL A   1      32.862  31.208  27.740  1.00  0.00     0.163 HD
BRANCH   5   7
ATOM      7  C   UNL A   1      36.178  30.892  28.178  1.00  0.00     0.039 A 
ATOM      8  C   UNL A   1      37.178  31.621  28.823  1.00  0.00     0.014 A 
ATOM      9  C   UNL A   1      36.468  29.567  27.793  1.00  0.00     0.014 A 
ATOM     10  C   UNL A   1      38.450  31.069  29.009  1.00  0.00     0.010 A 
ATOM     11  C   UNL A   1      37.728  29.006  27.993  1.00  0.00     0.010 A 
ATOM     12  C   UNL A   1      38.735  29.768  28.576  1.00  0.00    -0.014 A 
BRANCH  12  13
ATOM     13  C   UNL A   1      40.037  29.176  28.911  1.00  0.00     0.031 A 
ATOM     14  C   UNL A   1      40.316  29.064  30.376  1.00  0.00     0.074 A 
ATOM     15  C   UNL A   1      40.876  28.600  28.021  1.00  0.00     0.049 A 
ATOM     16  N   UNL A   1      41.296  29.568  31.053  1.00  0.00    -0.248 NA
ATOM     17  C   UNL A   1      39.319  28.372  31.209  1.00  0.00     0.031 C 
ATOM     18  C   UNL A   1      40.650  28.351  26.596  1.00  0.00     0.029 A 
ATOM     19  N   UNL A   1      42.093  28.018  28.241  1.00  0.00    -0.354 N 
ATOM     20  C   UNL A   1      41.148  29.114  32.364  1.00  0.00     0.074 A 
ATOM     21  C   UNL A   1      39.850  28.496  32.426  1.00  0.00     0.031 C 
ATOM     22  C   UNL A   1      41.589  27.492  26.135  1.00  0.00     0.029 A 
ATOM     23  C   UNL A   1      42.560  27.236  27.187  1.00  0.00     0.049 A 
ATOM     24  H   UNL A   1      42.600  28.142  29.077  1.00  0.00     0.167 HD
ATOM     25  C   UNL A   1      42.172  29.139  33.264  1.00  0.00     0.034 A 
ATOM     26  C   UNL A   1      43.638  26.402  27.184  1.00  0.00     0.034 A 
ATOM     27  C   UNL A   1      43.203  30.063  32.860  1.00  0.00     0.049 A 
ATOM     28  C   UNL A   1      44.534  26.841  28.280  1.00  0.00     0.074 A 
ATOM     29  C   UNL A   1      43.237  31.424  32.624  1.00  0.00     0.029 A 
ATOM     30  N   UNL A   1      44.342  29.567  32.271  1.00  0.00    -0.354 N 
ATOM     31  N   UNL A   1      45.153  27.988  28.283  1.00  0.00    -0.248 NA
ATOM     32  C   UNL A   1      44.379  26.217  29.584  1.00  0.00     0.031 C 
ATOM     33  C   UNL A   1      44.070  31.574  31.476  1.00  0.00     0.029 A 
ATOM     34  C   UNL A   1      44.554  30.309  31.133  1.00  0.00     0.049 A 
ATOM     35  H   UNL A   1      44.898  28.824  32.600  1.00  0.00     0.167 HD
ATOM     36  C   UNL A   1      45.073  28.435  29.592  1.00  0.00     0.074 A 
ATOM     37  C   UNL A   1      44.672  27.260  30.365  1.00  0.00     0.031 C 
ATOM     38  C   UNL A   1      45.072  29.767  29.891  1.00  0.00     0.034 A 
BRANCH  25  39
ATOM     39  C   UNL A   1      42.376  28.136  34.377  1.00  0.00     0.023 A 
ATOM     40  C   UNL A   1      43.081  26.949  34.093  1.00  0.00     0.031 A 
ATOM     41  C   UNL A   1      41.690  28.160  35.614  1.00  0.00     0.131 A 
ATOM     42  C   UNL A   1      43.034  25.848  34.971  1.00  0.00     0.055 A 
ATOM     43  C   UNL A   1      41.700  27.088  36.513  1.00  0.00     0.041 A 
ATOM     44  F   UNL A   1      40.899  29.176  35.979  1.00  0.00    -0.206 F 
ATOM     45  C   UNL A   1      42.352  25.913  36.182  1.00  0.00     0.022 A 
BRANCH  42  46
ATOM     46  S   UNL A   1      43.738  24.266  34.428  1.00  0.00     0.124 S 
ATOM     47  O   UNL A   1      44.133  24.569  33.057  1.00  0.00    -0.237 OA
ATOM     48  O   UNL A   1      44.821  24.075  35.385  1.00  0.00    -0.237 OA
ATOM     49  O   UNL A   1      42.619  23.335  34.560  1.00  0.00    -0.744 OA
ENDBRANCH  42  46
ENDBRANCH  25  39
BRANCH  26  50
ATOM     50  C   UNL A   1      43.753  25.066  26.527  1.00  0.00     0.023 A 
ATOM     51  C   UNL A   1      42.940  23.960  26.860  1.00  0.00     0.031 A 
ATOM     52  C   UNL A   1      44.529  24.949  25.352  1.00  0.00     0.131 A 
ATOM     53  C   UNL A   1      42.934  22.804  26.038  1.00  0.00     0.055 A 
ATOM     54  C   UNL A   1      44.518  23.809  24.546  1.00  0.00     0.041 A 
ATOM     55  F   UNL A   1      45.258  25.980  24.897  1.00  0.00    -0.206 F 
ATOM     56  C   UNL A   1      43.715  22.733  24.883  1.00  0.00     0.022 A 
BRANCH  53  57
ATOM     57  S   UNL A   1      41.834  21.395  26.412  1.00  0.00     0.124 S 
ATOM     58  O   UNL A   1      40.518  21.928  26.062  1.00  0.00    -0.237 OA
ATOM     59  O   UNL A   1      42.359  20.347  25.551  1.00  0.00    -0.237 OA
ATOM     60  O   UNL A   1      42.040  21.172  27.844  1.00  0.00    -0.744 OA
ENDBRANCH  53  57
ENDBRANCH  26  50
BRANCH  38  61
ATOM     61  C   UNL A   1      45.412  30.757  28.790  1.00  0.00     0.023 A 
ATOM     62  C   UNL A   1      46.724  31.158  28.442  1.00  0.00     0.031 A 
ATOM     63  C   UNL A   1      44.358  31.221  27.984  1.00  0.00     0.131 A 
ATOM     64  C   UNL A   1      46.936  32.002  27.333  1.00  0.00     0.055 A 
ATOM     65  C   UNL A   1      44.574  32.038  26.873  1.00  0.00     0.041 A 
ATOM     66  F   UNL A   1      43.091  30.858  28.244  1.00  0.00    -0.206 F 
ATOM     67  C   UNL A   1      45.864  32.436  26.547  1.00  0.00     0.022 A 
BRANCH  64  68
ATOM     68  S   UNL A   1      48.614  32.565  26.895  1.00  0.00     0.124 S 
ATOM     69  O   UNL A   1      49.310  31.331  26.551  1.00  0.00    -0.237 OA
ATOM     70  O   UNL A   1      48.361  33.489  25.794  1.00  0.00    -0.237 OA
ATOM     71  O   UNL A   1      49.088  33.205  28.125  1.00  0.00    -0.744 OA
ENDBRANCH  64  68
ENDBRANCH  38  61
ENDBRANCH  12  13
ENDBRANCH   5   7
ENDBRANCH   2   3
ENDBRANCH   1   2
BRANCH   1  72
ATOM     72  C   UNL A   1      32.906  27.087  26.511  1.00  0.00     0.118 C 
BRANCH  72  73
ATOM     73  N   UNL A   1      31.645  26.482  26.899  1.00  0.00    -0.351 N 
ATOM     74  C   UNL A   1      30.790  25.710  26.154  1.00  0.00     0.283 C 
ATOM     75  H   UNL A   1      31.364  26.649  27.828  1.00  0.00     0.163 HD
ATOM     76  O   UNL A   1      29.816  25.230  26.753  1.00  0.00    -0.268 OA
BRANCH  74  77
ATOM     77  C   UNL A   1      30.958  25.463  24.616  1.00  0.00     0.308 C 
BRANCH  77  78
ATOM     78  N   UNL A   1      30.552  24.094  24.185  1.00  0.00    -0.317 N 
ATOM     79  C   UNL A   1      31.025  22.995  25.063  1.00  0.00     0.292 C 
ATOM     80  C   UNL A   1      31.028  23.774  22.814  1.00  0.00     0.292 C 
ATOM     81  H   UNL A   1      29.534  24.136  24.231  1.00  0.00     0.349 HD
ATOM     82  C   UNL A   1      32.525  22.692  24.966  1.00  0.00     0.221 C 
ATOM     83  C   UNL A   1      32.529  23.413  22.725  1.00  0.00     0.221 C 
ATOM     84  O   UNL A   1      32.890  22.359  23.625  1.00  0.00    -0.370 OA
ENDBRANCH  77  78
BRANCH  77  85
ATOM     85  C   UNL A   1      30.251  26.545  23.813  1.00  0.00     0.057 A 
ATOM     86  C   UNL A   1      30.794  27.426  22.850  1.00  0.00     0.145 A 
ATOM     87  C   UNL A   1      28.906  26.916  23.827  1.00  0.00     0.119 A 
ATOM     88  N   UNL A   1      29.873  28.111  22.186  1.00  0.00    -0.181 NA
ATOM     89  N   UNL A   1      28.769  27.941  22.921  1.00  0.00    -0.268 N 
BRANCH  89  90
ATOM     90  C   UNL A   1      27.603  28.773  22.624  1.00  0.00     0.179 C 
BRANCH  90  91
ATOM     91  C   UNL A   1      27.953  30.245  22.485  1.00  0.00    -0.027 A 
ATOM     92  C   UNL A   1      28.350  30.997  23.599  1.00  0.00     0.005 A 
ATOM     93  C   UNL A   1      27.883  30.897  21.239  1.00  0.00     0.005 A 
ATOM     94  C   UNL A   1      28.709  32.342  23.459  1.00  0.00     0.000 A 
ATOM     95  C   UNL A   1      28.265  32.231  21.095  1.00  0.00     0.000 A 
ATOM     96  C   UNL A   1      28.680  32.953  22.206  1.00  0.00     0.000 A 
ENDBRANCH  90  91
ENDBRANCH  89  90
ENDBRANCH  77  85
ENDBRANCH  74  77
ENDBRANCH  72  73
ENDBRANCH   1  72
TORSDOF 17
ENDMDL
