MODEL 1
REMARK VINA RESULT:     -12.2      0.000      0.000
REMARK SMILES CCOc1ccc(-c2ccc(C(=O)NCCCNC(=O)c3ccc(-c4c5nc(c(-c6cc(S(=O)(=O)[O-])ccc6F)c6ccc([nH]6)c(-c6cc(S(=O)(=O)[O-])ccc6F)c6nc(c(-c7cc(S(=O)(=O)[O-])ccc7F)c7ccc4[nH]7)C=C6)C=C5)cc3)cn2)c(C)c1
REMARK SMILES IDX 16 1 15 2 14 3 12 4 13 5 11 7 8 8 9 9 85 10 10 11 84 12 7 13
REMARK SMILES IDX 4 14 5 15 88 16 6 17 86 18 87 19 3 20 2 21 1 22 17 23 18 24
REMARK SMILES IDX 19 25 20 27 21 28 22 29 83 30 23 31 82 32 24 33 25 34 26 35
REMARK SMILES IDX 76 36 27 37 81 38 75 39 77 40 28 41 80 42 74 43 73 44 29 46
REMARK SMILES IDX 61 47 41 48 60 49 42 50 45 51 59 52 78 53 43 54 44 55 58 57
REMARK SMILES IDX 79 58 46 59 30 60 31 61 39 62 32 63 38 64 40 65 37 66 33 67
REMARK SMILES IDX 34 68 35 69 36 70 62 71 63 72 71 73 64 74 70 75 72 76 69 77
REMARK SMILES IDX 65 78 66 79 67 80 68 81 47 82 48 83 56 84 49 85 55 86 57 87
REMARK SMILES IDX 54 88 50 89 51 90 52 91 53 92
REMARK H PARENT 14 6 18 26 77 45 45 56
REMARK Flexibility Score: inf
ROOT
ATOM      1  C   UNL A   1      33.236  30.484  27.179  1.00  0.00     0.042 C 
ENDROOT
BRANCH   1   2
ATOM      2  C   UNL A   1      32.482  29.569  26.239  1.00  0.00     0.118 C 
BRANCH   2   3
ATOM      3  N   UNL A   1      32.866  29.721  24.838  1.00  0.00    -0.352 N 
ATOM      4  C   UNL A   1      33.190  28.757  23.910  1.00  0.00     0.252 C 
ATOM      5  O   UNL A   1      33.650  29.043  22.808  1.00  0.00    -0.269 OA
ATOM      6  H   UNL A   1      32.898  30.648  24.509  1.00  0.00     0.163 HD
BRANCH   4   7
ATOM      7  C   UNL A   1      33.026  27.336  24.262  1.00  0.00     0.058 A 
ATOM      8  C   UNL A   1      32.769  24.602  24.573  1.00  0.00     0.070 A 
ATOM      9  C   UNL A   1      33.933  25.243  24.984  1.00  0.00     0.030 A 
ATOM     10  N   UNL A   1      31.728  25.310  24.051  1.00  0.00    -0.255 NA
ATOM     11  C   UNL A   1      34.021  26.624  24.916  1.00  0.00     0.018 A 
ATOM     12  C   UNL A   1      31.881  26.654  23.898  1.00  0.00     0.125 A 
BRANCH   8  13
ATOM     13  C   UNL A   1      32.598  23.125  24.612  1.00  0.00     0.003 A 
ATOM     14  C   UNL A   1      32.370  20.304  24.481  1.00  0.00     0.119 A 
ATOM     15  C   UNL A   1      32.410  21.044  23.310  1.00  0.00     0.047 A 
ATOM     16  C   UNL A   1      32.390  20.947  25.712  1.00  0.00     0.050 A 
ATOM     17  C   UNL A   1      32.543  22.431  23.380  1.00  0.00     0.014 A 
ATOM     18  C   UNL A   1      32.474  22.351  25.798  1.00  0.00    -0.038 A 
ATOM     19  C   UNL A   1      32.426  22.935  27.188  1.00  0.00     0.045 C 
BRANCH  14  20
ATOM     20  O   UNL A   1      32.190  18.951  24.458  1.00  0.00    -0.494 OA
BRANCH  20  21
ATOM     21  C   UNL A   1      32.527  18.379  23.188  1.00  0.00     0.226 C 
ATOM     22  C   UNL A   1      33.618  17.334  23.343  1.00  0.00     0.049 C 
ENDBRANCH  20  21
ENDBRANCH  14  20
ENDBRANCH   8  13
ENDBRANCH   4   7
ENDBRANCH   2   3
ENDBRANCH   1   2
BRANCH   1  23
ATOM     23  C   UNL A   1      34.561  29.904  27.635  1.00  0.00     0.118 C 
BRANCH  23  24
ATOM     24  N   UNL A   1      35.352  30.848  28.431  1.00  0.00    -0.352 N 
ATOM     25  C   UNL A   1      36.666  30.739  28.862  1.00  0.00     0.251 C 
ATOM     26  H   UNL A   1      34.886  31.674  28.697  1.00  0.00     0.163 HD
ATOM     27  O   UNL A   1      37.235  31.620  29.480  1.00  0.00    -0.269 OA
BRANCH  25  28
ATOM     28  C   UNL A   1      37.412  29.536  28.430  1.00  0.00     0.039 A 
ATOM     29  C   UNL A   1      37.670  28.579  29.416  1.00  0.00     0.014 A 
ATOM     30  C   UNL A   1      38.152  29.587  27.254  1.00  0.00     0.014 A 
ATOM     31  C   UNL A   1      38.855  27.858  29.351  1.00  0.00     0.010 A 
ATOM     32  C   UNL A   1      39.380  28.950  27.246  1.00  0.00     0.010 A 
ATOM     33  C   UNL A   1      39.764  28.151  28.332  1.00  0.00    -0.014 A 
BRANCH  33  34
ATOM     34  C   UNL A   1      41.174  27.782  28.423  1.00  0.00     0.031 A 
ATOM     35  C   UNL A   1      41.629  26.474  27.917  1.00  0.00     0.074 A 
ATOM     36  C   UNL A   1      42.072  28.621  28.988  1.00  0.00     0.049 A 
ATOM     37  N   UNL A   1      42.612  25.800  28.408  1.00  0.00    -0.248 NA
ATOM     38  C   UNL A   1      40.949  25.792  26.827  1.00  0.00     0.031 C 
ATOM     39  C   UNL A   1      43.526  28.471  29.022  1.00  0.00     0.029 A 
ATOM     40  N   UNL A   1      41.810  29.668  29.871  1.00  0.00    -0.354 N 
ATOM     41  C   UNL A   1      42.874  24.755  27.550  1.00  0.00     0.074 A 
ATOM     42  C   UNL A   1      41.762  24.752  26.630  1.00  0.00     0.031 C 
ATOM     43  C   UNL A   1      44.008  29.179  30.056  1.00  0.00     0.029 A 
ATOM     44  C   UNL A   1      42.875  29.713  30.790  1.00  0.00     0.049 A 
ATOM     45  H   UNL A   1      41.026  30.265  29.855  1.00  0.00     0.167 HD
ATOM     46  C   UNL A   1      44.070  24.101  27.633  1.00  0.00     0.034 A 
ATOM     47  C   UNL A   1      42.656  29.569  32.128  1.00  0.00     0.034 A 
ATOM     48  C   UNL A   1      44.872  24.595  28.758  1.00  0.00     0.049 A 
ATOM     49  C   UNL A   1      43.332  28.351  32.719  1.00  0.00     0.074 A 
ATOM     50  C   UNL A   1      45.947  25.465  28.834  1.00  0.00     0.029 A 
ATOM     51  N   UNL A   1      44.424  24.414  30.063  1.00  0.00    -0.354 N 
ATOM     52  N   UNL A   1      43.873  27.394  32.015  1.00  0.00    -0.248 NA
ATOM     53  C   UNL A   1      43.422  28.100  34.155  1.00  0.00     0.031 C 
ATOM     54  C   UNL A   1      46.092  25.868  30.189  1.00  0.00     0.029 A 
ATOM     55  C   UNL A   1      45.130  25.216  30.941  1.00  0.00     0.049 A 
ATOM     56  H   UNL A   1      43.701  23.799  30.326  1.00  0.00     0.167 HD
ATOM     57  C   UNL A   1      44.308  26.395  32.849  1.00  0.00     0.074 A 
ATOM     58  C   UNL A   1      44.045  26.910  34.183  1.00  0.00     0.031 C 
ATOM     59  C   UNL A   1      44.819  25.219  32.368  1.00  0.00     0.034 A 
BRANCH  46  60
ATOM     60  C   UNL A   1      44.647  23.246  26.517  1.00  0.00     0.023 A 
ATOM     61  C   UNL A   1      44.087  21.975  26.259  1.00  0.00     0.031 A 
ATOM     62  C   UNL A   1      45.761  23.573  25.718  1.00  0.00     0.131 A 
ATOM     63  C   UNL A   1      44.689  21.070  25.363  1.00  0.00     0.055 A 
ATOM     64  C   UNL A   1      46.401  22.652  24.878  1.00  0.00     0.041 A 
ATOM     65  F   UNL A   1      46.245  24.818  25.652  1.00  0.00    -0.206 F 
ATOM     66  C   UNL A   1      45.874  21.384  24.707  1.00  0.00     0.022 A 
BRANCH  63  67
ATOM     67  S   UNL A   1      43.893  19.470  25.049  1.00  0.00     0.124 S 
ATOM     68  O   UNL A   1      44.613  18.582  25.955  1.00  0.00    -0.237 OA
ATOM     69  O   UNL A   1      42.501  19.748  25.382  1.00  0.00    -0.237 OA
ATOM     70  O   UNL A   1      44.149  19.237  23.627  1.00  0.00    -0.744 OA
ENDBRANCH  63  67
ENDBRANCH  46  60
BRANCH  47  71
ATOM     71  C   UNL A   1      41.354  30.149  32.570  1.00  0.00     0.023 A 
ATOM     72  C   UNL A   1      41.262  31.558  32.625  1.00  0.00     0.031 A 
ATOM     73  C   UNL A   1      40.162  29.417  32.539  1.00  0.00     0.131 A 
ATOM     74  C   UNL A   1      40.022  32.194  32.470  1.00  0.00     0.055 A 
ATOM     75  C   UNL A   1      38.918  30.058  32.461  1.00  0.00     0.041 A 
ATOM     76  F   UNL A   1      40.182  28.079  32.448  1.00  0.00    -0.206 F 
ATOM     77  C   UNL A   1      38.847  31.450  32.376  1.00  0.00     0.022 A 
BRANCH  74  78
ATOM     78  S   UNL A   1      39.996  33.971  32.087  1.00  0.00     0.124 S 
ATOM     79  O   UNL A   1      39.988  34.578  33.413  1.00  0.00    -0.237 OA
ATOM     80  O   UNL A   1      41.217  34.150  31.304  1.00  0.00    -0.237 OA
ATOM     81  O   UNL A   1      38.772  34.145  31.305  1.00  0.00    -0.744 OA
ENDBRANCH  74  78
ENDBRANCH  47  71
BRANCH  59  82
ATOM     82  C   UNL A   1      45.142  23.993  33.201  1.00  0.00     0.023 A 
ATOM     83  C   UNL A   1      46.334  23.839  33.928  1.00  0.00     0.031 A 
ATOM     84  C   UNL A   1      44.202  22.942  33.347  1.00  0.00     0.131 A 
ATOM     85  C   UNL A   1      46.598  22.666  34.661  1.00  0.00     0.055 A 
ATOM     86  C   UNL A   1      44.430  21.818  34.146  1.00  0.00     0.041 A 
ATOM     87  F   UNL A   1      43.016  22.966  32.721  1.00  0.00    -0.206 F 
ATOM     88  C   UNL A   1      45.644  21.662  34.795  1.00  0.00     0.022 A 
BRANCH  85  89
ATOM     89  S   UNL A   1      48.253  22.451  35.369  1.00  0.00     0.124 S 
ATOM     90  O   UNL A   1      48.725  23.831  35.452  1.00  0.00    -0.237 OA
ATOM     91  O   UNL A   1      47.967  21.803  36.645  1.00  0.00    -0.237 OA
ATOM     92  O   UNL A   1      48.944  21.617  34.389  1.00  0.00    -0.744 OA
ENDBRANCH  85  89
ENDBRANCH  59  82
ENDBRANCH  33  34
ENDBRANCH  25  28
ENDBRANCH  23  24
ENDBRANCH   1  23
TORSDOF 16
ENDMDL
MODEL 2
REMARK VINA RESULT:     -12.1      1.400      2.285
REMARK SMILES CCOc1ccc(-c2ccc(C(=O)NCCCNC(=O)c3ccc(-c4c5nc(c(-c6cc(S(=O)(=O)[O-])ccc6F)c6ccc([nH]6)c(-c6cc(S(=O)(=O)[O-])ccc6F)c6nc(c(-c7cc(S(=O)(=O)[O-])ccc7F)c7ccc4[nH]7)C=C6)C=C5)cc3)cn2)c(C)c1
REMARK SMILES IDX 16 1 15 2 14 3 12 4 13 5 11 7 8 8 9 9 85 10 10 11 84 12 7 13
REMARK SMILES IDX 4 14 5 15 88 16 6 17 86 18 87 19 3 20 2 21 1 22 17 23 18 24
REMARK SMILES IDX 19 25 20 27 21 28 22 29 83 30 23 31 82 32 24 33 25 34 26 35
REMARK SMILES IDX 76 36 27 37 81 38 75 39 77 40 28 41 80 42 74 43 73 44 29 46
REMARK SMILES IDX 61 47 41 48 60 49 42 50 45 51 59 52 78 53 43 54 44 55 58 57
REMARK SMILES IDX 79 58 46 59 30 60 31 61 39 62 32 63 38 64 40 65 37 66 33 67
REMARK SMILES IDX 34 68 35 69 36 70 62 71 63 72 71 73 64 74 70 75 72 76 69 77
REMARK SMILES IDX 65 78 66 79 67 80 68 81 47 82 48 83 56 84 49 85 55 86 57 87
REMARK SMILES IDX 54 88 50 89 51 90 52 91 53 92
REMARK H PARENT 14 6 18 26 77 45 45 56
REMARK Flexibility Score: inf
ROOT
ATOM      1  C   UNL A   1      33.596  30.466  26.856  1.00  0.00     0.042 C 
ENDROOT
BRANCH   1   2
ATOM      2  C   UNL A   1      33.587  29.614  25.605  1.00  0.00     0.118 C 
BRANCH   2   3
ATOM      3  N   UNL A   1      32.246  29.277  25.134  1.00  0.00    -0.352 N 
ATOM      4  C   UNL A   1      31.747  28.066  24.707  1.00  0.00     0.252 C 
ATOM      5  O   UNL A   1      30.640  27.966  24.186  1.00  0.00    -0.269 OA
ATOM      6  H   UNL A   1      31.605  30.025  25.118  1.00  0.00     0.163 HD
BRANCH   4   7
ATOM      7  C   UNL A   1      32.582  26.860  24.836  1.00  0.00     0.058 A 
ATOM      8  C   UNL A   1      34.429  24.821  25.102  1.00  0.00     0.070 A 
ATOM      9  C   UNL A   1      33.603  25.156  26.170  1.00  0.00     0.030 A 
ATOM     10  N   UNL A   1      34.316  25.459  23.903  1.00  0.00    -0.255 NA
ATOM     11  C   UNL A   1      32.614  26.112  26.004  1.00  0.00     0.018 A 
ATOM     12  C   UNL A   1      33.406  26.467  23.799  1.00  0.00     0.125 A 
BRANCH   8  13
ATOM     13  C   UNL A   1      35.514  23.809  25.201  1.00  0.00     0.003 A 
ATOM     14  C   UNL A   1      37.659  21.996  25.572  1.00  0.00     0.119 A 
ATOM     15  C   UNL A   1      37.783  23.303  26.012  1.00  0.00     0.047 A 
ATOM     16  C   UNL A   1      36.509  21.591  24.907  1.00  0.00     0.050 A 
ATOM     17  C   UNL A   1      36.716  24.187  25.846  1.00  0.00     0.014 A 
ATOM     18  C   UNL A   1      35.443  22.486  24.687  1.00  0.00    -0.038 A 
ATOM     19  C   UNL A   1      34.275  21.947  23.900  1.00  0.00     0.045 C 
BRANCH  14  20
ATOM     20  O   UNL A   1      38.697  21.115  25.670  1.00  0.00    -0.494 OA
BRANCH  20  21
ATOM     21  C   UNL A   1      39.953  21.773  25.870  1.00  0.00     0.226 C 
ATOM     22  C   UNL A   1      40.398  21.652  27.318  1.00  0.00     0.049 C 
ENDBRANCH  20  21
ENDBRANCH  14  20
ENDBRANCH   8  13
ENDBRANCH   4   7
ENDBRANCH   2   3
ENDBRANCH   1   2
BRANCH   1  23
ATOM     23  C   UNL A   1      34.378  29.839  27.994  1.00  0.00     0.118 C 
BRANCH  23  24
ATOM     24  N   UNL A   1      35.154  30.820  28.759  1.00  0.00    -0.352 N 
ATOM     25  C   UNL A   1      36.477  30.753  29.174  1.00  0.00     0.251 C 
ATOM     26  H   UNL A   1      34.670  31.638  29.014  1.00  0.00     0.163 HD
ATOM     27  O   UNL A   1      37.030  31.661  29.765  1.00  0.00    -0.269 OA
BRANCH  25  28
ATOM     28  C   UNL A   1      37.248  29.561  28.757  1.00  0.00     0.039 A 
ATOM     29  C   UNL A   1      37.557  28.639  29.761  1.00  0.00     0.014 A 
ATOM     30  C   UNL A   1      37.959  29.602  27.562  1.00  0.00     0.014 A 
ATOM     31  C   UNL A   1      38.761  27.952  29.687  1.00  0.00     0.010 A 
ATOM     32  C   UNL A   1      39.205  29.001  27.542  1.00  0.00     0.010 A 
ATOM     33  C   UNL A   1      39.637  28.244  28.639  1.00  0.00    -0.014 A 
BRANCH  33  34
ATOM     34  C   UNL A   1      41.060  27.918  28.707  1.00  0.00     0.031 A 
ATOM     35  C   UNL A   1      41.556  26.656  28.129  1.00  0.00     0.074 A 
ATOM     36  C   UNL A   1      41.931  28.755  29.315  1.00  0.00     0.049 A 
ATOM     37  N   UNL A   1      42.564  25.990  28.580  1.00  0.00    -0.248 NA
ATOM     38  C   UNL A   1      40.895  26.012  27.005  1.00  0.00     0.031 C 
ATOM     39  C   UNL A   1      43.389  28.654  29.337  1.00  0.00     0.029 A 
ATOM     40  N   UNL A   1      41.637  29.743  30.254  1.00  0.00    -0.354 N 
ATOM     41  C   UNL A   1      42.858  25.003  27.666  1.00  0.00     0.074 A 
ATOM     42  C   UNL A   1      41.742  25.012  26.749  1.00  0.00     0.031 C 
ATOM     43  C   UNL A   1      43.851  29.320  30.406  1.00  0.00     0.029 A 
ATOM     44  C   UNL A   1      42.704  29.775  31.172  1.00  0.00     0.049 A 
ATOM     45  H   UNL A   1      40.833  30.313  30.272  1.00  0.00     0.167 HD
ATOM     46  C   UNL A   1      44.075  24.386  27.710  1.00  0.00     0.034 A 
ATOM     47  C   UNL A   1      42.496  29.551  32.500  1.00  0.00     0.034 A 
ATOM     48  C   UNL A   1      44.866  24.846  28.858  1.00  0.00     0.049 A 
ATOM     49  C   UNL A   1      43.216  28.326  33.022  1.00  0.00     0.074 A 
ATOM     50  C   UNL A   1      45.911  25.747  28.979  1.00  0.00     0.029 A 
ATOM     51  N   UNL A   1      44.429  24.579  30.153  1.00  0.00    -0.354 N 
ATOM     52  N   UNL A   1      43.785  27.427  32.265  1.00  0.00    -0.248 NA
ATOM     53  C   UNL A   1      43.320  28.000  34.442  1.00  0.00     0.031 C 
ATOM     54  C   UNL A   1      46.047  26.080  30.353  1.00  0.00     0.029 A 
ATOM     55  C   UNL A   1      45.111  25.355  31.072  1.00  0.00     0.049 A 
ATOM     56  H   UNL A   1      43.728  23.926  30.383  1.00  0.00     0.167 HD
ATOM     57  C   UNL A   1      44.258  26.401  33.043  1.00  0.00     0.074 A 
ATOM     58  C   UNL A   1      43.984  26.833  34.403  1.00  0.00     0.031 C 
ATOM     59  C   UNL A   1      44.807  25.270  32.497  1.00  0.00     0.034 A 
BRANCH  46  60
ATOM     60  C   UNL A   1      44.677  23.614  26.547  1.00  0.00     0.023 A 
ATOM     61  C   UNL A   1      44.204  22.314  26.263  1.00  0.00     0.031 A 
ATOM     62  C   UNL A   1      45.736  24.049  25.726  1.00  0.00     0.131 A 
ATOM     63  C   UNL A   1      44.840  21.486  25.318  1.00  0.00     0.055 A 
ATOM     64  C   UNL A   1      46.414  23.206  24.835  1.00  0.00     0.041 A 
ATOM     65  F   UNL A   1      46.123  25.329  25.688  1.00  0.00    -0.206 F 
ATOM     66  C   UNL A   1      45.976  21.908  24.637  1.00  0.00     0.022 A 
BRANCH  63  67
ATOM     67  S   UNL A   1      44.154  19.842  24.973  1.00  0.00     0.124 S 
ATOM     68  O   UNL A   1      42.778  19.976  25.436  1.00  0.00    -0.237 OA
ATOM     69  O   UNL A   1      44.346  19.724  23.532  1.00  0.00    -0.237 OA
ATOM     70  O   UNL A   1      44.990  18.950  25.779  1.00  0.00    -0.744 OA
ENDBRANCH  63  67
ENDBRANCH  46  60
BRANCH  47  71
ATOM     71  C   UNL A   1      41.177  30.061  32.976  1.00  0.00     0.023 A 
ATOM     72  C   UNL A   1      41.035  31.461  33.102  1.00  0.00     0.031 A 
ATOM     73  C   UNL A   1      40.011  29.289  32.914  1.00  0.00     0.131 A 
ATOM     74  C   UNL A   1      39.773  32.059  32.984  1.00  0.00     0.055 A 
ATOM     75  C   UNL A   1      38.745  29.888  32.874  1.00  0.00     0.041 A 
ATOM     76  F   UNL A   1      40.079  27.958  32.756  1.00  0.00    -0.206 F 
ATOM     77  C   UNL A   1      38.624  31.279  32.859  1.00  0.00     0.022 A 
BRANCH  74  78
ATOM     78  S   UNL A   1      39.680  33.851  32.690  1.00  0.00     0.124 S 
ATOM     79  O   UNL A   1      39.969  33.951  31.265  1.00  0.00    -0.237 OA
ATOM     80  O   UNL A   1      38.313  34.173  33.095  1.00  0.00    -0.237 OA
ATOM     81  O   UNL A   1      40.697  34.407  33.583  1.00  0.00    -0.744 OA
ENDBRANCH  74  78
ENDBRANCH  47  71
BRANCH  59  82
ATOM     82  C   UNL A   1      45.175  24.012  33.261  1.00  0.00     0.023 A 
ATOM     83  C   UNL A   1      46.381  23.854  33.962  1.00  0.00     0.031 A 
ATOM     84  C   UNL A   1      44.265  22.931  33.366  1.00  0.00     0.131 A 
ATOM     85  C   UNL A   1      46.688  22.653  34.630  1.00  0.00     0.055 A 
ATOM     86  C   UNL A   1      44.535  21.773  34.103  1.00  0.00     0.041 A 
ATOM     87  F   UNL A   1      43.069  22.955  32.760  1.00  0.00    -0.206 F 
ATOM     88  C   UNL A   1      45.763  21.618  34.726  1.00  0.00     0.022 A 
BRANCH  85  89
ATOM     89  S   UNL A   1      48.358  22.447  35.303  1.00  0.00     0.124 S 
ATOM     90  O   UNL A   1      49.024  21.707  34.232  1.00  0.00    -0.237 OA
ATOM     91  O   UNL A   1      48.796  23.827  35.485  1.00  0.00    -0.237 OA
ATOM     92  O   UNL A   1      48.145  21.694  36.537  1.00  0.00    -0.744 OA
ENDBRANCH  85  89
ENDBRANCH  59  82
ENDBRANCH  33  34
ENDBRANCH  25  28
ENDBRANCH  23  24
ENDBRANCH   1  23
TORSDOF 16
ENDMDL
MODEL 3
REMARK VINA RESULT:     -12.0      4.069      9.920
REMARK SMILES CCOc1ccc(-c2ccc(C(=O)NCCCNC(=O)c3ccc(-c4c5nc(c(-c6cc(S(=O)(=O)[O-])ccc6F)c6ccc([nH]6)c(-c6cc(S(=O)(=O)[O-])ccc6F)c6nc(c(-c7cc(S(=O)(=O)[O-])ccc7F)c7ccc4[nH]7)C=C6)C=C5)cc3)cn2)c(C)c1
REMARK SMILES IDX 16 1 15 2 14 3 12 4 13 5 11 7 8 8 9 9 85 10 10 11 84 12 7 13
REMARK SMILES IDX 4 14 5 15 88 16 6 17 86 18 87 19 3 20 2 21 1 22 17 23 18 24
REMARK SMILES IDX 19 25 20 27 21 28 22 29 83 30 23 31 82 32 24 33 25 34 26 35
REMARK SMILES IDX 76 36 27 37 81 38 75 39 77 40 28 41 80 42 74 43 73 44 29 46
REMARK SMILES IDX 61 47 41 48 60 49 42 50 45 51 59 52 78 53 43 54 44 55 58 57
REMARK SMILES IDX 79 58 46 59 30 60 31 61 39 62 32 63 38 64 40 65 37 66 33 67
REMARK SMILES IDX 34 68 35 69 36 70 62 71 63 72 71 73 64 74 70 75 72 76 69 77
REMARK SMILES IDX 65 78 66 79 67 80 68 81 47 82 48 83 56 84 49 85 55 86 57 87
REMARK SMILES IDX 54 88 50 89 51 90 52 91 53 92
REMARK H PARENT 14 6 18 26 77 45 45 56
REMARK Flexibility Score: inf
ROOT
ATOM      1  C   UNL A   1      38.068  23.797  26.035  1.00  0.00     0.042 C 
ENDROOT
BRANCH   1   2
ATOM      2  C   UNL A   1      37.286  22.744  25.281  1.00  0.00     0.118 C 
BRANCH   2   3
ATOM      3  N   UNL A   1      36.385  21.964  26.126  1.00  0.00    -0.352 N 
ATOM      4  C   UNL A   1      35.059  22.182  26.425  1.00  0.00     0.252 C 
ATOM      5  O   UNL A   1      34.470  21.529  27.281  1.00  0.00    -0.269 OA
ATOM      6  H   UNL A   1      36.785  21.167  26.543  1.00  0.00     0.163 HD
BRANCH   4   7
ATOM      7  C   UNL A   1      34.333  23.261  25.732  1.00  0.00     0.058 A 
ATOM      8  C   UNL A   1      32.678  25.165  24.603  1.00  0.00     0.070 A 
ATOM      9  C   UNL A   1      33.562  25.523  25.616  1.00  0.00     0.030 A 
ATOM     10  N   UNL A   1      32.641  23.889  24.126  1.00  0.00    -0.255 NA
ATOM     11  C   UNL A   1      34.458  24.589  26.113  1.00  0.00     0.018 A 
ATOM     12  C   UNL A   1      33.458  22.966  24.705  1.00  0.00     0.125 A 
BRANCH   8  13
ATOM     13  C   UNL A   1      31.687  26.107  24.021  1.00  0.00     0.003 A 
ATOM     14  C   UNL A   1      29.663  27.856  23.087  1.00  0.00     0.119 A 
ATOM     15  C   UNL A   1      29.322  26.777  23.887  1.00  0.00     0.047 A 
ATOM     16  C   UNL A   1      30.984  28.049  22.704  1.00  0.00     0.050 A 
ATOM     17  C   UNL A   1      30.325  25.931  24.361  1.00  0.00     0.014 A 
ATOM     18  C   UNL A   1      32.001  27.173  23.134  1.00  0.00    -0.038 A 
ATOM     19  C   UNL A   1      33.385  27.451  22.602  1.00  0.00     0.045 C 
BRANCH  14  20
ATOM     20  O   UNL A   1      28.707  28.678  22.562  1.00  0.00    -0.494 OA
BRANCH  20  21
ATOM     21  C   UNL A   1      29.196  30.005  22.336  1.00  0.00     0.226 C 
ATOM     22  C   UNL A   1      28.458  31.005  23.210  1.00  0.00     0.049 C 
ENDBRANCH  20  21
ENDBRANCH  14  20
ENDBRANCH   8  13
ENDBRANCH   4   7
ENDBRANCH   2   3
ENDBRANCH   1   2
BRANCH   1  23
ATOM     23  C   UNL A   1      39.241  23.224  26.807  1.00  0.00     0.118 C 
BRANCH  23  24
ATOM     24  N   UNL A   1      39.791  22.013  26.191  1.00  0.00    -0.352 N 
ATOM     25  C   UNL A   1      41.111  21.590  26.126  1.00  0.00     0.251 C 
ATOM     26  H   UNL A   1      39.133  21.417  25.764  1.00  0.00     0.163 HD
ATOM     27  O   UNL A   1      41.441  20.530  25.627  1.00  0.00    -0.269 OA
BRANCH  25  28
ATOM     28  C   UNL A   1      42.117  22.433  26.809  1.00  0.00     0.039 A 
ATOM     29  C   UNL A   1      42.246  22.252  28.189  1.00  0.00     0.014 A 
ATOM     30  C   UNL A   1      42.562  23.592  26.182  1.00  0.00     0.014 A 
ATOM     31  C   UNL A   1      42.557  23.351  28.979  1.00  0.00     0.010 A 
ATOM     32  C   UNL A   1      42.765  24.707  26.975  1.00  0.00     0.010 A 
ATOM     33  C   UNL A   1      42.681  24.601  28.370  1.00  0.00    -0.014 A 
BRANCH  33  34
ATOM     34  C   UNL A   1      42.572  25.845  29.128  1.00  0.00     0.031 A 
ATOM     35  C   UNL A   1      41.384  26.704  28.968  1.00  0.00     0.074 A 
ATOM     36  C   UNL A   1      43.560  26.232  29.966  1.00  0.00     0.049 A 
ATOM     37  N   UNL A   1      41.390  27.989  29.078  1.00  0.00    -0.248 NA
ATOM     38  C   UNL A   1      40.084  26.162  28.606  1.00  0.00     0.031 C 
ATOM     39  C   UNL A   1      43.541  27.356  30.900  1.00  0.00     0.029 A 
ATOM     40  N   UNL A   1      44.891  25.815  29.951  1.00  0.00    -0.354 N 
ATOM     41  C   UNL A   1      40.080  28.416  29.082  1.00  0.00     0.074 A 
ATOM     42  C   UNL A   1      39.316  27.249  28.706  1.00  0.00     0.031 C 
ATOM     43  C   UNL A   1      44.806  27.721  31.161  1.00  0.00     0.029 A 
ATOM     44  C   UNL A   1      45.678  26.923  30.318  1.00  0.00     0.049 A 
ATOM     45  H   UNL A   1      45.219  24.914  29.727  1.00  0.00     0.167 HD
ATOM     46  C   UNL A   1      39.782  29.668  29.537  1.00  0.00     0.034 A 
ATOM     47  C   UNL A   1      46.639  27.410  29.483  1.00  0.00     0.034 A 
ATOM     48  C   UNL A   1      40.999  30.419  29.869  1.00  0.00     0.049 A 
ATOM     49  C   UNL A   1      46.380  28.833  29.034  1.00  0.00     0.074 A 
ATOM     50  C   UNL A   1      41.626  30.709  31.070  1.00  0.00     0.029 A 
ATOM     51  N   UNL A   1      41.904  30.752  28.865  1.00  0.00    -0.354 N 
ATOM     52  N   UNL A   1      45.254  29.469  29.215  1.00  0.00    -0.248 NA
ATOM     53  C   UNL A   1      47.362  29.639  28.315  1.00  0.00     0.031 C 
ATOM     54  C   UNL A   1      42.947  31.146  30.781  1.00  0.00     0.029 A 
ATOM     55  C   UNL A   1      43.111  31.156  29.406  1.00  0.00     0.049 A 
ATOM     56  H   UNL A   1      41.712  30.705  27.900  1.00  0.00     0.167 HD
ATOM     57  C   UNL A   1      45.314  30.697  28.606  1.00  0.00     0.074 A 
ATOM     58  C   UNL A   1      46.674  30.773  28.099  1.00  0.00     0.031 C 
ATOM     59  C   UNL A   1      44.229  31.531  28.546  1.00  0.00     0.034 A 
BRANCH  46  60
ATOM     60  C   UNL A   1      38.395  30.099  29.985  1.00  0.00     0.023 A 
ATOM     61  C   UNL A   1      37.787  31.215  29.370  1.00  0.00     0.031 A 
ATOM     62  C   UNL A   1      37.646  29.519  31.028  1.00  0.00     0.131 A 
ATOM     63  C   UNL A   1      36.587  31.768  29.860  1.00  0.00     0.055 A 
ATOM     64  C   UNL A   1      36.490  30.104  31.562  1.00  0.00     0.041 A 
ATOM     65  F   UNL A   1      37.950  28.319  31.536  1.00  0.00    -0.206 F 
ATOM     66  C   UNL A   1      35.960  31.247  30.987  1.00  0.00     0.022 A 
BRANCH  63  67
ATOM     67  S   UNL A   1      35.839  33.176  28.996  1.00  0.00     0.124 S 
ATOM     68  O   UNL A   1      34.606  33.382  29.747  1.00  0.00    -0.237 OA
ATOM     69  O   UNL A   1      36.864  34.204  29.137  1.00  0.00    -0.237 OA
ATOM     70  O   UNL A   1      35.653  32.679  27.632  1.00  0.00    -0.744 OA
ENDBRANCH  63  67
ENDBRANCH  46  60
BRANCH  47  71
ATOM     71  C   UNL A   1      47.302  26.345  28.676  1.00  0.00     0.023 A 
ATOM     72  C   UNL A   1      46.876  26.191  27.337  1.00  0.00     0.031 A 
ATOM     73  C   UNL A   1      48.539  25.798  29.034  1.00  0.00     0.131 A 
ATOM     74  C   UNL A   1      47.748  25.669  26.371  1.00  0.00     0.055 A 
ATOM     75  C   UNL A   1      49.377  25.207  28.079  1.00  0.00     0.041 A 
ATOM     76  F   UNL A   1      49.017  25.943  30.280  1.00  0.00    -0.206 F 
ATOM     77  C   UNL A   1      49.004  25.185  26.733  1.00  0.00     0.022 A 
BRANCH  74  78
ATOM     78  S   UNL A   1      47.348  25.910  24.614  1.00  0.00     0.124 S 
ATOM     79  O   UNL A   1      48.528  26.605  24.115  1.00  0.00    -0.237 OA
ATOM     80  O   UNL A   1      47.157  24.542  24.138  1.00  0.00    -0.237 OA
ATOM     81  O   UNL A   1      46.114  26.696  24.638  1.00  0.00    -0.744 OA
ENDBRANCH  74  78
ENDBRANCH  47  71
BRANCH  59  82
ATOM     82  C   UNL A   1      44.146  32.810  27.734  1.00  0.00     0.023 A 
ATOM     83  C   UNL A   1      44.202  34.094  28.300  1.00  0.00     0.031 A 
ATOM     84  C   UNL A   1      44.074  32.772  26.320  1.00  0.00     0.131 A 
ATOM     85  C   UNL A   1      44.088  35.250  27.504  1.00  0.00     0.055 A 
ATOM     86  C   UNL A   1      44.050  33.922  25.524  1.00  0.00     0.041 A 
ATOM     87  F   UNL A   1      44.031  31.613  25.647  1.00  0.00    -0.206 F 
ATOM     88  C   UNL A   1      44.036  35.175  26.115  1.00  0.00     0.022 A 
BRANCH  85  89
ATOM     89  S   UNL A   1      43.929  36.853  28.335  1.00  0.00     0.124 S 
ATOM     90  O   UNL A   1      45.085  36.843  29.229  1.00  0.00    -0.237 OA
ATOM     91  O   UNL A   1      43.998  37.793  27.222  1.00  0.00    -0.237 OA
ATOM     92  O   UNL A   1      42.631  36.772  29.000  1.00  0.00    -0.744 OA
ENDBRANCH  85  89
ENDBRANCH  59  82
ENDBRANCH  33  34
ENDBRANCH  25  28
ENDBRANCH  23  24
ENDBRANCH   1  23
TORSDOF 16
ENDMDL
