MODEL 1
REMARK VINA RESULT:     -12.0      0.000      0.000
REMARK SMILES O=C(NCCCNC(=O)[C@H]1CCCN1S(=O)(=O)c1ccccc1Cl)c1ccc(-c2c3nc(c(-c4cc(S(=O)(=O)[O-])ccc4F)c4ccc([nH]4)c(-c4cc(S(=O)(=O)[O-])ccc4F)c4nc(c(-c5cc(S(=O)(=O)[O-])ccc5F)c5ccc2[nH]5)C=C4)C=C3)cc1
REMARK SMILES IDX 4 1 3 2 1 3 2 4 25 6 26 7 87 8 27 9 86 10 28 11 29 12 30 13
REMARK SMILES IDX 80 14 31 15 85 16 79 17 81 18 32 19 84 20 78 21 77 22 33 24
REMARK SMILES IDX 65 25 45 26 64 27 46 28 49 29 63 30 82 31 47 32 48 33 62 35
REMARK SMILES IDX 83 36 50 37 34 38 35 39 43 40 36 41 42 42 44 43 41 44 37 45
REMARK SMILES IDX 38 46 39 47 40 48 66 49 67 50 75 51 68 52 74 53 76 54 73 55
REMARK SMILES IDX 69 56 70 57 71 58 72 59 51 60 52 61 60 62 53 63 59 64 61 65
REMARK SMILES IDX 58 66 54 67 55 68 56 69 57 70 5 71 6 72 7 73 8 74 9 76 10 77
REMARK SMILES IDX 11 78 14 79 12 80 13 81 15 82 16 83 17 84 18 85 19 86 23 87
REMARK SMILES IDX 20 88 22 89 24 90 21 91
REMARK H PARENT 3 5 81 23 49 34 7 75
REMARK Flexibility Score: inf
ROOT
ATOM      1  C   UNL A   1      32.688  32.783  27.253  1.00  0.00     0.118 C 
ENDROOT
BRANCH   1   2
ATOM      2  N   UNL A   1      32.571  34.154  27.724  1.00  0.00    -0.352 N 
ATOM      3  O   UNL A   1      32.814  35.897  29.120  1.00  0.00    -0.269 OA
ATOM      4  C   UNL A   1      33.204  34.785  28.768  1.00  0.00     0.251 C 
ATOM      5  H   UNL A   1      31.942  34.717  27.218  1.00  0.00     0.163 HD
BRANCH   4   6
ATOM      6  C   UNL A   1      34.338  34.143  29.474  1.00  0.00     0.039 A 
ATOM      7  C   UNL A   1      34.122  33.205  30.487  1.00  0.00     0.014 A 
ATOM      8  C   UNL A   1      35.645  34.440  29.072  1.00  0.00     0.014 A 
ATOM      9  C   UNL A   1      35.204  32.660  31.174  1.00  0.00     0.010 A 
ATOM     10  C   UNL A   1      36.731  33.832  29.712  1.00  0.00     0.010 A 
ATOM     11  C   UNL A   1      36.520  32.951  30.783  1.00  0.00    -0.014 A 
BRANCH  11  12
ATOM     12  C   UNL A   1      37.653  32.271  31.465  1.00  0.00     0.031 A 
ATOM     13  C   UNL A   1      38.398  31.146  30.801  1.00  0.00     0.074 A 
ATOM     14  C   UNL A   1      38.021  32.695  32.690  1.00  0.00     0.049 A 
ATOM     15  N   UNL A   1      39.413  30.450  31.249  1.00  0.00    -0.248 NA
ATOM     16  C   UNL A   1      37.937  30.742  29.466  1.00  0.00     0.031 C 
ATOM     17  C   UNL A   1      37.364  33.771  33.438  1.00  0.00     0.029 A 
ATOM     18  N   UNL A   1      39.036  32.292  33.519  1.00  0.00    -0.354 N 
ATOM     19  C   UNL A   1      39.708  29.520  30.258  1.00  0.00     0.074 A 
ATOM     20  C   UNL A   1      38.737  29.719  29.201  1.00  0.00     0.031 C 
ATOM     21  C   UNL A   1      38.018  33.968  34.592  1.00  0.00     0.029 A 
ATOM     22  C   UNL A   1      39.098  32.995  34.699  1.00  0.00     0.049 A 
ATOM     23  H   UNL A   1      39.663  31.566  33.290  1.00  0.00     0.167 HD
ATOM     24  C   UNL A   1      40.700  28.593  30.232  1.00  0.00     0.034 A 
ATOM     25  C   UNL A   1      39.916  32.861  35.760  1.00  0.00     0.034 A 
ATOM     26  C   UNL A   1      41.657  28.407  31.298  1.00  0.00     0.049 A 
ATOM     27  C   UNL A   1      40.983  31.801  35.722  1.00  0.00     0.074 A 
ATOM     28  C   UNL A   1      42.721  27.522  31.359  1.00  0.00     0.029 A 
ATOM     29  N   UNL A   1      41.663  29.112  32.496  1.00  0.00    -0.354 N 
ATOM     30  N   UNL A   1      41.260  30.943  34.767  1.00  0.00    -0.248 NA
ATOM     31  C   UNL A   1      41.848  31.693  36.902  1.00  0.00     0.031 C 
ATOM     32  C   UNL A   1      43.326  27.646  32.616  1.00  0.00     0.029 A 
ATOM     33  C   UNL A   1      42.689  28.659  33.313  1.00  0.00     0.049 A 
ATOM     34  H   UNL A   1      41.032  29.829  32.731  1.00  0.00     0.167 HD
ATOM     35  C   UNL A   1      42.343  30.203  35.227  1.00  0.00     0.074 A 
ATOM     36  C   UNL A   1      42.682  30.731  36.534  1.00  0.00     0.031 C 
ATOM     37  C   UNL A   1      42.999  29.179  34.624  1.00  0.00     0.034 A 
BRANCH  24  38
ATOM     38  C   UNL A   1      40.768  27.682  29.029  1.00  0.00     0.023 A 
ATOM     39  C   UNL A   1      41.713  27.875  28.005  1.00  0.00     0.031 A 
ATOM     40  C   UNL A   1      39.863  26.613  28.894  1.00  0.00     0.131 A 
ATOM     41  C   UNL A   1      41.686  27.059  26.863  1.00  0.00     0.055 A 
ATOM     42  C   UNL A   1      39.891  25.758  27.790  1.00  0.00     0.041 A 
ATOM     43  F   UNL A   1      38.927  26.389  29.829  1.00  0.00    -0.206 F 
ATOM     44  C   UNL A   1      40.798  25.987  26.760  1.00  0.00     0.022 A 
BRANCH  41  45
ATOM     45  S   UNL A   1      42.741  27.503  25.455  1.00  0.00     0.124 S 
ATOM     46  O   UNL A   1      41.999  28.618  24.870  1.00  0.00    -0.237 OA
ATOM     47  O   UNL A   1      44.003  27.845  26.101  1.00  0.00    -0.237 OA
ATOM     48  O   UNL A   1      42.763  26.287  24.645  1.00  0.00    -0.744 OA
ENDBRANCH  41  45
ENDBRANCH  24  38
BRANCH  25  49
ATOM     49  C   UNL A   1      39.737  33.728  36.959  1.00  0.00     0.023 A 
ATOM     50  C   UNL A   1      40.585  34.820  37.199  1.00  0.00     0.031 A 
ATOM     51  C   UNL A   1      38.719  33.463  37.893  1.00  0.00     0.131 A 
ATOM     52  C   UNL A   1      40.423  35.584  38.365  1.00  0.00     0.055 A 
ATOM     53  C   UNL A   1      38.530  34.257  39.023  1.00  0.00     0.041 A 
ATOM     54  F   UNL A   1      37.877  32.433  37.705  1.00  0.00    -0.206 F 
ATOM     55  C   UNL A   1      39.393  35.320  39.271  1.00  0.00     0.022 A 
BRANCH  52  56
ATOM     56  S   UNL A   1      41.626  36.895  38.719  1.00  0.00     0.124 S 
ATOM     57  O   UNL A   1      40.769  37.953  39.240  1.00  0.00    -0.237 OA
ATOM     58  O   UNL A   1      42.504  36.245  39.687  1.00  0.00    -0.237 OA
ATOM     59  O   UNL A   1      42.229  37.164  37.416  1.00  0.00    -0.744 OA
ENDBRANCH  52  56
ENDBRANCH  25  49
BRANCH  37  60
ATOM     60  C   UNL A   1      44.169  28.591  35.375  1.00  0.00     0.023 A 
ATOM     61  C   UNL A   1      44.005  27.522  36.273  1.00  0.00     0.031 A 
ATOM     62  C   UNL A   1      45.457  29.130  35.212  1.00  0.00     0.131 A 
ATOM     63  C   UNL A   1      45.102  27.063  37.017  1.00  0.00     0.055 A 
ATOM     64  C   UNL A   1      46.555  28.630  35.913  1.00  0.00     0.041 A 
ATOM     65  F   UNL A   1      45.668  30.154  34.369  1.00  0.00    -0.206 F 
ATOM     66  C   UNL A   1      46.379  27.600  36.832  1.00  0.00     0.022 A 
BRANCH  63  67
ATOM     67  S   UNL A   1      44.820  25.814  38.302  1.00  0.00     0.124 S 
ATOM     68  O   UNL A   1      46.169  25.593  38.812  1.00  0.00    -0.237 OA
ATOM     69  O   UNL A   1      43.899  26.497  39.206  1.00  0.00    -0.237 OA
ATOM     70  O   UNL A   1      44.244  24.689  37.567  1.00  0.00    -0.744 OA
ENDBRANCH  63  67
ENDBRANCH  37  60
ENDBRANCH  11  12
ENDBRANCH   4   6
ENDBRANCH   1   2
BRANCH   1  71
ATOM     71  C   UNL A   1      31.418  32.286  26.565  1.00  0.00     0.042 C 
BRANCH  71  72
ATOM     72  C   UNL A   1      31.512  30.866  26.012  1.00  0.00     0.117 C 
BRANCH  72  73
ATOM     73  N   UNL A   1      32.380  30.020  26.811  1.00  0.00    -0.355 N 
ATOM     74  C   UNL A   1      33.013  28.843  26.578  1.00  0.00     0.238 C 
ATOM     75  H   UNL A   1      32.544  30.377  27.713  1.00  0.00     0.163 HD
ATOM     76  O   UNL A   1      33.662  28.399  27.536  1.00  0.00    -0.273 OA
BRANCH  74  77
ATOM     77  C   UNL A   1      32.984  28.053  25.271  1.00  0.00     0.162 C 
ATOM     78  C   UNL A   1      33.822  26.782  25.399  1.00  0.00     0.032 C 
ATOM     79  N   UNL A   1      31.690  27.591  24.700  1.00  0.00    -0.185 NA
ATOM     80  C   UNL A   1      32.808  25.750  25.834  1.00  0.00     0.019 C 
ATOM     81  C   UNL A   1      31.541  26.135  25.082  1.00  0.00     0.103 C 
BRANCH  79  82
ATOM     82  S   UNL A   1      31.489  27.797  23.002  1.00  0.00     0.245 S 
ATOM     83  O   UNL A   1      32.555  28.649  22.525  1.00  0.00    -0.207 OA
ATOM     84  O   UNL A   1      31.349  26.462  22.448  1.00  0.00    -0.207 OA
BRANCH  82  85
ATOM     85  C   UNL A   1      29.923  28.607  22.775  1.00  0.00     0.101 A 
ATOM     86  C   UNL A   1      29.958  29.933  22.300  1.00  0.00     0.023 A 
ATOM     87  C   UNL A   1      28.701  28.062  23.183  1.00  0.00     0.061 A 
ATOM     88  C   UNL A   1      28.789  30.689  22.204  1.00  0.00     0.002 A 
ATOM     89  C   UNL A   1      27.528  28.822  23.051  1.00  0.00     0.022 A 
ATOM     90  Cl  UNL A   1      28.476  26.493  23.873  1.00  0.00    -0.083 Cl
ATOM     91  C   UNL A   1      27.571  30.129  22.568  1.00  0.00     0.002 A 
ENDBRANCH  82  85
ENDBRANCH  79  82
ENDBRANCH  74  77
ENDBRANCH  72  73
ENDBRANCH  71  72
ENDBRANCH   1  71
TORSDOF 15
ENDMDL
MODEL 2
REMARK VINA RESULT:     -11.9      5.753      8.553
REMARK SMILES O=C(NCCCNC(=O)[C@H]1CCCN1S(=O)(=O)c1ccccc1Cl)c1ccc(-c2c3nc(c(-c4cc(S(=O)(=O)[O-])ccc4F)c4ccc([nH]4)c(-c4cc(S(=O)(=O)[O-])ccc4F)c4nc(c(-c5cc(S(=O)(=O)[O-])ccc5F)c5ccc2[nH]5)C=C4)C=C3)cc1
REMARK SMILES IDX 4 1 3 2 1 3 2 4 25 6 26 7 87 8 27 9 86 10 28 11 29 12 30 13
REMARK SMILES IDX 80 14 31 15 85 16 79 17 81 18 32 19 84 20 78 21 77 22 33 24
REMARK SMILES IDX 65 25 45 26 64 27 46 28 49 29 63 30 82 31 47 32 48 33 62 35
REMARK SMILES IDX 83 36 50 37 34 38 35 39 43 40 36 41 42 42 44 43 41 44 37 45
REMARK SMILES IDX 38 46 39 47 40 48 66 49 67 50 75 51 68 52 74 53 76 54 73 55
REMARK SMILES IDX 69 56 70 57 71 58 72 59 51 60 52 61 60 62 53 63 59 64 61 65
REMARK SMILES IDX 58 66 54 67 55 68 56 69 57 70 5 71 6 72 7 73 8 74 9 76 10 77
REMARK SMILES IDX 11 78 14 79 12 80 13 81 15 82 16 83 17 84 18 85 19 86 23 87
REMARK SMILES IDX 20 88 22 89 24 90 21 91
REMARK H PARENT 3 5 81 23 49 34 7 75
REMARK Flexibility Score: inf
ROOT
ATOM      1  C   UNL A   1      35.672  22.514  26.106  1.00  0.00     0.118 C 
ENDROOT
BRANCH   1   2
ATOM      2  N   UNL A   1      36.621  21.441  25.855  1.00  0.00    -0.352 N 
ATOM      3  O   UNL A   1      38.587  20.488  25.335  1.00  0.00    -0.269 OA
ATOM      4  C   UNL A   1      37.990  21.480  25.747  1.00  0.00     0.251 C 
ATOM      5  H   UNL A   1      36.221  20.548  25.744  1.00  0.00     0.163 HD
BRANCH   4   6
ATOM      6  C   UNL A   1      38.749  22.700  26.114  1.00  0.00     0.039 A 
ATOM      7  C   UNL A   1      38.347  23.962  25.670  1.00  0.00     0.014 A 
ATOM      8  C   UNL A   1      39.851  22.584  26.968  1.00  0.00     0.014 A 
ATOM      9  C   UNL A   1      39.111  25.085  25.980  1.00  0.00     0.010 A 
ATOM     10  C   UNL A   1      40.572  23.723  27.342  1.00  0.00     0.010 A 
ATOM     11  C   UNL A   1      40.220  24.983  26.834  1.00  0.00    -0.014 A 
BRANCH  11  12
ATOM     12  C   UNL A   1      40.952  26.214  27.234  1.00  0.00     0.031 A 
ATOM     13  C   UNL A   1      42.352  26.478  26.752  1.00  0.00     0.074 A 
ATOM     14  C   UNL A   1      40.330  27.110  28.027  1.00  0.00     0.049 A 
ATOM     15  N   UNL A   1      43.130  27.501  26.997  1.00  0.00    -0.248 NA
ATOM     16  C   UNL A   1      42.961  25.454  25.892  1.00  0.00     0.031 C 
ATOM     17  C   UNL A   1      38.976  26.954  28.565  1.00  0.00     0.029 A 
ATOM     18  N   UNL A   1      40.738  28.328  28.507  1.00  0.00    -0.354 N 
ATOM     19  C   UNL A   1      44.324  27.244  26.332  1.00  0.00     0.074 A 
ATOM     20  C   UNL A   1      44.177  25.947  25.703  1.00  0.00     0.031 C 
ATOM     21  C   UNL A   1      38.652  28.053  29.265  1.00  0.00     0.029 A 
ATOM     22  C   UNL A   1      39.793  28.960  29.281  1.00  0.00     0.049 A 
ATOM     23  H   UNL A   1      41.624  28.713  28.315  1.00  0.00     0.167 HD
ATOM     24  C   UNL A   1      45.435  28.022  26.249  1.00  0.00     0.034 A 
ATOM     25  C   UNL A   1      39.842  30.129  29.947  1.00  0.00     0.034 A 
ATOM     26  C   UNL A   1      45.564  29.312  26.885  1.00  0.00     0.049 A 
ATOM     27  C   UNL A   1      41.098  30.954  29.869  1.00  0.00     0.074 A 
ATOM     28  C   UNL A   1      46.630  30.195  26.838  1.00  0.00     0.029 A 
ATOM     29  N   UNL A   1      44.600  29.902  27.694  1.00  0.00    -0.354 N 
ATOM     30  N   UNL A   1      42.210  30.703  29.218  1.00  0.00    -0.248 NA
ATOM     31  C   UNL A   1      41.104  32.219  30.614  1.00  0.00     0.031 C 
ATOM     32  C   UNL A   1      46.337  31.284  27.668  1.00  0.00     0.029 A 
ATOM     33  C   UNL A   1      45.059  31.119  28.177  1.00  0.00     0.049 A 
ATOM     34  H   UNL A   1      43.719  29.514  27.895  1.00  0.00     0.167 HD
ATOM     35  C   UNL A   1      43.044  31.790  29.463  1.00  0.00     0.074 A 
ATOM     36  C   UNL A   1      42.296  32.705  30.302  1.00  0.00     0.031 C 
ATOM     37  C   UNL A   1      44.312  32.010  29.033  1.00  0.00     0.034 A 
BRANCH  24  38
ATOM     38  C   UNL A   1      46.611  27.473  25.476  1.00  0.00     0.023 A 
ATOM     39  C   UNL A   1      46.930  27.933  24.185  1.00  0.00     0.031 A 
ATOM     40  C   UNL A   1      47.415  26.461  26.030  1.00  0.00     0.131 A 
ATOM     41  C   UNL A   1      47.978  27.336  23.467  1.00  0.00     0.055 A 
ATOM     42  C   UNL A   1      48.504  25.923  25.339  1.00  0.00     0.041 A 
ATOM     43  F   UNL A   1      47.150  25.968  27.249  1.00  0.00    -0.206 F 
ATOM     44  C   UNL A   1      48.782  26.351  24.044  1.00  0.00     0.022 A 
BRANCH  41  45
ATOM     45  S   UNL A   1      48.189  27.772  21.719  1.00  0.00     0.124 S 
ATOM     46  O   UNL A   1      46.937  28.470  21.434  1.00  0.00    -0.237 OA
ATOM     47  O   UNL A   1      49.390  28.598  21.741  1.00  0.00    -0.237 OA
ATOM     48  O   UNL A   1      48.334  26.476  21.057  1.00  0.00    -0.744 OA
ENDBRANCH  41  45
ENDBRANCH  24  38
BRANCH  25  49
ATOM     49  C   UNL A   1      38.682  30.571  30.771  1.00  0.00     0.023 A 
ATOM     50  C   UNL A   1      37.611  31.276  30.200  1.00  0.00     0.031 A 
ATOM     51  C   UNL A   1      38.639  30.307  32.152  1.00  0.00     0.131 A 
ATOM     52  C   UNL A   1      36.560  31.724  31.014  1.00  0.00     0.055 A 
ATOM     53  C   UNL A   1      37.566  30.710  32.947  1.00  0.00     0.041 A 
ATOM     54  F   UNL A   1      39.636  29.631  32.746  1.00  0.00    -0.206 F 
ATOM     55  C   UNL A   1      36.522  31.434  32.380  1.00  0.00     0.022 A 
BRANCH  52  56
ATOM     56  S   UNL A   1      35.267  32.758  30.272  1.00  0.00     0.124 S 
ATOM     57  O   UNL A   1      34.795  31.910  29.185  1.00  0.00    -0.237 OA
ATOM     58  O   UNL A   1      34.348  32.940  31.390  1.00  0.00    -0.237 OA
ATOM     59  O   UNL A   1      35.988  33.960  29.859  1.00  0.00    -0.744 OA
ENDBRANCH  52  56
ENDBRANCH  25  49
BRANCH  37  60
ATOM     60  C   UNL A   1      44.949  33.313  29.449  1.00  0.00     0.023 A 
ATOM     61  C   UNL A   1      44.831  34.474  28.664  1.00  0.00     0.031 A 
ATOM     62  C   UNL A   1      45.708  33.385  30.630  1.00  0.00     0.131 A 
ATOM     63  C   UNL A   1      45.510  35.642  29.040  1.00  0.00     0.055 A 
ATOM     64  C   UNL A   1      46.334  34.567  31.028  1.00  0.00     0.041 A 
ATOM     65  F   UNL A   1      45.854  32.306  31.415  1.00  0.00    -0.206 F 
ATOM     66  C   UNL A   1      46.249  35.700  30.225  1.00  0.00     0.022 A 
BRANCH  63  67
ATOM     67  S   UNL A   1      45.494  37.060  27.910  1.00  0.00     0.124 S 
ATOM     68  O   UNL A   1      46.820  37.630  28.118  1.00  0.00    -0.237 OA
ATOM     69  O   UNL A   1      45.267  36.426  26.615  1.00  0.00    -0.237 OA
ATOM     70  O   UNL A   1      44.385  37.877  28.401  1.00  0.00    -0.744 OA
ENDBRANCH  63  67
ENDBRANCH  37  60
ENDBRANCH  11  12
ENDBRANCH   4   6
ENDBRANCH   1   2
BRANCH   1  71
ATOM     71  C   UNL A   1      34.777  22.239  27.313  1.00  0.00     0.042 C 
BRANCH  71  72
ATOM     72  C   UNL A   1      33.472  21.520  26.983  1.00  0.00     0.117 C 
BRANCH  72  73
ATOM     73  N   UNL A   1      32.308  22.355  27.218  1.00  0.00    -0.355 N 
ATOM     74  C   UNL A   1      31.772  23.418  26.567  1.00  0.00     0.238 C 
ATOM     75  H   UNL A   1      31.800  22.095  28.019  1.00  0.00     0.163 HD
ATOM     76  O   UNL A   1      30.760  23.901  27.097  1.00  0.00    -0.273 OA
BRANCH  74  77
ATOM     77  C   UNL A   1      32.303  24.042  25.278  1.00  0.00     0.162 C 
ATOM     78  C   UNL A   1      31.954  23.164  24.078  1.00  0.00     0.032 C 
ATOM     79  N   UNL A   1      31.879  25.410  24.875  1.00  0.00    -0.185 NA
ATOM     80  C   UNL A   1      30.642  23.743  23.604  1.00  0.00     0.019 C 
ATOM     81  C   UNL A   1      30.792  25.240  23.836  1.00  0.00     0.103 C 
BRANCH  79  82
ATOM     82  S   UNL A   1      33.120  26.452  24.291  1.00  0.00     0.245 S 
ATOM     83  O   UNL A   1      34.395  25.843  24.593  1.00  0.00    -0.207 OA
ATOM     84  O   UNL A   1      32.783  26.743  22.908  1.00  0.00    -0.207 OA
BRANCH  82  85
ATOM     85  C   UNL A   1      32.956  27.981  25.185  1.00  0.00     0.101 A 
ATOM     86  C   UNL A   1      33.866  28.200  26.236  1.00  0.00     0.023 A 
ATOM     87  C   UNL A   1      31.897  28.877  25.001  1.00  0.00     0.061 A 
ATOM     88  C   UNL A   1      33.741  29.313  27.070  1.00  0.00     0.002 A 
ATOM     89  C   UNL A   1      31.802  30.009  25.825  1.00  0.00     0.022 A 
ATOM     90  Cl  UNL A   1      30.637  28.724  23.829  1.00  0.00    -0.083 Cl
ATOM     91  C   UNL A   1      32.716  30.225  26.856  1.00  0.00     0.002 A 
ENDBRANCH  82  85
ENDBRANCH  79  82
ENDBRANCH  74  77
ENDBRANCH  72  73
ENDBRANCH  71  72
ENDBRANCH   1  71
TORSDOF 15
ENDMDL
MODEL 3
REMARK VINA RESULT:     -11.9      1.746      2.922
REMARK SMILES O=C(NCCCNC(=O)[C@H]1CCCN1S(=O)(=O)c1ccccc1Cl)c1ccc(-c2c3nc(c(-c4cc(S(=O)(=O)[O-])ccc4F)c4ccc([nH]4)c(-c4cc(S(=O)(=O)[O-])ccc4F)c4nc(c(-c5cc(S(=O)(=O)[O-])ccc5F)c5ccc2[nH]5)C=C4)C=C3)cc1
REMARK SMILES IDX 4 1 3 2 1 3 2 4 25 6 26 7 87 8 27 9 86 10 28 11 29 12 30 13
REMARK SMILES IDX 80 14 31 15 85 16 79 17 81 18 32 19 84 20 78 21 77 22 33 24
REMARK SMILES IDX 65 25 45 26 64 27 46 28 49 29 63 30 82 31 47 32 48 33 62 35
REMARK SMILES IDX 83 36 50 37 34 38 35 39 43 40 36 41 42 42 44 43 41 44 37 45
REMARK SMILES IDX 38 46 39 47 40 48 66 49 67 50 75 51 68 52 74 53 76 54 73 55
REMARK SMILES IDX 69 56 70 57 71 58 72 59 51 60 52 61 60 62 53 63 59 64 61 65
REMARK SMILES IDX 58 66 54 67 55 68 56 69 57 70 5 71 6 72 7 73 8 74 9 76 10 77
REMARK SMILES IDX 11 78 14 79 12 80 13 81 15 82 16 83 17 84 18 85 19 86 23 87
REMARK SMILES IDX 20 88 22 89 24 90 21 91
REMARK H PARENT 3 5 81 23 49 34 7 75
REMARK Flexibility Score: inf
ROOT
ATOM      1  C   UNL A   1      32.924  32.804  27.177  1.00  0.00     0.118 C 
ENDROOT
BRANCH   1   2
ATOM      2  N   UNL A   1      32.699  34.128  27.738  1.00  0.00    -0.352 N 
ATOM      3  O   UNL A   1      32.768  35.774  29.264  1.00  0.00    -0.269 OA
ATOM      4  C   UNL A   1      33.244  34.717  28.853  1.00  0.00     0.251 C 
ATOM      5  H   UNL A   1      32.057  34.687  27.243  1.00  0.00     0.163 HD
BRANCH   4   6
ATOM      6  C   UNL A   1      34.385  34.094  29.565  1.00  0.00     0.039 A 
ATOM      7  C   UNL A   1      34.178  33.183  30.604  1.00  0.00     0.014 A 
ATOM      8  C   UNL A   1      35.688  34.382  29.144  1.00  0.00     0.014 A 
ATOM      9  C   UNL A   1      35.267  32.657  31.296  1.00  0.00     0.010 A 
ATOM     10  C   UNL A   1      36.780  33.791  29.790  1.00  0.00     0.010 A 
ATOM     11  C   UNL A   1      36.579  32.939  30.885  1.00  0.00    -0.014 A 
BRANCH  11  12
ATOM     12  C   UNL A   1      37.719  32.278  31.574  1.00  0.00     0.031 A 
ATOM     13  C   UNL A   1      38.507  31.186  30.904  1.00  0.00     0.074 A 
ATOM     14  C   UNL A   1      38.054  32.688  32.814  1.00  0.00     0.049 A 
ATOM     15  N   UNL A   1      39.532  30.510  31.357  1.00  0.00    -0.248 NA
ATOM     16  C   UNL A   1      38.080  30.794  29.553  1.00  0.00     0.031 C 
ATOM     17  C   UNL A   1      37.354  33.732  33.569  1.00  0.00     0.029 A 
ATOM     18  N   UNL A   1      39.066  32.298  33.653  1.00  0.00    -0.354 N 
ATOM     19  C   UNL A   1      39.870  29.607  30.355  1.00  0.00     0.074 A 
ATOM     20  C   UNL A   1      38.913  29.799  29.284  1.00  0.00     0.031 C 
ATOM     21  C   UNL A   1      37.983  33.925  34.739  1.00  0.00     0.029 A 
ATOM     22  C   UNL A   1      39.088  32.980  34.847  1.00  0.00     0.049 A 
ATOM     23  H   UNL A   1      39.716  31.594  33.422  1.00  0.00     0.167 HD
ATOM     24  C   UNL A   1      40.888  28.708  30.329  1.00  0.00     0.034 A 
ATOM     25  C   UNL A   1      39.891  32.849  35.919  1.00  0.00     0.034 A 
ATOM     26  C   UNL A   1      41.832  28.529  31.408  1.00  0.00     0.049 A 
ATOM     27  C   UNL A   1      40.988  31.820  35.881  1.00  0.00     0.074 A 
ATOM     28  C   UNL A   1      42.919  27.672  31.472  1.00  0.00     0.029 A 
ATOM     29  N   UNL A   1      41.798  29.211  32.619  1.00  0.00    -0.354 N 
ATOM     30  N   UNL A   1      41.304  30.988  34.916  1.00  0.00    -0.248 NA
ATOM     31  C   UNL A   1      41.835  31.714  37.074  1.00  0.00     0.031 C 
ATOM     32  C   UNL A   1      43.498  27.789  32.741  1.00  0.00     0.029 A 
ATOM     33  C   UNL A   1      42.822  28.772  33.446  1.00  0.00     0.049 A 
ATOM     34  H   UNL A   1      41.142  29.906  32.855  1.00  0.00     0.167 HD
ATOM     35  C   UNL A   1      42.400  30.269  35.381  1.00  0.00     0.074 A 
ATOM     36  C   UNL A   1      42.702  30.782  36.703  1.00  0.00     0.031 C 
ATOM     37  C   UNL A   1      43.095  29.275  34.771  1.00  0.00     0.034 A 
BRANCH  24  38
ATOM     38  C   UNL A   1      41.002  27.822  29.111  1.00  0.00     0.023 A 
ATOM     39  C   UNL A   1      41.997  28.024  28.137  1.00  0.00     0.031 A 
ATOM     40  C   UNL A   1      40.091  26.769  28.910  1.00  0.00     0.131 A 
ATOM     41  C   UNL A   1      42.015  27.232  26.978  1.00  0.00     0.055 A 
ATOM     42  C   UNL A   1      40.161  25.937  27.790  1.00  0.00     0.041 A 
ATOM     43  F   UNL A   1      39.108  26.538  29.794  1.00  0.00    -0.206 F 
ATOM     44  C   UNL A   1      41.119  26.175  26.809  1.00  0.00     0.022 A 
BRANCH  41  45
ATOM     45  S   UNL A   1      43.141  27.692  25.632  1.00  0.00     0.124 S 
ATOM     46  O   UNL A   1      43.775  26.411  25.325  1.00  0.00    -0.237 OA
ATOM     47  O   UNL A   1      42.229  28.212  24.621  1.00  0.00    -0.237 OA
ATOM     48  O   UNL A   1      44.023  28.683  26.246  1.00  0.00    -0.744 OA
ENDBRANCH  41  45
ENDBRANCH  24  38
BRANCH  25  49
ATOM     49  C   UNL A   1      39.667  33.689  37.130  1.00  0.00     0.023 A 
ATOM     50  C   UNL A   1      38.962  33.193  38.237  1.00  0.00     0.031 A 
ATOM     51  C   UNL A   1      40.143  35.012  37.186  1.00  0.00     0.131 A 
ATOM     52  C   UNL A   1      38.722  34.027  39.340  1.00  0.00     0.055 A 
ATOM     53  C   UNL A   1      39.946  35.819  38.306  1.00  0.00     0.041 A 
ATOM     54  F   UNL A   1      40.828  35.531  36.155  1.00  0.00    -0.206 F 
ATOM     55  C   UNL A   1      39.221  35.331  39.389  1.00  0.00     0.022 A 
BRANCH  52  56
ATOM     56  S   UNL A   1      37.683  33.404  40.690  1.00  0.00     0.124 S 
ATOM     57  O   UNL A   1      36.559  32.830  39.960  1.00  0.00    -0.237 OA
ATOM     58  O   UNL A   1      38.576  32.454  41.344  1.00  0.00    -0.237 OA
ATOM     59  O   UNL A   1      37.376  34.604  41.466  1.00  0.00    -0.744 OA
ENDBRANCH  52  56
ENDBRANCH  25  49
BRANCH  37  60
ATOM     60  C   UNL A   1      44.267  28.706  35.531  1.00  0.00     0.023 A 
ATOM     61  C   UNL A   1      44.109  27.652  36.448  1.00  0.00     0.031 A 
ATOM     62  C   UNL A   1      45.553  29.247  35.358  1.00  0.00     0.131 A 
ATOM     63  C   UNL A   1      45.207  27.211  37.200  1.00  0.00     0.055 A 
ATOM     64  C   UNL A   1      46.653  28.765  36.068  1.00  0.00     0.041 A 
ATOM     65  F   UNL A   1      45.759  30.257  34.497  1.00  0.00    -0.206 F 
ATOM     66  C   UNL A   1      46.482  27.750  37.005  1.00  0.00     0.022 A 
BRANCH  63  67
ATOM     67  S   UNL A   1      44.932  25.984  38.507  1.00  0.00     0.124 S 
ATOM     68  O   UNL A   1      46.244  25.913  39.140  1.00  0.00    -0.237 OA
ATOM     69  O   UNL A   1      43.873  26.603  39.299  1.00  0.00    -0.237 OA
ATOM     70  O   UNL A   1      44.533  24.784  37.773  1.00  0.00    -0.744 OA
ENDBRANCH  63  67
ENDBRANCH  37  60
ENDBRANCH  11  12
ENDBRANCH   4   6
ENDBRANCH   1   2
BRANCH   1  71
ATOM     71  C   UNL A   1      31.627  32.114  26.758  1.00  0.00     0.042 C 
BRANCH  71  72
ATOM     72  C   UNL A   1      31.730  30.597  26.629  1.00  0.00     0.117 C 
BRANCH  72  73
ATOM     73  N   UNL A   1      32.542  30.194  25.494  1.00  0.00    -0.355 N 
ATOM     74  C   UNL A   1      32.419  29.225  24.554  1.00  0.00     0.238 C 
ATOM     75  H   UNL A   1      33.351  30.741  25.384  1.00  0.00     0.163 HD
ATOM     76  O   UNL A   1      33.350  29.167  23.737  1.00  0.00    -0.273 OA
BRANCH  74  77
ATOM     77  C   UNL A   1      31.262  28.234  24.431  1.00  0.00     0.162 C 
ATOM     78  C   UNL A   1      30.078  28.885  23.719  1.00  0.00     0.032 C 
ATOM     79  N   UNL A   1      31.455  26.938  23.726  1.00  0.00    -0.185 NA
ATOM     80  C   UNL A   1      30.308  28.517  22.272  1.00  0.00     0.019 C 
ATOM     81  C   UNL A   1      30.888  27.111  22.335  1.00  0.00     0.103 C 
BRANCH  79  82
ATOM     82  S   UNL A   1      30.780  25.549  24.489  1.00  0.00     0.245 S 
ATOM     83  O   UNL A   1      29.803  25.998  25.454  1.00  0.00    -0.207 OA
ATOM     84  O   UNL A   1      30.360  24.664  23.415  1.00  0.00    -0.207 OA
BRANCH  82  85
ATOM     85  C   UNL A   1      32.120  24.732  25.323  1.00  0.00     0.101 A 
ATOM     86  C   UNL A   1      33.413  25.244  25.099  1.00  0.00     0.023 A 
ATOM     87  C   UNL A   1      31.975  23.542  26.046  1.00  0.00     0.061 A 
ATOM     88  C   UNL A   1      34.538  24.597  25.614  1.00  0.00     0.002 A 
ATOM     89  C   UNL A   1      33.111  22.921  26.586  1.00  0.00     0.022 A 
ATOM     90  Cl  UNL A   1      30.485  22.719  26.344  1.00  0.00    -0.083 Cl
ATOM     91  C   UNL A   1      34.386  23.442  26.369  1.00  0.00     0.002 A 
ENDBRANCH  82  85
ENDBRANCH  79  82
ENDBRANCH  74  77
ENDBRANCH  72  73
ENDBRANCH  71  72
ENDBRANCH   1  71
TORSDOF 15
ENDMDL
