MODEL 1
REMARK VINA RESULT:     -12.5      0.000      0.000
REMARK SMILES O=C(CC1(NC(=O)c2ccc3cc[nH]c3c2)CCC1)NCCCNC(=O)c1ccc(-c2c3nc(c(-c4cc(S(=O)(=O)[O-])ccc4F)c4ccc([nH]4)c(-c4cc(S(=O)(=O)[O-])ccc4F)c4nc(c(-c5cc(S(=O)(=O)[O-])ccc5F)c5ccc2[nH]5)C=C4)C=C3)cc1
REMARK SMILES IDX 22 1 21 2 20 3 1 4 2 5 3 7 4 8 17 9 19 10 18 11 5 12 6 13
REMARK SMILES IDX 7 15 8 16 9 17 16 18 10 19 15 20 11 21 14 22 12 23 13 24
REMARK SMILES IDX 23 26 24 27 25 28 26 30 27 31 28 32 89 33 29 34 88 35 30 36
REMARK SMILES IDX 31 37 32 38 82 39 33 40 87 41 81 42 83 43 34 44 86 45 80 46
REMARK SMILES IDX 79 47 35 49 67 50 47 51 66 52 48 53 51 54 65 55 84 56 49 57
REMARK SMILES IDX 50 58 64 60 85 61 52 62 36 63 37 64 45 65 38 66 44 67 46 68
REMARK SMILES IDX 43 69 39 70 40 71 41 72 42 73 68 74 69 75 77 76 70 77 76 78
REMARK SMILES IDX 78 79 75 80 71 81 72 82 73 83 74 84 53 85 54 86 62 87 55 88
REMARK SMILES IDX 61 89 63 90 60 91 56 92 57 93 58 94 59 95
REMARK H PARENT 20 6 5 14 14 25 24 29 83 48 51 59
REMARK Flexibility Score: inf
ROOT
ATOM      1  C   UNL A   1      31.530  31.926  26.523  1.00  0.00     0.042 C 
ENDROOT
BRANCH   1   2
ATOM      2  C   UNL A   1      31.771  30.486  26.095  1.00  0.00     0.117 C 
BRANCH   2   3
ATOM      3  N   UNL A   1      31.149  30.107  24.841  1.00  0.00    -0.356 N 
ATOM      4  O   UNL A   1      32.131  29.054  23.112  1.00  0.00    -0.275 OA
ATOM      5  C   UNL A   1      31.462  28.977  24.142  1.00  0.00     0.222 C 
ATOM      6  H   UNL A   1      30.458  30.703  24.470  1.00  0.00     0.163 HD
BRANCH   5   7
ATOM      7  C   UNL A   1      30.910  27.633  24.596  1.00  0.00     0.128 C 
BRANCH   7   8
ATOM      8  C   UNL A   1      31.753  26.367  24.495  1.00  0.00     0.049 C 
ATOM      9  C   UNL A   1      32.752  26.230  25.704  1.00  0.00     0.029 C 
ATOM     10  C   UNL A   1      31.040  25.086  25.053  1.00  0.00     0.029 C 
ATOM     11  C   UNL A   1      31.833  25.199  26.359  1.00  0.00     0.005 C 
BRANCH   8  12
ATOM     12  N   UNL A   1      32.419  26.010  23.204  1.00  0.00    -0.346 N 
ATOM     13  C   UNL A   1      33.327  25.138  22.641  1.00  0.00     0.251 C 
ATOM     14  H   UNL A   1      32.090  26.618  22.503  1.00  0.00     0.164 HD
ATOM     15  O   UNL A   1      33.708  25.476  21.512  1.00  0.00    -0.269 OA
BRANCH  13  16
ATOM     16  C   UNL A   1      33.861  23.849  23.162  1.00  0.00     0.041 A 
ATOM     17  C   UNL A   1      35.073  23.716  23.824  1.00  0.00     0.014 A 
ATOM     18  C   UNL A   1      32.977  22.751  23.188  1.00  0.00     0.040 A 
ATOM     19  C   UNL A   1      35.498  22.518  24.420  1.00  0.00     0.011 A 
ATOM     20  C   UNL A   1      33.378  21.567  23.831  1.00  0.00     0.046 A 
ATOM     21  C   UNL A   1      34.631  21.420  24.421  1.00  0.00    -0.001 A 
ATOM     22  N   UNL A   1      32.695  20.393  24.058  1.00  0.00    -0.361 N 
ATOM     23  C   UNL A   1      34.708  20.103  24.946  1.00  0.00     0.028 A 
ATOM     24  C   UNL A   1      33.498  19.493  24.708  1.00  0.00     0.083 A 
ATOM     25  H   UNL A   1      31.761  20.225  23.792  1.00  0.00     0.166 HD
ENDBRANCH  13  16
ENDBRANCH   8  12
ENDBRANCH   7   8
ENDBRANCH   5   7
ENDBRANCH   2   3
ENDBRANCH   1   2
BRANCH   1  26
ATOM     26  C   UNL A   1      32.704  32.494  27.285  1.00  0.00     0.118 C 
BRANCH  26  27
ATOM     27  N   UNL A   1      32.502  33.881  27.684  1.00  0.00    -0.352 N 
ATOM     28  C   UNL A   1      33.194  34.619  28.612  1.00  0.00     0.251 C 
ATOM     29  H   UNL A   1      31.770  34.353  27.226  1.00  0.00     0.163 HD
ATOM     30  O   UNL A   1      32.816  35.758  28.876  1.00  0.00    -0.269 OA
BRANCH  28  31
ATOM     31  C   UNL A   1      34.343  34.019  29.325  1.00  0.00     0.039 A 
ATOM     32  C   UNL A   1      35.636  34.409  28.965  1.00  0.00     0.014 A 
ATOM     33  C   UNL A   1      34.157  33.097  30.356  1.00  0.00     0.014 A 
ATOM     34  C   UNL A   1      36.731  33.900  29.665  1.00  0.00     0.010 A 
ATOM     35  C   UNL A   1      35.232  32.693  31.132  1.00  0.00     0.010 A 
ATOM     36  C   UNL A   1      36.534  33.056  30.767  1.00  0.00    -0.014 A 
BRANCH  36  37
ATOM     37  C   UNL A   1      37.670  32.454  31.504  1.00  0.00     0.031 A 
ATOM     38  C   UNL A   1      38.435  31.322  30.867  1.00  0.00     0.074 A 
ATOM     39  C   UNL A   1      37.962  32.872  32.749  1.00  0.00     0.049 A 
ATOM     40  N   UNL A   1      39.388  30.578  31.365  1.00  0.00    -0.248 NA
ATOM     41  C   UNL A   1      38.035  30.943  29.501  1.00  0.00     0.031 C 
ATOM     42  C   UNL A   1      37.247  33.921  33.481  1.00  0.00     0.029 A 
ATOM     43  N   UNL A   1      38.935  32.464  33.622  1.00  0.00    -0.354 N 
ATOM     44  C   UNL A   1      39.672  29.627  30.390  1.00  0.00     0.074 A 
ATOM     45  C   UNL A   1      38.736  29.838  29.310  1.00  0.00     0.031 C 
ATOM     46  C   UNL A   1      37.829  34.096  34.677  1.00  0.00     0.029 A 
ATOM     47  C   UNL A   1      38.930  33.149  34.815  1.00  0.00     0.049 A 
ATOM     48  H   UNL A   1      39.578  31.746  33.416  1.00  0.00     0.167 HD
ATOM     49  C   UNL A   1      40.651  28.689  30.380  1.00  0.00     0.034 A 
ATOM     50  C   UNL A   1      39.726  33.018  35.894  1.00  0.00     0.034 A 
ATOM     51  C   UNL A   1      41.600  28.532  31.453  1.00  0.00     0.049 A 
ATOM     52  C   UNL A   1      40.829  31.992  35.850  1.00  0.00     0.074 A 
ATOM     53  C   UNL A   1      42.673  27.664  31.539  1.00  0.00     0.029 A 
ATOM     54  N   UNL A   1      41.590  29.274  32.629  1.00  0.00    -0.354 N 
ATOM     55  N   UNL A   1      41.120  31.131  34.901  1.00  0.00    -0.248 NA
ATOM     56  C   UNL A   1      41.721  31.932  37.014  1.00  0.00     0.031 C 
ATOM     57  C   UNL A   1      43.279  27.844  32.788  1.00  0.00     0.029 A 
ATOM     58  C   UNL A   1      42.629  28.872  33.454  1.00  0.00     0.049 A 
ATOM     59  H   UNL A   1      40.940  29.980  32.845  1.00  0.00     0.167 HD
ATOM     60  C   UNL A   1      42.250  30.449  35.342  1.00  0.00     0.074 A 
ATOM     61  C   UNL A   1      42.594  31.011  36.633  1.00  0.00     0.031 C 
ATOM     62  C   UNL A   1      42.945  29.451  34.738  1.00  0.00     0.034 A 
BRANCH  49  63
ATOM     63  C   UNL A   1      40.719  27.769  29.182  1.00  0.00     0.023 A 
ATOM     64  C   UNL A   1      41.668  27.956  28.159  1.00  0.00     0.031 A 
ATOM     65  C   UNL A   1      39.790  26.726  29.030  1.00  0.00     0.131 A 
ATOM     66  C   UNL A   1      41.605  27.180  26.992  1.00  0.00     0.055 A 
ATOM     67  C   UNL A   1      39.793  25.895  27.906  1.00  0.00     0.041 A 
ATOM     68  F   UNL A   1      38.848  26.508  29.960  1.00  0.00    -0.206 F 
ATOM     69  C   UNL A   1      40.691  26.131  26.870  1.00  0.00     0.022 A 
BRANCH  66  70
ATOM     70  S   UNL A   1      42.625  27.666  25.574  1.00  0.00     0.124 S 
ATOM     71  O   UNL A   1      41.884  28.816  25.060  1.00  0.00    -0.237 OA
ATOM     72  O   UNL A   1      43.911  27.961  26.194  1.00  0.00    -0.237 OA
ATOM     73  O   UNL A   1      42.602  26.485  24.712  1.00  0.00    -0.744 OA
ENDBRANCH  66  70
ENDBRANCH  49  63
BRANCH  50  74
ATOM     74  C   UNL A   1      39.527  33.886  37.089  1.00  0.00     0.023 A 
ATOM     75  C   UNL A   1      38.900  33.391  38.244  1.00  0.00     0.031 A 
ATOM     76  C   UNL A   1      39.935  35.231  37.086  1.00  0.00     0.131 A 
ATOM     77  C   UNL A   1      38.656  34.246  39.329  1.00  0.00     0.055 A 
ATOM     78  C   UNL A   1      39.735  36.066  38.188  1.00  0.00     0.041 A 
ATOM     79  F   UNL A   1      40.550  35.752  36.012  1.00  0.00    -0.206 F 
ATOM     80  C   UNL A   1      39.079  35.577  39.314  1.00  0.00     0.022 A 
BRANCH  77  81
ATOM     81  S   UNL A   1      37.701  33.612  40.736  1.00  0.00     0.124 S 
ATOM     82  O   UNL A   1      38.654  32.701  41.357  1.00  0.00    -0.237 OA
ATOM     83  O   UNL A   1      37.405  34.835  41.475  1.00  0.00    -0.237 OA
ATOM     84  O   UNL A   1      36.548  32.975  40.103  1.00  0.00    -0.744 OA
ENDBRANCH  77  81
ENDBRANCH  50  74
BRANCH  62  85
ATOM     85  C   UNL A   1      44.174  28.949  35.452  1.00  0.00     0.023 A 
ATOM     86  C   UNL A   1      44.114  27.881  36.362  1.00  0.00     0.031 A 
ATOM     87  C   UNL A   1      45.420  29.558  35.222  1.00  0.00     0.131 A 
ATOM     88  C   UNL A   1      45.268  27.491  37.056  1.00  0.00     0.055 A 
ATOM     89  C   UNL A   1      46.578  29.126  35.869  1.00  0.00     0.041 A 
ATOM     90  F   UNL A   1      45.532  30.583  34.362  1.00  0.00    -0.206 F 
ATOM     91  C   UNL A   1      46.503  28.096  36.803  1.00  0.00     0.022 A 
BRANCH  88  92
ATOM     92  S   UNL A   1      45.118  26.243  38.362  1.00  0.00     0.124 S 
ATOM     93  O   UNL A   1      46.340  26.460  39.131  1.00  0.00    -0.237 OA
ATOM     94  O   UNL A   1      43.875  26.629  39.021  1.00  0.00    -0.237 OA
ATOM     95  O   UNL A   1      45.065  24.981  37.627  1.00  0.00    -0.744 OA
ENDBRANCH  88  92
ENDBRANCH  62  85
ENDBRANCH  36  37
ENDBRANCH  28  31
ENDBRANCH  26  27
ENDBRANCH   1  26
TORSDOF 16
ENDMDL
MODEL 2
REMARK VINA RESULT:     -12.5      1.870      2.353
REMARK SMILES O=C(CC1(NC(=O)c2ccc3cc[nH]c3c2)CCC1)NCCCNC(=O)c1ccc(-c2c3nc(c(-c4cc(S(=O)(=O)[O-])ccc4F)c4ccc([nH]4)c(-c4cc(S(=O)(=O)[O-])ccc4F)c4nc(c(-c5cc(S(=O)(=O)[O-])ccc5F)c5ccc2[nH]5)C=C4)C=C3)cc1
REMARK SMILES IDX 22 1 21 2 20 3 1 4 2 5 3 7 4 8 17 9 19 10 18 11 5 12 6 13
REMARK SMILES IDX 7 15 8 16 9 17 16 18 10 19 15 20 11 21 14 22 12 23 13 24
REMARK SMILES IDX 23 26 24 27 25 28 26 30 27 31 28 32 89 33 29 34 88 35 30 36
REMARK SMILES IDX 31 37 32 38 82 39 33 40 87 41 81 42 83 43 34 44 86 45 80 46
REMARK SMILES IDX 79 47 35 49 67 50 47 51 66 52 48 53 51 54 65 55 84 56 49 57
REMARK SMILES IDX 50 58 64 60 85 61 52 62 36 63 37 64 45 65 38 66 44 67 46 68
REMARK SMILES IDX 43 69 39 70 40 71 41 72 42 73 68 74 69 75 77 76 70 77 76 78
REMARK SMILES IDX 78 79 75 80 71 81 72 82 73 83 74 84 53 85 54 86 62 87 55 88
REMARK SMILES IDX 61 89 63 90 60 91 56 92 57 93 58 94 59 95
REMARK H PARENT 20 6 5 14 14 25 24 29 83 48 51 59
REMARK Flexibility Score: inf
ROOT
ATOM      1  C   UNL A   1      31.630  31.811  26.724  1.00  0.00     0.042 C 
ENDROOT
BRANCH   1   2
ATOM      2  C   UNL A   1      31.897  30.435  26.134  1.00  0.00     0.117 C 
BRANCH   2   3
ATOM      3  N   UNL A   1      32.320  29.429  27.089  1.00  0.00    -0.356 N 
ATOM      4  O   UNL A   1      31.040  27.832  28.024  1.00  0.00    -0.275 OA
ATOM      5  C   UNL A   1      31.824  28.158  27.132  1.00  0.00     0.222 C 
ATOM      6  H   UNL A   1      33.009  29.679  27.747  1.00  0.00     0.163 HD
BRANCH   5   7
ATOM      7  C   UNL A   1      32.308  27.125  26.125  1.00  0.00     0.128 C 
BRANCH   7   8
ATOM      8  C   UNL A   1      31.368  26.047  25.598  1.00  0.00     0.049 C 
ATOM      9  C   UNL A   1      30.169  26.662  24.784  1.00  0.00     0.029 C 
ATOM     10  C   UNL A   1      31.838  25.403  24.246  1.00  0.00     0.029 C 
ATOM     11  C   UNL A   1      30.851  26.279  23.471  1.00  0.00     0.005 C 
BRANCH   8  12
ATOM     12  N   UNL A   1      30.899  24.952  26.502  1.00  0.00    -0.346 N 
ATOM     13  C   UNL A   1      31.033  23.603  26.754  1.00  0.00     0.251 C 
ATOM     14  H   UNL A   1      30.264  25.332  27.151  1.00  0.00     0.164 HD
ATOM     15  O   UNL A   1      30.167  23.150  27.515  1.00  0.00    -0.269 OA
BRANCH  13  16
ATOM     16  C   UNL A   1      32.077  22.645  26.296  1.00  0.00     0.041 A 
ATOM     17  C   UNL A   1      31.886  21.696  25.302  1.00  0.00     0.014 A 
ATOM     18  C   UNL A   1      33.397  22.877  26.734  1.00  0.00     0.040 A 
ATOM     19  C   UNL A   1      32.919  20.891  24.796  1.00  0.00     0.011 A 
ATOM     20  C   UNL A   1      34.442  22.110  26.190  1.00  0.00     0.046 A 
ATOM     21  C   UNL A   1      34.225  21.104  25.252  1.00  0.00    -0.001 A 
ATOM     22  N   UNL A   1      35.803  22.179  26.387  1.00  0.00    -0.361 N 
ATOM     23  C   UNL A   1      35.484  20.523  24.945  1.00  0.00     0.028 A 
ATOM     24  C   UNL A   1      36.439  21.208  25.659  1.00  0.00     0.083 A 
ATOM     25  H   UNL A   1      36.255  22.834  26.967  1.00  0.00     0.166 HD
ENDBRANCH  13  16
ENDBRANCH   8  12
ENDBRANCH   7   8
ENDBRANCH   5   7
ENDBRANCH   2   3
ENDBRANCH   1   2
BRANCH   1  26
ATOM     26  C   UNL A   1      32.891  32.459  27.244  1.00  0.00     0.118 C 
BRANCH  26  27
ATOM     27  N   UNL A   1      32.700  33.856  27.610  1.00  0.00    -0.352 N 
ATOM     28  C   UNL A   1      33.369  34.598  28.552  1.00  0.00     0.251 C 
ATOM     29  H   UNL A   1      31.997  34.333  27.114  1.00  0.00     0.163 HD
ATOM     30  O   UNL A   1      33.002  35.749  28.780  1.00  0.00    -0.269 OA
BRANCH  28  31
ATOM     31  C   UNL A   1      34.475  33.990  29.322  1.00  0.00     0.039 A 
ATOM     32  C   UNL A   1      34.175  33.003  30.264  1.00  0.00     0.014 A 
ATOM     33  C   UNL A   1      35.802  34.368  29.109  1.00  0.00     0.014 A 
ATOM     34  C   UNL A   1      35.210  32.373  30.959  1.00  0.00     0.010 A 
ATOM     35  C   UNL A   1      36.833  33.656  29.702  1.00  0.00     0.010 A 
ATOM     36  C   UNL A   1      36.547  32.682  30.665  1.00  0.00    -0.014 A 
BRANCH  36  37
ATOM     37  C   UNL A   1      37.672  32.075  31.416  1.00  0.00     0.031 A 
ATOM     38  C   UNL A   1      38.494  30.998  30.756  1.00  0.00     0.074 A 
ATOM     39  C   UNL A   1      37.902  32.438  32.692  1.00  0.00     0.049 A 
ATOM     40  N   UNL A   1      39.448  30.257  31.254  1.00  0.00    -0.248 NA
ATOM     41  C   UNL A   1      38.158  30.678  29.358  1.00  0.00     0.031 C 
ATOM     42  C   UNL A   1      37.128  33.429  33.445  1.00  0.00     0.029 A 
ATOM     43  N   UNL A   1      38.852  32.013  33.582  1.00  0.00    -0.354 N 
ATOM     44  C   UNL A   1      39.798  29.365  30.246  1.00  0.00     0.074 A 
ATOM     45  C   UNL A   1      38.898  29.604  29.141  1.00  0.00     0.031 C 
ATOM     46  C   UNL A   1      37.658  33.560  34.670  1.00  0.00     0.029 A 
ATOM     47  C   UNL A   1      38.780  32.637  34.806  1.00  0.00     0.049 A 
ATOM     48  H   UNL A   1      39.524  31.326  33.367  1.00  0.00     0.167 HD
ATOM     49  C   UNL A   1      40.804  28.456  30.229  1.00  0.00     0.034 A 
ATOM     50  C   UNL A   1      39.537  32.475  35.908  1.00  0.00     0.034 A 
ATOM     51  C   UNL A   1      41.715  28.272  31.330  1.00  0.00     0.049 A 
ATOM     52  C   UNL A   1      40.672  31.483  35.858  1.00  0.00     0.074 A 
ATOM     53  C   UNL A   1      42.809  27.431  31.416  1.00  0.00     0.029 A 
ATOM     54  N   UNL A   1      41.638  28.953  32.540  1.00  0.00    -0.354 N 
ATOM     55  N   UNL A   1      41.025  30.679  34.880  1.00  0.00    -0.248 NA
ATOM     56  C   UNL A   1      41.520  31.390  37.052  1.00  0.00     0.031 C 
ATOM     57  C   UNL A   1      43.361  27.564  32.696  1.00  0.00     0.029 A 
ATOM     58  C   UNL A   1      42.655  28.539  33.385  1.00  0.00     0.049 A 
ATOM     59  H   UNL A   1      40.959  29.629  32.764  1.00  0.00     0.167 HD
ATOM     60  C   UNL A   1      42.157  30.008  35.332  1.00  0.00     0.074 A 
ATOM     61  C   UNL A   1      42.434  30.514  36.662  1.00  0.00     0.031 C 
ATOM     62  C   UNL A   1      42.904  29.062  34.708  1.00  0.00     0.034 A 
BRANCH  49  63
ATOM     63  C   UNL A   1      40.946  27.600  28.992  1.00  0.00     0.023 A 
ATOM     64  C   UNL A   1      41.953  27.840  28.037  1.00  0.00     0.031 A 
ATOM     65  C   UNL A   1      40.032  26.566  28.731  1.00  0.00     0.131 A 
ATOM     66  C   UNL A   1      41.961  27.126  26.830  1.00  0.00     0.055 A 
ATOM     67  C   UNL A   1      40.103  25.794  27.568  1.00  0.00     0.041 A 
ATOM     68  F   UNL A   1      39.037  26.298  29.592  1.00  0.00    -0.206 F 
ATOM     69  C   UNL A   1      41.060  26.085  26.600  1.00  0.00     0.022 A 
BRANCH  66  70
ATOM     70  S   UNL A   1      43.061  27.687  25.501  1.00  0.00     0.124 S 
ATOM     71  O   UNL A   1      43.582  26.418  24.997  1.00  0.00    -0.237 OA
ATOM     72  O   UNL A   1      42.149  28.400  24.614  1.00  0.00    -0.237 OA
ATOM     73  O   UNL A   1      44.040  28.523  26.194  1.00  0.00    -0.744 OA
ENDBRANCH  66  70
ENDBRANCH  49  63
BRANCH  50  74
ATOM     74  C   UNL A   1      39.267  33.276  37.135  1.00  0.00     0.023 A 
ATOM     75  C   UNL A   1      39.894  34.516  37.340  1.00  0.00     0.031 A 
ATOM     76  C   UNL A   1      38.401  32.802  38.136  1.00  0.00     0.131 A 
ATOM     77  C   UNL A   1      39.683  35.218  38.537  1.00  0.00     0.055 A 
ATOM     78  C   UNL A   1      38.156  33.528  39.304  1.00  0.00     0.041 A 
ATOM     79  F   UNL A   1      37.768  31.628  37.986  1.00  0.00    -0.206 F 
ATOM     80  C   UNL A   1      38.809  34.738  39.515  1.00  0.00     0.022 A 
BRANCH  77  81
ATOM     81  S   UNL A   1      40.634  36.735  38.832  1.00  0.00     0.124 S 
ATOM     82  O   UNL A   1      41.505  36.772  37.664  1.00  0.00    -0.237 OA
ATOM     83  O   UNL A   1      39.583  37.745  38.882  1.00  0.00    -0.237 OA
ATOM     84  O   UNL A   1      41.305  36.472  40.104  1.00  0.00    -0.744 OA
ENDBRANCH  77  81
ENDBRANCH  50  74
BRANCH  62  85
ATOM     85  C   UNL A   1      44.119  28.559  35.445  1.00  0.00     0.023 A 
ATOM     86  C   UNL A   1      44.031  27.530  36.398  1.00  0.00     0.031 A 
ATOM     87  C   UNL A   1      45.380  29.126  35.195  1.00  0.00     0.131 A 
ATOM     88  C   UNL A   1      45.174  27.140  37.110  1.00  0.00     0.055 A 
ATOM     89  C   UNL A   1      46.526  28.693  35.862  1.00  0.00     0.041 A 
ATOM     90  F   UNL A   1      45.519  30.113  34.294  1.00  0.00    -0.206 F 
ATOM     91  C   UNL A   1      46.424  27.704  36.836  1.00  0.00     0.022 A 
BRANCH  88  92
ATOM     92  S   UNL A   1      44.990  25.951  38.466  1.00  0.00     0.124 S 
ATOM     93  O   UNL A   1      44.124  26.676  39.390  1.00  0.00    -0.237 OA
ATOM     94  O   UNL A   1      44.387  24.804  37.796  1.00  0.00    -0.237 OA
ATOM     95  O   UNL A   1      46.360  25.747  38.931  1.00  0.00    -0.744 OA
ENDBRANCH  88  92
ENDBRANCH  62  85
ENDBRANCH  36  37
ENDBRANCH  28  31
ENDBRANCH  26  27
ENDBRANCH   1  26
TORSDOF 16
ENDMDL
MODEL 3
REMARK VINA RESULT:     -12.4      2.088      3.856
REMARK SMILES O=C(CC1(NC(=O)c2ccc3cc[nH]c3c2)CCC1)NCCCNC(=O)c1ccc(-c2c3nc(c(-c4cc(S(=O)(=O)[O-])ccc4F)c4ccc([nH]4)c(-c4cc(S(=O)(=O)[O-])ccc4F)c4nc(c(-c5cc(S(=O)(=O)[O-])ccc5F)c5ccc2[nH]5)C=C4)C=C3)cc1
REMARK SMILES IDX 22 1 21 2 20 3 1 4 2 5 3 7 4 8 17 9 19 10 18 11 5 12 6 13
REMARK SMILES IDX 7 15 8 16 9 17 16 18 10 19 15 20 11 21 14 22 12 23 13 24
REMARK SMILES IDX 23 26 24 27 25 28 26 30 27 31 28 32 89 33 29 34 88 35 30 36
REMARK SMILES IDX 31 37 32 38 82 39 33 40 87 41 81 42 83 43 34 44 86 45 80 46
REMARK SMILES IDX 79 47 35 49 67 50 47 51 66 52 48 53 51 54 65 55 84 56 49 57
REMARK SMILES IDX 50 58 64 60 85 61 52 62 36 63 37 64 45 65 38 66 44 67 46 68
REMARK SMILES IDX 43 69 39 70 40 71 41 72 42 73 68 74 69 75 77 76 70 77 76 78
REMARK SMILES IDX 78 79 75 80 71 81 72 82 73 83 74 84 53 85 54 86 62 87 55 88
REMARK SMILES IDX 61 89 63 90 60 91 56 92 57 93 58 94 59 95
REMARK H PARENT 20 6 5 14 14 25 24 29 83 48 51 59
REMARK Flexibility Score: inf
ROOT
ATOM      1  C   UNL A   1      31.390  31.381  26.321  1.00  0.00     0.042 C 
ENDROOT
BRANCH   1   2
ATOM      2  C   UNL A   1      31.729  30.163  25.474  1.00  0.00     0.117 C 
BRANCH   2   3
ATOM      3  N   UNL A   1      32.307  29.050  26.202  1.00  0.00    -0.356 N 
ATOM      4  O   UNL A   1      31.457  28.043  28.026  1.00  0.00    -0.275 OA
ATOM      5  C   UNL A   1      31.576  28.065  26.801  1.00  0.00     0.222 C 
ATOM      6  H   UNL A   1      33.288  29.003  26.269  1.00  0.00     0.163 HD
BRANCH   5   7
ATOM      7  C   UNL A   1      30.982  26.948  25.955  1.00  0.00     0.128 C 
BRANCH   7   8
ATOM      8  C   UNL A   1      31.863  26.104  25.042  1.00  0.00     0.049 C 
ATOM      9  C   UNL A   1      33.339  26.005  25.580  1.00  0.00     0.029 C 
ATOM     10  C   UNL A   1      31.756  24.562  25.307  1.00  0.00     0.029 C 
ATOM     11  C   UNL A   1      33.062  24.596  26.106  1.00  0.00     0.005 C 
BRANCH   8  12
ATOM     12  N   UNL A   1      31.844  26.329  23.563  1.00  0.00    -0.346 N 
ATOM     13  C   UNL A   1      31.121  26.927  22.552  1.00  0.00     0.251 C 
ATOM     14  H   UNL A   1      32.633  25.891  23.170  1.00  0.00     0.164 HD
ATOM     15  O   UNL A   1      31.457  26.563  21.417  1.00  0.00    -0.269 OA
BRANCH  13  16
ATOM     16  C   UNL A   1      30.054  27.963  22.626  1.00  0.00     0.041 A 
ATOM     17  C   UNL A   1      28.834  27.786  23.262  1.00  0.00     0.014 A 
ATOM     18  C   UNL A   1      30.402  29.271  22.232  1.00  0.00     0.040 A 
ATOM     19  C   UNL A   1      27.896  28.816  23.432  1.00  0.00     0.011 A 
ATOM     20  C   UNL A   1      29.487  30.316  22.450  1.00  0.00     0.046 A 
ATOM     21  C   UNL A   1      28.231  30.109  23.015  1.00  0.00    -0.001 A 
ATOM     22  N   UNL A   1      29.601  31.670  22.227  1.00  0.00    -0.361 N 
ATOM     23  C   UNL A   1      27.567  31.364  23.061  1.00  0.00     0.028 A 
ATOM     24  C   UNL A   1      28.438  32.309  22.569  1.00  0.00     0.083 A 
ATOM     25  H   UNL A   1      30.405  32.117  21.874  1.00  0.00     0.166 HD
ENDBRANCH  13  16
ENDBRANCH   8  12
ENDBRANCH   7   8
ENDBRANCH   5   7
ENDBRANCH   2   3
ENDBRANCH   1   2
BRANCH   1  26
ATOM     26  C   UNL A   1      32.620  31.998  26.943  1.00  0.00     0.118 C 
BRANCH  26  27
ATOM     27  N   UNL A   1      32.434  33.400  27.292  1.00  0.00    -0.352 N 
ATOM     28  C   UNL A   1      33.154  34.171  28.171  1.00  0.00     0.251 C 
ATOM     29  H   UNL A   1      31.691  33.857  26.836  1.00  0.00     0.163 HD
ATOM     30  O   UNL A   1      32.787  35.321  28.400  1.00  0.00    -0.269 OA
BRANCH  28  31
ATOM     31  C   UNL A   1      34.320  33.595  28.875  1.00  0.00     0.039 A 
ATOM     32  C   UNL A   1      34.133  32.460  29.668  1.00  0.00     0.014 A 
ATOM     33  C   UNL A   1      35.595  34.148  28.742  1.00  0.00     0.014 A 
ATOM     34  C   UNL A   1      35.231  31.864  30.292  1.00  0.00     0.010 A 
ATOM     35  C   UNL A   1      36.699  33.484  29.255  1.00  0.00     0.010 A 
ATOM     36  C   UNL A   1      36.524  32.361  30.071  1.00  0.00    -0.014 A 
BRANCH  36  37
ATOM     37  C   UNL A   1      37.708  31.791  30.756  1.00  0.00     0.031 A 
ATOM     38  C   UNL A   1      38.547  30.769  30.034  1.00  0.00     0.074 A 
ATOM     39  C   UNL A   1      37.979  32.136  32.029  1.00  0.00     0.049 A 
ATOM     40  N   UNL A   1      39.556  30.062  30.472  1.00  0.00    -0.248 NA
ATOM     41  C   UNL A   1      38.164  30.464  28.645  1.00  0.00     0.031 C 
ATOM     42  C   UNL A   1      37.196  33.072  32.839  1.00  0.00     0.029 A 
ATOM     43  N   UNL A   1      38.987  31.736  32.865  1.00  0.00    -0.354 N 
ATOM     44  C   UNL A   1      39.900  29.209  29.427  1.00  0.00     0.074 A 
ATOM     45  C   UNL A   1      38.941  29.431  28.369  1.00  0.00     0.031 C 
ATOM     46  C   UNL A   1      37.775  33.200  34.043  1.00  0.00     0.029 A 
ATOM     47  C   UNL A   1      38.943  32.328  34.106  1.00  0.00     0.049 A 
ATOM     48  H   UNL A   1      39.679  31.085  32.604  1.00  0.00     0.167 HD
ATOM     49  C   UNL A   1      40.944  28.348  29.344  1.00  0.00     0.034 A 
ATOM     50  C   UNL A   1      39.756  32.177  35.169  1.00  0.00     0.034 A 
ATOM     51  C   UNL A   1      41.911  28.183  30.398  1.00  0.00     0.049 A 
ATOM     52  C   UNL A   1      40.930  31.240  35.045  1.00  0.00     0.074 A 
ATOM     53  C   UNL A   1      43.045  27.392  30.416  1.00  0.00     0.029 A 
ATOM     54  N   UNL A   1      41.859  28.832  31.627  1.00  0.00    -0.354 N 
ATOM     55  N   UNL A   1      41.275  30.475  34.033  1.00  0.00    -0.248 NA
ATOM     56  C   UNL A   1      41.835  31.159  36.198  1.00  0.00     0.031 C 
ATOM     57  C   UNL A   1      43.648  27.522  31.672  1.00  0.00     0.029 A 
ATOM     58  C   UNL A   1      42.931  28.447  32.416  1.00  0.00     0.049 A 
ATOM     59  H   UNL A   1      41.161  29.471  31.897  1.00  0.00     0.167 HD
ATOM     60  C   UNL A   1      42.455  29.848  34.417  1.00  0.00     0.074 A 
ATOM     61  C   UNL A   1      42.769  30.336  35.746  1.00  0.00     0.031 C 
ATOM     62  C   UNL A   1      43.216  28.951  33.738  1.00  0.00     0.034 A 
BRANCH  49  63
ATOM     63  C   UNL A   1      41.068  27.528  28.080  1.00  0.00     0.023 A 
ATOM     64  C   UNL A   1      40.727  26.163  28.048  1.00  0.00     0.031 A 
ATOM     65  C   UNL A   1      41.587  28.099  26.907  1.00  0.00     0.131 A 
ATOM     66  C   UNL A   1      40.998  25.397  26.905  1.00  0.00     0.055 A 
ATOM     67  C   UNL A   1      41.767  27.352  25.740  1.00  0.00     0.041 A 
ATOM     68  F   UNL A   1      41.951  29.391  26.877  1.00  0.00    -0.206 F 
ATOM     69  C   UNL A   1      41.490  25.988  25.739  1.00  0.00     0.022 A 
BRANCH  66  70
ATOM     70  S   UNL A   1      40.851  23.592  27.017  1.00  0.00     0.124 S 
ATOM     71  O   UNL A   1      41.736  23.159  25.937  1.00  0.00    -0.237 OA
ATOM     72  O   UNL A   1      41.315  23.320  28.372  1.00  0.00    -0.237 OA
ATOM     73  O   UNL A   1      39.429  23.348  26.782  1.00  0.00    -0.744 OA
ENDBRANCH  66  70
ENDBRANCH  49  63
BRANCH  50  74
ATOM     74  C   UNL A   1      39.506  32.936  36.427  1.00  0.00     0.023 A 
ATOM     75  C   UNL A   1      38.659  32.423  37.424  1.00  0.00     0.031 A 
ATOM     76  C   UNL A   1      40.084  34.200  36.640  1.00  0.00     0.131 A 
ATOM     77  C   UNL A   1      38.378  33.189  38.566  1.00  0.00     0.055 A 
ATOM     78  C   UNL A   1      39.841  34.936  37.802  1.00  0.00     0.041 A 
ATOM     79  F   UNL A   1      40.910  34.732  35.724  1.00  0.00    -0.206 F 
ATOM     80  C   UNL A   1      38.973  34.437  38.767  1.00  0.00     0.022 A 
BRANCH  77  81
ATOM     81  S   UNL A   1      37.156  32.561  39.751  1.00  0.00     0.124 S 
ATOM     82  O   UNL A   1      37.237  33.555  40.815  1.00  0.00    -0.237 OA
ATOM     83  O   UNL A   1      35.933  32.569  38.956  1.00  0.00    -0.237 OA
ATOM     84  O   UNL A   1      37.666  31.236  40.094  1.00  0.00    -0.744 OA
ENDBRANCH  77  81
ENDBRANCH  50  74
BRANCH  62  85
ATOM     85  C   UNL A   1      44.484  28.489  34.408  1.00  0.00     0.023 A 
ATOM     86  C   UNL A   1      44.509  27.359  35.244  1.00  0.00     0.031 A 
ATOM     87  C   UNL A   1      45.682  29.197  34.213  1.00  0.00     0.131 A 
ATOM     88  C   UNL A   1      45.695  27.005  35.902  1.00  0.00     0.055 A 
ATOM     89  C   UNL A   1      46.875  28.804  34.822  1.00  0.00     0.041 A 
ATOM     90  F   UNL A   1      45.714  30.283  33.424  1.00  0.00    -0.206 F 
ATOM     91  C   UNL A   1      46.882  27.710  35.683  1.00  0.00     0.022 A 
BRANCH  88  92
ATOM     92  S   UNL A   1      45.645  25.664  37.121  1.00  0.00     0.124 S 
ATOM     93  O   UNL A   1      45.441  24.492  36.275  1.00  0.00    -0.237 OA
ATOM     94  O   UNL A   1      46.954  25.771  37.755  1.00  0.00    -0.237 OA
ATOM     95  O   UNL A   1      44.512  26.018  37.974  1.00  0.00    -0.744 OA
ENDBRANCH  88  92
ENDBRANCH  62  85
ENDBRANCH  36  37
ENDBRANCH  28  31
ENDBRANCH  26  27
ENDBRANCH   1  26
TORSDOF 16
ENDMDL
