MODEL 1
REMARK VINA RESULT:     -11.4      0.000      0.000
REMARK SMILES COc1c(C(=O)NCCCNC(=O)c2ccc(-c3c4nc(c(-c5cc(S(=O)(=O)[O-])ccc5F)c5ccc([nH]5)c(-c5cc(S(=O)(=O)[O-])ccc5F)c5nc(c(-c6cc(S(=O)(=O)[O-])ccc6F)c6ccc3[nH]6)C=C5)C=C4)cc2)ccc(F)c1F
REMARK SMILES IDX 10 1 9 2 8 3 7 4 5 5 6 6 4 8 3 9 81 10 77 11 79 12 82 13
REMARK SMILES IDX 78 14 80 15 2 16 1 17 11 18 12 19 13 21 14 22 15 23 76 24
REMARK SMILES IDX 16 25 75 26 17 27 18 28 19 29 69 30 20 31 74 32 68 33 70 34
REMARK SMILES IDX 21 35 73 36 67 37 66 38 22 40 54 41 34 42 53 43 35 44 38 45
REMARK SMILES IDX 52 46 71 47 36 48 37 49 51 51 72 52 39 53 23 54 24 55 32 56
REMARK SMILES IDX 25 57 31 58 33 59 30 60 26 61 27 62 28 63 29 64 55 65 56 66
REMARK SMILES IDX 64 67 57 68 63 69 65 70 62 71 58 72 59 73 60 74 61 75 40 76
REMARK SMILES IDX 41 77 49 78 42 79 48 80 50 81 47 82 43 83 44 84 45 85 46 86
REMARK H PARENT 7 7 11 20 70 39 38 50
REMARK Flexibility Score: inf
ROOT
ATOM      1  C   UNL A   1      32.712  32.139  27.246  1.00  0.00     0.118 C 
ENDROOT
BRANCH   1   2
ATOM      2  C   UNL A   1      31.478  31.640  26.485  1.00  0.00     0.042 C 
BRANCH   2   3
ATOM      3  C   UNL A   1      31.677  30.273  25.828  1.00  0.00     0.118 C 
BRANCH   3   4
ATOM      4  N   UNL A   1      30.975  30.188  24.562  1.00  0.00    -0.352 N 
ATOM      5  C   UNL A   1      30.648  29.195  23.677  1.00  0.00     0.255 C 
ATOM      6  O   UNL A   1      30.012  29.590  22.701  1.00  0.00    -0.269 OA
ATOM      7  H   UNL A   1      30.649  31.068  24.262  1.00  0.00     0.163 HD
BRANCH   5   8
ATOM      8  C   UNL A   1      30.975  27.736  23.844  1.00  0.00     0.085 A 
ATOM      9  C   UNL A   1      32.324  27.310  23.806  1.00  0.00     0.170 A 
ATOM     10  C   UNL A   1      32.648  25.946  23.800  1.00  0.00     0.201 A 
ATOM     11  C   UNL A   1      30.002  26.741  24.035  1.00  0.00     0.021 A 
ATOM     12  C   UNL A   1      31.655  24.989  23.902  1.00  0.00     0.162 A 
ATOM     13  F   UNL A   1      33.931  25.559  23.715  1.00  0.00    -0.200 F 
ATOM     14  C   UNL A   1      30.333  25.378  24.046  1.00  0.00     0.043 A 
ATOM     15  F   UNL A   1      31.963  23.685  23.891  1.00  0.00    -0.204 F 
BRANCH   9  16
ATOM     16  O   UNL A   1      33.385  28.181  23.742  1.00  0.00    -0.493 OA
ATOM     17  C   UNL A   1      33.807  28.336  22.381  1.00  0.00     0.278 C 
ENDBRANCH   9  16
ENDBRANCH   5   8
ENDBRANCH   3   4
ENDBRANCH   2   3
ENDBRANCH   1   2
BRANCH   1  18
ATOM     18  N   UNL A   1      32.632  33.562  27.543  1.00  0.00    -0.352 N 
ATOM     19  C   UNL A   1      33.267  34.312  28.502  1.00  0.00     0.251 C 
ATOM     20  H   UNL A   1      32.022  34.070  26.961  1.00  0.00     0.163 HD
ATOM     21  O   UNL A   1      32.840  35.437  28.753  1.00  0.00    -0.269 OA
BRANCH  19  22
ATOM     22  C   UNL A   1      34.444  33.785  29.228  1.00  0.00     0.039 A 
ATOM     23  C   UNL A   1      34.240  32.871  30.267  1.00  0.00     0.014 A 
ATOM     24  C   UNL A   1      35.735  34.235  28.939  1.00  0.00     0.014 A 
ATOM     25  C   UNL A   1      35.333  32.364  30.973  1.00  0.00     0.010 A 
ATOM     26  C   UNL A   1      36.830  33.682  29.604  1.00  0.00     0.010 A 
ATOM     27  C   UNL A   1      36.641  32.740  30.626  1.00  0.00    -0.014 A 
BRANCH  27  28
ATOM     28  C   UNL A   1      37.821  32.145  31.307  1.00  0.00     0.031 A 
ATOM     29  C   UNL A   1      38.585  31.021  30.663  1.00  0.00     0.074 A 
ATOM     30  C   UNL A   1      38.158  32.575  32.540  1.00  0.00     0.049 A 
ATOM     31  N   UNL A   1      39.575  30.311  31.141  1.00  0.00    -0.248 NA
ATOM     32  C   UNL A   1      38.159  30.623  29.313  1.00  0.00     0.031 C 
ATOM     33  C   UNL A   1      37.469  33.636  33.279  1.00  0.00     0.029 A 
ATOM     34  N   UNL A   1      39.150  32.167  33.395  1.00  0.00    -0.354 N 
ATOM     35  C   UNL A   1      39.883  29.375  30.160  1.00  0.00     0.074 A 
ATOM     36  C   UNL A   1      38.938  29.576  29.081  1.00  0.00     0.031 C 
ATOM     37  C   UNL A   1      38.068  33.802  34.470  1.00  0.00     0.029 A 
ATOM     38  C   UNL A   1      39.150  32.833  34.599  1.00  0.00     0.049 A 
ATOM     39  H   UNL A   1      39.800  31.463  33.167  1.00  0.00     0.167 HD
ATOM     40  C   UNL A   1      40.871  28.446  30.154  1.00  0.00     0.034 A 
ATOM     41  C   UNL A   1      39.922  32.670  35.691  1.00  0.00     0.034 A 
ATOM     42  C   UNL A   1      41.812  28.268  31.234  1.00  0.00     0.049 A 
ATOM     43  C   UNL A   1      41.002  31.618  35.667  1.00  0.00     0.074 A 
ATOM     44  C   UNL A   1      42.888  27.398  31.308  1.00  0.00     0.029 A 
ATOM     45  N   UNL A   1      41.788  28.966  32.435  1.00  0.00    -0.354 N 
ATOM     46  N   UNL A   1      41.310  30.772  34.710  1.00  0.00    -0.248 NA
ATOM     47  C   UNL A   1      41.845  31.508  36.865  1.00  0.00     0.031 C 
ATOM     48  C   UNL A   1      43.471  27.525  32.573  1.00  0.00     0.029 A 
ATOM     49  C   UNL A   1      42.807  28.526  33.265  1.00  0.00     0.049 A 
ATOM     50  H   UNL A   1      41.140  29.671  32.663  1.00  0.00     0.167 HD
ATOM     51  C   UNL A   1      42.401  30.049  35.183  1.00  0.00     0.074 A 
ATOM     52  C   UNL A   1      42.706  30.570  36.499  1.00  0.00     0.031 C 
ATOM     53  C   UNL A   1      43.090  29.045  34.582  1.00  0.00     0.034 A 
BRANCH  40  54
ATOM     54  C   UNL A   1      40.964  27.534  28.952  1.00  0.00     0.023 A 
ATOM     55  C   UNL A   1      41.956  27.704  27.970  1.00  0.00     0.031 A 
ATOM     56  C   UNL A   1      40.038  26.489  28.778  1.00  0.00     0.131 A 
ATOM     57  C   UNL A   1      41.956  26.890  26.826  1.00  0.00     0.055 A 
ATOM     58  C   UNL A   1      40.092  25.633  27.676  1.00  0.00     0.041 A 
ATOM     59  F   UNL A   1      39.057  26.288  29.672  1.00  0.00    -0.206 F 
ATOM     60  C   UNL A   1      41.046  25.840  26.684  1.00  0.00     0.022 A 
BRANCH  57  61
ATOM     61  S   UNL A   1      43.078  27.311  25.464  1.00  0.00     0.124 S 
ATOM     62  O   UNL A   1      43.279  26.007  24.836  1.00  0.00    -0.237 OA
ATOM     63  O   UNL A   1      42.297  28.275  24.699  1.00  0.00    -0.237 OA
ATOM     64  O   UNL A   1      44.252  27.856  26.143  1.00  0.00    -0.744 OA
ENDBRANCH  57  61
ENDBRANCH  40  54
BRANCH  41  65
ATOM     65  C   UNL A   1      39.699  33.504  36.906  1.00  0.00     0.023 A 
ATOM     66  C   UNL A   1      38.968  33.011  37.998  1.00  0.00     0.031 A 
ATOM     67  C   UNL A   1      40.179  34.825  36.975  1.00  0.00     0.131 A 
ATOM     68  C   UNL A   1      38.697  33.847  39.092  1.00  0.00     0.055 A 
ATOM     69  C   UNL A   1      39.951  35.634  38.090  1.00  0.00     0.041 A 
ATOM     70  F   UNL A   1      40.890  35.343  35.962  1.00  0.00    -0.206 F 
ATOM     71  C   UNL A   1      39.194  35.150  39.151  1.00  0.00     0.022 A 
BRANCH  68  72
ATOM     72  S   UNL A   1      37.609  33.228  40.405  1.00  0.00     0.124 S 
ATOM     73  O   UNL A   1      36.409  32.876  39.656  1.00  0.00    -0.237 OA
ATOM     74  O   UNL A   1      38.385  32.114  40.939  1.00  0.00    -0.237 OA
ATOM     75  O   UNL A   1      37.473  34.375  41.302  1.00  0.00    -0.744 OA
ENDBRANCH  68  72
ENDBRANCH  41  65
BRANCH  53  76
ATOM     76  C   UNL A   1      44.267  28.480  35.338  1.00  0.00     0.023 A 
ATOM     77  C   UNL A   1      44.106  27.486  36.319  1.00  0.00     0.031 A 
ATOM     78  C   UNL A   1      45.565  28.959  35.087  1.00  0.00     0.131 A 
ATOM     79  C   UNL A   1      45.217  27.043  37.053  1.00  0.00     0.055 A 
ATOM     80  C   UNL A   1      46.674  28.472  35.779  1.00  0.00     0.041 A 
ATOM     81  F   UNL A   1      45.775  29.910  34.162  1.00  0.00    -0.206 F 
ATOM     82  C   UNL A   1      46.503  27.517  36.778  1.00  0.00     0.022 A 
BRANCH  79  83
ATOM     83  S   UNL A   1      44.947  25.902  38.437  1.00  0.00     0.124 S 
ATOM     84  O   UNL A   1      46.286  25.792  39.006  1.00  0.00    -0.237 OA
ATOM     85  O   UNL A   1      43.967  26.619  39.247  1.00  0.00    -0.237 OA
ATOM     86  O   UNL A   1      44.447  24.690  37.790  1.00  0.00    -0.744 OA
ENDBRANCH  79  83
ENDBRANCH  53  76
ENDBRANCH  27  28
ENDBRANCH  19  22
ENDBRANCH   1  18
TORSDOF 14
ENDMDL
MODEL 2
REMARK VINA RESULT:     -11.3      1.416      1.737
REMARK SMILES COc1c(C(=O)NCCCNC(=O)c2ccc(-c3c4nc(c(-c5cc(S(=O)(=O)[O-])ccc5F)c5ccc([nH]5)c(-c5cc(S(=O)(=O)[O-])ccc5F)c5nc(c(-c6cc(S(=O)(=O)[O-])ccc6F)c6ccc3[nH]6)C=C5)C=C4)cc2)ccc(F)c1F
REMARK SMILES IDX 10 1 9 2 8 3 7 4 5 5 6 6 4 8 3 9 81 10 77 11 79 12 82 13
REMARK SMILES IDX 78 14 80 15 2 16 1 17 11 18 12 19 13 21 14 22 15 23 76 24
REMARK SMILES IDX 16 25 75 26 17 27 18 28 19 29 69 30 20 31 74 32 68 33 70 34
REMARK SMILES IDX 21 35 73 36 67 37 66 38 22 40 54 41 34 42 53 43 35 44 38 45
REMARK SMILES IDX 52 46 71 47 36 48 37 49 51 51 72 52 39 53 23 54 24 55 32 56
REMARK SMILES IDX 25 57 31 58 33 59 30 60 26 61 27 62 28 63 29 64 55 65 56 66
REMARK SMILES IDX 64 67 57 68 63 69 65 70 62 71 58 72 59 73 60 74 61 75 40 76
REMARK SMILES IDX 41 77 49 78 42 79 48 80 50 81 47 82 43 83 44 84 45 85 46 86
REMARK H PARENT 7 7 11 20 70 39 38 50
REMARK Flexibility Score: inf
ROOT
ATOM      1  C   UNL A   1      32.727  32.460  27.234  1.00  0.00     0.118 C 
ENDROOT
BRANCH   1   2
ATOM      2  C   UNL A   1      31.454  31.946  26.551  1.00  0.00     0.042 C 
BRANCH   2   3
ATOM      3  C   UNL A   1      31.560  30.498  26.072  1.00  0.00     0.118 C 
BRANCH   3   4
ATOM      4  N   UNL A   1      30.974  30.332  24.756  1.00  0.00    -0.352 N 
ATOM      5  C   UNL A   1      30.773  29.292  23.886  1.00  0.00     0.255 C 
ATOM      6  O   UNL A   1      30.205  29.620  22.844  1.00  0.00    -0.269 OA
ATOM      7  H   UNL A   1      30.635  31.182  24.395  1.00  0.00     0.163 HD
BRANCH   5   8
ATOM      8  C   UNL A   1      31.154  27.859  24.138  1.00  0.00     0.085 A 
ATOM      9  C   UNL A   1      32.518  27.487  24.155  1.00  0.00     0.170 A 
ATOM     10  C   UNL A   1      32.896  26.139  24.229  1.00  0.00     0.201 A 
ATOM     11  C   UNL A   1      30.216  26.836  24.358  1.00  0.00     0.021 A 
ATOM     12  C   UNL A   1      31.940  25.149  24.357  1.00  0.00     0.162 A 
ATOM     13  F   UNL A   1      34.195  25.802  24.196  1.00  0.00    -0.200 F 
ATOM     14  C   UNL A   1      30.600  25.490  24.449  1.00  0.00     0.043 A 
ATOM     15  F   UNL A   1      32.300  23.860  24.423  1.00  0.00    -0.204 F 
BRANCH   9  16
ATOM     16  O   UNL A   1      33.546  28.397  24.071  1.00  0.00    -0.493 OA
ATOM     17  C   UNL A   1      33.925  28.577  22.701  1.00  0.00     0.278 C 
ENDBRANCH   9  16
ENDBRANCH   5   8
ENDBRANCH   3   4
ENDBRANCH   2   3
ENDBRANCH   1   2
BRANCH   1  18
ATOM     18  N   UNL A   1      32.616  33.861  27.613  1.00  0.00    -0.352 N 
ATOM     19  C   UNL A   1      33.223  34.565  28.623  1.00  0.00     0.251 C 
ATOM     20  H   UNL A   1      32.005  34.392  27.052  1.00  0.00     0.163 HD
ATOM     21  O   UNL A   1      32.772  35.665  28.933  1.00  0.00    -0.269 OA
BRANCH  19  22
ATOM     22  C   UNL A   1      34.399  34.017  29.335  1.00  0.00     0.039 A 
ATOM     23  C   UNL A   1      34.190  33.163  30.423  1.00  0.00     0.014 A 
ATOM     24  C   UNL A   1      35.698  34.391  28.984  1.00  0.00     0.014 A 
ATOM     25  C   UNL A   1      35.283  32.638  31.117  1.00  0.00     0.010 A 
ATOM     26  C   UNL A   1      36.789  33.820  29.638  1.00  0.00     0.010 A 
ATOM     27  C   UNL A   1      36.593  32.935  30.710  1.00  0.00    -0.014 A 
BRANCH  27  28
ATOM     28  C   UNL A   1      37.768  32.318  31.380  1.00  0.00     0.031 A 
ATOM     29  C   UNL A   1      38.502  31.178  30.730  1.00  0.00     0.074 A 
ATOM     30  C   UNL A   1      38.125  32.743  32.609  1.00  0.00     0.049 A 
ATOM     31  N   UNL A   1      39.483  30.449  31.199  1.00  0.00    -0.248 NA
ATOM     32  C   UNL A   1      38.055  30.787  29.385  1.00  0.00     0.031 C 
ATOM     33  C   UNL A   1      37.465  33.818  33.354  1.00  0.00     0.029 A 
ATOM     34  N   UNL A   1      39.117  32.316  33.455  1.00  0.00    -0.354 N 
ATOM     35  C   UNL A   1      39.762  29.505  30.216  1.00  0.00     0.074 A 
ATOM     36  C   UNL A   1      38.810  29.724  29.147  1.00  0.00     0.031 C 
ATOM     37  C   UNL A   1      38.079  33.973  34.538  1.00  0.00     0.029 A 
ATOM     38  C   UNL A   1      39.143  32.983  34.657  1.00  0.00     0.049 A 
ATOM     39  H   UNL A   1      39.751  31.599  33.221  1.00  0.00     0.167 HD
ATOM     40  C   UNL A   1      40.731  28.556  30.202  1.00  0.00     0.034 A 
ATOM     41  C   UNL A   1      39.923  32.806  35.742  1.00  0.00     0.034 A 
ATOM     42  C   UNL A   1      41.679  28.361  31.273  1.00  0.00     0.049 A 
ATOM     43  C   UNL A   1      40.981  31.733  35.709  1.00  0.00     0.074 A 
ATOM     44  C   UNL A   1      42.738  27.470  31.338  1.00  0.00     0.029 A 
ATOM     45  N   UNL A   1      41.681  29.061  32.473  1.00  0.00    -0.354 N 
ATOM     46  N   UNL A   1      41.262  30.880  34.751  1.00  0.00    -0.248 NA
ATOM     47  C   UNL A   1      41.833  31.607  36.898  1.00  0.00     0.031 C 
ATOM     48  C   UNL A   1      43.336  27.587  32.597  1.00  0.00     0.029 A 
ATOM     49  C   UNL A   1      42.700  28.601  33.294  1.00  0.00     0.049 A 
ATOM     50  H   UNL A   1      41.049  29.779  32.706  1.00  0.00     0.167 HD
ATOM     51  C   UNL A   1      42.343  30.135  35.213  1.00  0.00     0.074 A 
ATOM     52  C   UNL A   1      42.672  30.651  36.526  1.00  0.00     0.031 C 
ATOM     53  C   UNL A   1      43.006  29.117  34.607  1.00  0.00     0.034 A 
BRANCH  40  54
ATOM     54  C   UNL A   1      40.794  27.642  29.001  1.00  0.00     0.023 A 
ATOM     55  C   UNL A   1      41.754  27.814  27.989  1.00  0.00     0.031 A 
ATOM     56  C   UNL A   1      39.870  26.590  28.858  1.00  0.00     0.131 A 
ATOM     57  C   UNL A   1      41.725  26.997  26.848  1.00  0.00     0.055 A 
ATOM     58  C   UNL A   1      39.896  25.731  27.757  1.00  0.00     0.041 A 
ATOM     59  F   UNL A   1      38.917  26.386  29.781  1.00  0.00    -0.206 F 
ATOM     60  C   UNL A   1      40.819  25.941  26.736  1.00  0.00     0.022 A 
BRANCH  57  61
ATOM     61  S   UNL A   1      42.803  27.421  25.452  1.00  0.00     0.124 S 
ATOM     62  O   UNL A   1      42.050  28.500  24.816  1.00  0.00    -0.237 OA
ATOM     63  O   UNL A   1      44.041  27.811  26.116  1.00  0.00    -0.237 OA
ATOM     64  O   UNL A   1      42.871  26.180  24.682  1.00  0.00    -0.744 OA
ENDBRANCH  57  61
ENDBRANCH  40  54
BRANCH  41  65
ATOM     65  C   UNL A   1      39.728  33.646  36.958  1.00  0.00     0.023 A 
ATOM     66  C   UNL A   1      40.551  34.755  37.210  1.00  0.00     0.031 A 
ATOM     67  C   UNL A   1      38.741  33.328  37.907  1.00  0.00     0.131 A 
ATOM     68  C   UNL A   1      40.405  35.478  38.404  1.00  0.00     0.055 A 
ATOM     69  C   UNL A   1      38.564  34.083  39.069  1.00  0.00     0.041 A 
ATOM     70  F   UNL A   1      37.921  32.283  37.711  1.00  0.00    -0.206 F 
ATOM     71  C   UNL A   1      39.409  35.157  39.329  1.00  0.00     0.022 A 
BRANCH  68  72
ATOM     72  S   UNL A   1      41.595  36.796  38.770  1.00  0.00     0.124 S 
ATOM     73  O   UNL A   1      42.252  36.971  37.480  1.00  0.00    -0.237 OA
ATOM     74  O   UNL A   1      40.720  37.881  39.199  1.00  0.00    -0.237 OA
ATOM     75  O   UNL A   1      42.429  36.218  39.823  1.00  0.00    -0.744 OA
ENDBRANCH  68  72
ENDBRANCH  41  65
BRANCH  53  76
ATOM     76  C   UNL A   1      44.179  28.529  35.352  1.00  0.00     0.023 A 
ATOM     77  C   UNL A   1      44.012  27.512  36.308  1.00  0.00     0.031 A 
ATOM     78  C   UNL A   1      45.479  29.010  35.116  1.00  0.00     0.131 A 
ATOM     79  C   UNL A   1      45.119  27.047  37.033  1.00  0.00     0.055 A 
ATOM     80  C   UNL A   1      46.584  28.502  35.799  1.00  0.00     0.041 A 
ATOM     81  F   UNL A   1      45.695  29.982  34.216  1.00  0.00    -0.206 F 
ATOM     82  C   UNL A   1      46.407  27.524  36.774  1.00  0.00     0.022 A 
BRANCH  79  83
ATOM     83  S   UNL A   1      44.841  25.873  38.389  1.00  0.00     0.124 S 
ATOM     84  O   UNL A   1      43.699  26.469  39.076  1.00  0.00    -0.237 OA
ATOM     85  O   UNL A   1      44.577  24.628  37.675  1.00  0.00    -0.237 OA
ATOM     86  O   UNL A   1      46.098  25.907  39.134  1.00  0.00    -0.744 OA
ENDBRANCH  79  83
ENDBRANCH  53  76
ENDBRANCH  27  28
ENDBRANCH  19  22
ENDBRANCH   1  18
TORSDOF 14
ENDMDL
MODEL 3
REMARK VINA RESULT:     -11.3      3.342      8.823
REMARK SMILES COc1c(C(=O)NCCCNC(=O)c2ccc(-c3c4nc(c(-c5cc(S(=O)(=O)[O-])ccc5F)c5ccc([nH]5)c(-c5cc(S(=O)(=O)[O-])ccc5F)c5nc(c(-c6cc(S(=O)(=O)[O-])ccc6F)c6ccc3[nH]6)C=C5)C=C4)cc2)ccc(F)c1F
REMARK SMILES IDX 10 1 9 2 8 3 7 4 5 5 6 6 4 8 3 9 81 10 77 11 79 12 82 13
REMARK SMILES IDX 78 14 80 15 2 16 1 17 11 18 12 19 13 21 14 22 15 23 76 24
REMARK SMILES IDX 16 25 75 26 17 27 18 28 19 29 69 30 20 31 74 32 68 33 70 34
REMARK SMILES IDX 21 35 73 36 67 37 66 38 22 40 54 41 34 42 53 43 35 44 38 45
REMARK SMILES IDX 52 46 71 47 36 48 37 49 51 51 72 52 39 53 23 54 24 55 32 56
REMARK SMILES IDX 25 57 31 58 33 59 30 60 26 61 27 62 28 63 29 64 55 65 56 66
REMARK SMILES IDX 64 67 57 68 63 69 65 70 62 71 58 72 59 73 60 74 61 75 40 76
REMARK SMILES IDX 41 77 49 78 42 79 48 80 50 81 47 82 43 83 44 84 45 85 46 86
REMARK H PARENT 7 7 11 20 70 39 38 50
REMARK Flexibility Score: inf
ROOT
ATOM      1  C   UNL A   1      33.915  29.046  26.038  1.00  0.00     0.118 C 
ENDROOT
BRANCH   1   2
ATOM      2  C   UNL A   1      33.195  27.989  26.884  1.00  0.00     0.042 C 
BRANCH   2   3
ATOM      3  C   UNL A   1      31.887  27.497  26.264  1.00  0.00     0.118 C 
BRANCH   3   4
ATOM      4  N   UNL A   1      31.531  26.180  26.756  1.00  0.00    -0.352 N 
ATOM      5  C   UNL A   1      31.924  24.892  26.506  1.00  0.00     0.255 C 
ATOM      6  O   UNL A   1      31.336  24.053  27.189  1.00  0.00    -0.269 OA
ATOM      7  H   UNL A   1      30.827  26.223  27.443  1.00  0.00     0.163 HD
BRANCH   5   8
ATOM      8  C   UNL A   1      32.991  24.479  25.530  1.00  0.00     0.085 A 
ATOM      9  C   UNL A   1      32.626  24.039  24.236  1.00  0.00     0.170 A 
ATOM     10  C   UNL A   1      33.581  23.500  23.363  1.00  0.00     0.201 A 
ATOM     11  C   UNL A   1      34.363  24.498  25.829  1.00  0.00     0.021 A 
ATOM     12  C   UNL A   1      34.915  23.454  23.725  1.00  0.00     0.162 A 
ATOM     13  F   UNL A   1      33.210  23.044  22.156  1.00  0.00    -0.200 F 
ATOM     14  C   UNL A   1      35.318  23.974  24.945  1.00  0.00     0.043 A 
ATOM     15  F   UNL A   1      35.828  22.936  22.893  1.00  0.00    -0.204 F 
BRANCH   9  16
ATOM     16  O   UNL A   1      31.335  24.077  23.765  1.00  0.00    -0.493 OA
ATOM     17  C   UNL A   1      31.122  25.286  23.024  1.00  0.00     0.278 C 
ENDBRANCH   9  16
ENDBRANCH   5   8
ENDBRANCH   3   4
ENDBRANCH   2   3
ENDBRANCH   1   2
BRANCH   1  18
ATOM     18  N   UNL A   1      33.712  30.391  26.555  1.00  0.00    -0.352 N 
ATOM     19  C   UNL A   1      34.335  31.058  27.580  1.00  0.00     0.251 C 
ATOM     20  H   UNL A   1      33.013  30.909  26.093  1.00  0.00     0.163 HD
ATOM     21  O   UNL A   1      33.816  32.079  28.026  1.00  0.00    -0.269 OA
BRANCH  19  22
ATOM     22  C   UNL A   1      35.609  30.564  28.150  1.00  0.00     0.039 A 
ATOM     23  C   UNL A   1      35.568  29.750  29.286  1.00  0.00     0.014 A 
ATOM     24  C   UNL A   1      36.840  30.951  27.614  1.00  0.00     0.014 A 
ATOM     25  C   UNL A   1      36.757  29.277  29.848  1.00  0.00     0.010 A 
ATOM     26  C   UNL A   1      38.023  30.429  28.138  1.00  0.00     0.010 A 
ATOM     27  C   UNL A   1      37.993  29.585  29.259  1.00  0.00    -0.014 A 
BRANCH  27  28
ATOM     28  C   UNL A   1      39.262  29.020  29.789  1.00  0.00     0.031 A 
ATOM     29  C   UNL A   1      39.952  29.667  30.960  1.00  0.00     0.074 A 
ATOM     30  C   UNL A   1      39.827  27.966  29.167  1.00  0.00     0.049 A 
ATOM     31  N   UNL A   1      41.109  29.382  31.500  1.00  0.00    -0.248 NA
ATOM     32  C   UNL A   1      39.260  30.803  31.586  1.00  0.00     0.031 C 
ATOM     33  C   UNL A   1      39.268  27.278  28.001  1.00  0.00     0.029 A 
ATOM     34  N   UNL A   1      41.000  27.298  29.415  1.00  0.00    -0.354 N 
ATOM     35  C   UNL A   1      41.293  30.310  32.520  1.00  0.00     0.074 A 
ATOM     36  C   UNL A   1      40.149  31.197  32.487  1.00  0.00     0.031 C 
ATOM     37  C   UNL A   1      40.091  26.278  27.644  1.00  0.00     0.029 A 
ATOM     38  C   UNL A   1      41.255  26.281  28.523  1.00  0.00     0.049 A 
ATOM     39  H   UNL A   1      41.601  27.525  30.161  1.00  0.00     0.167 HD
ATOM     40  C   UNL A   1      42.313  30.400  33.410  1.00  0.00     0.034 A 
ATOM     41  C   UNL A   1      42.316  25.458  28.413  1.00  0.00     0.034 A 
ATOM     42  C   UNL A   1      43.439  29.498  33.436  1.00  0.00     0.049 A 
ATOM     43  C   UNL A   1      43.445  25.591  29.403  1.00  0.00     0.074 A 
ATOM     44  C   UNL A   1      44.497  29.463  34.329  1.00  0.00     0.029 A 
ATOM     45  N   UNL A   1      43.661  28.475  32.522  1.00  0.00    -0.354 N 
ATOM     46  N   UNL A   1      43.580  26.444  30.392  1.00  0.00    -0.248 NA
ATOM     47  C   UNL A   1      44.558  24.642  29.268  1.00  0.00     0.031 C 
ATOM     48  C   UNL A   1      45.387  28.464  33.918  1.00  0.00     0.029 A 
ATOM     49  C   UNL A   1      44.851  27.825  32.812  1.00  0.00     0.049 A 
ATOM     50  H   UNL A   1      43.060  28.246  31.777  1.00  0.00     0.167 HD
ATOM     51  C   UNL A   1      44.781  26.115  31.013  1.00  0.00     0.074 A 
ATOM     52  C   UNL A   1      45.320  24.977  30.299  1.00  0.00     0.031 C 
ATOM     53  C   UNL A   1      45.384  26.700  32.080  1.00  0.00     0.034 A 
BRANCH  40  54
ATOM     54  C   UNL A   1      42.266  31.533  34.410  1.00  0.00     0.023 A 
ATOM     55  C   UNL A   1      41.386  31.516  35.506  1.00  0.00     0.031 A 
ATOM     56  C   UNL A   1      43.104  32.653  34.257  1.00  0.00     0.131 A 
ATOM     57  C   UNL A   1      41.313  32.625  36.363  1.00  0.00     0.055 A 
ATOM     58  C   UNL A   1      43.082  33.719  35.159  1.00  0.00     0.041 A 
ATOM     59  F   UNL A   1      43.953  32.735  33.220  1.00  0.00    -0.206 F 
ATOM     60  C   UNL A   1      42.172  33.716  36.212  1.00  0.00     0.022 A 
BRANCH  57  61
ATOM     61  S   UNL A   1      39.985  32.679  37.598  1.00  0.00     0.124 S 
ATOM     62  O   UNL A   1      39.108  31.607  37.134  1.00  0.00    -0.237 OA
ATOM     63  O   UNL A   1      40.702  32.424  38.842  1.00  0.00    -0.237 OA
ATOM     64  O   UNL A   1      39.439  34.027  37.457  1.00  0.00    -0.744 OA
ENDBRANCH  57  61
ENDBRANCH  40  54
BRANCH  41  65
ATOM     65  C   UNL A   1      42.376  24.445  27.321  1.00  0.00     0.023 A 
ATOM     66  C   UNL A   1      41.593  23.281  27.369  1.00  0.00     0.031 A 
ATOM     67  C   UNL A   1      43.249  24.608  26.230  1.00  0.00     0.131 A 
ATOM     68  C   UNL A   1      41.732  22.303  26.373  1.00  0.00     0.055 A 
ATOM     69  C   UNL A   1      43.344  23.656  25.213  1.00  0.00     0.041 A 
ATOM     70  F   UNL A   1      44.014  25.707  26.130  1.00  0.00    -0.206 F 
ATOM     71  C   UNL A   1      42.593  22.488  25.289  1.00  0.00     0.022 A 
BRANCH  68  72
ATOM     72  S   UNL A   1      40.830  20.741  26.561  1.00  0.00     0.124 S 
ATOM     73  O   UNL A   1      41.632  19.833  25.749  1.00  0.00    -0.237 OA
ATOM     74  O   UNL A   1      40.885  20.532  28.004  1.00  0.00    -0.237 OA
ATOM     75  O   UNL A   1      39.503  21.049  26.030  1.00  0.00    -0.744 OA
ENDBRANCH  68  72
ENDBRANCH  41  65
BRANCH  53  76
ATOM     76  C   UNL A   1      46.676  26.083  32.555  1.00  0.00     0.023 A 
ATOM     77  C   UNL A   1      46.693  25.042  33.499  1.00  0.00     0.031 A 
ATOM     78  C   UNL A   1      47.907  26.560  32.072  1.00  0.00     0.131 A 
ATOM     79  C   UNL A   1      47.919  24.549  33.972  1.00  0.00     0.055 A 
ATOM     80  C   UNL A   1      49.121  26.026  32.502  1.00  0.00     0.041 A 
ATOM     81  F   UNL A   1      47.948  27.555  31.171  1.00  0.00    -0.206 F 
ATOM     82  C   UNL A   1      49.133  25.023  33.467  1.00  0.00     0.022 A 
BRANCH  79  83
ATOM     83  S   UNL A   1      47.908  23.341  35.326  1.00  0.00     0.124 S 
ATOM     84  O   UNL A   1      47.478  22.125  34.643  1.00  0.00    -0.237 OA
ATOM     85  O   UNL A   1      49.295  23.363  35.777  1.00  0.00    -0.237 OA
ATOM     86  O   UNL A   1      46.940  23.896  36.271  1.00  0.00    -0.744 OA
ENDBRANCH  79  83
ENDBRANCH  53  76
ENDBRANCH  27  28
ENDBRANCH  19  22
ENDBRANCH   1  18
TORSDOF 14
ENDMDL
