MODEL 1
REMARK VINA RESULT:     -11.9      0.000      0.000
REMARK SMILES CCc1nc(N2CC[N@H+](CC=C(C)C)[C@H](C(=O)NCCCNC(=O)c3ccc(-c4c5nc(c(-c6cc(S(=O)(=O)[O-])ccc6F)c6ccc([nH]6)c(-c6cc(S(=O)(=O)[O-])ccc6F)c6nc(c(-c7cc(S(=O)(=O)[O-])ccc7F)c7ccc4[nH]7)C=C6)C=C5)cc3)C2)no1
REMARK SMILES IDX 20 1 19 2 18 3 16 4 17 5 15 7 6 8 7 9 88 10 8 11 9 12 5 14
REMARK SMILES IDX 3 15 4 16 90 17 89 18 2 19 1 20 10 21 11 22 12 23 13 24
REMARK SMILES IDX 14 25 21 26 22 27 23 28 24 30 25 31 26 32 87 33 27 34 86 35
REMARK SMILES IDX 28 36 29 37 30 38 80 39 31 40 85 41 79 42 81 43 32 44 84 45
REMARK SMILES IDX 78 46 77 47 33 49 65 50 45 51 64 52 46 53 49 54 63 55 82 56
REMARK SMILES IDX 47 57 48 58 62 60 83 61 50 62 34 63 35 64 43 65 36 66 42 67
REMARK SMILES IDX 44 68 41 69 37 70 38 71 39 72 40 73 66 74 67 75 75 76 68 77
REMARK SMILES IDX 74 78 76 79 73 80 69 81 70 82 71 83 72 84 51 85 52 86 60 87
REMARK SMILES IDX 53 88 59 89 61 90 58 91 54 92 55 93 56 94 57 95
REMARK H PARENT 18 6 9 13 22 29 81 48 49 59
REMARK Flexibility Score: inf
ROOT
ATOM      1  C   UNL A   1      31.659  31.824  26.669  1.00  0.00     0.042 C 
ENDROOT
BRANCH   1   2
ATOM      2  C   UNL A   1      31.710  30.333  26.355  1.00  0.00     0.118 C 
BRANCH   2   3
ATOM      3  N   UNL A   1      32.544  30.037  25.201  1.00  0.00    -0.351 N 
ATOM      4  C   UNL A   1      32.696  28.992  24.347  1.00  0.00     0.280 C 
ATOM      5  O   UNL A   1      33.493  29.215  23.421  1.00  0.00    -0.268 OA
ATOM      6  H   UNL A   1      33.151  30.782  24.983  1.00  0.00     0.163 HD
BRANCH   4   7
ATOM      7  C   UNL A   1      31.974  27.619  24.431  1.00  0.00     0.294 C 
ATOM      8  N   UNL A   1      31.919  25.160  23.911  1.00  0.00    -0.326 N 
ATOM      9  C   UNL A   1      30.497  25.222  23.594  1.00  0.00     0.181 C 
ATOM     10  C   UNL A   1      32.678  26.410  23.806  1.00  0.00     0.195 C 
ATOM     11  C   UNL A   1      29.839  26.444  24.276  1.00  0.00     0.284 C 
ATOM     12  N   UNL A   1      30.520  27.740  24.104  1.00  0.00    -0.318 N 
ATOM     13  H   UNL A   1      30.159  28.396  24.797  1.00  0.00     0.349 HD
BRANCH   8  14
ATOM     14  C   UNL A   1      32.584  23.983  23.881  1.00  0.00     0.266 A 
ATOM     15  C   UNL A   1      34.278  22.754  23.967  1.00  0.00     0.227 A 
ATOM     16  N   UNL A   1      33.953  24.019  23.869  1.00  0.00    -0.176 NA
ATOM     17  O   UNL A   1      33.201  21.922  23.959  1.00  0.00    -0.337 OA
ATOM     18  N   UNL A   1      32.075  22.743  23.917  1.00  0.00    -0.038 NA
BRANCH  15  19
ATOM     19  C   UNL A   1      35.611  22.146  24.167  1.00  0.00     0.097 C 
ATOM     20  C   UNL A   1      36.646  22.789  23.253  1.00  0.00     0.014 C 
ENDBRANCH  15  19
ENDBRANCH   8  14
BRANCH  12  21
ATOM     21  C   UNL A   1      30.155  28.454  22.881  1.00  0.00     0.291 C 
BRANCH  21  22
ATOM     22  C   UNL A   1      29.462  29.771  23.064  1.00  0.00     0.032 C 
ATOM     23  C   UNL A   1      28.139  29.981  23.206  1.00  0.00    -0.075 C 
ATOM     24  C   UNL A   1      27.588  31.377  23.316  1.00  0.00     0.039 C 
ATOM     25  C   UNL A   1      27.119  28.877  23.220  1.00  0.00     0.039 C 
ENDBRANCH  21  22
ENDBRANCH  12  21
ENDBRANCH   4   7
ENDBRANCH   2   3
ENDBRANCH   1   2
BRANCH   1  26
ATOM     26  C   UNL A   1      32.963  32.359  27.255  1.00  0.00     0.118 C 
BRANCH  26  27
ATOM     27  N   UNL A   1      32.865  33.772  27.601  1.00  0.00    -0.352 N 
ATOM     28  C   UNL A   1      33.469  34.488  28.605  1.00  0.00     0.251 C 
ATOM     29  H   UNL A   1      32.269  34.299  27.021  1.00  0.00     0.163 HD
ATOM     30  O   UNL A   1      33.044  35.606  28.879  1.00  0.00    -0.269 OA
BRANCH  28  31
ATOM     31  C   UNL A   1      34.614  33.921  29.353  1.00  0.00     0.039 A 
ATOM     32  C   UNL A   1      34.369  32.985  30.361  1.00  0.00     0.014 A 
ATOM     33  C   UNL A   1      35.920  34.343  29.096  1.00  0.00     0.014 A 
ATOM     34  C   UNL A   1      35.438  32.429  31.068  1.00  0.00     0.010 A 
ATOM     35  C   UNL A   1      36.988  33.727  29.740  1.00  0.00     0.010 A 
ATOM     36  C   UNL A   1      36.760  32.771  30.741  1.00  0.00    -0.014 A 
BRANCH  36  37
ATOM     37  C   UNL A   1      37.917  32.161  31.444  1.00  0.00     0.031 A 
ATOM     38  C   UNL A   1      38.683  31.037  30.800  1.00  0.00     0.074 A 
ATOM     39  C   UNL A   1      38.234  32.572  32.687  1.00  0.00     0.049 A 
ATOM     40  N   UNL A   1      39.664  30.317  31.281  1.00  0.00    -0.248 NA
ATOM     41  C   UNL A   1      38.259  30.650  29.447  1.00  0.00     0.031 C 
ATOM     42  C   UNL A   1      37.545  33.630  33.428  1.00  0.00     0.029 A 
ATOM     43  N   UNL A   1      39.213  32.147  33.548  1.00  0.00    -0.354 N 
ATOM     44  C   UNL A   1      39.965  29.382  30.295  1.00  0.00     0.074 A 
ATOM     45  C   UNL A   1      39.007  29.581  29.227  1.00  0.00     0.031 C 
ATOM     46  C   UNL A   1      38.148  33.797  34.616  1.00  0.00     0.029 A 
ATOM     47  C   UNL A   1      39.231  32.828  34.743  1.00  0.00     0.049 A 
ATOM     48  H   UNL A   1      39.843  31.422  33.331  1.00  0.00     0.167 HD
ATOM     49  C   UNL A   1      40.964  28.463  30.270  1.00  0.00     0.034 A 
ATOM     50  C   UNL A   1      40.027  32.682  35.819  1.00  0.00     0.034 A 
ATOM     51  C   UNL A   1      41.911  28.284  31.345  1.00  0.00     0.049 A 
ATOM     52  C   UNL A   1      41.099  31.623  35.793  1.00  0.00     0.074 A 
ATOM     53  C   UNL A   1      42.991  27.422  31.413  1.00  0.00     0.029 A 
ATOM     54  N   UNL A   1      41.883  28.976  32.551  1.00  0.00    -0.354 N 
ATOM     55  N   UNL A   1      41.401  30.774  34.838  1.00  0.00    -0.248 NA
ATOM     56  C   UNL A   1      41.940  31.510  36.991  1.00  0.00     0.031 C 
ATOM     57  C   UNL A   1      43.572  27.543  32.681  1.00  0.00     0.029 A 
ATOM     58  C   UNL A   1      42.905  28.536  33.380  1.00  0.00     0.049 A 
ATOM     59  H   UNL A   1      41.233  29.678  32.783  1.00  0.00     0.167 HD
ATOM     60  C   UNL A   1      42.493  30.048  35.308  1.00  0.00     0.074 A 
ATOM     61  C   UNL A   1      42.797  30.567  36.626  1.00  0.00     0.031 C 
ATOM     62  C   UNL A   1      43.185  29.051  34.701  1.00  0.00     0.034 A 
BRANCH  49  63
ATOM     63  C   UNL A   1      41.048  27.572  29.050  1.00  0.00     0.023 A 
ATOM     64  C   UNL A   1      42.061  27.735  28.088  1.00  0.00     0.031 A 
ATOM     65  C   UNL A   1      40.066  26.595  28.805  1.00  0.00     0.131 A 
ATOM     66  C   UNL A   1      42.007  27.020  26.882  1.00  0.00     0.055 A 
ATOM     67  C   UNL A   1      40.076  25.815  27.646  1.00  0.00     0.041 A 
ATOM     68  F   UNL A   1      39.062  26.401  29.674  1.00  0.00    -0.206 F 
ATOM     69  C   UNL A   1      41.036  26.042  26.665  1.00  0.00     0.022 A 
BRANCH  66  70
ATOM     70  S   UNL A   1      43.102  27.532  25.527  1.00  0.00     0.124 S 
ATOM     71  O   UNL A   1      44.070  28.371  26.232  1.00  0.00    -0.237 OA
ATOM     72  O   UNL A   1      43.603  26.258  25.029  1.00  0.00    -0.237 OA
ATOM     73  O   UNL A   1      42.211  28.253  24.620  1.00  0.00    -0.744 OA
ENDBRANCH  66  70
ENDBRANCH  49  63
BRANCH  50  74
ATOM     74  C   UNL A   1      39.858  33.567  37.005  1.00  0.00     0.023 A 
ATOM     75  C   UNL A   1      40.711  34.663  37.206  1.00  0.00     0.031 A 
ATOM     76  C   UNL A   1      38.860  33.322  37.964  1.00  0.00     0.131 A 
ATOM     77  C   UNL A   1      40.576  35.454  38.357  1.00  0.00     0.055 A 
ATOM     78  C   UNL A   1      38.698  34.139  39.084  1.00  0.00     0.041 A 
ATOM     79  F   UNL A   1      38.012  32.291  37.816  1.00  0.00    -0.206 F 
ATOM     80  C   UNL A   1      39.568  35.206  39.292  1.00  0.00     0.022 A 
BRANCH  77  81
ATOM     81  S   UNL A   1      41.782  36.775  38.647  1.00  0.00     0.124 S 
ATOM     82  O   UNL A   1      42.246  37.058  37.294  1.00  0.00    -0.237 OA
ATOM     83  O   UNL A   1      40.959  37.805  39.273  1.00  0.00    -0.237 OA
ATOM     84  O   UNL A   1      42.767  36.149  39.527  1.00  0.00    -0.744 OA
ENDBRANCH  77  81
ENDBRANCH  50  74
BRANCH  62  85
ATOM     85  C   UNL A   1      44.370  28.490  35.451  1.00  0.00     0.023 A 
ATOM     86  C   UNL A   1      44.217  27.541  36.477  1.00  0.00     0.031 A 
ATOM     87  C   UNL A   1      45.670  28.931  35.146  1.00  0.00     0.131 A 
ATOM     88  C   UNL A   1      45.338  27.108  37.200  1.00  0.00     0.055 A 
ATOM     89  C   UNL A   1      46.789  28.449  35.827  1.00  0.00     0.041 A 
ATOM     90  F   UNL A   1      45.875  29.839  34.177  1.00  0.00    -0.206 F 
ATOM     91  C   UNL A   1      46.624  27.543  36.871  1.00  0.00     0.022 A 
BRANCH  88  92
ATOM     92  S   UNL A   1      45.084  26.040  38.644  1.00  0.00     0.124 S 
ATOM     93  O   UNL A   1      43.799  26.514  39.149  1.00  0.00    -0.237 OA
ATOM     94  O   UNL A   1      45.083  24.707  38.051  1.00  0.00    -0.237 OA
ATOM     95  O   UNL A   1      46.234  26.338  39.498  1.00  0.00    -0.744 OA
ENDBRANCH  88  92
ENDBRANCH  62  85
ENDBRANCH  36  37
ENDBRANCH  28  31
ENDBRANCH  26  27
ENDBRANCH   1  26
TORSDOF 17
ENDMDL
MODEL 2
REMARK VINA RESULT:     -11.9      1.963      2.306
REMARK SMILES CCc1nc(N2CC[N@H+](CC=C(C)C)[C@H](C(=O)NCCCNC(=O)c3ccc(-c4c5nc(c(-c6cc(S(=O)(=O)[O-])ccc6F)c6ccc([nH]6)c(-c6cc(S(=O)(=O)[O-])ccc6F)c6nc(c(-c7cc(S(=O)(=O)[O-])ccc7F)c7ccc4[nH]7)C=C6)C=C5)cc3)C2)no1
REMARK SMILES IDX 20 1 19 2 18 3 16 4 17 5 15 7 6 8 7 9 88 10 8 11 9 12 5 14
REMARK SMILES IDX 3 15 4 16 90 17 89 18 2 19 1 20 10 21 11 22 12 23 13 24
REMARK SMILES IDX 14 25 21 26 22 27 23 28 24 30 25 31 26 32 87 33 27 34 86 35
REMARK SMILES IDX 28 36 29 37 30 38 80 39 31 40 85 41 79 42 81 43 32 44 84 45
REMARK SMILES IDX 78 46 77 47 33 49 65 50 45 51 64 52 46 53 49 54 63 55 82 56
REMARK SMILES IDX 47 57 48 58 62 60 83 61 50 62 34 63 35 64 43 65 36 66 42 67
REMARK SMILES IDX 44 68 41 69 37 70 38 71 39 72 40 73 66 74 67 75 75 76 68 77
REMARK SMILES IDX 74 78 76 79 73 80 69 81 70 82 71 83 72 84 51 85 52 86 60 87
REMARK SMILES IDX 53 88 59 89 61 90 58 91 54 92 55 93 56 94 57 95
REMARK H PARENT 18 6 9 13 22 29 81 48 49 59
REMARK Flexibility Score: inf
ROOT
ATOM      1  C   UNL A   1      31.361  31.878  26.495  1.00  0.00     0.042 C 
ENDROOT
BRANCH   1   2
ATOM      2  C   UNL A   1      31.390  30.385  26.188  1.00  0.00     0.118 C 
BRANCH   2   3
ATOM      3  N   UNL A   1      32.345  30.052  25.142  1.00  0.00    -0.351 N 
ATOM      4  C   UNL A   1      32.599  28.973  24.359  1.00  0.00     0.280 C 
ATOM      5  O   UNL A   1      33.486  29.168  23.511  1.00  0.00    -0.268 OA
ATOM      6  H   UNL A   1      32.962  30.797  24.956  1.00  0.00     0.163 HD
BRANCH   4   7
ATOM      7  C   UNL A   1      31.889  27.593  24.429  1.00  0.00     0.294 C 
ATOM      8  N   UNL A   1      31.871  25.132  23.918  1.00  0.00    -0.326 N 
ATOM      9  C   UNL A   1      30.458  25.178  23.565  1.00  0.00     0.181 C 
ATOM     10  C   UNL A   1      32.621  26.388  23.828  1.00  0.00     0.195 C 
ATOM     11  C   UNL A   1      29.770  26.396  24.224  1.00  0.00     0.284 C 
ATOM     12  N   UNL A   1      30.442  27.699  24.064  1.00  0.00    -0.318 N 
ATOM     13  H   UNL A   1      30.057  28.353  24.745  1.00  0.00     0.349 HD
BRANCH   8  14
ATOM     14  C   UNL A   1      32.548  23.962  23.911  1.00  0.00     0.266 A 
ATOM     15  C   UNL A   1      34.217  22.729  24.199  1.00  0.00     0.227 A 
ATOM     16  N   UNL A   1      33.897  23.998  24.151  1.00  0.00    -0.176 NA
ATOM     17  O   UNL A   1      33.173  21.901  23.925  1.00  0.00    -0.337 OA
ATOM     18  N   UNL A   1      32.060  22.723  23.749  1.00  0.00    -0.038 NA
BRANCH  15  19
ATOM     19  C   UNL A   1      35.502  22.105  24.585  1.00  0.00     0.097 C 
ATOM     20  C   UNL A   1      35.315  20.628  24.905  1.00  0.00     0.014 C 
ENDBRANCH  15  19
ENDBRANCH   8  14
BRANCH  12  21
ATOM     21  C   UNL A   1      30.102  28.403  22.829  1.00  0.00     0.291 C 
BRANCH  21  22
ATOM     22  C   UNL A   1      29.440  29.739  22.989  1.00  0.00     0.032 C 
ATOM     23  C   UNL A   1      28.121  29.981  23.130  1.00  0.00    -0.075 C 
ATOM     24  C   UNL A   1      27.602  31.390  23.215  1.00  0.00     0.039 C 
ATOM     25  C   UNL A   1      27.078  28.900  23.166  1.00  0.00     0.039 C 
ENDBRANCH  21  22
ENDBRANCH  12  21
ENDBRANCH   4   7
ENDBRANCH   2   3
ENDBRANCH   1   2
BRANCH   1  26
ATOM     26  C   UNL A   1      32.728  32.440  26.874  1.00  0.00     0.118 C 
BRANCH  26  27
ATOM     27  N   UNL A   1      32.626  33.772  27.461  1.00  0.00    -0.352 N 
ATOM     28  C   UNL A   1      33.264  34.320  28.546  1.00  0.00     0.251 C 
ATOM     29  H   UNL A   1      31.997  34.376  27.004  1.00  0.00     0.163 HD
ATOM     30  O   UNL A   1      32.836  35.365  29.024  1.00  0.00    -0.269 OA
BRANCH  28  31
ATOM     31  C   UNL A   1      34.449  33.659  29.138  1.00  0.00     0.039 A 
ATOM     32  C   UNL A   1      35.719  34.172  28.866  1.00  0.00     0.014 A 
ATOM     33  C   UNL A   1      34.314  32.509  29.919  1.00  0.00     0.014 A 
ATOM     34  C   UNL A   1      36.848  33.569  29.427  1.00  0.00     0.010 A 
ATOM     35  C   UNL A   1      35.428  31.961  30.547  1.00  0.00     0.010 A 
ATOM     36  C   UNL A   1      36.709  32.477  30.300  1.00  0.00    -0.014 A 
BRANCH  36  37
ATOM     37  C   UNL A   1      37.887  31.846  30.948  1.00  0.00     0.031 A 
ATOM     38  C   UNL A   1      38.687  30.808  30.209  1.00  0.00     0.074 A 
ATOM     39  C   UNL A   1      38.193  32.157  32.222  1.00  0.00     0.049 A 
ATOM     40  N   UNL A   1      39.692  30.080  30.626  1.00  0.00    -0.248 NA
ATOM     41  C   UNL A   1      38.273  30.526  28.827  1.00  0.00     0.031 C 
ATOM     42  C   UNL A   1      37.472  33.124  33.052  1.00  0.00     0.029 A 
ATOM     43  N   UNL A   1      39.187  31.690  33.043  1.00  0.00    -0.354 N 
ATOM     44  C   UNL A   1      40.021  29.245  29.563  1.00  0.00     0.074 A 
ATOM     45  C   UNL A   1      39.054  29.505  28.516  1.00  0.00     0.031 C 
ATOM     46  C   UNL A   1      38.072  33.207  34.250  1.00  0.00     0.029 A 
ATOM     47  C   UNL A   1      39.186  32.265  34.293  1.00  0.00     0.049 A 
ATOM     48  H   UNL A   1      39.840  31.008  32.765  1.00  0.00     0.167 HD
ATOM     49  C   UNL A   1      41.049  28.364  29.459  1.00  0.00     0.034 A 
ATOM     50  C   UNL A   1      39.989  32.053  35.353  1.00  0.00     0.034 A 
ATOM     51  C   UNL A   1      42.003  28.123  30.515  1.00  0.00     0.049 A 
ATOM     52  C   UNL A   1      41.094  31.035  35.236  1.00  0.00     0.074 A 
ATOM     53  C   UNL A   1      43.111  27.294  30.508  1.00  0.00     0.029 A 
ATOM     54  N   UNL A   1      41.956  28.706  31.776  1.00  0.00    -0.354 N 
ATOM     55  N   UNL A   1      41.422  30.282  34.210  1.00  0.00    -0.248 NA
ATOM     56  C   UNL A   1      41.941  30.845  36.420  1.00  0.00     0.031 C 
ATOM     57  C   UNL A   1      43.690  27.323  31.782  1.00  0.00     0.029 A 
ATOM     58  C   UNL A   1      42.993  28.229  32.564  1.00  0.00     0.049 A 
ATOM     59  H   UNL A   1      41.284  29.364  32.067  1.00  0.00     0.167 HD
ATOM     60  C   UNL A   1      42.537  29.554  34.616  1.00  0.00     0.074 A 
ATOM     61  C   UNL A   1      42.827  29.966  35.974  1.00  0.00     0.031 C 
ATOM     62  C   UNL A   1      43.259  28.636  33.925  1.00  0.00     0.034 A 
BRANCH  49  63
ATOM     63  C   UNL A   1      41.158  27.586  28.166  1.00  0.00     0.023 A 
ATOM     64  C   UNL A   1      40.795  26.228  28.091  1.00  0.00     0.031 A 
ATOM     65  C   UNL A   1      41.697  28.181  27.012  1.00  0.00     0.131 A 
ATOM     66  C   UNL A   1      41.079  25.487  26.934  1.00  0.00     0.055 A 
ATOM     67  C   UNL A   1      41.883  27.461  25.829  1.00  0.00     0.041 A 
ATOM     68  F   UNL A   1      42.080  29.468  27.021  1.00  0.00    -0.206 F 
ATOM     69  C   UNL A   1      41.596  26.100  25.793  1.00  0.00     0.022 A 
BRANCH  66  70
ATOM     70  S   UNL A   1      40.948  23.678  27.016  1.00  0.00     0.124 S 
ATOM     71  O   UNL A   1      41.815  23.270  25.913  1.00  0.00    -0.237 OA
ATOM     72  O   UNL A   1      41.439  23.388  28.357  1.00  0.00    -0.237 OA
ATOM     73  O   UNL A   1      39.524  23.428  26.804  1.00  0.00    -0.744 OA
ENDBRANCH  66  70
ENDBRANCH  49  63
BRANCH  50  74
ATOM     74  C   UNL A   1      39.794  32.825  36.611  1.00  0.00     0.023 A 
ATOM     75  C   UNL A   1      38.868  32.397  37.575  1.00  0.00     0.031 A 
ATOM     76  C   UNL A   1      40.511  34.007  36.863  1.00  0.00     0.131 A 
ATOM     77  C   UNL A   1      38.654  33.165  38.730  1.00  0.00     0.055 A 
ATOM     78  C   UNL A   1      40.330  34.743  38.035  1.00  0.00     0.041 A 
ATOM     79  F   UNL A   1      41.415  34.455  35.977  1.00  0.00    -0.206 F 
ATOM     80  C   UNL A   1      39.387  34.328  38.972  1.00  0.00     0.022 A 
BRANCH  77  81
ATOM     81  S   UNL A   1      37.353  32.652  39.883  1.00  0.00     0.124 S 
ATOM     82  O   UNL A   1      37.886  31.394  40.393  1.00  0.00    -0.237 OA
ATOM     83  O   UNL A   1      37.325  33.767  40.824  1.00  0.00    -0.237 OA
ATOM     84  O   UNL A   1      36.172  32.530  39.031  1.00  0.00    -0.744 OA
ENDBRANCH  77  81
ENDBRANCH  50  74
BRANCH  62  85
ATOM     85  C   UNL A   1      44.463  28.051  34.624  1.00  0.00     0.023 A 
ATOM     86  C   UNL A   1      44.387  26.854  35.358  1.00  0.00     0.031 A 
ATOM     87  C   UNL A   1      45.701  28.715  34.571  1.00  0.00     0.131 A 
ATOM     88  C   UNL A   1      45.511  26.390  36.056  1.00  0.00     0.055 A 
ATOM     89  C   UNL A   1      46.833  28.216  35.217  1.00  0.00     0.041 A 
ATOM     90  F   UNL A   1      45.832  29.865  33.888  1.00  0.00    -0.206 F 
ATOM     91  C   UNL A   1      46.737  27.054  35.977  1.00  0.00     0.022 A 
BRANCH  88  92
ATOM     92  S   UNL A   1      45.324  24.956  37.152  1.00  0.00     0.124 S 
ATOM     93  O   UNL A   1      44.254  24.211  36.498  1.00  0.00    -0.237 OA
ATOM     94  O   UNL A   1      46.650  24.348  37.100  1.00  0.00    -0.237 OA
ATOM     95  O   UNL A   1      44.967  25.552  38.439  1.00  0.00    -0.744 OA
ENDBRANCH  88  92
ENDBRANCH  62  85
ENDBRANCH  36  37
ENDBRANCH  28  31
ENDBRANCH  26  27
ENDBRANCH   1  26
TORSDOF 17
ENDMDL
MODEL 3
REMARK VINA RESULT:     -11.9      5.853     11.683
REMARK SMILES CCc1nc(N2CC[N@H+](CC=C(C)C)[C@H](C(=O)NCCCNC(=O)c3ccc(-c4c5nc(c(-c6cc(S(=O)(=O)[O-])ccc6F)c6ccc([nH]6)c(-c6cc(S(=O)(=O)[O-])ccc6F)c6nc(c(-c7cc(S(=O)(=O)[O-])ccc7F)c7ccc4[nH]7)C=C6)C=C5)cc3)C2)no1
REMARK SMILES IDX 20 1 19 2 18 3 16 4 17 5 15 7 6 8 7 9 88 10 8 11 9 12 5 14
REMARK SMILES IDX 3 15 4 16 90 17 89 18 2 19 1 20 10 21 11 22 12 23 13 24
REMARK SMILES IDX 14 25 21 26 22 27 23 28 24 30 25 31 26 32 87 33 27 34 86 35
REMARK SMILES IDX 28 36 29 37 30 38 80 39 31 40 85 41 79 42 81 43 32 44 84 45
REMARK SMILES IDX 78 46 77 47 33 49 65 50 45 51 64 52 46 53 49 54 63 55 82 56
REMARK SMILES IDX 47 57 48 58 62 60 83 61 50 62 34 63 35 64 43 65 36 66 42 67
REMARK SMILES IDX 44 68 41 69 37 70 38 71 39 72 40 73 66 74 67 75 75 76 68 77
REMARK SMILES IDX 74 78 76 79 73 80 69 81 70 82 71 83 72 84 51 85 52 86 60 87
REMARK SMILES IDX 53 88 59 89 61 90 58 91 54 92 55 93 56 94 57 95
REMARK H PARENT 18 6 9 13 22 29 81 48 49 59
REMARK Flexibility Score: inf
ROOT
ATOM      1  C   UNL A   1      38.029  19.928  24.991  1.00  0.00     0.042 C 
ENDROOT
BRANCH   1   2
ATOM      2  C   UNL A   1      36.932  20.975  24.827  1.00  0.00     0.118 C 
BRANCH   2   3
ATOM      3  N   UNL A   1      36.102  21.098  26.016  1.00  0.00    -0.351 N 
ATOM      4  C   UNL A   1      34.884  21.621  26.306  1.00  0.00     0.280 C 
ATOM      5  O   UNL A   1      34.518  21.419  27.476  1.00  0.00    -0.268 OA
ATOM      6  H   UNL A   1      36.531  20.701  26.809  1.00  0.00     0.163 HD
BRANCH   4   7
ATOM      7  C   UNL A   1      33.957  22.399  25.332  1.00  0.00     0.294 C 
ATOM      8  N   UNL A   1      32.147  24.102  24.951  1.00  0.00    -0.326 N 
ATOM      9  C   UNL A   1      31.519  23.262  23.940  1.00  0.00     0.181 C 
ATOM     10  C   UNL A   1      32.999  23.431  25.938  1.00  0.00     0.195 C 
ATOM     11  C   UNL A   1      32.541  22.264  23.347  1.00  0.00     0.284 C 
ATOM     12  N   UNL A   1      33.344  21.492  24.312  1.00  0.00    -0.318 N 
ATOM     13  H   UNL A   1      34.143  21.085  23.825  1.00  0.00     0.349 HD
BRANCH   8  14
ATOM     14  C   UNL A   1      31.654  25.328  25.236  1.00  0.00     0.266 A 
ATOM     15  C   UNL A   1      31.304  27.002  26.445  1.00  0.00     0.227 A 
ATOM     16  N   UNL A   1      31.741  25.771  26.530  1.00  0.00    -0.176 NA
ATOM     17  O   UNL A   1      30.873  27.335  25.197  1.00  0.00    -0.337 OA
ATOM     18  N   UNL A   1      31.121  26.223  24.392  1.00  0.00    -0.038 NA
BRANCH  15  19
ATOM     19  C   UNL A   1      31.302  28.065  27.474  1.00  0.00     0.097 C 
ATOM     20  C   UNL A   1      32.519  28.969  27.327  1.00  0.00     0.014 C 
ENDBRANCH  15  19
ENDBRANCH   8  14
BRANCH  12  21
ATOM     21  C   UNL A   1      32.700  20.270  24.789  1.00  0.00     0.291 C 
BRANCH  21  22
ATOM     22  C   UNL A   1      33.460  18.994  24.575  1.00  0.00     0.032 C 
ATOM     23  C   UNL A   1      33.286  18.102  23.580  1.00  0.00    -0.075 C 
ATOM     24  C   UNL A   1      34.088  16.829  23.539  1.00  0.00     0.039 C 
ATOM     25  C   UNL A   1      32.275  18.269  22.481  1.00  0.00     0.039 C 
ENDBRANCH  21  22
ENDBRANCH  12  21
ENDBRANCH   4   7
ENDBRANCH   2   3
ENDBRANCH   1   2
BRANCH   1  26
ATOM     26  C   UNL A   1      39.143  20.367  25.935  1.00  0.00     0.118 C 
BRANCH  26  27
ATOM     27  N   UNL A   1      40.218  19.384  26.006  1.00  0.00    -0.352 N 
ATOM     28  C   UNL A   1      41.580  19.553  26.049  1.00  0.00     0.251 C 
ATOM     29  H   UNL A   1      39.918  18.446  26.026  1.00  0.00     0.163 HD
ATOM     30  O   UNL A   1      42.307  18.587  25.839  1.00  0.00    -0.269 OA
BRANCH  28  31
ATOM     31  C   UNL A   1      42.167  20.880  26.339  1.00  0.00     0.039 A 
ATOM     32  C   UNL A   1      42.537  21.705  25.274  1.00  0.00     0.014 A 
ATOM     33  C   UNL A   1      42.397  21.293  27.653  1.00  0.00     0.014 A 
ATOM     34  C   UNL A   1      43.081  22.967  25.528  1.00  0.00     0.010 A 
ATOM     35  C   UNL A   1      42.858  22.581  27.906  1.00  0.00     0.010 A 
ATOM     36  C   UNL A   1      43.215  23.428  26.848  1.00  0.00    -0.014 A 
BRANCH  36  37
ATOM     37  C   UNL A   1      43.746  24.783  27.146  1.00  0.00     0.031 A 
ATOM     38  C   UNL A   1      42.839  25.838  27.720  1.00  0.00     0.074 A 
ATOM     39  C   UNL A   1      45.022  25.082  26.838  1.00  0.00     0.049 A 
ATOM     40  N   UNL A   1      43.084  27.099  27.971  1.00  0.00    -0.248 NA
ATOM     41  C   UNL A   1      41.460  25.424  28.016  1.00  0.00     0.031 C 
ATOM     42  C   UNL A   1      45.988  24.153  26.247  1.00  0.00     0.029 A 
ATOM     43  N   UNL A   1      45.726  26.251  26.973  1.00  0.00    -0.354 N 
ATOM     44  C   UNL A   1      41.887  27.632  28.440  1.00  0.00     0.074 A 
ATOM     45  C   UNL A   1      40.903  26.572  28.361  1.00  0.00     0.031 C 
ATOM     46  C   UNL A   1      47.168  24.778  26.108  1.00  0.00     0.029 A 
ATOM     47  C   UNL A   1      47.032  26.162  26.550  1.00  0.00     0.049 A 
ATOM     48  H   UNL A   1      45.333  27.077  27.338  1.00  0.00     0.167 HD
ATOM     49  C   UNL A   1      41.640  28.878  28.918  1.00  0.00     0.034 A 
ATOM     50  C   UNL A   1      48.005  27.091  26.518  1.00  0.00     0.034 A 
ATOM     51  C   UNL A   1      42.638  29.918  28.991  1.00  0.00     0.049 A 
ATOM     52  C   UNL A   1      47.698  28.483  27.007  1.00  0.00     0.074 A 
ATOM     53  C   UNL A   1      42.518  31.199  29.499  1.00  0.00     0.029 A 
ATOM     54  N   UNL A   1      43.945  29.798  28.531  1.00  0.00    -0.354 N 
ATOM     55  N   UNL A   1      46.574  28.963  27.488  1.00  0.00    -0.248 NA
ATOM     56  C   UNL A   1      48.796  29.457  26.952  1.00  0.00     0.031 C 
ATOM     57  C   UNL A   1      43.726  31.873  29.283  1.00  0.00     0.029 A 
ATOM     58  C   UNL A   1      44.628  30.992  28.712  1.00  0.00     0.049 A 
ATOM     59  H   UNL A   1      44.330  28.983  28.134  1.00  0.00     0.167 HD
ATOM     60  C   UNL A   1      46.841  30.287  27.827  1.00  0.00     0.074 A 
ATOM     61  C   UNL A   1      48.233  30.523  27.502  1.00  0.00     0.031 C 
ATOM     62  C   UNL A   1      46.013  31.218  28.365  1.00  0.00     0.034 A 
BRANCH  49  63
ATOM     63  C   UNL A   1      40.224  29.174  29.363  1.00  0.00     0.023 A 
ATOM     64  C   UNL A   1      39.857  29.137  30.722  1.00  0.00     0.031 A 
ATOM     65  C   UNL A   1      39.211  29.425  28.421  1.00  0.00     0.131 A 
ATOM     66  C   UNL A   1      38.507  29.233  31.088  1.00  0.00     0.055 A 
ATOM     67  C   UNL A   1      37.882  29.621  28.802  1.00  0.00     0.041 A 
ATOM     68  F   UNL A   1      39.491  29.455  27.108  1.00  0.00    -0.206 F 
ATOM     69  C   UNL A   1      37.519  29.502  30.140  1.00  0.00     0.022 A 
BRANCH  66  70
ATOM     70  S   UNL A   1      38.043  28.804  32.789  1.00  0.00     0.124 S 
ATOM     71  O   UNL A   1      38.142  27.345  32.762  1.00  0.00    -0.237 OA
ATOM     72  O   UNL A   1      39.053  29.499  33.576  1.00  0.00    -0.237 OA
ATOM     73  O   UNL A   1      36.683  29.324  32.916  1.00  0.00    -0.744 OA
ENDBRANCH  66  70
ENDBRANCH  49  63
BRANCH  50  74
ATOM     74  C   UNL A   1      49.365  26.740  26.023  1.00  0.00     0.023 A 
ATOM     75  C   UNL A   1      49.862  27.305  24.838  1.00  0.00     0.031 A 
ATOM     76  C   UNL A   1      50.180  25.825  26.710  1.00  0.00     0.131 A 
ATOM     77  C   UNL A   1      51.121  26.922  24.354  1.00  0.00     0.055 A 
ATOM     78  C   UNL A   1      51.453  25.482  26.251  1.00  0.00     0.041 A 
ATOM     79  F   UNL A   1      49.757  25.262  27.854  1.00  0.00    -0.206 F 
ATOM     80  C   UNL A   1      51.925  26.024  25.058  1.00  0.00     0.022 A 
BRANCH  77  81
ATOM     81  S   UNL A   1      51.668  27.570  22.751  1.00  0.00     0.124 S 
ATOM     82  O   UNL A   1      53.075  27.854  23.009  1.00  0.00    -0.237 OA
ATOM     83  O   UNL A   1      51.391  26.447  21.860  1.00  0.00    -0.237 OA
ATOM     84  O   UNL A   1      50.820  28.743  22.552  1.00  0.00    -0.744 OA
ENDBRANCH  77  81
ENDBRANCH  50  74
BRANCH  62  85
ATOM     85  C   UNL A   1      46.616  32.567  28.676  1.00  0.00     0.023 A 
ATOM     86  C   UNL A   1      46.609  33.617  27.740  1.00  0.00     0.031 A 
ATOM     87  C   UNL A   1      47.227  32.797  29.921  1.00  0.00     0.131 A 
ATOM     88  C   UNL A   1      47.251  34.826  28.042  1.00  0.00     0.055 A 
ATOM     89  C   UNL A   1      47.810  34.024  30.240  1.00  0.00     0.041 A 
ATOM     90  F   UNL A   1      47.267  31.829  30.852  1.00  0.00    -0.206 F 
ATOM     91  C   UNL A   1      47.837  35.043  29.291  1.00  0.00     0.022 A 
BRANCH  88  92
ATOM     92  S   UNL A   1      47.397  36.083  26.742  1.00  0.00     0.124 S 
ATOM     93  O   UNL A   1      48.659  36.730  27.086  1.00  0.00    -0.237 OA
ATOM     94  O   UNL A   1      47.405  35.275  25.526  1.00  0.00    -0.237 OA
ATOM     95  O   UNL A   1      46.205  36.910  26.928  1.00  0.00    -0.744 OA
ENDBRANCH  88  92
ENDBRANCH  62  85
ENDBRANCH  36  37
ENDBRANCH  28  31
ENDBRANCH  26  27
ENDBRANCH   1  26
TORSDOF 17
ENDMDL
