MODEL 1
REMARK VINA RESULT:     -13.1      0.000      0.000
REMARK SMILES O=C(NCCCNC(=O)[C@@H]1CCCN(c2ccc3cc(S(=O)(=O)N4CCCCC4)ccc3n2)C1)c1ccc(-c2c3nc(c(-c4cc(S(=O)(=O)[O-])ccc4F)c4ccc([nH]4)c(-c4cc(S(=O)(=O)[O-])ccc4F)c4nc(c(-c5cc(S(=O)(=O)[O-])ccc5F)c5ccc2[nH]5)C=C4)C=C3)cc1
REMARK SMILES IDX 5 1 4 2 3 3 1 4 2 5 35 7 36 8 97 9 37 10 96 11 38 12 39 13
REMARK SMILES IDX 40 14 90 15 41 16 95 17 89 18 91 19 42 20 94 21 88 22 87 23
REMARK SMILES IDX 43 25 75 26 55 27 74 28 56 29 59 30 73 31 92 32 57 33 58 34
REMARK SMILES IDX 72 36 93 37 60 38 44 39 45 40 53 41 46 42 52 43 54 44 51 45
REMARK SMILES IDX 47 46 48 47 49 48 50 49 76 50 77 51 85 52 78 53 84 54 86 55
REMARK SMILES IDX 83 56 79 57 80 58 81 59 82 60 61 61 62 62 70 63 63 64 69 65
REMARK SMILES IDX 71 66 68 67 64 68 65 69 66 70 67 71 6 72 7 73 8 74 9 76
REMARK SMILES IDX 10 77 11 78 34 79 12 80 14 81 13 82 15 83 16 84 33 85 17 86
REMARK SMILES IDX 32 87 18 88 31 89 19 90 30 91 20 92 21 93 22 94 23 95 24 96
REMARK SMILES IDX 25 97 29 98 26 99 28 100 27 101
REMARK H PARENT 3 6 91 24 59 35 7 75
REMARK Flexibility Score: inf
ROOT
ATOM      1  C   UNL A   1      46.519  36.940  26.308  1.00  0.00     0.042 C 
ENDROOT
BRANCH   1   2
ATOM      2  C   UNL A   1      46.780  35.478  25.956  1.00  0.00     0.118 C 
BRANCH   2   3
ATOM      3  N   UNL A   1      45.815  34.965  24.995  1.00  0.00    -0.352 N 
ATOM      4  O   UNL A   1      44.081  33.732  24.266  1.00  0.00    -0.269 OA
ATOM      5  C   UNL A   1      44.627  34.304  25.206  1.00  0.00     0.251 C 
ATOM      6  H   UNL A   1      46.047  35.113  24.049  1.00  0.00     0.163 HD
BRANCH   5   7
ATOM      7  C   UNL A   1      44.008  34.274  26.552  1.00  0.00     0.039 A 
ATOM      8  C   UNL A   1      43.237  35.346  27.004  1.00  0.00     0.014 A 
ATOM      9  C   UNL A   1      44.155  33.140  27.358  1.00  0.00     0.014 A 
ATOM     10  C   UNL A   1      42.749  35.351  28.305  1.00  0.00     0.010 A 
ATOM     11  C   UNL A   1      43.565  33.100  28.628  1.00  0.00     0.010 A 
ATOM     12  C   UNL A   1      42.873  34.215  29.123  1.00  0.00    -0.014 A 
BRANCH  12  13
ATOM     13  C   UNL A   1      42.186  34.215  30.444  1.00  0.00     0.031 A 
ATOM     14  C   UNL A   1      40.689  34.130  30.555  1.00  0.00     0.074 A 
ATOM     15  C   UNL A   1      42.949  34.227  31.557  1.00  0.00     0.049 A 
ATOM     16  N   UNL A   1      39.947  34.052  31.632  1.00  0.00    -0.248 NA
ATOM     17  C   UNL A   1      39.922  34.144  29.301  1.00  0.00     0.031 C 
ATOM     18  C   UNL A   1      44.411  34.333  31.568  1.00  0.00     0.029 A 
ATOM     19  N   UNL A   1      42.620  34.111  32.883  1.00  0.00    -0.354 N 
ATOM     20  C   UNL A   1      38.629  34.012  31.190  1.00  0.00     0.074 A 
ATOM     21  C   UNL A   1      38.674  34.119  29.745  1.00  0.00     0.031 C 
ATOM     22  C   UNL A   1      44.855  34.205  32.826  1.00  0.00     0.029 A 
ATOM     23  C   UNL A   1      43.711  34.090  33.721  1.00  0.00     0.049 A 
ATOM     24  H   UNL A   1      41.691  34.049  33.204  1.00  0.00     0.167 HD
ATOM     25  C   UNL A   1      37.492  33.887  31.921  1.00  0.00     0.034 A 
ATOM     26  C   UNL A   1      43.789  34.005  35.063  1.00  0.00     0.034 A 
ATOM     27  C   UNL A   1      37.468  33.792  33.364  1.00  0.00     0.049 A 
ATOM     28  C   UNL A   1      42.512  33.881  35.848  1.00  0.00     0.074 A 
ATOM     29  C   UNL A   1      36.374  33.670  34.204  1.00  0.00     0.029 A 
ATOM     30  N   UNL A   1      38.592  33.808  34.183  1.00  0.00    -0.354 N 
ATOM     31  N   UNL A   1      41.274  33.843  35.409  1.00  0.00    -0.248 NA
ATOM     32  C   UNL A   1      42.641  33.784  37.305  1.00  0.00     0.031 C 
ATOM     33  C   UNL A   1      36.830  33.670  35.528  1.00  0.00     0.029 A 
ATOM     34  C   UNL A   1      38.214  33.718  35.516  1.00  0.00     0.049 A 
ATOM     35  H   UNL A   1      39.520  33.873  33.864  1.00  0.00     0.167 HD
ATOM     36  C   UNL A   1      40.478  33.711  36.540  1.00  0.00     0.074 A 
ATOM     37  C   UNL A   1      41.378  33.633  37.673  1.00  0.00     0.031 C 
ATOM     38  C   UNL A   1      39.123  33.669  36.637  1.00  0.00     0.034 A 
BRANCH  25  39
ATOM     39  C   UNL A   1      36.179  33.883  31.172  1.00  0.00     0.023 A 
ATOM     40  C   UNL A   1      35.286  34.966  31.243  1.00  0.00     0.031 A 
ATOM     41  C   UNL A   1      35.811  32.778  30.382  1.00  0.00     0.131 A 
ATOM     42  C   UNL A   1      34.045  34.897  30.587  1.00  0.00     0.055 A 
ATOM     43  C   UNL A   1      34.608  32.747  29.673  1.00  0.00     0.041 A 
ATOM     44  F   UNL A   1      36.613  31.706  30.291  1.00  0.00    -0.206 F 
ATOM     45  C   UNL A   1      33.711  33.805  29.784  1.00  0.00     0.022 A 
BRANCH  42  46
ATOM     46  S   UNL A   1      32.823  36.201  30.901  1.00  0.00     0.124 S 
ATOM     47  O   UNL A   1      33.660  37.270  31.438  1.00  0.00    -0.237 OA
ATOM     48  O   UNL A   1      32.262  36.434  29.576  1.00  0.00    -0.237 OA
ATOM     49  O   UNL A   1      31.911  35.591  31.866  1.00  0.00    -0.744 OA
ENDBRANCH  42  46
ENDBRANCH  25  39
BRANCH  26  50
ATOM     50  C   UNL A   1      45.112  34.077  35.746  1.00  0.00     0.023 A 
ATOM     51  C   UNL A   1      45.845  32.920  36.050  1.00  0.00     0.031 A 
ATOM     52  C   UNL A   1      45.651  35.317  36.138  1.00  0.00     0.131 A 
ATOM     53  C   UNL A   1      47.049  33.022  36.764  1.00  0.00     0.055 A 
ATOM     54  C   UNL A   1      46.878  35.419  36.791  1.00  0.00     0.041 A 
ATOM     55  F   UNL A   1      44.994  36.458  35.871  1.00  0.00    -0.206 F 
ATOM     56  C   UNL A   1      47.579  34.264  37.122  1.00  0.00     0.022 A 
BRANCH  53  57
ATOM     57  S   UNL A   1      47.867  31.498  37.311  1.00  0.00     0.124 S 
ATOM     58  O   UNL A   1      49.275  31.883  37.268  1.00  0.00    -0.237 OA
ATOM     59  O   UNL A   1      47.295  31.308  38.639  1.00  0.00    -0.237 OA
ATOM     60  O   UNL A   1      47.459  30.515  36.310  1.00  0.00    -0.744 OA
ENDBRANCH  53  57
ENDBRANCH  26  50
BRANCH  38  61
ATOM     61  C   UNL A   1      38.556  33.514  38.026  1.00  0.00     0.023 A 
ATOM     62  C   UNL A   1      38.672  34.537  38.985  1.00  0.00     0.031 A 
ATOM     63  C   UNL A   1      37.941  32.311  38.414  1.00  0.00     0.131 A 
ATOM     64  C   UNL A   1      38.250  34.310  40.303  1.00  0.00     0.055 A 
ATOM     65  C   UNL A   1      37.464  32.116  39.709  1.00  0.00     0.041 A 
ATOM     66  F   UNL A   1      37.806  31.301  37.539  1.00  0.00    -0.206 F 
ATOM     67  C   UNL A   1      37.633  33.112  40.668  1.00  0.00     0.022 A 
BRANCH  64  68
ATOM     68  S   UNL A   1      38.627  35.560  41.563  1.00  0.00     0.124 S 
ATOM     69  O   UNL A   1      39.973  35.176  41.978  1.00  0.00    -0.237 OA
ATOM     70  O   UNL A   1      38.523  36.804  40.807  1.00  0.00    -0.237 OA
ATOM     71  O   UNL A   1      37.586  35.357  42.568  1.00  0.00    -0.744 OA
ENDBRANCH  64  68
ENDBRANCH  38  61
ENDBRANCH  12  13
ENDBRANCH   5   7
ENDBRANCH   2   3
ENDBRANCH   1   2
BRANCH   1  72
ATOM     72  C   UNL A   1      47.617  37.887  25.842  1.00  0.00     0.117 C 
BRANCH  72  73
ATOM     73  N   UNL A   1      47.192  38.742  24.753  1.00  0.00    -0.356 N 
ATOM     74  C   UNL A   1      46.608  39.954  24.657  1.00  0.00     0.224 C 
ATOM     75  H   UNL A   1      47.373  38.343  23.873  1.00  0.00     0.163 HD
ATOM     76  O   UNL A   1      46.576  40.388  23.494  1.00  0.00    -0.275 OA
BRANCH  74  77
ATOM     77  C   UNL A   1      46.163  40.847  25.821  1.00  0.00     0.098 C 
ATOM     78  C   UNL A   1      45.282  40.327  26.968  1.00  0.00     0.017 C 
ATOM     79  C   UNL A   1      45.483  42.095  25.210  1.00  0.00     0.131 C 
ATOM     80  C   UNL A   1      43.807  40.151  26.602  1.00  0.00     0.022 C 
ATOM     81  N   UNL A   1      44.101  41.772  24.865  1.00  0.00    -0.356 N 
ATOM     82  C   UNL A   1      43.219  41.403  25.960  1.00  0.00     0.118 C 
BRANCH  81  83
ATOM     83  C   UNL A   1      43.537  42.224  23.692  1.00  0.00     0.129 A 
ATOM     84  C   UNL A   1      42.159  42.374  23.575  1.00  0.00     0.047 A 
ATOM     85  N   UNL A   1      44.359  42.578  22.686  1.00  0.00    -0.231 NA
ATOM     86  C   UNL A   1      41.609  42.893  22.408  1.00  0.00     0.014 A 
ATOM     87  C   UNL A   1      43.836  43.056  21.550  1.00  0.00     0.073 A 
ATOM     88  C   UNL A   1      42.453  43.236  21.355  1.00  0.00     0.002 A 
ATOM     89  C   UNL A   1      44.693  43.379  20.516  1.00  0.00     0.030 A 
ATOM     90  C   UNL A   1      41.962  43.729  20.135  1.00  0.00     0.032 A 
ATOM     91  C   UNL A   1      44.217  43.856  19.293  1.00  0.00     0.024 A 
ATOM     92  C   UNL A   1      42.848  44.027  19.095  1.00  0.00     0.083 A 
BRANCH  92  93
ATOM     93  S   UNL A   1      42.127  44.569  17.555  1.00  0.00     0.243 S 
ATOM     94  O   UNL A   1      42.963  44.001  16.510  1.00  0.00    -0.207 OA
ATOM     95  O   UNL A   1      40.720  44.268  17.633  1.00  0.00    -0.207 OA
BRANCH  93  96
ATOM     96  N   UNL A   1      42.305  46.268  17.474  1.00  0.00    -0.198 NA
ATOM     97  C   UNL A   1      43.521  46.815  18.131  1.00  0.00     0.102 C 
ATOM     98  C   UNL A   1      41.815  46.908  16.231  1.00  0.00     0.102 C 
ATOM     99  C   UNL A   1      43.563  48.336  18.110  1.00  0.00     0.017 C 
ATOM    100  C   UNL A   1      41.900  48.426  16.284  1.00  0.00     0.017 C 
ATOM    101  C   UNL A   1      43.281  48.884  16.721  1.00  0.00     0.003 C 
ENDBRANCH  93  96
ENDBRANCH  92  93
ENDBRANCH  81  83
ENDBRANCH  74  77
ENDBRANCH  72  73
ENDBRANCH   1  72
TORSDOF 16
ENDMDL
MODEL 2
REMARK VINA RESULT:     -13.0     10.090     15.533
REMARK SMILES O=C(NCCCNC(=O)[C@@H]1CCCN(c2ccc3cc(S(=O)(=O)N4CCCCC4)ccc3n2)C1)c1ccc(-c2c3nc(c(-c4cc(S(=O)(=O)[O-])ccc4F)c4ccc([nH]4)c(-c4cc(S(=O)(=O)[O-])ccc4F)c4nc(c(-c5cc(S(=O)(=O)[O-])ccc5F)c5ccc2[nH]5)C=C4)C=C3)cc1
REMARK SMILES IDX 5 1 4 2 3 3 1 4 2 5 35 7 36 8 97 9 37 10 96 11 38 12 39 13
REMARK SMILES IDX 40 14 90 15 41 16 95 17 89 18 91 19 42 20 94 21 88 22 87 23
REMARK SMILES IDX 43 25 75 26 55 27 74 28 56 29 59 30 73 31 92 32 57 33 58 34
REMARK SMILES IDX 72 36 93 37 60 38 44 39 45 40 53 41 46 42 52 43 54 44 51 45
REMARK SMILES IDX 47 46 48 47 49 48 50 49 76 50 77 51 85 52 78 53 84 54 86 55
REMARK SMILES IDX 83 56 79 57 80 58 81 59 82 60 61 61 62 62 70 63 63 64 69 65
REMARK SMILES IDX 71 66 68 67 64 68 65 69 66 70 67 71 6 72 7 73 8 74 9 76
REMARK SMILES IDX 10 77 11 78 34 79 12 80 14 81 13 82 15 83 16 84 33 85 17 86
REMARK SMILES IDX 32 87 18 88 31 89 19 90 30 91 20 92 21 93 22 94 23 95 24 96
REMARK SMILES IDX 25 97 29 98 26 99 28 100 27 101
REMARK H PARENT 3 6 91 24 59 35 7 75
REMARK Flexibility Score: inf
ROOT
ATOM      1  C   UNL A   1      33.646  28.809  23.849  1.00  0.00     0.042 C 
ENDROOT
BRANCH   1   2
ATOM      2  C   UNL A   1      33.469  28.879  25.363  1.00  0.00     0.118 C 
BRANCH   2   3
ATOM      3  N   UNL A   1      32.907  30.153  25.791  1.00  0.00    -0.352 N 
ATOM      4  O   UNL A   1      32.496  31.862  27.193  1.00  0.00    -0.269 OA
ATOM      5  C   UNL A   1      33.252  30.954  26.855  1.00  0.00     0.251 C 
ATOM      6  H   UNL A   1      32.170  30.492  25.235  1.00  0.00     0.163 HD
BRANCH   5   7
ATOM      7  C   UNL A   1      34.517  30.728  27.592  1.00  0.00     0.039 A 
ATOM      8  C   UNL A   1      34.797  29.484  28.157  1.00  0.00     0.014 A 
ATOM      9  C   UNL A   1      35.462  31.756  27.679  1.00  0.00     0.014 A 
ATOM     10  C   UNL A   1      35.937  29.314  28.933  1.00  0.00     0.010 A 
ATOM     11  C   UNL A   1      36.665  31.547  28.367  1.00  0.00     0.010 A 
ATOM     12  C   UNL A   1      36.905  30.329  29.019  1.00  0.00    -0.014 A 
BRANCH  12  13
ATOM     13  C   UNL A   1      38.182  30.032  29.725  1.00  0.00     0.031 A 
ATOM     14  C   UNL A   1      38.463  30.561  31.104  1.00  0.00     0.074 A 
ATOM     15  C   UNL A   1      39.067  29.212  29.121  1.00  0.00     0.049 A 
ATOM     16  N   UNL A   1      39.497  30.338  31.877  1.00  0.00    -0.248 NA
ATOM     17  C   UNL A   1      37.464  31.466  31.691  1.00  0.00     0.031 C 
ATOM     18  C   UNL A   1      38.909  28.659  27.772  1.00  0.00     0.029 A 
ATOM     19  N   UNL A   1      40.246  28.668  29.561  1.00  0.00    -0.354 N 
ATOM     20  C   UNL A   1      39.279  31.074  33.036  1.00  0.00     0.074 A 
ATOM     21  C   UNL A   1      38.031  31.786  32.846  1.00  0.00     0.031 C 
ATOM     22  C   UNL A   1      39.909  27.803  27.524  1.00  0.00     0.029 A 
ATOM     23  C   UNL A   1      40.825  27.805  28.658  1.00  0.00     0.049 A 
ATOM     24  H   UNL A   1      40.642  28.877  30.438  1.00  0.00     0.167 HD
ATOM     25  C   UNL A   1      40.042  31.138  34.157  1.00  0.00     0.034 A 
ATOM     26  C   UNL A   1      41.972  27.102  28.724  1.00  0.00     0.034 A 
ATOM     27  C   UNL A   1      41.290  30.426  34.324  1.00  0.00     0.049 A 
ATOM     28  C   UNL A   1      42.804  27.205  29.971  1.00  0.00     0.074 A 
ATOM     29  C   UNL A   1      42.146  30.426  35.413  1.00  0.00     0.029 A 
ATOM     30  N   UNL A   1      41.862  29.587  33.375  1.00  0.00    -0.354 N 
ATOM     31  N   UNL A   1      42.577  27.906  31.059  1.00  0.00    -0.248 NA
ATOM     32  C   UNL A   1      44.042  26.418  30.005  1.00  0.00     0.031 C 
ATOM     33  C   UNL A   1      43.259  29.635  35.102  1.00  0.00     0.029 A 
ATOM     34  C   UNL A   1      43.066  29.080  33.847  1.00  0.00     0.049 A 
ATOM     35  H   UNL A   1      41.471  29.380  32.497  1.00  0.00     0.167 HD
ATOM     36  C   UNL A   1      43.644  27.639  31.908  1.00  0.00     0.074 A 
ATOM     37  C   UNL A   1      44.489  26.681  31.223  1.00  0.00     0.031 C 
ATOM     38  C   UNL A   1      43.911  28.147  33.140  1.00  0.00     0.034 A 
BRANCH  25  39
ATOM     39  C   UNL A   1      39.565  32.038  35.274  1.00  0.00     0.023 A 
ATOM     40  C   UNL A   1      38.864  31.531  36.382  1.00  0.00     0.031 A 
ATOM     41  C   UNL A   1      39.807  33.423  35.228  1.00  0.00     0.131 A 
ATOM     42  C   UNL A   1      38.378  32.407  37.367  1.00  0.00     0.055 A 
ATOM     43  C   UNL A   1      39.386  34.279  36.248  1.00  0.00     0.041 A 
ATOM     44  F   UNL A   1      40.454  33.969  34.187  1.00  0.00    -0.206 F 
ATOM     45  C   UNL A   1      38.655  33.775  37.319  1.00  0.00     0.022 A 
BRANCH  42  46
ATOM     46  S   UNL A   1      37.272  31.749  38.646  1.00  0.00     0.124 S 
ATOM     47  O   UNL A   1      37.034  30.391  38.164  1.00  0.00    -0.237 OA
ATOM     48  O   UNL A   1      38.081  31.865  39.853  1.00  0.00    -0.237 OA
ATOM     49  O   UNL A   1      36.112  32.635  38.585  1.00  0.00    -0.744 OA
ENDBRANCH  42  46
ENDBRANCH  25  39
BRANCH  26  50
ATOM     50  C   UNL A   1      42.418  26.281  27.562  1.00  0.00     0.023 A 
ATOM     51  C   UNL A   1      42.060  24.930  27.438  1.00  0.00     0.031 A 
ATOM     52  C   UNL A   1      43.245  26.835  26.566  1.00  0.00     0.131 A 
ATOM     53  C   UNL A   1      42.565  24.168  26.372  1.00  0.00     0.055 A 
ATOM     54  C   UNL A   1      43.692  26.091  25.475  1.00  0.00     0.041 A 
ATOM     55  F   UNL A   1      43.617  28.124  26.633  1.00  0.00    -0.206 F 
ATOM     56  C   UNL A   1      43.364  24.744  25.382  1.00  0.00     0.022 A 
BRANCH  53  57
ATOM     57  S   UNL A   1      42.244  22.383  26.352  1.00  0.00     0.124 S 
ATOM     58  O   UNL A   1      42.881  21.951  27.592  1.00  0.00    -0.237 OA
ATOM     59  O   UNL A   1      40.786  22.338  26.331  1.00  0.00    -0.237 OA
ATOM     60  O   UNL A   1      42.899  21.934  25.126  1.00  0.00    -0.744 OA
ENDBRANCH  53  57
ENDBRANCH  26  50
BRANCH  38  61
ATOM     61  C   UNL A   1      45.164  27.647  33.814  1.00  0.00     0.023 A 
ATOM     62  C   UNL A   1      45.146  26.519  34.655  1.00  0.00     0.031 A 
ATOM     63  C   UNL A   1      46.379  28.337  33.659  1.00  0.00     0.131 A 
ATOM     64  C   UNL A   1      46.299  26.160  35.367  1.00  0.00     0.055 A 
ATOM     65  C   UNL A   1      47.540  27.935  34.320  1.00  0.00     0.041 A 
ATOM     66  F   UNL A   1      46.453  29.420  32.869  1.00  0.00    -0.206 F 
ATOM     67  C   UNL A   1      47.500  26.851  35.194  1.00  0.00     0.022 A 
BRANCH  64  68
ATOM     68  S   UNL A   1      46.176  24.849  36.616  1.00  0.00     0.124 S 
ATOM     69  O   UNL A   1      46.797  25.477  37.778  1.00  0.00    -0.237 OA
ATOM     70  O   UNL A   1      44.735  24.635  36.700  1.00  0.00    -0.237 OA
ATOM     71  O   UNL A   1      46.933  23.746  36.028  1.00  0.00    -0.744 OA
ENDBRANCH  64  68
ENDBRANCH  38  61
ENDBRANCH  12  13
ENDBRANCH   5   7
ENDBRANCH   2   3
ENDBRANCH   1   2
BRANCH   1  72
ATOM     72  C   UNL A   1      32.332  28.781  23.079  1.00  0.00     0.117 C 
BRANCH  72  73
ATOM     73  N   UNL A   1      31.393  29.781  23.543  1.00  0.00    -0.356 N 
ATOM     74  C   UNL A   1      30.085  30.036  23.339  1.00  0.00     0.224 C 
ATOM     75  H   UNL A   1      31.810  30.430  24.154  1.00  0.00     0.163 HD
ATOM     76  O   UNL A   1      29.638  30.920  24.087  1.00  0.00    -0.275 OA
BRANCH  74  77
ATOM     77  C   UNL A   1      29.133  29.250  22.430  1.00  0.00     0.098 C 
ATOM     78  C   UNL A   1      27.609  29.248  22.637  1.00  0.00     0.017 C 
ATOM     79  C   UNL A   1      29.624  27.783  22.407  1.00  0.00     0.131 C 
ATOM     80  C   UNL A   1      27.132  28.384  23.805  1.00  0.00     0.022 C 
ATOM     81  N   UNL A   1      29.137  27.092  23.598  1.00  0.00    -0.356 N 
ATOM     82  C   UNL A   1      27.696  26.969  23.743  1.00  0.00     0.118 C 
BRANCH  81  83
ATOM     83  C   UNL A   1      29.943  26.217  24.291  1.00  0.00     0.129 A 
ATOM     84  C   UNL A   1      30.269  26.450  25.624  1.00  0.00     0.047 A 
ATOM     85  N   UNL A   1      30.355  25.098  23.665  1.00  0.00    -0.231 NA
ATOM     86  C   UNL A   1      31.030  25.525  26.330  1.00  0.00     0.014 A 
ATOM     87  C   UNL A   1      31.108  24.214  24.331  1.00  0.00     0.073 A 
ATOM     88  C   UNL A   1      31.480  24.380  25.679  1.00  0.00     0.002 A 
ATOM     89  C   UNL A   1      31.551  23.090  23.660  1.00  0.00     0.030 A 
ATOM     90  C   UNL A   1      32.284  23.423  26.321  1.00  0.00     0.032 A 
ATOM     91  C   UNL A   1      32.364  22.140  24.281  1.00  0.00     0.024 A 
ATOM     92  C   UNL A   1      32.739  22.306  25.613  1.00  0.00     0.083 A 
BRANCH  92  93
ATOM     93  S   UNL A   1      33.823  21.189  26.487  1.00  0.00     0.243 S 
ATOM     94  O   UNL A   1      33.629  21.480  27.898  1.00  0.00    -0.207 OA
ATOM     95  O   UNL A   1      33.574  19.875  25.952  1.00  0.00    -0.207 OA
BRANCH  93  96
ATOM     96  N   UNL A   1      35.431  21.626  26.099  1.00  0.00    -0.198 NA
ATOM     97  C   UNL A   1      36.118  20.737  25.127  1.00  0.00     0.102 C 
ATOM     98  C   UNL A   1      35.711  23.081  26.059  1.00  0.00     0.102 C 
ATOM     99  C   UNL A   1      37.574  21.124  24.907  1.00  0.00     0.017 C 
ATOM    100  C   UNL A   1      37.183  23.385  25.825  1.00  0.00     0.017 C 
ATOM    101  C   UNL A   1      37.722  22.611  24.634  1.00  0.00     0.003 C 
ENDBRANCH  93  96
ENDBRANCH  92  93
ENDBRANCH  81  83
ENDBRANCH  74  77
ENDBRANCH  72  73
ENDBRANCH   1  72
TORSDOF 16
ENDMDL
MODEL 3
REMARK VINA RESULT:     -12.8      9.804     15.487
REMARK SMILES O=C(NCCCNC(=O)[C@@H]1CCCN(c2ccc3cc(S(=O)(=O)N4CCCCC4)ccc3n2)C1)c1ccc(-c2c3nc(c(-c4cc(S(=O)(=O)[O-])ccc4F)c4ccc([nH]4)c(-c4cc(S(=O)(=O)[O-])ccc4F)c4nc(c(-c5cc(S(=O)(=O)[O-])ccc5F)c5ccc2[nH]5)C=C4)C=C3)cc1
REMARK SMILES IDX 5 1 4 2 3 3 1 4 2 5 35 7 36 8 97 9 37 10 96 11 38 12 39 13
REMARK SMILES IDX 40 14 90 15 41 16 95 17 89 18 91 19 42 20 94 21 88 22 87 23
REMARK SMILES IDX 43 25 75 26 55 27 74 28 56 29 59 30 73 31 92 32 57 33 58 34
REMARK SMILES IDX 72 36 93 37 60 38 44 39 45 40 53 41 46 42 52 43 54 44 51 45
REMARK SMILES IDX 47 46 48 47 49 48 50 49 76 50 77 51 85 52 78 53 84 54 86 55
REMARK SMILES IDX 83 56 79 57 80 58 81 59 82 60 61 61 62 62 70 63 63 64 69 65
REMARK SMILES IDX 71 66 68 67 64 68 65 69 66 70 67 71 6 72 7 73 8 74 9 76
REMARK SMILES IDX 10 77 11 78 34 79 12 80 14 81 13 82 15 83 16 84 33 85 17 86
REMARK SMILES IDX 32 87 18 88 31 89 19 90 30 91 20 92 21 93 22 94 23 95 24 96
REMARK SMILES IDX 25 97 29 98 26 99 28 100 27 101
REMARK H PARENT 3 6 91 24 59 35 7 75
REMARK Flexibility Score: inf
ROOT
ATOM      1  C   UNL A   1      33.413  29.055  24.095  1.00  0.00     0.042 C 
ENDROOT
BRANCH   1   2
ATOM      2  C   UNL A   1      33.208  29.166  25.603  1.00  0.00     0.118 C 
BRANCH   2   3
ATOM      3  N   UNL A   1      32.683  30.468  25.991  1.00  0.00    -0.352 N 
ATOM      4  O   UNL A   1      32.338  32.241  27.330  1.00  0.00    -0.269 OA
ATOM      5  C   UNL A   1      33.067  31.304  27.013  1.00  0.00     0.251 C 
ATOM      6  H   UNL A   1      31.940  30.801  25.437  1.00  0.00     0.163 HD
BRANCH   5   7
ATOM      7  C   UNL A   1      34.344  31.082  27.731  1.00  0.00     0.039 A 
ATOM      8  C   UNL A   1      34.684  29.812  28.199  1.00  0.00     0.014 A 
ATOM      9  C   UNL A   1      35.241  32.143  27.897  1.00  0.00     0.014 A 
ATOM     10  C   UNL A   1      35.832  29.636  28.960  1.00  0.00     0.010 A 
ATOM     11  C   UNL A   1      36.454  31.938  28.567  1.00  0.00     0.010 A 
ATOM     12  C   UNL A   1      36.752  30.685  29.124  1.00  0.00    -0.014 A 
BRANCH  12  13
ATOM     13  C   UNL A   1      38.044  30.395  29.806  1.00  0.00     0.031 A 
ATOM     14  C   UNL A   1      38.337  30.902  31.191  1.00  0.00     0.074 A 
ATOM     15  C   UNL A   1      38.933  29.601  29.173  1.00  0.00     0.049 A 
ATOM     16  N   UNL A   1      39.386  30.679  31.944  1.00  0.00    -0.248 NA
ATOM     17  C   UNL A   1      37.333  31.780  31.809  1.00  0.00     0.031 C 
ATOM     18  C   UNL A   1      38.764  29.071  27.816  1.00  0.00     0.029 A 
ATOM     19  N   UNL A   1      40.126  29.067  29.586  1.00  0.00    -0.354 N 
ATOM     20  C   UNL A   1      39.173  31.389  33.121  1.00  0.00     0.074 A 
ATOM     21  C   UNL A   1      37.912  32.086  32.962  1.00  0.00     0.031 C 
ATOM     22  C   UNL A   1      39.773  28.236  27.538  1.00  0.00     0.029 A 
ATOM     23  C   UNL A   1      40.705  28.230  28.659  1.00  0.00     0.049 A 
ATOM     24  H   UNL A   1      40.531  29.265  30.461  1.00  0.00     0.167 HD
ATOM     25  C   UNL A   1      39.952  31.444  34.231  1.00  0.00     0.034 A 
ATOM     26  C   UNL A   1      41.863  27.544  28.694  1.00  0.00     0.034 A 
ATOM     27  C   UNL A   1      41.212  30.749  34.367  1.00  0.00     0.049 A 
ATOM     28  C   UNL A   1      42.712  27.635  29.931  1.00  0.00     0.074 A 
ATOM     29  C   UNL A   1      42.084  30.740  35.443  1.00  0.00     0.029 A 
ATOM     30  N   UNL A   1      41.783  29.936  33.394  1.00  0.00    -0.354 N 
ATOM     31  N   UNL A   1      42.490  28.312  31.035  1.00  0.00    -0.248 NA
ATOM     32  C   UNL A   1      43.962  26.868  29.932  1.00  0.00     0.031 C 
ATOM     33  C   UNL A   1      43.204  29.974  35.101  1.00  0.00     0.029 A 
ATOM     34  C   UNL A   1      43.002  29.440  33.838  1.00  0.00     0.049 A 
ATOM     35  H   UNL A   1      41.383  29.740  32.517  1.00  0.00     0.167 HD
ATOM     36  C   UNL A   1      43.574  28.045  31.864  1.00  0.00     0.074 A 
ATOM     37  C   UNL A   1      44.423  27.114  31.148  1.00  0.00     0.031 C 
ATOM     38  C   UNL A   1      43.850  28.534  33.101  1.00  0.00     0.034 A 
BRANCH  25  39
ATOM     39  C   UNL A   1      39.477  32.315  35.373  1.00  0.00     0.023 A 
ATOM     40  C   UNL A   1      39.871  33.659  35.488  1.00  0.00     0.031 A 
ATOM     41  C   UNL A   1      38.626  31.792  36.364  1.00  0.00     0.131 A 
ATOM     42  C   UNL A   1      39.464  34.417  36.599  1.00  0.00     0.055 A 
ATOM     43  C   UNL A   1      38.165  32.572  37.426  1.00  0.00     0.041 A 
ATOM     44  F   UNL A   1      38.232  30.510  36.319  1.00  0.00    -0.206 F 
ATOM     45  C   UNL A   1      38.595  33.890  37.556  1.00  0.00     0.022 A 
BRANCH  42  46
ATOM     46  S   UNL A   1      40.188  36.063  36.840  1.00  0.00     0.124 S 
ATOM     47  O   UNL A   1      41.589  35.738  37.090  1.00  0.00    -0.237 OA
ATOM     48  O   UNL A   1      39.903  36.723  35.571  1.00  0.00    -0.237 OA
ATOM     49  O   UNL A   1      39.463  36.592  37.993  1.00  0.00    -0.744 OA
ENDBRANCH  42  46
ENDBRANCH  25  39
BRANCH  26  50
ATOM     50  C   UNL A   1      42.305  26.752  27.509  1.00  0.00     0.023 A 
ATOM     51  C   UNL A   1      41.973  25.396  27.369  1.00  0.00     0.031 A 
ATOM     52  C   UNL A   1      43.101  27.341  26.509  1.00  0.00     0.131 A 
ATOM     53  C   UNL A   1      42.474  24.663  26.281  1.00  0.00     0.055 A 
ATOM     54  C   UNL A   1      43.544  26.625  25.397  1.00  0.00     0.041 A 
ATOM     55  F   UNL A   1      43.447  28.637  26.591  1.00  0.00    -0.206 F 
ATOM     56  C   UNL A   1      43.242  25.273  25.286  1.00  0.00     0.022 A 
BRANCH  53  57
ATOM     57  S   UNL A   1      42.191  22.872  26.236  1.00  0.00     0.124 S 
ATOM     58  O   UNL A   1      40.739  22.796  26.369  1.00  0.00    -0.237 OA
ATOM     59  O   UNL A   1      42.735  22.514  24.931  1.00  0.00    -0.237 OA
ATOM     60  O   UNL A   1      42.949  22.380  27.384  1.00  0.00    -0.744 OA
ENDBRANCH  53  57
ENDBRANCH  26  50
BRANCH  38  61
ATOM     61  C   UNL A   1      45.121  28.040  33.747  1.00  0.00     0.023 A 
ATOM     62  C   UNL A   1      46.344  28.714  33.571  1.00  0.00     0.031 A 
ATOM     63  C   UNL A   1      45.122  26.855  34.502  1.00  0.00     0.131 A 
ATOM     64  C   UNL A   1      47.527  28.157  34.077  1.00  0.00     0.055 A 
ATOM     65  C   UNL A   1      46.293  26.341  35.059  1.00  0.00     0.041 A 
ATOM     66  F   UNL A   1      43.983  26.171  34.701  1.00  0.00    -0.206 F 
ATOM     67  C   UNL A   1      47.508  26.983  34.832  1.00  0.00     0.022 A 
BRANCH  64  68
ATOM     68  S   UNL A   1      49.109  28.926  33.632  1.00  0.00     0.124 S 
ATOM     69  O   UNL A   1      49.728  27.893  32.807  1.00  0.00    -0.237 OA
ATOM     70  O   UNL A   1      48.681  30.132  32.929  1.00  0.00    -0.237 OA
ATOM     71  O   UNL A   1      49.752  29.158  34.923  1.00  0.00    -0.744 OA
ENDBRANCH  64  68
ENDBRANCH  38  61
ENDBRANCH  12  13
ENDBRANCH   5   7
ENDBRANCH   2   3
ENDBRANCH   1   2
BRANCH   1  72
ATOM     72  C   UNL A   1      32.114  28.945  23.307  1.00  0.00     0.117 C 
BRANCH  72  73
ATOM     73  N   UNL A   1      31.142  29.948  23.691  1.00  0.00    -0.356 N 
ATOM     74  C   UNL A   1      29.849  30.192  23.398  1.00  0.00     0.224 C 
ATOM     75  H   UNL A   1      31.516  30.610  24.316  1.00  0.00     0.163 HD
ATOM     76  O   UNL A   1      29.351  31.087  24.100  1.00  0.00    -0.275 OA
BRANCH  74  77
ATOM     77  C   UNL A   1      28.962  29.385  22.443  1.00  0.00     0.098 C 
ATOM     78  C   UNL A   1      27.434  29.313  22.600  1.00  0.00     0.017 C 
ATOM     79  C   UNL A   1      29.517  27.942  22.407  1.00  0.00     0.131 C 
ATOM     80  C   UNL A   1      26.958  28.405  23.735  1.00  0.00     0.022 C 
ATOM     81  N   UNL A   1      29.023  27.205  23.568  1.00  0.00    -0.356 N 
ATOM     82  C   UNL A   1      27.585  27.017  23.663  1.00  0.00     0.118 C 
BRANCH  81  83
ATOM     83  C   UNL A   1      29.844  26.351  24.269  1.00  0.00     0.129 A 
ATOM     84  C   UNL A   1      30.291  26.679  25.546  1.00  0.00     0.047 A 
ATOM     85  N   UNL A   1      30.152  25.163  23.714  1.00  0.00    -0.231 NA
ATOM     86  C   UNL A   1      31.066  25.779  26.268  1.00  0.00     0.014 A 
ATOM     87  C   UNL A   1      30.918  24.301  24.394  1.00  0.00     0.073 A 
ATOM     88  C   UNL A   1      31.407  24.560  25.687  1.00  0.00     0.002 A 
ATOM     89  C   UNL A   1      31.252  23.103  23.791  1.00  0.00     0.030 A 
ATOM     90  C   UNL A   1      32.219  23.621  26.345  1.00  0.00     0.032 A 
ATOM     91  C   UNL A   1      32.071  22.168  24.428  1.00  0.00     0.024 A 
ATOM     92  C   UNL A   1      32.563  22.426  25.706  1.00  0.00     0.083 A 
BRANCH  92  93
ATOM     93  S   UNL A   1      33.665  21.332  26.586  1.00  0.00     0.243 S 
ATOM     94  O   UNL A   1      33.549  21.704  27.986  1.00  0.00    -0.207 OA
ATOM     95  O   UNL A   1      33.360  19.997  26.139  1.00  0.00    -0.207 OA
BRANCH  93  96
ATOM     96  N   UNL A   1      35.261  21.707  26.095  1.00  0.00    -0.198 NA
ATOM     97  C   UNL A   1      35.805  20.868  24.996  1.00  0.00     0.102 C 
ATOM     98  C   UNL A   1      35.631  23.141  26.151  1.00  0.00     0.102 C 
ATOM     99  C   UNL A   1      37.259  21.188  24.682  1.00  0.00     0.017 C 
ATOM    100  C   UNL A   1      37.095  23.379  25.814  1.00  0.00     0.017 C 
ATOM    101  C   UNL A   1      37.481  22.682  24.520  1.00  0.00     0.003 C 
ENDBRANCH  93  96
ENDBRANCH  92  93
ENDBRANCH  81  83
ENDBRANCH  74  77
ENDBRANCH  72  73
ENDBRANCH   1  72
TORSDOF 16
ENDMDL
