MODEL 1
REMARK VINA RESULT:     -12.4      0.000      0.000
REMARK SMILES O=C(NCCCNC(=O)[C@@H](c1ccccc1)N1C(=O)/C(=C\c2ccc(-c3ccc(F)cc3)o2)SC1=S)c1ccc(-c2c3nc(c(-c4cc(S(=O)(=O)[O-])ccc4F)c4ccc([nH]4)c(-c4cc(S(=O)(=O)[O-])ccc4F)c4nc(c(-c5cc(S(=O)(=O)[O-])ccc5F)c5ccc2[nH]5)C=C4)C=C3)cc1
REMARK SMILES IDX 5 1 4 2 3 3 1 4 2 5 37 7 38 8 99 9 39 10 98 11 40 12 41 13
REMARK SMILES IDX 42 14 92 15 43 16 97 17 91 18 93 19 44 20 96 21 90 22 89 23
REMARK SMILES IDX 45 25 77 26 57 27 76 28 58 29 61 30 75 31 94 32 59 33 60 34
REMARK SMILES IDX 74 36 95 37 62 38 46 39 47 40 55 41 48 42 54 43 56 44 53 45
REMARK SMILES IDX 49 46 50 47 51 48 52 49 78 50 79 51 87 52 80 53 86 54 88 55
REMARK SMILES IDX 85 56 81 57 82 58 83 59 84 60 63 61 64 62 72 63 65 64 71 65
REMARK SMILES IDX 73 66 70 67 66 68 67 69 68 70 69 71 6 72 7 73 8 74 9 76
REMARK SMILES IDX 10 77 11 78 12 79 16 80 13 81 15 82 14 83 17 84 18 85 35 86
REMARK SMILES IDX 19 87 20 88 34 89 36 90 21 91 22 92 23 93 33 94 24 95 25 96
REMARK SMILES IDX 26 97 27 98 32 99 28 100 31 101 29 102 30 103
REMARK H PARENT 3 6 93 24 61 35 7 75
REMARK Flexibility Score: inf
ROOT
ATOM      1  C   UNL A   1      44.935  25.037  38.701  1.00  0.00     0.042 C 
ENDROOT
BRANCH   1   2
ATOM      2  C   UNL A   1      45.915  26.192  38.807  1.00  0.00     0.118 C 
BRANCH   2   3
ATOM      3  N   UNL A   1      47.077  25.975  37.959  1.00  0.00    -0.352 N 
ATOM      4  O   UNL A   1      48.155  25.449  36.060  1.00  0.00    -0.269 OA
ATOM      5  C   UNL A   1      47.165  25.949  36.587  1.00  0.00     0.251 C 
ATOM      6  H   UNL A   1      47.924  25.823  38.437  1.00  0.00     0.163 HD
BRANCH   5   7
ATOM      7  C   UNL A   1      46.081  26.516  35.750  1.00  0.00     0.039 A 
ATOM      8  C   UNL A   1      44.960  25.751  35.422  1.00  0.00     0.014 A 
ATOM      9  C   UNL A   1      46.149  27.851  35.338  1.00  0.00     0.014 A 
ATOM     10  C   UNL A   1      43.990  26.262  34.569  1.00  0.00     0.010 A 
ATOM     11  C   UNL A   1      45.109  28.403  34.580  1.00  0.00     0.010 A 
ATOM     12  C   UNL A   1      44.025  27.609  34.177  1.00  0.00    -0.014 A 
BRANCH  12  13
ATOM     13  C   UNL A   1      42.866  28.175  33.436  1.00  0.00     0.031 A 
ATOM     14  C   UNL A   1      41.893  29.110  34.097  1.00  0.00     0.074 A 
ATOM     15  C   UNL A   1      42.711  27.843  32.137  1.00  0.00     0.049 A 
ATOM     16  N   UNL A   1      40.821  29.670  33.599  1.00  0.00    -0.248 NA
ATOM     17  C   UNL A   1      42.152  29.452  35.502  1.00  0.00     0.031 C 
ATOM     18  C   UNL A   1      43.592  26.940  31.388  1.00  0.00     0.029 A 
ATOM     19  N   UNL A   1      41.780  28.232  31.208  1.00  0.00    -0.354 N 
ATOM     20  C   UNL A   1      40.263  30.417  34.631  1.00  0.00     0.074 A 
ATOM     21  C   UNL A   1      41.101  30.207  35.794  1.00  0.00     0.031 C 
ATOM     22  C   UNL A   1      43.194  26.890  30.111  1.00  0.00     0.029 A 
ATOM     23  C   UNL A   1      41.978  27.677  29.965  1.00  0.00     0.049 A 
ATOM     24  H   UNL A   1      41.040  28.849  31.412  1.00  0.00     0.167 HD
ATOM     25  C   UNL A   1      39.158  31.206  34.604  1.00  0.00     0.034 A 
ATOM     26  C   UNL A   1      41.246  27.759  28.837  1.00  0.00     0.034 A 
ATOM     27  C   UNL A   1      38.335  31.397  33.430  1.00  0.00     0.049 A 
ATOM     28  C   UNL A   1      39.996  28.593  28.852  1.00  0.00     0.074 A 
ATOM     29  C   UNL A   1      37.211  32.192  33.286  1.00  0.00     0.029 A 
ATOM     30  N   UNL A   1      38.539  30.779  32.202  1.00  0.00    -0.354 N 
ATOM     31  N   UNL A   1      39.487  29.300  29.835  1.00  0.00    -0.248 NA
ATOM     32  C   UNL A   1      39.220  28.641  27.607  1.00  0.00     0.031 C 
ATOM     33  C   UNL A   1      36.693  31.995  32.002  1.00  0.00     0.029 A 
ATOM     34  C   UNL A   1      37.542  31.146  31.310  1.00  0.00     0.049 A 
ATOM     35  H   UNL A   1      39.282  30.168  31.995  1.00  0.00     0.167 HD
ATOM     36  C   UNL A   1      38.342  29.895  29.318  1.00  0.00     0.074 A 
ATOM     37  C   UNL A   1      38.249  29.482  27.932  1.00  0.00     0.031 C 
ATOM     38  C   UNL A   1      37.450  30.712  29.934  1.00  0.00     0.034 A 
BRANCH  25  39
ATOM     39  C   UNL A   1      38.750  31.880  35.895  1.00  0.00     0.023 A 
ATOM     40  C   UNL A   1      38.092  31.183  36.924  1.00  0.00     0.031 A 
ATOM     41  C   UNL A   1      39.008  33.250  36.092  1.00  0.00     0.131 A 
ATOM     42  C   UNL A   1      37.652  31.869  38.066  1.00  0.00     0.055 A 
ATOM     43  C   UNL A   1      38.640  33.909  37.267  1.00  0.00     0.041 A 
ATOM     44  F   UNL A   1      39.613  33.976  35.139  1.00  0.00    -0.206 F 
ATOM     45  C   UNL A   1      37.944  33.222  38.257  1.00  0.00     0.022 A 
BRANCH  42  46
ATOM     46  S   UNL A   1      36.565  31.003  39.233  1.00  0.00     0.124 S 
ATOM     47  O   UNL A   1      36.402  29.706  38.578  1.00  0.00    -0.237 OA
ATOM     48  O   UNL A   1      37.353  31.003  40.460  1.00  0.00    -0.237 OA
ATOM     49  O   UNL A   1      35.363  31.832  39.263  1.00  0.00    -0.744 OA
ENDBRANCH  42  46
ENDBRANCH  25  39
BRANCH  26  50
ATOM     50  C   UNL A   1      41.652  26.996  27.621  1.00  0.00     0.023 A 
ATOM     51  C   UNL A   1      41.494  25.604  27.551  1.00  0.00     0.031 A 
ATOM     52  C   UNL A   1      42.231  27.650  26.517  1.00  0.00     0.131 A 
ATOM     53  C   UNL A   1      41.947  24.907  26.421  1.00  0.00     0.055 A 
ATOM     54  C   UNL A   1      42.622  26.960  25.370  1.00  0.00     0.041 A 
ATOM     55  F   UNL A   1      42.404  28.981  26.531  1.00  0.00    -0.206 F 
ATOM     56  C   UNL A   1      42.494  25.576  25.323  1.00  0.00     0.022 A 
BRANCH  53  57
ATOM     57  S   UNL A   1      41.891  23.093  26.441  1.00  0.00     0.124 S 
ATOM     58  O   UNL A   1      42.658  22.787  27.643  1.00  0.00    -0.237 OA
ATOM     59  O   UNL A   1      40.457  22.835  26.511  1.00  0.00    -0.237 OA
ATOM     60  O   UNL A   1      42.529  22.720  25.180  1.00  0.00    -0.744 OA
ENDBRANCH  53  57
ENDBRANCH  26  50
BRANCH  38  61
ATOM     61  C   UNL A   1      36.319  31.244  29.086  1.00  0.00     0.023 A 
ATOM     62  C   UNL A   1      35.291  30.410  28.613  1.00  0.00     0.031 A 
ATOM     63  C   UNL A   1      36.287  32.603  28.726  1.00  0.00     0.131 A 
ATOM     64  C   UNL A   1      34.309  30.929  27.756  1.00  0.00     0.055 A 
ATOM     65  C   UNL A   1      35.269  33.129  27.930  1.00  0.00     0.041 A 
ATOM     66  F   UNL A   1      37.246  33.444  29.145  1.00  0.00    -0.206 F 
ATOM     67  C   UNL A   1      34.281  32.287  27.427  1.00  0.00     0.022 A 
BRANCH  64  68
ATOM     68  S   UNL A   1      33.126  29.786  26.993  1.00  0.00     0.124 S 
ATOM     69  O   UNL A   1      31.929  30.615  26.889  1.00  0.00    -0.237 OA
ATOM     70  O   UNL A   1      33.781  29.453  25.733  1.00  0.00    -0.237 OA
ATOM     71  O   UNL A   1      33.038  28.689  27.955  1.00  0.00    -0.744 OA
ENDBRANCH  64  68
ENDBRANCH  38  61
ENDBRANCH  12  13
ENDBRANCH   5   7
ENDBRANCH   2   3
ENDBRANCH   1   2
BRANCH   1  72
ATOM     72  C   UNL A   1      45.276  23.895  39.647  1.00  0.00     0.117 C 
BRANCH  72  73
ATOM     73  N   UNL A   1      46.700  23.657  39.779  1.00  0.00    -0.354 N 
ATOM     74  C   UNL A   1      47.479  22.554  39.592  1.00  0.00     0.247 C 
ATOM     75  H   UNL A   1      47.207  24.452  40.060  1.00  0.00     0.163 HD
ATOM     76  O   UNL A   1      48.646  22.668  39.991  1.00  0.00    -0.272 OA
BRANCH  74  77
ATOM     77  C   UNL A   1      46.972  21.183  39.041  1.00  0.00     0.211 C 
BRANCH  77  78
ATOM     78  C   UNL A   1      46.760  21.132  37.536  1.00  0.00    -0.016 A 
ATOM     79  C   UNL A   1      47.278  22.157  36.727  1.00  0.00     0.006 A 
ATOM     80  C   UNL A   1      46.044  20.102  36.910  1.00  0.00     0.006 A 
ATOM     81  C   UNL A   1      46.958  22.224  35.369  1.00  0.00     0.000 A 
ATOM     82  C   UNL A   1      45.700  20.181  35.561  1.00  0.00     0.000 A 
ATOM     83  C   UNL A   1      46.136  21.257  34.797  1.00  0.00     0.000 A 
ENDBRANCH  77  78
BRANCH  77  84
ATOM     84  N   UNL A   1      47.657  20.020  39.674  1.00  0.00    -0.276 N 
ATOM     85  C   UNL A   1      46.978  19.462  40.750  1.00  0.00     0.267 C 
ATOM     86  C   UNL A   1      48.885  19.447  39.398  1.00  0.00     0.149 C 
ATOM     87  O   UNL A   1      45.888  19.831  41.168  1.00  0.00    -0.268 OA
ATOM     88  C   UNL A   1      47.769  18.369  41.375  1.00  0.00     0.084 C 
ATOM     89  S   UNL A   1      49.360  18.392  40.739  1.00  0.00    -0.054 SA
ATOM     90  S   UNL A   1      49.912  19.583  38.091  1.00  0.00    -0.052 S 
ATOM     91  C   UNL A   1      47.355  17.439  42.245  1.00  0.00     0.068 C 
BRANCH  91  92
ATOM     92  C   UNL A   1      45.986  17.226  42.543  1.00  0.00     0.128 A 
ATOM     93  C   UNL A   1      45.142  18.014  43.319  1.00  0.00     0.051 A 
ATOM     94  O   UNL A   1      45.241  16.199  42.017  1.00  0.00    -0.457 OA
ATOM     95  C   UNL A   1      43.854  17.441  43.271  1.00  0.00     0.051 A 
ATOM     96  C   UNL A   1      43.964  16.326  42.476  1.00  0.00     0.134 A 
BRANCH  96  97
ATOM     97  C   UNL A   1      43.019  15.321  42.033  1.00  0.00     0.017 A 
ATOM     98  C   UNL A   1      42.404  15.424  40.776  1.00  0.00     0.015 A 
ATOM     99  C   UNL A   1      42.736  14.216  42.848  1.00  0.00     0.015 A 
ATOM    100  C   UNL A   1      41.527  14.430  40.339  1.00  0.00     0.040 A 
ATOM    101  C   UNL A   1      41.850  13.230  42.416  1.00  0.00     0.040 A 
ATOM    102  C   UNL A   1      41.257  13.344  41.164  1.00  0.00     0.123 A 
ATOM    103  F   UNL A   1      40.415  12.390  40.747  1.00  0.00    -0.207 F 
ENDBRANCH  96  97
ENDBRANCH  91  92
ENDBRANCH  77  84
ENDBRANCH  74  77
ENDBRANCH  72  73
ENDBRANCH   1  72
TORSDOF 17
ENDMDL
MODEL 2
REMARK VINA RESULT:     -12.3      7.600     11.932
REMARK SMILES O=C(NCCCNC(=O)[C@@H](c1ccccc1)N1C(=O)/C(=C\c2ccc(-c3ccc(F)cc3)o2)SC1=S)c1ccc(-c2c3nc(c(-c4cc(S(=O)(=O)[O-])ccc4F)c4ccc([nH]4)c(-c4cc(S(=O)(=O)[O-])ccc4F)c4nc(c(-c5cc(S(=O)(=O)[O-])ccc5F)c5ccc2[nH]5)C=C4)C=C3)cc1
REMARK SMILES IDX 5 1 4 2 3 3 1 4 2 5 37 7 38 8 99 9 39 10 98 11 40 12 41 13
REMARK SMILES IDX 42 14 92 15 43 16 97 17 91 18 93 19 44 20 96 21 90 22 89 23
REMARK SMILES IDX 45 25 77 26 57 27 76 28 58 29 61 30 75 31 94 32 59 33 60 34
REMARK SMILES IDX 74 36 95 37 62 38 46 39 47 40 55 41 48 42 54 43 56 44 53 45
REMARK SMILES IDX 49 46 50 47 51 48 52 49 78 50 79 51 87 52 80 53 86 54 88 55
REMARK SMILES IDX 85 56 81 57 82 58 83 59 84 60 63 61 64 62 72 63 65 64 71 65
REMARK SMILES IDX 73 66 70 67 66 68 67 69 68 70 69 71 6 72 7 73 8 74 9 76
REMARK SMILES IDX 10 77 11 78 12 79 16 80 13 81 15 82 14 83 17 84 18 85 35 86
REMARK SMILES IDX 19 87 20 88 34 89 36 90 21 91 22 92 23 93 33 94 24 95 25 96
REMARK SMILES IDX 26 97 27 98 32 99 28 100 31 101 29 102 30 103
REMARK H PARENT 3 6 93 24 61 35 7 75
REMARK Flexibility Score: inf
ROOT
ATOM      1  C   UNL A   1      46.613  28.979  25.777  1.00  0.00     0.042 C 
ENDROOT
BRANCH   1   2
ATOM      2  C   UNL A   1      45.840  30.024  26.563  1.00  0.00     0.118 C 
BRANCH   2   3
ATOM      3  N   UNL A   1      45.652  31.237  25.781  1.00  0.00    -0.352 N 
ATOM      4  O   UNL A   1      44.534  33.035  25.030  1.00  0.00    -0.269 OA
ATOM      5  C   UNL A   1      44.750  32.260  25.958  1.00  0.00     0.251 C 
ATOM      6  H   UNL A   1      46.258  31.340  25.012  1.00  0.00     0.163 HD
BRANCH   5   7
ATOM      7  C   UNL A   1      44.042  32.428  27.250  1.00  0.00     0.039 A 
ATOM      8  C   UNL A   1      43.620  31.316  27.981  1.00  0.00     0.014 A 
ATOM      9  C   UNL A   1      43.854  33.710  27.776  1.00  0.00     0.014 A 
ATOM     10  C   UNL A   1      42.884  31.484  29.147  1.00  0.00     0.010 A 
ATOM     11  C   UNL A   1      43.221  33.873  29.014  1.00  0.00     0.010 A 
ATOM     12  C   UNL A   1      42.718  32.761  29.706  1.00  0.00    -0.014 A 
BRANCH  12  13
ATOM     13  C   UNL A   1      42.107  32.883  31.056  1.00  0.00     0.031 A 
ATOM     14  C   UNL A   1      40.640  33.161  31.231  1.00  0.00     0.074 A 
ATOM     15  C   UNL A   1      42.899  32.721  32.137  1.00  0.00     0.049 A 
ATOM     16  N   UNL A   1      39.958  33.320  32.336  1.00  0.00    -0.248 NA
ATOM     17  C   UNL A   1      39.838  33.288  30.006  1.00  0.00     0.031 C 
ATOM     18  C   UNL A   1      44.340  32.450  32.090  1.00  0.00     0.029 A 
ATOM     19  N   UNL A   1      42.615  32.738  33.478  1.00  0.00    -0.354 N 
ATOM     20  C   UNL A   1      38.649  33.584  31.945  1.00  0.00     0.074 A 
ATOM     21  C   UNL A   1      38.646  33.598  30.496  1.00  0.00     0.031 C 
ATOM     22  C   UNL A   1      44.798  32.271  33.335  1.00  0.00     0.029 A 
ATOM     23  C   UNL A   1      43.713  32.508  34.276  1.00  0.00     0.049 A 
ATOM     24  H   UNL A   1      41.712  32.900  33.836  1.00  0.00     0.167 HD
ATOM     25  C   UNL A   1      37.558  33.790  32.725  1.00  0.00     0.034 A 
ATOM     26  C   UNL A   1      43.845  32.520  35.616  1.00  0.00     0.034 A 
ATOM     27  C   UNL A   1      37.588  33.774  34.170  1.00  0.00     0.049 A 
ATOM     28  C   UNL A   1      42.631  32.808  36.455  1.00  0.00     0.074 A 
ATOM     29  C   UNL A   1      36.539  33.946  35.056  1.00  0.00     0.029 A 
ATOM     30  N   UNL A   1      38.728  33.588  34.943  1.00  0.00    -0.354 N 
ATOM     31  N   UNL A   1      41.399  33.048  36.068  1.00  0.00    -0.248 NA
ATOM     32  C   UNL A   1      42.824  32.828  37.909  1.00  0.00     0.031 C 
ATOM     33  C   UNL A   1      37.053  33.940  36.357  1.00  0.00     0.029 A 
ATOM     34  C   UNL A   1      38.412  33.677  36.292  1.00  0.00     0.049 A 
ATOM     35  H   UNL A   1      39.630  33.418  34.587  1.00  0.00     0.167 HD
ATOM     36  C   UNL A   1      40.666  33.225  37.235  1.00  0.00     0.074 A 
ATOM     37  C   UNL A   1      41.589  33.042  38.337  1.00  0.00     0.031 C 
ATOM     38  C   UNL A   1      39.346  33.511  37.383  1.00  0.00     0.034 A 
BRANCH  25  39
ATOM     39  C   UNL A   1      36.251  34.099  32.029  1.00  0.00     0.023 A 
ATOM     40  C   UNL A   1      35.570  35.312  32.227  1.00  0.00     0.031 A 
ATOM     41  C   UNL A   1      35.667  33.153  31.165  1.00  0.00     0.131 A 
ATOM     42  C   UNL A   1      34.316  35.520  31.632  1.00  0.00     0.055 A 
ATOM     43  C   UNL A   1      34.458  33.399  30.510  1.00  0.00     0.041 A 
ATOM     44  F   UNL A   1      36.257  31.967  30.951  1.00  0.00    -0.206 F 
ATOM     45  C   UNL A   1      33.767  34.582  30.754  1.00  0.00     0.022 A 
BRANCH  42  46
ATOM     46  S   UNL A   1      33.345  36.968  32.135  1.00  0.00     0.124 S 
ATOM     47  O   UNL A   1      34.272  37.646  33.039  1.00  0.00    -0.237 OA
ATOM     48  O   UNL A   1      33.090  37.635  30.864  1.00  0.00    -0.237 OA
ATOM     49  O   UNL A   1      32.171  36.386  32.782  1.00  0.00    -0.744 OA
ENDBRANCH  42  46
ENDBRANCH  25  39
BRANCH  26  50
ATOM     50  C   UNL A   1      45.182  32.299  36.240  1.00  0.00     0.023 A 
ATOM     51  C   UNL A   1      45.623  31.009  36.572  1.00  0.00     0.031 A 
ATOM     52  C   UNL A   1      46.029  33.382  36.537  1.00  0.00     0.131 A 
ATOM     53  C   UNL A   1      46.857  30.839  37.219  1.00  0.00     0.055 A 
ATOM     54  C   UNL A   1      47.282  33.203  37.124  1.00  0.00     0.041 A 
ATOM     55  F   UNL A   1      45.657  34.638  36.239  1.00  0.00    -0.206 F 
ATOM     56  C   UNL A   1      47.696  31.925  37.481  1.00  0.00     0.022 A 
BRANCH  53  57
ATOM     57  S   UNL A   1      47.313  29.181  37.795  1.00  0.00     0.124 S 
ATOM     58  O   UNL A   1      46.669  28.334  36.798  1.00  0.00    -0.237 OA
ATOM     59  O   UNL A   1      48.770  29.234  37.748  1.00  0.00    -0.237 OA
ATOM     60  O   UNL A   1      46.737  29.117  39.137  1.00  0.00    -0.744 OA
ENDBRANCH  53  57
ENDBRANCH  26  50
BRANCH  38  61
ATOM     61  C   UNL A   1      38.824  33.597  38.797  1.00  0.00     0.023 A 
ATOM     62  C   UNL A   1      38.264  32.485  39.450  1.00  0.00     0.031 A 
ATOM     63  C   UNL A   1      38.863  34.820  39.489  1.00  0.00     0.131 A 
ATOM     64  C   UNL A   1      37.711  32.632  40.731  1.00  0.00     0.055 A 
ATOM     65  C   UNL A   1      38.374  34.944  40.790  1.00  0.00     0.041 A 
ATOM     66  F   UNL A   1      39.381  35.916  38.912  1.00  0.00    -0.206 F 
ATOM     67  C   UNL A   1      37.780  33.850  41.412  1.00  0.00     0.022 A 
BRANCH  64  68
ATOM     68  S   UNL A   1      36.809  31.236  41.456  1.00  0.00     0.124 S 
ATOM     69  O   UNL A   1      37.836  30.201  41.497  1.00  0.00    -0.237 OA
ATOM     70  O   UNL A   1      36.390  31.771  42.747  1.00  0.00    -0.237 OA
ATOM     71  O   UNL A   1      35.725  30.997  40.504  1.00  0.00    -0.744 OA
ENDBRANCH  64  68
ENDBRANCH  38  61
ENDBRANCH  12  13
ENDBRANCH   5   7
ENDBRANCH   2   3
ENDBRANCH   1   2
BRANCH   1  72
ATOM     72  C   UNL A   1      45.889  27.641  25.720  1.00  0.00     0.117 C 
BRANCH  72  73
ATOM     73  N   UNL A   1      44.602  27.705  25.057  1.00  0.00    -0.354 N 
ATOM     74  C   UNL A   1      43.318  27.665  25.514  1.00  0.00     0.247 C 
ATOM     75  H   UNL A   1      44.667  27.796  24.079  1.00  0.00     0.163 HD
ATOM     76  O   UNL A   1      42.456  27.549  24.632  1.00  0.00    -0.272 OA
BRANCH  74  77
ATOM     77  C   UNL A   1      42.905  27.638  27.020  1.00  0.00     0.211 C 
BRANCH  77  78
ATOM     78  C   UNL A   1      41.420  27.824  27.286  1.00  0.00    -0.016 A 
ATOM     79  C   UNL A   1      40.829  29.082  27.071  1.00  0.00     0.006 A 
ATOM     80  C   UNL A   1      40.602  26.789  27.759  1.00  0.00     0.006 A 
ATOM     81  C   UNL A   1      39.511  29.326  27.463  1.00  0.00     0.000 A 
ATOM     82  C   UNL A   1      39.295  27.038  28.176  1.00  0.00     0.000 A 
ATOM     83  C   UNL A   1      38.758  28.313  28.052  1.00  0.00     0.000 A 
ENDBRANCH  77  78
BRANCH  77  84
ATOM     84  N   UNL A   1      43.607  26.572  27.789  1.00  0.00    -0.276 N 
ATOM     85  C   UNL A   1      44.272  27.017  28.925  1.00  0.00     0.267 C 
ATOM     86  C   UNL A   1      43.751  25.222  27.520  1.00  0.00     0.149 C 
ATOM     87  O   UNL A   1      44.288  28.172  29.329  1.00  0.00    -0.268 OA
ATOM     88  C   UNL A   1      45.016  25.909  29.581  1.00  0.00     0.084 C 
ATOM     89  S   UNL A   1      45.036  24.550  28.536  1.00  0.00    -0.054 SA
ATOM     90  S   UNL A   1      42.955  24.203  26.467  1.00  0.00    -0.052 S 
ATOM     91  C   UNL A   1      45.548  25.880  30.809  1.00  0.00     0.068 C 
BRANCH  91  92
ATOM     92  C   UNL A   1      45.279  26.875  31.782  1.00  0.00     0.128 A 
ATOM     93  C   UNL A   1      46.188  27.645  32.500  1.00  0.00     0.051 A 
ATOM     94  O   UNL A   1      44.015  27.295  32.115  1.00  0.00    -0.457 OA
ATOM     95  C   UNL A   1      45.454  28.546  33.298  1.00  0.00     0.051 A 
ATOM     96  C   UNL A   1      44.129  28.287  33.041  1.00  0.00     0.134 A 
BRANCH  96  97
ATOM     97  C   UNL A   1      42.890  28.861  33.527  1.00  0.00     0.017 A 
ATOM     98  C   UNL A   1      41.869  29.215  32.634  1.00  0.00     0.015 A 
ATOM     99  C   UNL A   1      42.690  29.034  34.904  1.00  0.00     0.015 A 
ATOM    100  C   UNL A   1      40.662  29.727  33.113  1.00  0.00     0.040 A 
ATOM    101  C   UNL A   1      41.488  29.557  35.381  1.00  0.00     0.040 A 
ATOM    102  C   UNL A   1      40.484  29.895  34.482  1.00  0.00     0.123 A 
ATOM    103  F   UNL A   1      39.328  30.388  34.943  1.00  0.00    -0.207 F 
ENDBRANCH  96  97
ENDBRANCH  91  92
ENDBRANCH  77  84
ENDBRANCH  74  77
ENDBRANCH  72  73
ENDBRANCH   1  72
TORSDOF 17
ENDMDL
MODEL 3
REMARK VINA RESULT:     -12.3      6.438     14.932
REMARK SMILES O=C(NCCCNC(=O)[C@@H](c1ccccc1)N1C(=O)/C(=C\c2ccc(-c3ccc(F)cc3)o2)SC1=S)c1ccc(-c2c3nc(c(-c4cc(S(=O)(=O)[O-])ccc4F)c4ccc([nH]4)c(-c4cc(S(=O)(=O)[O-])ccc4F)c4nc(c(-c5cc(S(=O)(=O)[O-])ccc5F)c5ccc2[nH]5)C=C4)C=C3)cc1
REMARK SMILES IDX 5 1 4 2 3 3 1 4 2 5 37 7 38 8 99 9 39 10 98 11 40 12 41 13
REMARK SMILES IDX 42 14 92 15 43 16 97 17 91 18 93 19 44 20 96 21 90 22 89 23
REMARK SMILES IDX 45 25 77 26 57 27 76 28 58 29 61 30 75 31 94 32 59 33 60 34
REMARK SMILES IDX 74 36 95 37 62 38 46 39 47 40 55 41 48 42 54 43 56 44 53 45
REMARK SMILES IDX 49 46 50 47 51 48 52 49 78 50 79 51 87 52 80 53 86 54 88 55
REMARK SMILES IDX 85 56 81 57 82 58 83 59 84 60 63 61 64 62 72 63 65 64 71 65
REMARK SMILES IDX 73 66 70 67 66 68 67 69 68 70 69 71 6 72 7 73 8 74 9 76
REMARK SMILES IDX 10 77 11 78 12 79 16 80 13 81 15 82 14 83 17 84 18 85 35 86
REMARK SMILES IDX 19 87 20 88 34 89 36 90 21 91 22 92 23 93 33 94 24 95 25 96
REMARK SMILES IDX 26 97 27 98 32 99 28 100 31 101 29 102 30 103
REMARK H PARENT 3 6 93 24 61 35 7 75
REMARK Flexibility Score: inf
ROOT
ATOM      1  C   UNL A   1      33.384  27.925  26.754  1.00  0.00     0.042 C 
ENDROOT
BRANCH   1   2
ATOM      2  C   UNL A   1      34.259  28.998  26.129  1.00  0.00     0.118 C 
BRANCH   2   3
ATOM      3  N   UNL A   1      33.954  30.310  26.679  1.00  0.00    -0.352 N 
ATOM      4  O   UNL A   1      33.910  31.907  28.259  1.00  0.00    -0.269 OA
ATOM      5  C   UNL A   1      34.502  30.950  27.766  1.00  0.00     0.251 C 
ATOM      6  H   UNL A   1      33.253  30.812  26.205  1.00  0.00     0.163 HD
BRANCH   5   7
ATOM      7  C   UNL A   1      35.791  30.495  28.341  1.00  0.00     0.039 A 
ATOM      8  C   UNL A   1      35.818  29.576  29.390  1.00  0.00     0.014 A 
ATOM      9  C   UNL A   1      36.994  30.941  27.783  1.00  0.00     0.014 A 
ATOM     10  C   UNL A   1      37.026  29.219  29.977  1.00  0.00     0.010 A 
ATOM     11  C   UNL A   1      38.214  30.484  28.296  1.00  0.00     0.010 A 
ATOM     12  C   UNL A   1      38.241  29.628  29.408  1.00  0.00    -0.014 A 
BRANCH  12  13
ATOM     13  C   UNL A   1      39.512  29.063  29.936  1.00  0.00     0.031 A 
ATOM     14  C   UNL A   1      40.165  29.620  31.169  1.00  0.00     0.074 A 
ATOM     15  C   UNL A   1      40.065  28.014  29.291  1.00  0.00     0.049 A 
ATOM     16  N   UNL A   1      41.283  29.257  31.744  1.00  0.00    -0.248 NA
ATOM     17  C   UNL A   1      39.482  30.737  31.836  1.00  0.00     0.031 C 
ATOM     18  C   UNL A   1      39.521  27.389  28.080  1.00  0.00     0.029 A 
ATOM     19  N   UNL A   1      41.187  27.275  29.562  1.00  0.00    -0.354 N 
ATOM     20  C   UNL A   1      41.451  30.110  32.830  1.00  0.00     0.074 A 
ATOM     21  C   UNL A   1      40.333  31.032  32.809  1.00  0.00     0.031 C 
ATOM     22  C   UNL A   1      40.274  26.334  27.749  1.00  0.00     0.029 A 
ATOM     23  C   UNL A   1      41.407  26.259  28.660  1.00  0.00     0.049 A 
ATOM     24  H   UNL A   1      41.779  27.454  30.328  1.00  0.00     0.167 HD
ATOM     25  C   UNL A   1      42.443  30.116  33.757  1.00  0.00     0.034 A 
ATOM     26  C   UNL A   1      42.425  25.382  28.551  1.00  0.00     0.034 A 
ATOM     27  C   UNL A   1      43.550  29.187  33.755  1.00  0.00     0.049 A 
ATOM     28  C   UNL A   1      43.539  25.449  29.558  1.00  0.00     0.074 A 
ATOM     29  C   UNL A   1      44.594  29.088  34.658  1.00  0.00     0.029 A 
ATOM     30  N   UNL A   1      43.766  28.203  32.797  1.00  0.00    -0.354 N 
ATOM     31  N   UNL A   1      43.677  26.257  30.584  1.00  0.00    -0.248 NA
ATOM     32  C   UNL A   1      44.635  24.488  29.392  1.00  0.00     0.031 C 
ATOM     33  C   UNL A   1      45.477  28.102  34.206  1.00  0.00     0.029 A 
ATOM     34  C   UNL A   1      44.943  27.520  33.068  1.00  0.00     0.049 A 
ATOM     35  H   UNL A   1      43.171  28.018  32.035  1.00  0.00     0.167 HD
ATOM     36  C   UNL A   1      44.867  25.884  31.199  1.00  0.00     0.074 A 
ATOM     37  C   UNL A   1      45.393  24.766  30.443  1.00  0.00     0.031 C 
ATOM     38  C   UNL A   1      45.468  26.418  32.295  1.00  0.00     0.034 A 
BRANCH  25  39
ATOM     39  C   UNL A   1      42.398  31.191  34.820  1.00  0.00     0.023 A 
ATOM     40  C   UNL A   1      42.961  32.463  34.617  1.00  0.00     0.031 A 
ATOM     41  C   UNL A   1      41.798  30.932  36.066  1.00  0.00     0.131 A 
ATOM     42  C   UNL A   1      42.977  33.400  35.662  1.00  0.00     0.055 A 
ATOM     43  C   UNL A   1      41.744  31.896  37.075  1.00  0.00     0.041 A 
ATOM     44  F   UNL A   1      41.262  29.730  36.330  1.00  0.00    -0.206 F 
ATOM     45  C   UNL A   1      42.349  33.135  36.882  1.00  0.00     0.022 A 
BRANCH  42  46
ATOM     46  S   UNL A   1      43.956  34.913  35.456  1.00  0.00     0.124 S 
ATOM     47  O   UNL A   1      45.298  34.447  35.800  1.00  0.00    -0.237 OA
ATOM     48  O   UNL A   1      43.736  35.244  34.053  1.00  0.00    -0.237 OA
ATOM     49  O   UNL A   1      43.361  35.840  36.416  1.00  0.00    -0.744 OA
ENDBRANCH  42  46
ENDBRANCH  25  39
BRANCH  26  50
ATOM     50  C   UNL A   1      42.456  24.405  27.426  1.00  0.00     0.023 A 
ATOM     51  C   UNL A   1      41.671  23.243  27.451  1.00  0.00     0.031 A 
ATOM     52  C   UNL A   1      43.296  24.609  26.315  1.00  0.00     0.131 A 
ATOM     53  C   UNL A   1      41.773  22.309  26.408  1.00  0.00     0.055 A 
ATOM     54  C   UNL A   1      43.346  23.709  25.250  1.00  0.00     0.041 A 
ATOM     55  F   UNL A   1      44.067  25.706  26.238  1.00  0.00    -0.206 F 
ATOM     56  C   UNL A   1      42.592  22.542  25.300  1.00  0.00     0.022 A 
BRANCH  53  57
ATOM     57  S   UNL A   1      40.882  20.736  26.562  1.00  0.00     0.124 S 
ATOM     58  O   UNL A   1      40.960  20.492  27.998  1.00  0.00    -0.237 OA
ATOM     59  O   UNL A   1      39.564  21.083  26.040  1.00  0.00    -0.237 OA
ATOM     60  O   UNL A   1      41.660  19.822  25.729  1.00  0.00    -0.744 OA
ENDBRANCH  53  57
ENDBRANCH  26  50
BRANCH  38  61
ATOM     61  C   UNL A   1      46.745  25.758  32.757  1.00  0.00     0.023 A 
ATOM     62  C   UNL A   1      47.983  26.035  32.153  1.00  0.00     0.031 A 
ATOM     63  C   UNL A   1      46.714  24.817  33.801  1.00  0.00     0.131 A 
ATOM     64  C   UNL A   1      49.130  25.334  32.556  1.00  0.00     0.055 A 
ATOM     65  C   UNL A   1      47.870  24.172  34.244  1.00  0.00     0.041 A 
ATOM     66  F   UNL A   1      45.558  24.509  34.410  1.00  0.00    -0.206 F 
ATOM     67  C   UNL A   1      49.084  24.418  33.610  1.00  0.00     0.022 A 
BRANCH  64  68
ATOM     68  S   UNL A   1      50.664  25.558  31.615  1.00  0.00     0.124 S 
ATOM     69  O   UNL A   1      51.681  25.314  32.633  1.00  0.00    -0.237 OA
ATOM     70  O   UNL A   1      50.546  24.540  30.576  1.00  0.00    -0.237 OA
ATOM     71  O   UNL A   1      50.579  26.939  31.142  1.00  0.00    -0.744 OA
ENDBRANCH  64  68
ENDBRANCH  38  61
ENDBRANCH  12  13
ENDBRANCH   5   7
ENDBRANCH   2   3
ENDBRANCH   1   2
BRANCH   1  72
ATOM     72  C   UNL A   1      31.900  28.244  26.640  1.00  0.00     0.117 C 
BRANCH  72  73
ATOM     73  N   UNL A   1      31.041  27.098  26.869  1.00  0.00    -0.354 N 
ATOM     74  C   UNL A   1      30.316  26.299  26.035  1.00  0.00     0.247 C 
ATOM     75  H   UNL A   1      30.967  26.846  27.817  1.00  0.00     0.163 HD
ATOM     76  O   UNL A   1      29.535  25.525  26.606  1.00  0.00    -0.272 OA
BRANCH  74  77
ATOM     77  C   UNL A   1      30.329  26.388  24.476  1.00  0.00     0.211 C 
BRANCH  77  78
ATOM     78  C   UNL A   1      29.577  27.573  23.890  1.00  0.00    -0.016 A 
ATOM     79  C   UNL A   1      30.185  28.842  23.875  1.00  0.00     0.006 A 
ATOM     80  C   UNL A   1      28.279  27.463  23.373  1.00  0.00     0.006 A 
ATOM     81  C   UNL A   1      29.460  29.974  23.500  1.00  0.00     0.000 A 
ATOM     82  C   UNL A   1      27.545  28.596  23.023  1.00  0.00     0.000 A 
ATOM     83  C   UNL A   1      28.128  29.854  23.112  1.00  0.00     0.000 A 
ENDBRANCH  77  78
BRANCH  77  84
ATOM     84  N   UNL A   1      31.664  26.071  23.893  1.00  0.00    -0.276 N 
ATOM     85  C   UNL A   1      32.022  24.730  23.958  1.00  0.00     0.267 C 
ATOM     86  C   UNL A   1      32.625  26.907  23.353  1.00  0.00     0.149 C 
ATOM     87  O   UNL A   1      31.326  23.833  24.413  1.00  0.00    -0.268 OA
ATOM     88  C   UNL A   1      33.399  24.517  23.438  1.00  0.00     0.084 C 
ATOM     89  S   UNL A   1      34.163  26.037  23.228  1.00  0.00    -0.054 SA
ATOM     90  S   UNL A   1      32.563  28.491  22.835  1.00  0.00    -0.052 S 
ATOM     91  C   UNL A   1      33.987  23.363  23.098  1.00  0.00     0.068 C 
BRANCH  91  92
ATOM     92  C   UNL A   1      33.272  22.146  22.981  1.00  0.00     0.128 A 
ATOM     93  C   UNL A   1      32.229  21.840  22.113  1.00  0.00     0.051 A 
ATOM     94  O   UNL A   1      33.576  21.011  23.693  1.00  0.00    -0.457 OA
ATOM     95  C   UNL A   1      31.884  20.488  22.313  1.00  0.00     0.051 A 
ATOM     96  C   UNL A   1      32.723  20.024  23.298  1.00  0.00     0.134 A 
BRANCH  96  97
ATOM     97  C   UNL A   1      32.883  18.738  23.947  1.00  0.00     0.017 A 
ATOM     98  C   UNL A   1      32.571  18.579  25.304  1.00  0.00     0.015 A 
ATOM     99  C   UNL A   1      33.320  17.630  23.207  1.00  0.00     0.015 A 
ATOM    100  C   UNL A   1      32.687  17.327  25.911  1.00  0.00     0.040 A 
ATOM    101  C   UNL A   1      33.448  16.382  23.817  1.00  0.00     0.040 A 
ATOM    102  C   UNL A   1      33.127  16.242  25.161  1.00  0.00     0.123 A 
ATOM    103  F   UNL A   1      33.240  15.040  25.742  1.00  0.00    -0.207 F 
ENDBRANCH  96  97
ENDBRANCH  91  92
ENDBRANCH  77  84
ENDBRANCH  74  77
ENDBRANCH  72  73
ENDBRANCH   1  72
TORSDOF 17
ENDMDL
