MODEL 1
REMARK VINA RESULT:     -11.7      0.000      0.000
REMARK SMILES Cc1nc(Oc2ccc(F)cc2)c(C(=O)NCCCNC(=O)c2ccc(-c3c4nc(c(-c5cc(S(=O)(=O)[O-])ccc5F)c5ccc([nH]5)c(-c5cc(S(=O)(=O)[O-])ccc5F)c5nc(c(-c6cc(S(=O)(=O)[O-])ccc6F)c6ccc3[nH]6)C=C5)C=C4)cc2)c(C)c1Cl
REMARK SMILES IDX 18 1 17 2 16 3 14 4 15 5 13 7 1 8 2 9 3 10 88 11 4 12 86 13
REMARK SMILES IDX 89 14 87 15 5 16 6 17 7 18 12 19 8 20 11 21 9 22 10 23 19 24
REMARK SMILES IDX 20 25 21 26 22 28 23 29 24 30 85 31 25 32 84 33 26 34 27 35
REMARK SMILES IDX 28 36 78 37 29 38 83 39 77 40 79 41 30 42 82 43 76 44 75 45
REMARK SMILES IDX 31 47 63 48 43 49 62 50 44 51 47 52 61 53 80 54 45 55 46 56
REMARK SMILES IDX 60 58 81 59 48 60 32 61 33 62 41 63 34 64 40 65 42 66 39 67
REMARK SMILES IDX 35 68 36 69 37 70 38 71 64 72 65 73 73 74 66 75 72 76 74 77
REMARK SMILES IDX 71 78 67 79 68 80 69 81 70 82 49 83 50 84 58 85 51 86 57 87
REMARK SMILES IDX 59 88 56 89 52 90 53 91 54 92 55 93
REMARK H PARENT 16 6 20 27 79 46 47 57
REMARK Flexibility Score: inf
ROOT
ATOM      1  C   UNL A   1      35.176  21.795  25.461  1.00  0.00     0.042 C 
ENDROOT
BRANCH   1   2
ATOM      2  C   UNL A   1      34.203  22.199  26.559  1.00  0.00     0.118 C 
BRANCH   2   3
ATOM      3  N   UNL A   1      34.080  23.638  26.599  1.00  0.00    -0.352 N 
ATOM      4  C   UNL A   1      33.021  24.253  25.984  1.00  0.00     0.257 C 
ATOM      5  O   UNL A   1      31.850  23.994  26.220  1.00  0.00    -0.269 OA
ATOM      6  H   UNL A   1      34.758  24.176  27.067  1.00  0.00     0.163 HD
BRANCH   4   7
ATOM      7  C   UNL A   1      33.385  25.209  24.923  1.00  0.00     0.106 A 
ATOM      8  C   UNL A   1      33.467  28.338  22.069  1.00  0.00     0.068 C 
ATOM      9  C   UNL A   1      33.529  27.173  23.017  1.00  0.00     0.060 A 
ATOM     10  N   UNL A   1      33.841  27.481  24.303  1.00  0.00    -0.216 NA
ATOM     11  C   UNL A   1      33.218  25.877  22.601  1.00  0.00     0.066 A 
ATOM     12  C   UNL A   1      33.781  26.507  25.247  1.00  0.00     0.232 A 
ATOM     13  C   UNL A   1      33.133  24.863  23.566  1.00  0.00    -0.012 A 
ATOM     14  Cl  UNL A   1      32.882  25.571  20.927  1.00  0.00    -0.082 Cl
ATOM     15  C   UNL A   1      32.763  23.454  23.183  1.00  0.00     0.047 C 
BRANCH  12  16
ATOM     16  O   UNL A   1      34.007  27.027  26.497  1.00  0.00    -0.438 OA
BRANCH  16  17
ATOM     17  C   UNL A   1      33.770  28.345  26.786  1.00  0.00     0.129 A 
ATOM     18  C   UNL A   1      34.891  29.090  27.169  1.00  0.00     0.050 A 
ATOM     19  C   UNL A   1      32.499  28.926  26.811  1.00  0.00     0.050 A 
ATOM     20  C   UNL A   1      34.761  30.434  27.507  1.00  0.00     0.043 A 
ATOM     21  C   UNL A   1      32.371  30.281  27.143  1.00  0.00     0.043 A 
ATOM     22  C   UNL A   1      33.503  31.022  27.479  1.00  0.00     0.123 A 
ATOM     23  F   UNL A   1      33.378  32.321  27.782  1.00  0.00    -0.207 F 
ENDBRANCH  16  17
ENDBRANCH  12  16
ENDBRANCH   4   7
ENDBRANCH   2   3
ENDBRANCH   1   2
BRANCH   1  24
ATOM     24  C   UNL A   1      36.577  22.289  25.757  1.00  0.00     0.118 C 
BRANCH  24  25
ATOM     25  N   UNL A   1      37.516  21.180  25.853  1.00  0.00    -0.352 N 
ATOM     26  C   UNL A   1      38.877  21.215  26.038  1.00  0.00     0.251 C 
ATOM     27  H   UNL A   1      37.121  20.281  25.776  1.00  0.00     0.163 HD
ATOM     28  O   UNL A   1      39.554  20.218  25.844  1.00  0.00    -0.269 OA
BRANCH  26  29
ATOM     29  C   UNL A   1      39.501  22.482  26.469  1.00  0.00     0.039 A 
ATOM     30  C   UNL A   1      40.477  22.460  27.467  1.00  0.00     0.014 A 
ATOM     31  C   UNL A   1      39.116  23.684  25.869  1.00  0.00     0.014 A 
ATOM     32  C   UNL A   1      41.101  23.652  27.835  1.00  0.00     0.010 A 
ATOM     33  C   UNL A   1      39.800  24.850  26.170  1.00  0.00     0.010 A 
ATOM     34  C   UNL A   1      40.775  24.849  27.177  1.00  0.00    -0.014 A 
BRANCH  34  35
ATOM     35  C   UNL A   1      41.370  26.141  27.580  1.00  0.00     0.031 A 
ATOM     36  C   UNL A   1      42.788  26.437  27.184  1.00  0.00     0.074 A 
ATOM     37  C   UNL A   1      40.666  27.000  28.342  1.00  0.00     0.049 A 
ATOM     38  N   UNL A   1      43.531  27.464  27.496  1.00  0.00    -0.248 NA
ATOM     39  C   UNL A   1      43.475  25.432  26.350  1.00  0.00     0.031 C 
ATOM     40  C   UNL A   1      39.298  26.786  28.811  1.00  0.00     0.029 A 
ATOM     41  N   UNL A   1      41.012  28.219  28.865  1.00  0.00    -0.354 N 
ATOM     42  C   UNL A   1      44.767  27.225  26.908  1.00  0.00     0.074 A 
ATOM     43  C   UNL A   1      44.701  25.928  26.278  1.00  0.00     0.031 C 
ATOM     44  C   UNL A   1      38.912  27.849  29.537  1.00  0.00     0.029 A 
ATOM     45  C   UNL A   1      40.016  28.803  29.613  1.00  0.00     0.049 A 
ATOM     46  H   UNL A   1      41.890  28.639  28.718  1.00  0.00     0.167 HD
ATOM     47  C   UNL A   1      45.847  28.034  26.867  1.00  0.00     0.034 A 
ATOM     48  C   UNL A   1      40.000  29.974  30.280  1.00  0.00     0.034 A 
ATOM     49  C   UNL A   1      45.879  29.341  27.463  1.00  0.00     0.049 A 
ATOM     50  C   UNL A   1      41.220  30.859  30.218  1.00  0.00     0.074 A 
ATOM     51  C   UNL A   1      46.907  30.265  27.430  1.00  0.00     0.029 A 
ATOM     52  N   UNL A   1      44.841  29.913  28.181  1.00  0.00    -0.354 N 
ATOM     53  N   UNL A   1      42.354  30.655  29.589  1.00  0.00    -0.248 NA
ATOM     54  C   UNL A   1      41.160  32.137  30.941  1.00  0.00     0.031 C 
ATOM     55  C   UNL A   1      46.507  31.379  28.167  1.00  0.00     0.029 A 
ATOM     56  C   UNL A   1      45.209  31.174  28.609  1.00  0.00     0.049 A 
ATOM     57  H   UNL A   1      43.973  29.484  28.359  1.00  0.00     0.167 HD
ATOM     58  C   UNL A   1      43.125  31.792  29.808  1.00  0.00     0.074 A 
ATOM     59  C   UNL A   1      42.325  32.686  30.620  1.00  0.00     0.031 C 
ATOM     60  C   UNL A   1      44.382  32.069  29.380  1.00  0.00     0.034 A 
BRANCH  47  61
ATOM     61  C   UNL A   1      47.068  27.574  26.122  1.00  0.00     0.023 A 
ATOM     62  C   UNL A   1      47.216  27.880  24.758  1.00  0.00     0.031 A 
ATOM     63  C   UNL A   1      48.007  26.717  26.724  1.00  0.00     0.131 A 
ATOM     64  C   UNL A   1      48.253  27.293  24.027  1.00  0.00     0.055 A 
ATOM     65  C   UNL A   1      49.063  26.166  25.999  1.00  0.00     0.041 A 
ATOM     66  F   UNL A   1      47.909  26.406  28.027  1.00  0.00    -0.206 F 
ATOM     67  C   UNL A   1      49.181  26.443  24.640  1.00  0.00     0.022 A 
BRANCH  64  68
ATOM     68  S   UNL A   1      48.410  27.574  22.243  1.00  0.00     0.124 S 
ATOM     69  O   UNL A   1      47.117  28.172  21.914  1.00  0.00    -0.237 OA
ATOM     70  O   UNL A   1      49.552  28.481  22.179  1.00  0.00    -0.237 OA
ATOM     71  O   UNL A   1      48.627  26.238  21.697  1.00  0.00    -0.744 OA
ENDBRANCH  64  68
ENDBRANCH  47  61
BRANCH  48  72
ATOM     72  C   UNL A   1      38.762  30.397  30.996  1.00  0.00     0.023 A 
ATOM     73  C   UNL A   1      37.861  31.307  30.417  1.00  0.00     0.031 A 
ATOM     74  C   UNL A   1      38.504  29.949  32.302  1.00  0.00     0.131 A 
ATOM     75  C   UNL A   1      36.769  31.775  31.162  1.00  0.00     0.055 A 
ATOM     76  C   UNL A   1      37.384  30.371  33.019  1.00  0.00     0.041 A 
ATOM     77  F   UNL A   1      39.344  29.089  32.900  1.00  0.00    -0.206 F 
ATOM     78  C   UNL A   1      36.514  31.297  32.452  1.00  0.00     0.022 A 
BRANCH  75  79
ATOM     79  S   UNL A   1      35.691  33.082  30.515  1.00  0.00     0.124 S 
ATOM     80  O   UNL A   1      34.362  32.527  30.747  1.00  0.00    -0.237 OA
ATOM     81  O   UNL A   1      36.058  34.215  31.363  1.00  0.00    -0.237 OA
ATOM     82  O   UNL A   1      36.090  33.198  29.116  1.00  0.00    -0.744 OA
ENDBRANCH  75  79
ENDBRANCH  48  72
BRANCH  60  83
ATOM     83  C   UNL A   1      44.993  33.399  29.732  1.00  0.00     0.023 A 
ATOM     84  C   UNL A   1      44.995  34.434  28.778  1.00  0.00     0.031 A 
ATOM     85  C   UNL A   1      45.730  33.573  30.914  1.00  0.00     0.131 A 
ATOM     86  C   UNL A   1      45.767  35.580  29.000  1.00  0.00     0.055 A 
ATOM     87  C   UNL A   1      46.460  34.739  31.151  1.00  0.00     0.041 A 
ATOM     88  F   UNL A   1      45.765  32.606  31.844  1.00  0.00    -0.206 F 
ATOM     89  C   UNL A   1      46.494  35.741  30.185  1.00  0.00     0.022 A 
BRANCH  86  90
ATOM     90  S   UNL A   1      45.925  36.860  27.726  1.00  0.00     0.124 S 
ATOM     91  O   UNL A   1      44.996  37.882  28.205  1.00  0.00    -0.237 OA
ATOM     92  O   UNL A   1      47.339  37.210  27.817  1.00  0.00    -0.237 OA
ATOM     93  O   UNL A   1      45.520  36.186  26.496  1.00  0.00    -0.744 OA
ENDBRANCH  86  90
ENDBRANCH  60  83
ENDBRANCH  34  35
ENDBRANCH  26  29
ENDBRANCH  24  25
ENDBRANCH   1  24
TORSDOF 15
ENDMDL
MODEL 2
REMARK VINA RESULT:     -11.6      4.821      9.961
REMARK SMILES Cc1nc(Oc2ccc(F)cc2)c(C(=O)NCCCNC(=O)c2ccc(-c3c4nc(c(-c5cc(S(=O)(=O)[O-])ccc5F)c5ccc([nH]5)c(-c5cc(S(=O)(=O)[O-])ccc5F)c5nc(c(-c6cc(S(=O)(=O)[O-])ccc6F)c6ccc3[nH]6)C=C5)C=C4)cc2)c(C)c1Cl
REMARK SMILES IDX 18 1 17 2 16 3 14 4 15 5 13 7 1 8 2 9 3 10 88 11 4 12 86 13
REMARK SMILES IDX 89 14 87 15 5 16 6 17 7 18 12 19 8 20 11 21 9 22 10 23 19 24
REMARK SMILES IDX 20 25 21 26 22 28 23 29 24 30 85 31 25 32 84 33 26 34 27 35
REMARK SMILES IDX 28 36 78 37 29 38 83 39 77 40 79 41 30 42 82 43 76 44 75 45
REMARK SMILES IDX 31 47 63 48 43 49 62 50 44 51 47 52 61 53 80 54 45 55 46 56
REMARK SMILES IDX 60 58 81 59 48 60 32 61 33 62 41 63 34 64 40 65 42 66 39 67
REMARK SMILES IDX 35 68 36 69 37 70 38 71 64 72 65 73 73 74 66 75 72 76 74 77
REMARK SMILES IDX 71 78 67 79 68 80 69 81 70 82 49 83 50 84 58 85 51 86 57 87
REMARK SMILES IDX 59 88 56 89 52 90 53 91 54 92 55 93
REMARK H PARENT 16 6 20 27 79 46 47 57
REMARK Flexibility Score: inf
ROOT
ATOM      1  C   UNL A   1      32.478  28.642  24.142  1.00  0.00     0.042 C 
ENDROOT
BRANCH   1   2
ATOM      2  C   UNL A   1      33.351  28.087  23.026  1.00  0.00     0.118 C 
BRANCH   2   3
ATOM      3  N   UNL A   1      34.026  26.894  23.481  1.00  0.00    -0.352 N 
ATOM      4  C   UNL A   1      33.385  25.683  23.434  1.00  0.00     0.257 C 
ATOM      5  O   UNL A   1      32.899  25.207  22.417  1.00  0.00    -0.269 OA
ATOM      6  H   UNL A   1      34.946  26.950  23.825  1.00  0.00     0.163 HD
BRANCH   4   7
ATOM      7  C   UNL A   1      33.226  25.010  24.735  1.00  0.00     0.106 A 
ATOM      8  C   UNL A   1      32.901  22.205  27.892  1.00  0.00     0.068 C 
ATOM      9  C   UNL A   1      32.957  23.281  26.845  1.00  0.00     0.060 A 
ATOM     10  N   UNL A   1      34.204  23.654  26.455  1.00  0.00    -0.216 NA
ATOM     11  C   UNL A   1      31.796  23.805  26.274  1.00  0.00     0.066 A 
ATOM     12  C   UNL A   1      34.339  24.518  25.416  1.00  0.00     0.232 A 
ATOM     13  C   UNL A   1      31.917  24.685  25.189  1.00  0.00    -0.012 A 
ATOM     14  Cl  UNL A   1      30.246  23.307  26.873  1.00  0.00    -0.082 Cl
ATOM     15  C   UNL A   1      30.699  25.251  24.507  1.00  0.00     0.047 C 
BRANCH  12  16
ATOM     16  O   UNL A   1      35.663  24.681  25.088  1.00  0.00    -0.438 OA
BRANCH  16  17
ATOM     17  C   UNL A   1      36.582  23.683  25.277  1.00  0.00     0.129 A 
ATOM     18  C   UNL A   1      37.643  23.997  26.135  1.00  0.00     0.050 A 
ATOM     19  C   UNL A   1      36.562  22.459  24.604  1.00  0.00     0.050 A 
ATOM     20  C   UNL A   1      38.648  23.064  26.381  1.00  0.00     0.043 A 
ATOM     21  C   UNL A   1      37.568  21.519  24.860  1.00  0.00     0.043 A 
ATOM     22  C   UNL A   1      38.595  21.827  25.750  1.00  0.00     0.123 A 
ATOM     23  F   UNL A   1      39.548  20.921  26.003  1.00  0.00    -0.207 F 
ENDBRANCH  16  17
ENDBRANCH  12  16
ENDBRANCH   4   7
ENDBRANCH   2   3
ENDBRANCH   1   2
BRANCH   1  24
ATOM     24  C   UNL A   1      33.317  29.220  25.263  1.00  0.00     0.118 C 
BRANCH  24  25
ATOM     25  N   UNL A   1      32.763  30.480  25.739  1.00  0.00    -0.352 N 
ATOM     26  C   UNL A   1      33.105  31.207  26.854  1.00  0.00     0.251 C 
ATOM     27  H   UNL A   1      32.045  30.864  25.185  1.00  0.00     0.163 HD
ATOM     28  O   UNL A   1      32.380  32.105  27.253  1.00  0.00    -0.269 OA
BRANCH  26  29
ATOM     29  C   UNL A   1      34.360  30.876  27.557  1.00  0.00     0.039 A 
ATOM     30  C   UNL A   1      35.352  31.850  27.684  1.00  0.00     0.014 A 
ATOM     31  C   UNL A   1      34.537  29.598  28.096  1.00  0.00     0.014 A 
ATOM     32  C   UNL A   1      36.514  31.550  28.395  1.00  0.00     0.010 A 
ATOM     33  C   UNL A   1      35.648  29.333  28.879  1.00  0.00     0.010 A 
ATOM     34  C   UNL A   1      36.659  30.295  29.008  1.00  0.00    -0.014 A 
BRANCH  34  35
ATOM     35  C   UNL A   1      37.900  29.918  29.717  1.00  0.00     0.031 A 
ATOM     36  C   UNL A   1      38.150  30.486  31.085  1.00  0.00     0.074 A 
ATOM     37  C   UNL A   1      38.812  29.133  29.112  1.00  0.00     0.049 A 
ATOM     38  N   UNL A   1      39.200  30.356  31.849  1.00  0.00    -0.248 NA
ATOM     39  C   UNL A   1      37.092  31.337  31.661  1.00  0.00     0.031 C 
ATOM     40  C   UNL A   1      38.681  28.566  27.770  1.00  0.00     0.029 A 
ATOM     41  N   UNL A   1      40.035  28.688  29.544  1.00  0.00    -0.354 N 
ATOM     42  C   UNL A   1      38.933  31.112  32.983  1.00  0.00     0.074 A 
ATOM     43  C   UNL A   1      37.656  31.753  32.784  1.00  0.00     0.031 C 
ATOM     44  C   UNL A   1      39.771  27.831  27.497  1.00  0.00     0.029 A 
ATOM     45  C   UNL A   1      40.693  27.902  28.628  1.00  0.00     0.049 A 
ATOM     46  H   UNL A   1      40.407  28.910  30.428  1.00  0.00     0.167 HD
ATOM     47  C   UNL A   1      39.674  31.229  34.107  1.00  0.00     0.034 A 
ATOM     48  C   UNL A   1      41.902  27.309  28.697  1.00  0.00     0.034 A 
ATOM     49  C   UNL A   1      40.923  30.548  34.306  1.00  0.00     0.049 A 
ATOM     50  C   UNL A   1      42.708  27.455  29.963  1.00  0.00     0.074 A 
ATOM     51  C   UNL A   1      41.726  30.555  35.431  1.00  0.00     0.029 A 
ATOM     52  N   UNL A   1      41.541  29.733  33.370  1.00  0.00    -0.354 N 
ATOM     53  N   UNL A   1      42.406  28.108  31.061  1.00  0.00    -0.248 NA
ATOM     54  C   UNL A   1      44.012  26.778  30.012  1.00  0.00     0.031 C 
ATOM     55  C   UNL A   1      42.853  29.779  35.160  1.00  0.00     0.029 A 
ATOM     56  C   UNL A   1      42.724  29.241  33.889  1.00  0.00     0.049 A 
ATOM     57  H   UNL A   1      41.190  29.535  32.472  1.00  0.00     0.167 HD
ATOM     58  C   UNL A   1      43.460  27.889  31.941  1.00  0.00     0.074 A 
ATOM     59  C   UNL A   1      44.406  27.035  31.253  1.00  0.00     0.031 C 
ATOM     60  C   UNL A   1      43.632  28.356  33.204  1.00  0.00     0.034 A 
BRANCH  47  61
ATOM     61  C   UNL A   1      39.151  32.075  35.234  1.00  0.00     0.023 A 
ATOM     62  C   UNL A   1      39.643  33.378  35.421  1.00  0.00     0.031 A 
ATOM     63  C   UNL A   1      38.279  31.540  36.199  1.00  0.00     0.131 A 
ATOM     64  C   UNL A   1      39.297  34.088  36.575  1.00  0.00     0.055 A 
ATOM     65  C   UNL A   1      37.905  32.268  37.328  1.00  0.00     0.041 A 
ATOM     66  F   UNL A   1      37.778  30.302  36.055  1.00  0.00    -0.206 F 
ATOM     67  C   UNL A   1      38.427  33.543  37.526  1.00  0.00     0.022 A 
BRANCH  64  68
ATOM     68  S   UNL A   1      39.998  35.726  36.906  1.00  0.00     0.124 S 
ATOM     69  O   UNL A   1      39.654  36.458  35.688  1.00  0.00    -0.237 OA
ATOM     70  O   UNL A   1      39.270  36.131  38.105  1.00  0.00    -0.237 OA
ATOM     71  O   UNL A   1      41.423  35.465  37.084  1.00  0.00    -0.744 OA
ENDBRANCH  64  68
ENDBRANCH  47  61
BRANCH  48  72
ATOM     72  C   UNL A   1      42.376  26.468  27.560  1.00  0.00     0.023 A 
ATOM     73  C   UNL A   1      42.230  25.069  27.578  1.00  0.00     0.031 A 
ATOM     74  C   UNL A   1      43.048  27.050  26.473  1.00  0.00     0.131 A 
ATOM     75  C   UNL A   1      42.790  24.298  26.550  1.00  0.00     0.055 A 
ATOM     76  C   UNL A   1      43.552  26.284  25.422  1.00  0.00     0.041 A 
ATOM     77  F   UNL A   1      43.221  28.381  26.420  1.00  0.00    -0.206 F 
ATOM     78  C   UNL A   1      43.434  24.899  25.462  1.00  0.00     0.022 A 
BRANCH  75  79
ATOM     79  S   UNL A   1      42.780  22.487  26.633  1.00  0.00     0.124 S 
ATOM     80  O   UNL A   1      42.274  22.122  25.314  1.00  0.00    -0.237 OA
ATOM     81  O   UNL A   1      44.192  22.193  26.870  1.00  0.00    -0.237 OA
ATOM     82  O   UNL A   1      41.889  22.197  27.752  1.00  0.00    -0.744 OA
ENDBRANCH  75  79
ENDBRANCH  48  72
BRANCH  60  83
ATOM     83  C   UNL A   1      44.863  27.946  33.968  1.00  0.00     0.023 A 
ATOM     84  C   UNL A   1      44.806  26.832  34.827  1.00  0.00     0.031 A 
ATOM     85  C   UNL A   1      46.008  28.757  33.997  1.00  0.00     0.131 A 
ATOM     86  C   UNL A   1      45.856  26.590  35.720  1.00  0.00     0.055 A 
ATOM     87  C   UNL A   1      47.073  28.483  34.855  1.00  0.00     0.041 A 
ATOM     88  F   UNL A   1      46.099  29.837  33.204  1.00  0.00    -0.206 F 
ATOM     89  C   UNL A   1      46.992  27.405  35.733  1.00  0.00     0.022 A 
BRANCH  86  90
ATOM     90  S   UNL A   1      45.746  25.263  36.951  1.00  0.00     0.124 S 
ATOM     91  O   UNL A   1      45.170  25.961  38.099  1.00  0.00    -0.237 OA
ATOM     92  O   UNL A   1      44.860  24.308  36.293  1.00  0.00    -0.237 OA
ATOM     93  O   UNL A   1      47.127  24.826  37.124  1.00  0.00    -0.744 OA
ENDBRANCH  86  90
ENDBRANCH  60  83
ENDBRANCH  34  35
ENDBRANCH  26  29
ENDBRANCH  24  25
ENDBRANCH   1  24
TORSDOF 15
ENDMDL
MODEL 3
REMARK VINA RESULT:     -11.6      5.551      8.331
REMARK SMILES Cc1nc(Oc2ccc(F)cc2)c(C(=O)NCCCNC(=O)c2ccc(-c3c4nc(c(-c5cc(S(=O)(=O)[O-])ccc5F)c5ccc([nH]5)c(-c5cc(S(=O)(=O)[O-])ccc5F)c5nc(c(-c6cc(S(=O)(=O)[O-])ccc6F)c6ccc3[nH]6)C=C5)C=C4)cc2)c(C)c1Cl
REMARK SMILES IDX 18 1 17 2 16 3 14 4 15 5 13 7 1 8 2 9 3 10 88 11 4 12 86 13
REMARK SMILES IDX 89 14 87 15 5 16 6 17 7 18 12 19 8 20 11 21 9 22 10 23 19 24
REMARK SMILES IDX 20 25 21 26 22 28 23 29 24 30 85 31 25 32 84 33 26 34 27 35
REMARK SMILES IDX 28 36 78 37 29 38 83 39 77 40 79 41 30 42 82 43 76 44 75 45
REMARK SMILES IDX 31 47 63 48 43 49 62 50 44 51 47 52 61 53 80 54 45 55 46 56
REMARK SMILES IDX 60 58 81 59 48 60 32 61 33 62 41 63 34 64 40 65 42 66 39 67
REMARK SMILES IDX 35 68 36 69 37 70 38 71 64 72 65 73 73 74 66 75 72 76 74 77
REMARK SMILES IDX 71 78 67 79 68 80 69 81 70 82 49 83 50 84 58 85 51 86 57 87
REMARK SMILES IDX 59 88 56 89 52 90 53 91 54 92 55 93
REMARK H PARENT 16 6 20 27 79 46 47 57
REMARK Flexibility Score: inf
ROOT
ATOM      1  C   UNL A   1      31.845  31.480  26.896  1.00  0.00     0.042 C 
ENDROOT
BRANCH   1   2
ATOM      2  C   UNL A   1      32.203  30.004  27.004  1.00  0.00     0.118 C 
BRANCH   2   3
ATOM      3  N   UNL A   1      31.420  29.242  26.059  1.00  0.00    -0.352 N 
ATOM      4  C   UNL A   1      31.284  27.887  26.216  1.00  0.00     0.257 C 
ATOM      5  O   UNL A   1      30.857  27.356  27.232  1.00  0.00    -0.269 OA
ATOM      6  H   UNL A   1      30.984  29.695  25.302  1.00  0.00     0.163 HD
BRANCH   4   7
ATOM      7  C   UNL A   1      31.784  27.075  25.092  1.00  0.00     0.106 A 
ATOM      8  C   UNL A   1      32.742  23.962  22.385  1.00  0.00     0.068 C 
ATOM      9  C   UNL A   1      32.497  25.131  23.297  1.00  0.00     0.060 A 
ATOM     10  N   UNL A   1      31.277  25.717  23.182  1.00  0.00    -0.216 NA
ATOM     11  C   UNL A   1      33.445  25.531  24.240  1.00  0.00     0.066 A 
ATOM     12  C   UNL A   1      30.926  26.687  24.063  1.00  0.00     0.232 A 
ATOM     13  C   UNL A   1      33.092  26.520  25.170  1.00  0.00    -0.012 A 
ATOM     14  Cl  UNL A   1      34.996  24.757  24.279  1.00  0.00    -0.082 Cl
ATOM     15  C   UNL A   1      34.060  26.966  26.236  1.00  0.00     0.047 C 
BRANCH  12  16
ATOM     16  O   UNL A   1      29.622  27.072  23.870  1.00  0.00    -0.438 OA
BRANCH  16  17
ATOM     17  C   UNL A   1      29.299  28.213  23.184  1.00  0.00     0.129 A 
ATOM     18  C   UNL A   1      27.945  28.567  23.206  1.00  0.00     0.050 A 
ATOM     19  C   UNL A   1      30.205  28.950  22.416  1.00  0.00     0.050 A 
ATOM     20  C   UNL A   1      27.502  29.697  22.523  1.00  0.00     0.043 A 
ATOM     21  C   UNL A   1      29.759  30.091  21.736  1.00  0.00     0.043 A 
ATOM     22  C   UNL A   1      28.416  30.457  21.803  1.00  0.00     0.123 A 
ATOM     23  F   UNL A   1      27.996  31.556  21.164  1.00  0.00    -0.207 F 
ENDBRANCH  16  17
ENDBRANCH  12  16
ENDBRANCH   4   7
ENDBRANCH   2   3
ENDBRANCH   1   2
BRANCH   1  24
ATOM     24  C   UNL A   1      33.081  32.353  26.967  1.00  0.00     0.118 C 
BRANCH  24  25
ATOM     25  N   UNL A   1      32.753  33.690  27.443  1.00  0.00    -0.352 N 
ATOM     26  C   UNL A   1      33.192  34.334  28.575  1.00  0.00     0.251 C 
ATOM     27  H   UNL A   1      32.132  34.202  26.877  1.00  0.00     0.163 HD
ATOM     28  O   UNL A   1      32.633  35.346  28.967  1.00  0.00    -0.269 OA
BRANCH  26  29
ATOM     29  C   UNL A   1      34.347  33.774  29.306  1.00  0.00     0.039 A 
ATOM     30  C   UNL A   1      34.131  32.810  30.292  1.00  0.00     0.014 A 
ATOM     31  C   UNL A   1      35.639  34.206  28.996  1.00  0.00     0.014 A 
ATOM     32  C   UNL A   1      35.228  32.246  30.943  1.00  0.00     0.010 A 
ATOM     33  C   UNL A   1      36.729  33.580  29.577  1.00  0.00     0.010 A 
ATOM     34  C   UNL A   1      36.532  32.618  30.577  1.00  0.00    -0.014 A 
BRANCH  34  35
ATOM     35  C   UNL A   1      37.716  32.088  31.285  1.00  0.00     0.031 A 
ATOM     36  C   UNL A   1      38.474  30.946  30.670  1.00  0.00     0.074 A 
ATOM     37  C   UNL A   1      38.062  32.584  32.488  1.00  0.00     0.049 A 
ATOM     38  N   UNL A   1      39.486  30.277  31.151  1.00  0.00    -0.248 NA
ATOM     39  C   UNL A   1      38.015  30.471  29.350  1.00  0.00     0.031 C 
ATOM     40  C   UNL A   1      37.367  33.665  33.187  1.00  0.00     0.029 A 
ATOM     41  N   UNL A   1      39.078  32.235  33.341  1.00  0.00    -0.354 N 
ATOM     42  C   UNL A   1      39.776  29.304  30.204  1.00  0.00     0.074 A 
ATOM     43  C   UNL A   1      38.796  29.421  29.151  1.00  0.00     0.031 C 
ATOM     44  C   UNL A   1      37.989  33.904  34.353  1.00  0.00     0.029 A 
ATOM     45  C   UNL A   1      39.105  32.972  34.501  1.00  0.00     0.049 A 
ATOM     46  H   UNL A   1      39.728  31.523  33.140  1.00  0.00     0.167 HD
ATOM     47  C   UNL A   1      40.794  28.417  30.197  1.00  0.00     0.034 A 
ATOM     48  C   UNL A   1      39.938  32.902  35.559  1.00  0.00     0.034 A 
ATOM     49  C   UNL A   1      41.787  28.344  31.233  1.00  0.00     0.049 A 
ATOM     50  C   UNL A   1      41.067  31.903  35.526  1.00  0.00     0.074 A 
ATOM     51  C   UNL A   1      42.893  27.517  31.295  1.00  0.00     0.029 A 
ATOM     52  N   UNL A   1      41.802  29.130  32.375  1.00  0.00    -0.354 N 
ATOM     53  N   UNL A   1      41.378  31.042  34.584  1.00  0.00    -0.248 NA
ATOM     54  C   UNL A   1      41.967  31.867  36.687  1.00  0.00     0.031 C 
ATOM     55  C   UNL A   1      43.554  27.772  32.495  1.00  0.00     0.029 A 
ATOM     56  C   UNL A   1      42.894  28.798  33.155  1.00  0.00     0.049 A 
ATOM     57  H   UNL A   1      41.136  29.820  32.596  1.00  0.00     0.167 HD
ATOM     58  C   UNL A   1      42.528  30.393  35.021  1.00  0.00     0.074 A 
ATOM     59  C   UNL A   1      42.865  30.966  36.308  1.00  0.00     0.031 C 
ATOM     60  C   UNL A   1      43.238  29.410  34.414  1.00  0.00     0.034 A 
BRANCH  47  61
ATOM     61  C   UNL A   1      40.934  27.484  29.027  1.00  0.00     0.023 A 
ATOM     62  C   UNL A   1      41.885  27.750  28.026  1.00  0.00     0.031 A 
ATOM     63  C   UNL A   1      40.035  26.420  28.834  1.00  0.00     0.131 A 
ATOM     64  C   UNL A   1      41.883  26.991  26.852  1.00  0.00     0.055 A 
ATOM     65  C   UNL A   1      40.063  25.641  27.678  1.00  0.00     0.041 A 
ATOM     66  F   UNL A   1      39.116  26.125  29.769  1.00  0.00    -0.206 F 
ATOM     67  C   UNL A   1      40.982  25.934  26.675  1.00  0.00     0.022 A 
BRANCH  64  68
ATOM     68  S   UNL A   1      43.019  27.375  25.493  1.00  0.00     0.124 S 
ATOM     69  O   UNL A   1      44.158  27.955  26.202  1.00  0.00    -0.237 OA
ATOM     70  O   UNL A   1      43.250  26.057  24.910  1.00  0.00    -0.237 OA
ATOM     71  O   UNL A   1      42.267  28.313  24.665  1.00  0.00    -0.744 OA
ENDBRANCH  64  68
ENDBRANCH  47  61
BRANCH  48  72
ATOM     72  C   UNL A   1      39.770  33.855  36.693  1.00  0.00     0.023 A 
ATOM     73  C   UNL A   1      39.266  33.429  37.935  1.00  0.00     0.031 A 
ATOM     74  C   UNL A   1      40.042  35.222  36.523  1.00  0.00     0.131 A 
ATOM     75  C   UNL A   1      39.009  34.370  38.942  1.00  0.00     0.055 A 
ATOM     76  C   UNL A   1      39.842  36.148  37.547  1.00  0.00     0.041 A 
ATOM     77  F   UNL A   1      40.512  35.677  35.350  1.00  0.00    -0.206 F 
ATOM     78  C   UNL A   1      39.312  35.725  38.762  1.00  0.00     0.022 A 
BRANCH  75  79
ATOM     79  S   UNL A   1      38.193  33.883  40.486  1.00  0.00     0.124 S 
ATOM     80  O   UNL A   1      36.911  33.376  40.008  1.00  0.00    -0.237 OA
ATOM     81  O   UNL A   1      39.116  32.877  41.005  1.00  0.00    -0.237 OA
ATOM     82  O   UNL A   1      38.133  35.124  41.251  1.00  0.00    -0.744 OA
ENDBRANCH  75  79
ENDBRANCH  48  72
BRANCH  60  83
ATOM     83  C   UNL A   1      44.479  28.888  35.088  1.00  0.00     0.023 A 
ATOM     84  C   UNL A   1      44.355  28.010  36.182  1.00  0.00     0.031 A 
ATOM     85  C   UNL A   1      45.748  29.402  34.780  1.00  0.00     0.131 A 
ATOM     86  C   UNL A   1      45.478  27.714  36.964  1.00  0.00     0.055 A 
ATOM     87  C   UNL A   1      46.872  29.066  35.535  1.00  0.00     0.041 A 
ATOM     88  F   UNL A   1      45.908  30.252  33.754  1.00  0.00    -0.206 F 
ATOM     89  C   UNL A   1      46.737  28.232  36.642  1.00  0.00     0.022 A 
BRANCH  86  90
ATOM     90  S   UNL A   1      45.327  26.720  38.473  1.00  0.00     0.124 S 
ATOM     91  O   UNL A   1      45.981  27.572  39.465  1.00  0.00    -0.237 OA
ATOM     92  O   UNL A   1      43.879  26.597  38.615  1.00  0.00    -0.237 OA
ATOM     93  O   UNL A   1      46.037  25.486  38.156  1.00  0.00    -0.744 OA
ENDBRANCH  86  90
ENDBRANCH  60  83
ENDBRANCH  34  35
ENDBRANCH  26  29
ENDBRANCH  24  25
ENDBRANCH   1  24
TORSDOF 15
ENDMDL
