MODEL 1
REMARK VINA RESULT:     -11.8      0.000      0.000
REMARK SMILES C/C=C/C[C@]1(C(=O)NCCCNC(=O)c2ccc(-c3c4nc(c(-c5cc(S(=O)(=O)[O-])ccc5F)c5ccc([nH]5)c(-c5cc(S(=O)(=O)[O-])ccc5F)c5nc(c(-c6cc(S(=O)(=O)[O-])ccc6F)c6ccc3[nH]6)C=C5)C=C4)cc2)CCN(C(=O)OC(C)(C)C)C1
REMARK SMILES IDX 10 1 9 2 8 3 6 4 7 5 5 7 78 8 88 9 79 10 80 11 4 12 3 13
REMARK SMILES IDX 1 14 2 15 81 16 82 17 83 18 84 19 85 20 86 21 87 22 11 23
REMARK SMILES IDX 12 24 13 25 14 27 15 28 16 29 77 30 17 31 76 32 18 33 19 34
REMARK SMILES IDX 20 35 70 36 21 37 75 38 69 39 71 40 22 41 74 42 68 43 67 44
REMARK SMILES IDX 23 46 55 47 35 48 54 49 36 50 39 51 53 52 72 53 37 54 38 55
REMARK SMILES IDX 52 57 73 58 40 59 24 60 25 61 33 62 26 63 32 64 34 65 31 66
REMARK SMILES IDX 27 67 28 68 29 69 30 70 56 71 57 72 65 73 58 74 64 75 66 76
REMARK SMILES IDX 63 77 59 78 60 79 61 80 62 81 41 82 42 83 50 84 43 85 49 86
REMARK SMILES IDX 51 87 48 88 44 89 45 90 46 91 47 92
REMARK H PARENT 8 6 12 26 71 45 39 56
REMARK Flexibility Score: inf
ROOT
ATOM      1  C   UNL A   1      31.584  32.255  26.522  1.00  0.00     0.042 C 
ENDROOT
BRANCH   1   2
ATOM      2  C   UNL A   1      31.563  30.741  26.371  1.00  0.00     0.117 C 
BRANCH   2   3
ATOM      3  N   UNL A   1      32.829  30.130  26.750  1.00  0.00    -0.355 N 
ATOM      4  C   UNL A   1      33.420  28.950  26.420  1.00  0.00     0.228 C 
ATOM      5  O   UNL A   1      34.495  28.720  26.985  1.00  0.00    -0.274 OA
ATOM      6  H   UNL A   1      33.362  30.679  27.367  1.00  0.00     0.163 HD
BRANCH   4   7
ATOM      7  C   UNL A   1      32.803  27.947  25.426  1.00  0.00     0.072 C 
ATOM      8  C   UNL A   1      31.479  27.372  25.982  1.00  0.00     0.041 C 
ATOM      9  C   UNL A   1      32.412  28.662  24.119  1.00  0.00     0.140 C 
ATOM     10  C   UNL A   1      30.521  27.328  24.805  1.00  0.00     0.124 C 
ATOM     11  N   UNL A   1      31.025  28.308  23.871  1.00  0.00    -0.307 N 
BRANCH   7  12
ATOM     12  C   UNL A   1      33.836  26.799  25.178  1.00  0.00     0.046 C 
BRANCH  12  13
ATOM     13  C   UNL A   1      33.586  25.519  25.938  1.00  0.00    -0.030 C 
ATOM     14  C   UNL A   1      33.815  23.028  26.159  1.00  0.00     0.035 C 
ATOM     15  C   UNL A   1      34.152  24.356  25.572  1.00  0.00    -0.035 C 
ENDBRANCH  12  13
ENDBRANCH   7  12
BRANCH  11  16
ATOM     16  C   UNL A   1      30.324  28.850  22.824  1.00  0.00     0.410 C 
ATOM     17  O   UNL A   1      30.311  28.352  21.705  1.00  0.00    -0.224 OA
BRANCH  16  18
ATOM     18  O   UNL A   1      29.682  29.993  23.177  1.00  0.00    -0.444 OA
BRANCH  18  19
ATOM     19  C   UNL A   1      28.295  30.201  22.809  1.00  0.00     0.106 C 
ATOM     20  C   UNL A   1      27.627  31.262  23.695  1.00  0.00     0.056 C 
ATOM     21  C   UNL A   1      28.172  30.533  21.318  1.00  0.00     0.056 C 
ATOM     22  C   UNL A   1      27.601  28.854  23.069  1.00  0.00     0.056 C 
ENDBRANCH  18  19
ENDBRANCH  16  18
ENDBRANCH  11  16
ENDBRANCH   4   7
ENDBRANCH   2   3
ENDBRANCH   1   2
BRANCH   1  23
ATOM     23  C   UNL A   1      32.714  32.771  27.401  1.00  0.00     0.118 C 
BRANCH  23  24
ATOM     24  N   UNL A   1      32.538  34.167  27.768  1.00  0.00    -0.352 N 
ATOM     25  C   UNL A   1      33.129  34.904  28.766  1.00  0.00     0.251 C 
ATOM     26  H   UNL A   1      31.893  34.663  27.213  1.00  0.00     0.163 HD
ATOM     27  O   UNL A   1      32.665  36.007  29.043  1.00  0.00    -0.269 OA
BRANCH  25  28
ATOM     28  C   UNL A   1      34.290  34.373  29.515  1.00  0.00     0.039 A 
ATOM     29  C   UNL A   1      34.066  33.745  30.742  1.00  0.00     0.014 A 
ATOM     30  C   UNL A   1      35.595  34.509  29.034  1.00  0.00     0.014 A 
ATOM     31  C   UNL A   1      35.140  33.198  31.449  1.00  0.00     0.010 A 
ATOM     32  C   UNL A   1      36.651  33.880  29.689  1.00  0.00     0.010 A 
ATOM     33  C   UNL A   1      36.436  33.221  30.908  1.00  0.00    -0.014 A 
BRANCH  33  34
ATOM     34  C   UNL A   1      37.565  32.549  31.606  1.00  0.00     0.031 A 
ATOM     35  C   UNL A   1      38.292  31.402  30.956  1.00  0.00     0.074 A 
ATOM     36  C   UNL A   1      37.908  32.951  32.846  1.00  0.00     0.049 A 
ATOM     37  N   UNL A   1      39.283  30.683  31.418  1.00  0.00    -0.248 NA
ATOM     38  C   UNL A   1      37.828  30.993  29.622  1.00  0.00     0.031 C 
ATOM     39  C   UNL A   1      37.245  34.020  33.599  1.00  0.00     0.029 A 
ATOM     40  N   UNL A   1      38.896  32.517  33.693  1.00  0.00    -0.354 N 
ATOM     41  C   UNL A   1      39.559  29.736  30.437  1.00  0.00     0.074 A 
ATOM     42  C   UNL A   1      38.582  29.931  29.386  1.00  0.00     0.031 C 
ATOM     43  C   UNL A   1      37.869  34.183  34.775  1.00  0.00     0.029 A 
ATOM     44  C   UNL A   1      38.940  33.198  34.887  1.00  0.00     0.049 A 
ATOM     45  H   UNL A   1      39.515  31.785  33.467  1.00  0.00     0.167 HD
ATOM     46  C   UNL A   1      40.549  28.810  30.404  1.00  0.00     0.034 A 
ATOM     47  C   UNL A   1      39.743  33.043  35.959  1.00  0.00     0.034 A 
ATOM     48  C   UNL A   1      41.514  28.632  31.463  1.00  0.00     0.049 A 
ATOM     49  C   UNL A   1      40.814  31.983  35.912  1.00  0.00     0.074 A 
ATOM     50  C   UNL A   1      42.588  27.760  31.512  1.00  0.00     0.029 A 
ATOM     51  N   UNL A   1      41.517  29.327  32.666  1.00  0.00    -0.354 N 
ATOM     52  N   UNL A   1      41.100  31.136  34.949  1.00  0.00    -0.248 NA
ATOM     53  C   UNL A   1      41.680  31.868  37.092  1.00  0.00     0.031 C 
ATOM     54  C   UNL A   1      43.188  27.868  32.770  1.00  0.00     0.029 A 
ATOM     55  C   UNL A   1      42.548  28.874  33.477  1.00  0.00     0.049 A 
ATOM     56  H   UNL A   1      40.880  30.038  32.908  1.00  0.00     0.167 HD
ATOM     57  C   UNL A   1      42.196  30.405  35.400  1.00  0.00     0.074 A 
ATOM     58  C   UNL A   1      42.533  30.932  36.706  1.00  0.00     0.031 C 
ATOM     59  C   UNL A   1      42.862  29.391  34.790  1.00  0.00     0.034 A 
BRANCH  46  60
ATOM     60  C   UNL A   1      40.617  27.904  29.195  1.00  0.00     0.023 A 
ATOM     61  C   UNL A   1      41.565  28.102  28.174  1.00  0.00     0.031 A 
ATOM     62  C   UNL A   1      39.712  26.837  29.051  1.00  0.00     0.131 A 
ATOM     63  C   UNL A   1      41.536  27.297  27.025  1.00  0.00     0.055 A 
ATOM     64  C   UNL A   1      39.746  25.985  27.945  1.00  0.00     0.041 A 
ATOM     65  F   UNL A   1      38.769  26.610  29.980  1.00  0.00    -0.206 F 
ATOM     66  C   UNL A   1      40.652  26.222  26.915  1.00  0.00     0.022 A 
BRANCH  63  67
ATOM     67  S   UNL A   1      42.569  27.771  25.611  1.00  0.00     0.124 S 
ATOM     68  O   UNL A   1      41.846  28.930  25.093  1.00  0.00    -0.237 OA
ATOM     69  O   UNL A   1      43.856  28.048  26.239  1.00  0.00    -0.237 OA
ATOM     70  O   UNL A   1      42.535  26.590  24.750  1.00  0.00    -0.744 OA
ENDBRANCH  63  67
ENDBRANCH  46  60
BRANCH  47  71
ATOM     71  C   UNL A   1      39.562  33.894  37.170  1.00  0.00     0.023 A 
ATOM     72  C   UNL A   1      38.917  33.402  38.316  1.00  0.00     0.031 A 
ATOM     73  C   UNL A   1      39.995  35.233  37.183  1.00  0.00     0.131 A 
ATOM     74  C   UNL A   1      38.678  34.254  39.405  1.00  0.00     0.055 A 
ATOM     75  C   UNL A   1      39.810  36.059  38.293  1.00  0.00     0.041 A 
ATOM     76  F   UNL A   1      40.620  35.756  36.116  1.00  0.00    -0.206 F 
ATOM     77  C   UNL A   1      39.135  35.574  39.408  1.00  0.00     0.022 A 
BRANCH  74  78
ATOM     78  S   UNL A   1      37.672  33.641  40.785  1.00  0.00     0.124 S 
ATOM     79  O   UNL A   1      36.569  32.995  40.083  1.00  0.00    -0.237 OA
ATOM     80  O   UNL A   1      38.606  32.752  41.468  1.00  0.00    -0.237 OA
ATOM     81  O   UNL A   1      37.322  34.856  41.517  1.00  0.00    -0.744 OA
ENDBRANCH  74  78
ENDBRANCH  47  71
BRANCH  59  82
ATOM     82  C   UNL A   1      44.046  28.810  35.528  1.00  0.00     0.023 A 
ATOM     83  C   UNL A   1      43.917  27.689  36.367  1.00  0.00     0.031 A 
ATOM     84  C   UNL A   1      45.315  29.407  35.419  1.00  0.00     0.131 A 
ATOM     85  C   UNL A   1      45.015  27.247  37.120  1.00  0.00     0.055 A 
ATOM     86  C   UNL A   1      46.423  28.915  36.111  1.00  0.00     0.041 A 
ATOM     87  F   UNL A   1      45.499  30.483  34.637  1.00  0.00    -0.206 F 
ATOM     88  C   UNL A   1      46.272  27.841  36.982  1.00  0.00     0.022 A 
BRANCH  85  89
ATOM     89  S   UNL A   1      44.748  25.967  38.377  1.00  0.00     0.124 S 
ATOM     90  O   UNL A   1      46.073  25.852  38.976  1.00  0.00    -0.237 OA
ATOM     91  O   UNL A   1      43.718  26.567  39.219  1.00  0.00    -0.237 OA
ATOM     92  O   UNL A   1      44.315  24.808  37.600  1.00  0.00    -0.744 OA
ENDBRANCH  85  89
ENDBRANCH  59  82
ENDBRANCH  33  34
ENDBRANCH  25  28
ENDBRANCH  23  24
ENDBRANCH   1  23
TORSDOF 18
ENDMDL
MODEL 2
REMARK VINA RESULT:     -11.5      2.677      8.519
REMARK SMILES C/C=C/C[C@]1(C(=O)NCCCNC(=O)c2ccc(-c3c4nc(c(-c5cc(S(=O)(=O)[O-])ccc5F)c5ccc([nH]5)c(-c5cc(S(=O)(=O)[O-])ccc5F)c5nc(c(-c6cc(S(=O)(=O)[O-])ccc6F)c6ccc3[nH]6)C=C5)C=C4)cc2)CCN(C(=O)OC(C)(C)C)C1
REMARK SMILES IDX 10 1 9 2 8 3 6 4 7 5 5 7 78 8 88 9 79 10 80 11 4 12 3 13
REMARK SMILES IDX 1 14 2 15 81 16 82 17 83 18 84 19 85 20 86 21 87 22 11 23
REMARK SMILES IDX 12 24 13 25 14 27 15 28 16 29 77 30 17 31 76 32 18 33 19 34
REMARK SMILES IDX 20 35 70 36 21 37 75 38 69 39 71 40 22 41 74 42 68 43 67 44
REMARK SMILES IDX 23 46 55 47 35 48 54 49 36 50 39 51 53 52 72 53 37 54 38 55
REMARK SMILES IDX 52 57 73 58 40 59 24 60 25 61 33 62 26 63 32 64 34 65 31 66
REMARK SMILES IDX 27 67 28 68 29 69 30 70 56 71 57 72 65 73 58 74 64 75 66 76
REMARK SMILES IDX 63 77 59 78 60 79 61 80 62 81 41 82 42 83 50 84 43 85 49 86
REMARK SMILES IDX 51 87 48 88 44 89 45 90 46 91 47 92
REMARK H PARENT 8 6 12 26 71 45 39 56
REMARK Flexibility Score: inf
ROOT
ATOM      1  C   UNL A   1      32.128  30.070  25.424  1.00  0.00     0.042 C 
ENDROOT
BRANCH   1   2
ATOM      2  C   UNL A   1      33.270  29.074  25.289  1.00  0.00     0.117 C 
BRANCH   2   3
ATOM      3  N   UNL A   1      33.757  28.974  23.921  1.00  0.00    -0.355 N 
ATOM      4  C   UNL A   1      33.493  28.105  22.907  1.00  0.00     0.228 C 
ATOM      5  O   UNL A   1      34.144  28.285  21.872  1.00  0.00    -0.274 OA
ATOM      6  H   UNL A   1      34.407  29.673  23.681  1.00  0.00     0.163 HD
BRANCH   4   7
ATOM      7  C   UNL A   1      32.467  26.961  23.024  1.00  0.00     0.072 C 
ATOM      8  C   UNL A   1      32.383  26.167  21.698  1.00  0.00     0.041 C 
ATOM      9  C   UNL A   1      32.929  25.934  24.076  1.00  0.00     0.140 C 
ATOM     10  C   UNL A   1      32.300  24.705  22.096  1.00  0.00     0.124 C 
ATOM     11  N   UNL A   1      32.878  24.640  23.418  1.00  0.00    -0.307 N 
BRANCH   7  12
ATOM     12  C   UNL A   1      31.076  27.579  23.381  1.00  0.00     0.046 C 
BRANCH  12  13
ATOM     13  C   UNL A   1      30.521  28.564  22.381  1.00  0.00    -0.030 C 
ATOM     14  C   UNL A   1      28.697  30.111  21.617  1.00  0.00     0.035 C 
ATOM     15  C   UNL A   1      29.398  29.260  22.621  1.00  0.00    -0.035 C 
ENDBRANCH  12  13
ENDBRANCH   7  12
BRANCH  11  16
ATOM     16  C   UNL A   1      33.315  23.501  24.045  1.00  0.00     0.410 C 
ATOM     17  O   UNL A   1      32.776  23.047  25.048  1.00  0.00    -0.224 OA
BRANCH  16  18
ATOM     18  O   UNL A   1      34.407  22.970  23.439  1.00  0.00    -0.444 OA
BRANCH  18  19
ATOM     19  C   UNL A   1      35.638  22.778  24.180  1.00  0.00     0.106 C 
ATOM     20  C   UNL A   1      35.879  23.915  25.183  1.00  0.00     0.056 C 
ATOM     21  C   UNL A   1      35.660  21.401  24.852  1.00  0.00     0.056 C 
ATOM     22  C   UNL A   1      36.757  22.825  23.127  1.00  0.00     0.056 C 
ENDBRANCH  18  19
ENDBRANCH  16  18
ENDBRANCH  11  16
ENDBRANCH   4   7
ENDBRANCH   2   3
ENDBRANCH   1   2
BRANCH   1  23
ATOM     23  C   UNL A   1      31.977  30.649  26.823  1.00  0.00     0.118 C 
BRANCH  23  24
ATOM     24  N   UNL A   1      32.140  32.094  26.846  1.00  0.00    -0.352 N 
ATOM     25  C   UNL A   1      33.098  32.870  27.452  1.00  0.00     0.251 C 
ATOM     26  H   UNL A   1      31.455  32.596  26.348  1.00  0.00     0.163 HD
ATOM     27  O   UNL A   1      32.915  34.083  27.534  1.00  0.00    -0.269 OA
BRANCH  25  28
ATOM     28  C   UNL A   1      34.320  32.260  28.021  1.00  0.00     0.039 A 
ATOM     29  C   UNL A   1      35.459  33.055  28.171  1.00  0.00     0.014 A 
ATOM     30  C   UNL A   1      34.363  30.912  28.385  1.00  0.00     0.014 A 
ATOM     31  C   UNL A   1      36.612  32.515  28.745  1.00  0.00     0.010 A 
ATOM     32  C   UNL A   1      35.478  30.401  29.045  1.00  0.00     0.010 A 
ATOM     33  C   UNL A   1      36.619  31.195  29.228  1.00  0.00    -0.014 A 
BRANCH  33  34
ATOM     34  C   UNL A   1      37.808  30.648  29.933  1.00  0.00     0.031 A 
ATOM     35  C   UNL A   1      38.108  31.049  31.353  1.00  0.00     0.074 A 
ATOM     36  C   UNL A   1      38.641  29.816  29.276  1.00  0.00     0.049 A 
ATOM     37  N   UNL A   1      39.106  30.692  32.120  1.00  0.00    -0.248 NA
ATOM     38  C   UNL A   1      37.177  31.996  31.985  1.00  0.00     0.031 C 
ATOM     39  C   UNL A   1      38.482  29.393  27.882  1.00  0.00     0.029 A 
ATOM     40  N   UNL A   1      39.783  29.174  29.686  1.00  0.00    -0.354 N 
ATOM     41  C   UNL A   1      38.927  31.371  33.321  1.00  0.00     0.074 A 
ATOM     42  C   UNL A   1      37.763  32.215  33.153  1.00  0.00     0.031 C 
ATOM     43  C   UNL A   1      39.463  28.534  27.567  1.00  0.00     0.029 A 
ATOM     44  C   UNL A   1      40.353  28.385  28.714  1.00  0.00     0.049 A 
ATOM     45  H   UNL A   1      40.158  29.270  30.591  1.00  0.00     0.167 HD
ATOM     46  C   UNL A   1      39.650  31.279  34.465  1.00  0.00     0.034 A 
ATOM     47  C   UNL A   1      41.472  27.634  28.737  1.00  0.00     0.034 A 
ATOM     48  C   UNL A   1      40.809  30.431  34.614  1.00  0.00     0.049 A 
ATOM     49  C   UNL A   1      42.278  27.576  30.009  1.00  0.00     0.074 A 
ATOM     50  C   UNL A   1      41.586  30.224  35.741  1.00  0.00     0.029 A 
ATOM     51  N   UNL A   1      41.370  29.661  33.603  1.00  0.00    -0.354 N 
ATOM     52  N   UNL A   1      42.060  28.178  31.157  1.00  0.00    -0.248 NA
ATOM     53  C   UNL A   1      43.476  26.726  29.994  1.00  0.00     0.031 C 
ATOM     54  C   UNL A   1      42.658  29.396  35.392  1.00  0.00     0.029 A 
ATOM     55  C   UNL A   1      42.503  29.010  34.071  1.00  0.00     0.049 A 
ATOM     56  H   UNL A   1      41.015  29.586  32.688  1.00  0.00     0.167 HD
ATOM     57  C   UNL A   1      43.080  27.757  32.006  1.00  0.00     0.074 A 
ATOM     58  C   UNL A   1      43.893  26.831  31.246  1.00  0.00     0.031 C 
ATOM     59  C   UNL A   1      43.322  28.105  33.297  1.00  0.00     0.034 A 
BRANCH  46  60
ATOM     60  C   UNL A   1      39.221  32.140  35.633  1.00  0.00     0.023 A 
ATOM     61  C   UNL A   1      39.639  33.477  35.759  1.00  0.00     0.031 A 
ATOM     62  C   UNL A   1      38.396  31.613  36.643  1.00  0.00     0.131 A 
ATOM     63  C   UNL A   1      39.296  34.214  36.903  1.00  0.00     0.055 A 
ATOM     64  C   UNL A   1      37.986  32.381  37.735  1.00  0.00     0.041 A 
ATOM     65  F   UNL A   1      37.982  30.337  36.592  1.00  0.00    -0.206 F 
ATOM     66  C   UNL A   1      38.449  33.685  37.878  1.00  0.00     0.022 A 
BRANCH  63  67
ATOM     67  S   UNL A   1      40.096  35.820  37.169  1.00  0.00     0.124 S 
ATOM     68  O   UNL A   1      39.431  36.283  38.385  1.00  0.00    -0.237 OA
ATOM     69  O   UNL A   1      41.501  35.454  37.308  1.00  0.00    -0.237 OA
ATOM     70  O   UNL A   1      39.763  36.574  35.962  1.00  0.00    -0.744 OA
ENDBRANCH  63  67
ENDBRANCH  46  60
BRANCH  47  71
ATOM     71  C   UNL A   1      41.909  26.890  27.520  1.00  0.00     0.023 A 
ATOM     72  C   UNL A   1      41.707  25.505  27.403  1.00  0.00     0.031 A 
ATOM     73  C   UNL A   1      42.578  27.548  26.472  1.00  0.00     0.131 A 
ATOM     74  C   UNL A   1      42.212  24.817  26.289  1.00  0.00     0.055 A 
ATOM     75  C   UNL A   1      43.023  26.868  25.337  1.00  0.00     0.041 A 
ATOM     76  F   UNL A   1      42.796  28.872  26.530  1.00  0.00    -0.206 F 
ATOM     77  C   UNL A   1      42.854  25.491  25.248  1.00  0.00     0.022 A 
BRANCH  74  78
ATOM     78  S   UNL A   1      42.104  23.006  26.265  1.00  0.00     0.124 S 
ATOM     79  O   UNL A   1      42.692  22.691  24.967  1.00  0.00    -0.237 OA
ATOM     80  O   UNL A   1      42.897  22.639  27.434  1.00  0.00    -0.237 OA
ATOM     81  O   UNL A   1      40.671  22.748  26.382  1.00  0.00    -0.744 OA
ENDBRANCH  74  78
ENDBRANCH  47  71
BRANCH  59  82
ATOM     82  C   UNL A   1      44.504  27.448  33.970  1.00  0.00     0.023 A 
ATOM     83  C   UNL A   1      44.384  26.214  34.635  1.00  0.00     0.031 A 
ATOM     84  C   UNL A   1      45.761  28.079  33.977  1.00  0.00     0.131 A 
ATOM     85  C   UNL A   1      45.477  25.690  35.342  1.00  0.00     0.055 A 
ATOM     86  C   UNL A   1      46.865  27.514  34.616  1.00  0.00     0.041 A 
ATOM     87  F   UNL A   1      45.936  29.261  33.364  1.00  0.00    -0.206 F 
ATOM     88  C   UNL A   1      46.723  26.322  35.319  1.00  0.00     0.022 A 
BRANCH  85  89
ATOM     89  S   UNL A   1      45.214  24.237  36.394  1.00  0.00     0.124 S 
ATOM     90  O   UNL A   1      46.411  23.447  36.124  1.00  0.00    -0.237 OA
ATOM     91  O   UNL A   1      45.128  24.828  37.726  1.00  0.00    -0.237 OA
ATOM     92  O   UNL A   1      43.968  23.667  35.888  1.00  0.00    -0.744 OA
ENDBRANCH  85  89
ENDBRANCH  59  82
ENDBRANCH  33  34
ENDBRANCH  25  28
ENDBRANCH  23  24
ENDBRANCH   1  23
TORSDOF 18
ENDMDL
MODEL 3
REMARK VINA RESULT:     -11.4      6.747     12.015
REMARK SMILES C/C=C/C[C@]1(C(=O)NCCCNC(=O)c2ccc(-c3c4nc(c(-c5cc(S(=O)(=O)[O-])ccc5F)c5ccc([nH]5)c(-c5cc(S(=O)(=O)[O-])ccc5F)c5nc(c(-c6cc(S(=O)(=O)[O-])ccc6F)c6ccc3[nH]6)C=C5)C=C4)cc2)CCN(C(=O)OC(C)(C)C)C1
REMARK SMILES IDX 10 1 9 2 8 3 6 4 7 5 5 7 78 8 88 9 79 10 80 11 4 12 3 13
REMARK SMILES IDX 1 14 2 15 81 16 82 17 83 18 84 19 85 20 86 21 87 22 11 23
REMARK SMILES IDX 12 24 13 25 14 27 15 28 16 29 77 30 17 31 76 32 18 33 19 34
REMARK SMILES IDX 20 35 70 36 21 37 75 38 69 39 71 40 22 41 74 42 68 43 67 44
REMARK SMILES IDX 23 46 55 47 35 48 54 49 36 50 39 51 53 52 72 53 37 54 38 55
REMARK SMILES IDX 52 57 73 58 40 59 24 60 25 61 33 62 26 63 32 64 34 65 31 66
REMARK SMILES IDX 27 67 28 68 29 69 30 70 56 71 57 72 65 73 58 74 64 75 66 76
REMARK SMILES IDX 63 77 59 78 60 79 61 80 62 81 41 82 42 83 50 84 43 85 49 86
REMARK SMILES IDX 51 87 48 88 44 89 45 90 46 91 47 92
REMARK H PARENT 8 6 12 26 71 45 39 56
REMARK Flexibility Score: inf
ROOT
ATOM      1  C   UNL A   1      38.028  19.729  24.936  1.00  0.00     0.042 C 
ENDROOT
BRANCH   1   2
ATOM      2  C   UNL A   1      37.124  20.864  24.478  1.00  0.00     0.117 C 
BRANCH   2   3
ATOM      3  N   UNL A   1      37.481  22.136  25.088  1.00  0.00    -0.355 N 
ATOM      4  C   UNL A   1      36.775  23.271  25.339  1.00  0.00     0.228 C 
ATOM      5  O   UNL A   1      37.424  24.203  25.828  1.00  0.00    -0.274 OA
ATOM      6  H   UNL A   1      38.421  22.185  25.375  1.00  0.00     0.163 HD
BRANCH   4   7
ATOM      7  C   UNL A   1      35.272  23.414  25.031  1.00  0.00     0.072 C 
ATOM      8  C   UNL A   1      34.993  23.134  23.534  1.00  0.00     0.041 C 
ATOM      9  C   UNL A   1      34.466  22.346  25.793  1.00  0.00     0.140 C 
ATOM     10  C   UNL A   1      33.721  22.306  23.498  1.00  0.00     0.124 C 
ATOM     11  N   UNL A   1      33.638  21.685  24.799  1.00  0.00    -0.307 N 
BRANCH   7  12
ATOM     12  C   UNL A   1      34.825  24.864  25.408  1.00  0.00     0.046 C 
BRANCH  12  13
ATOM     13  C   UNL A   1      33.468  24.982  26.060  1.00  0.00    -0.030 C 
ATOM     14  C   UNL A   1      31.070  25.723  25.996  1.00  0.00     0.035 C 
ATOM     15  C   UNL A   1      32.392  25.412  25.380  1.00  0.00    -0.035 C 
ENDBRANCH  12  13
ENDBRANCH   7  12
BRANCH  11  16
ATOM     16  C   UNL A   1      32.851  20.609  25.123  1.00  0.00     0.410 C 
ATOM     17  O   UNL A   1      31.637  20.693  25.263  1.00  0.00    -0.224 OA
BRANCH  16  18
ATOM     18  O   UNL A   1      33.579  19.475  25.286  1.00  0.00    -0.444 OA
BRANCH  18  19
ATOM     19  C   UNL A   1      33.317  18.310  24.464  1.00  0.00     0.106 C 
ATOM     20  C   UNL A   1      32.517  18.673  23.205  1.00  0.00     0.056 C 
ATOM     21  C   UNL A   1      34.619  17.576  24.128  1.00  0.00     0.056 C 
ATOM     22  C   UNL A   1      32.447  17.388  25.334  1.00  0.00     0.056 C 
ENDBRANCH  18  19
ENDBRANCH  16  18
ENDBRANCH  11  16
ENDBRANCH   4   7
ENDBRANCH   2   3
ENDBRANCH   1   2
BRANCH   1  23
ATOM     23  C   UNL A   1      39.081  20.151  25.950  1.00  0.00     0.118 C 
BRANCH  23  24
ATOM     24  N   UNL A   1      40.189  19.212  26.023  1.00  0.00    -0.352 N 
ATOM     25  C   UNL A   1      41.540  19.439  26.118  1.00  0.00     0.251 C 
ATOM     26  H   UNL A   1      39.929  18.262  26.002  1.00  0.00     0.163 HD
ATOM     27  O   UNL A   1      42.314  18.502  25.936  1.00  0.00    -0.269 OA
BRANCH  25  28
ATOM     28  C   UNL A   1      42.063  20.792  26.409  1.00  0.00     0.039 A 
ATOM     29  C   UNL A   1      42.223  21.691  25.352  1.00  0.00     0.014 A 
ATOM     30  C   UNL A   1      42.421  21.175  27.704  1.00  0.00     0.014 A 
ATOM     31  C   UNL A   1      42.674  22.989  25.605  1.00  0.00     0.010 A 
ATOM     32  C   UNL A   1      42.778  22.495  27.970  1.00  0.00     0.010 A 
ATOM     33  C   UNL A   1      42.914  23.417  26.922  1.00  0.00    -0.014 A 
BRANCH  33  34
ATOM     34  C   UNL A   1      43.294  24.826  27.208  1.00  0.00     0.031 A 
ATOM     35  C   UNL A   1      42.318  25.764  27.866  1.00  0.00     0.074 A 
ATOM     36  C   UNL A   1      44.512  25.270  26.836  1.00  0.00     0.049 A 
ATOM     37  N   UNL A   1      42.464  27.027  28.174  1.00  0.00    -0.248 NA
ATOM     38  C   UNL A   1      40.994  25.216  28.198  1.00  0.00     0.031 C 
ATOM     39  C   UNL A   1      45.527  24.468  26.147  1.00  0.00     0.029 A 
ATOM     40  N   UNL A   1      45.108  26.497  26.985  1.00  0.00    -0.354 N 
ATOM     41  C   UNL A   1      41.254  27.427  28.732  1.00  0.00     0.074 A 
ATOM     42  C   UNL A   1      40.363  26.288  28.654  1.00  0.00     0.031 C 
ATOM     43  C   UNL A   1      46.629  25.211  25.969  1.00  0.00     0.029 A 
ATOM     44  C   UNL A   1      46.387  26.556  26.480  1.00  0.00     0.049 A 
ATOM     45  H   UNL A   1      44.662  27.264  27.412  1.00  0.00     0.167 HD
ATOM     46  C   UNL A   1      40.925  28.623  29.281  1.00  0.00     0.034 A 
ATOM     47  C   UNL A   1      47.262  27.579  26.423  1.00  0.00     0.034 A 
ATOM     48  C   UNL A   1      41.828  29.747  29.350  1.00  0.00     0.049 A 
ATOM     49  C   UNL A   1      46.861  28.908  27.009  1.00  0.00     0.074 A 
ATOM     50  C   UNL A   1      41.616  30.987  29.928  1.00  0.00     0.029 A 
ATOM     51  N   UNL A   1      43.108  29.778  28.812  1.00  0.00    -0.354 N 
ATOM     52  N   UNL A   1      45.733  29.251  27.589  1.00  0.00    -0.248 NA
ATOM     53  C   UNL A   1      47.857  29.985  26.945  1.00  0.00     0.031 C 
ATOM     54  C   UNL A   1      42.732  31.790  29.670  1.00  0.00     0.029 A 
ATOM     55  C   UNL A   1      43.680  31.026  29.010  1.00  0.00     0.049 A 
ATOM     56  H   UNL A   1      43.547  29.023  28.356  1.00  0.00     0.167 HD
ATOM     57  C   UNL A   1      45.896  30.577  27.981  1.00  0.00     0.074 A 
ATOM     58  C   UNL A   1      47.239  30.958  27.597  1.00  0.00     0.031 C 
ATOM     59  C   UNL A   1      45.015  31.405  28.601  1.00  0.00     0.034 A 
BRANCH  46  60
ATOM     60  C   UNL A   1      39.522  28.779  29.824  1.00  0.00     0.023 A 
ATOM     61  C   UNL A   1      38.473  29.280  29.031  1.00  0.00     0.031 A 
ATOM     62  C   UNL A   1      39.230  28.439  31.157  1.00  0.00     0.131 A 
ATOM     63  C   UNL A   1      37.208  29.497  29.597  1.00  0.00     0.055 A 
ATOM     64  C   UNL A   1      37.946  28.575  31.689  1.00  0.00     0.041 A 
ATOM     65  F   UNL A   1      40.193  27.977  31.972  1.00  0.00    -0.206 F 
ATOM     66  C   UNL A   1      36.929  29.122  30.913  1.00  0.00     0.022 A 
BRANCH  63  67
ATOM     67  S   UNL A   1      35.976  30.417  28.635  1.00  0.00     0.124 S 
ATOM     68  O   UNL A   1      35.368  31.259  29.662  1.00  0.00    -0.237 OA
ATOM     69  O   UNL A   1      36.798  31.106  27.646  1.00  0.00    -0.237 OA
ATOM     70  O   UNL A   1      35.105  29.371  28.103  1.00  0.00    -0.744 OA
ENDBRANCH  63  67
ENDBRANCH  46  60
BRANCH  47  71
ATOM     71  C   UNL A   1      48.595  27.399  25.778  1.00  0.00     0.023 A 
ATOM     72  C   UNL A   1      48.772  27.613  24.402  1.00  0.00     0.031 A 
ATOM     73  C   UNL A   1      49.706  26.964  26.525  1.00  0.00     0.131 A 
ATOM     74  C   UNL A   1      50.015  27.346  23.806  1.00  0.00     0.055 A 
ATOM     75  C   UNL A   1      50.956  26.760  25.938  1.00  0.00     0.041 A 
ATOM     76  F   UNL A   1      49.594  26.746  27.845  1.00  0.00    -0.206 F 
ATOM     77  C   UNL A   1      51.112  26.936  24.568  1.00  0.00     0.022 A 
BRANCH  74  78
ATOM     78  S   UNL A   1      50.153  27.447  22.000  1.00  0.00     0.124 S 
ATOM     79  O   UNL A   1      51.383  26.702  21.755  1.00  0.00    -0.237 OA
ATOM     80  O   UNL A   1      48.917  26.805  21.565  1.00  0.00    -0.237 OA
ATOM     81  O   UNL A   1      50.230  28.883  21.745  1.00  0.00    -0.744 OA
ENDBRANCH  74  78
ENDBRANCH  47  71
BRANCH  59  82
ATOM     82  C   UNL A   1      45.501  32.798  28.929  1.00  0.00     0.023 A 
ATOM     83  C   UNL A   1      45.179  33.902  28.119  1.00  0.00     0.031 A 
ATOM     84  C   UNL A   1      46.325  33.020  30.046  1.00  0.00     0.131 A 
ATOM     85  C   UNL A   1      45.738  35.159  28.394  1.00  0.00     0.055 A 
ATOM     86  C   UNL A   1      46.816  34.288  30.359  1.00  0.00     0.041 A 
ATOM     87  F   UNL A   1      46.671  32.004  30.853  1.00  0.00    -0.206 F 
ATOM     88  C   UNL A   1      46.539  35.363  29.520  1.00  0.00     0.022 A 
BRANCH  85  89
ATOM     89  S   UNL A   1      45.509  36.493  27.188  1.00  0.00     0.124 S 
ATOM     90  O   UNL A   1      44.270  36.096  26.528  1.00  0.00    -0.237 OA
ATOM     91  O   UNL A   1      45.426  37.675  28.041  1.00  0.00    -0.237 OA
ATOM     92  O   UNL A   1      46.708  36.414  26.356  1.00  0.00    -0.744 OA
ENDBRANCH  85  89
ENDBRANCH  59  82
ENDBRANCH  33  34
ENDBRANCH  25  28
ENDBRANCH  23  24
ENDBRANCH   1  23
TORSDOF 18
ENDMDL
