MODEL 1
REMARK VINA RESULT:     -11.9      0.000      0.000
REMARK SMILES C[C@@H](C(=O)NCCCNC(=O)c1ccc(-c2c3nc(c(-c4cc(S(=O)(=O)[O-])ccc4F)c4ccc([nH]4)c(-c4cc(S(=O)(=O)[O-])ccc4F)c4nc(c(-c5cc(S(=O)(=O)[O-])ccc5F)c5ccc2[nH]5)C=C4)C=C3)cc1)c1ccc(C[C@@H]2CCC[C@@H]2O)cc1F
REMARK SMILES IDX 6 1 5 2 3 3 4 4 2 6 1 7 75 8 76 9 87 10 77 11 86 12 88 13
REMARK SMILES IDX 78 14 79 15 80 16 81 17 84 18 82 19 83 20 85 21 7 23 8 24
REMARK SMILES IDX 9 25 10 26 11 28 12 29 13 30 74 31 14 32 73 33 15 34 16 35
REMARK SMILES IDX 17 36 67 37 18 38 72 39 66 40 68 41 19 42 71 43 65 44 64 45
REMARK SMILES IDX 20 47 52 48 32 49 51 50 33 51 36 52 50 53 69 54 34 55 35 56
REMARK SMILES IDX 49 58 70 59 37 60 21 61 22 62 30 63 23 64 29 65 31 66 28 67
REMARK SMILES IDX 24 68 25 69 26 70 27 71 53 72 54 73 62 74 55 75 61 76 63 77
REMARK SMILES IDX 60 78 56 79 57 80 58 81 59 82 38 83 39 84 47 85 40 86 46 87
REMARK SMILES IDX 48 88 45 89 41 90 42 91 43 92 44 93
REMARK H PARENT 5 5 85 22 9 27 68 46 36 57
REMARK Flexibility Score: inf
ROOT
ATOM      1  C   UNL A   1      35.094  23.869  24.308  1.00  0.00     0.117 C 
ENDROOT
BRANCH   1   2
ATOM      2  N   UNL A   1      33.856  23.517  23.641  1.00  0.00    -0.356 N 
ATOM      3  C   UNL A   1      32.574  23.898  23.904  1.00  0.00     0.227 C 
ATOM      4  O   UNL A   1      31.692  23.358  23.231  1.00  0.00    -0.274 OA
ATOM      5  H   UNL A   1      33.958  22.906  22.877  1.00  0.00     0.163 HD
BRANCH   3   6
ATOM      6  C   UNL A   1      32.285  24.969  24.971  1.00  0.00     0.108 C 
ATOM      7  C   UNL A   1      31.316  24.477  26.049  1.00  0.00     0.023 C 
BRANCH   6   8
ATOM      8  C   UNL A   1      31.755  26.246  24.333  1.00  0.00    -0.000 A 
ATOM      9  C   UNL A   1      30.379  26.482  24.208  1.00  0.00     0.008 A 
ATOM     10  C   UNL A   1      32.636  27.189  23.801  1.00  0.00     0.127 A 
ATOM     11  C   UNL A   1      29.906  27.623  23.561  1.00  0.00     0.004 A 
ATOM     12  C   UNL A   1      32.169  28.321  23.136  1.00  0.00     0.043 A 
ATOM     13  F   UNL A   1      33.960  27.008  23.911  1.00  0.00    -0.207 F 
ATOM     14  C   UNL A   1      30.793  28.536  22.983  1.00  0.00    -0.045 A 
BRANCH  14  15
ATOM     15  C   UNL A   1      30.282  29.706  22.181  1.00  0.00     0.041 C 
BRANCH  15  16
ATOM     16  C   UNL A   1      28.857  30.226  22.482  1.00  0.00     0.022 C 
ATOM     17  C   UNL A   1      28.020  30.594  21.251  1.00  0.00     0.007 C 
ATOM     18  C   UNL A   1      28.736  31.484  23.350  1.00  0.00     0.117 C 
ATOM     19  C   UNL A   1      28.089  32.118  21.110  1.00  0.00     0.003 C 
ATOM     20  C   UNL A   1      28.780  32.643  22.365  1.00  0.00     0.032 C 
BRANCH  18  21
ATOM     21  O   UNL A   1      29.728  31.589  24.349  1.00  0.00    -0.393 OA
ATOM     22  H   UNL A   1      29.306  31.747  25.208  1.00  0.00     0.210 HD
ENDBRANCH  18  21
ENDBRANCH  15  16
ENDBRANCH  14  15
ENDBRANCH   6   8
ENDBRANCH   3   6
ENDBRANCH   1   2
BRANCH   1  23
ATOM     23  C   UNL A   1      36.059  22.688  24.350  1.00  0.00     0.042 C 
BRANCH  23  24
ATOM     24  C   UNL A   1      36.486  22.290  25.759  1.00  0.00     0.118 C 
BRANCH  24  25
ATOM     25  N   UNL A   1      37.434  21.186  25.762  1.00  0.00    -0.352 N 
ATOM     26  C   UNL A   1      38.790  21.201  25.989  1.00  0.00     0.251 C 
ATOM     27  H   UNL A   1      37.049  20.299  25.576  1.00  0.00     0.163 HD
ATOM     28  O   UNL A   1      39.457  20.200  25.744  1.00  0.00    -0.269 OA
BRANCH  26  29
ATOM     29  C   UNL A   1      39.439  22.427  26.502  1.00  0.00     0.039 A 
ATOM     30  C   UNL A   1      40.369  22.324  27.540  1.00  0.00     0.014 A 
ATOM     31  C   UNL A   1      39.127  23.677  25.961  1.00  0.00     0.014 A 
ATOM     32  C   UNL A   1      41.037  23.467  27.991  1.00  0.00     0.010 A 
ATOM     33  C   UNL A   1      39.848  24.799  26.355  1.00  0.00     0.010 A 
ATOM     34  C   UNL A   1      40.807  24.708  27.377  1.00  0.00    -0.014 A 
BRANCH  34  35
ATOM     35  C   UNL A   1      41.520  25.943  27.797  1.00  0.00     0.031 A 
ATOM     36  C   UNL A   1      40.771  27.009  28.548  1.00  0.00     0.074 A 
ATOM     37  C   UNL A   1      42.795  26.152  27.418  1.00  0.00     0.049 A 
ATOM     38  N   UNL A   1      41.132  28.231  28.840  1.00  0.00    -0.248 NA
ATOM     39  C   UNL A   1      39.413  26.658  28.990  1.00  0.00     0.031 C 
ATOM     40  C   UNL A   1      43.621  25.203  26.670  1.00  0.00     0.029 A 
ATOM     41  N   UNL A   1      43.612  27.243  27.585  1.00  0.00    -0.354 N 
ATOM     42  C   UNL A   1      40.036  28.807  29.475  1.00  0.00     0.074 A 
ATOM     43  C   UNL A   1      38.981  27.815  29.463  1.00  0.00     0.031 C 
ATOM     44  C   UNL A   1      44.826  25.752  26.445  1.00  0.00     0.029 A 
ATOM     45  C   UNL A   1      44.841  27.110  26.981  1.00  0.00     0.049 A 
ATOM     46  H   UNL A   1      43.343  28.044  28.089  1.00  0.00     0.167 HD
ATOM     47  C   UNL A   1      39.927  30.039  30.031  1.00  0.00     0.034 A 
ATOM     48  C   UNL A   1      45.851  27.992  26.845  1.00  0.00     0.034 A 
ATOM     49  C   UNL A   1      40.997  31.008  30.037  1.00  0.00     0.049 A 
ATOM     50  C   UNL A   1      45.705  29.370  27.438  1.00  0.00     0.074 A 
ATOM     51  C   UNL A   1      41.017  32.268  30.608  1.00  0.00     0.029 A 
ATOM     52  N   UNL A   1      42.236  30.828  29.433  1.00  0.00    -0.354 N 
ATOM     53  N   UNL A   1      44.673  29.895  28.058  1.00  0.00    -0.248 NA
ATOM     54  C   UNL A   1      46.858  30.271  27.321  1.00  0.00     0.031 C 
ATOM     55  C   UNL A   1      42.237  32.876  30.288  1.00  0.00     0.029 A 
ATOM     56  C   UNL A   1      43.015  31.963  29.594  1.00  0.00     0.049 A 
ATOM     57  H   UNL A   1      42.519  30.012  28.959  1.00  0.00     0.167 HD
ATOM     58  C   UNL A   1      45.069  31.175  28.439  1.00  0.00     0.074 A 
ATOM     59  C   UNL A   1      46.432  31.342  27.976  1.00  0.00     0.031 C 
ATOM     60  C   UNL A   1      44.374  32.118  29.125  1.00  0.00     0.034 A 
BRANCH  47  61
ATOM     61  C   UNL A   1      38.592  30.407  30.638  1.00  0.00     0.023 A 
ATOM     62  C   UNL A   1      37.578  31.020  29.879  1.00  0.00     0.031 A 
ATOM     63  C   UNL A   1      38.350  30.207  32.009  1.00  0.00     0.131 A 
ATOM     64  C   UNL A   1      36.425  31.507  30.511  1.00  0.00     0.055 A 
ATOM     65  C   UNL A   1      37.154  30.603  32.613  1.00  0.00     0.041 A 
ATOM     66  F   UNL A   1      39.282  29.645  32.794  1.00  0.00    -0.206 F 
ATOM     67  C   UNL A   1      36.193  31.279  31.868  1.00  0.00     0.022 A 
BRANCH  64  68
ATOM     68  S   UNL A   1      35.334  32.615  29.575  1.00  0.00     0.124 S 
ATOM     69  O   UNL A   1      34.440  33.101  30.624  1.00  0.00    -0.237 OA
ATOM     70  O   UNL A   1      36.270  33.591  29.030  1.00  0.00    -0.237 OA
ATOM     71  O   UNL A   1      34.709  31.731  28.594  1.00  0.00    -0.744 OA
ENDBRANCH  64  68
ENDBRANCH  47  61
BRANCH  48  72
ATOM     72  C   UNL A   1      47.082  27.603  26.099  1.00  0.00     0.023 A 
ATOM     73  C   UNL A   1      47.212  27.863  24.726  1.00  0.00     0.031 A 
ATOM     74  C   UNL A   1      48.148  26.958  26.753  1.00  0.00     0.131 A 
ATOM     75  C   UNL A   1      48.368  27.453  24.043  1.00  0.00     0.055 A 
ATOM     76  C   UNL A   1      49.316  26.596  26.079  1.00  0.00     0.041 A 
ATOM     77  F   UNL A   1      48.078  26.693  28.067  1.00  0.00    -0.206 F 
ATOM     78  C   UNL A   1      49.427  26.835  24.713  1.00  0.00     0.022 A 
BRANCH  75  79
ATOM     79  S   UNL A   1      48.447  27.689  22.247  1.00  0.00     0.124 S 
ATOM     80  O   UNL A   1      48.630  26.321  21.776  1.00  0.00    -0.237 OA
ATOM     81  O   UNL A   1      47.151  28.298  21.964  1.00  0.00    -0.237 OA
ATOM     82  O   UNL A   1      49.598  28.570  22.070  1.00  0.00    -0.744 OA
ENDBRANCH  75  79
ENDBRANCH  48  72
BRANCH  60  83
ATOM     83  C   UNL A   1      45.098  33.394  29.482  1.00  0.00     0.023 A 
ATOM     84  C   UNL A   1      45.050  34.538  28.668  1.00  0.00     0.031 A 
ATOM     85  C   UNL A   1      45.828  33.465  30.683  1.00  0.00     0.131 A 
ATOM     86  C   UNL A   1      45.750  35.695  29.049  1.00  0.00     0.055 A 
ATOM     87  C   UNL A   1      46.474  34.635  31.084  1.00  0.00     0.041 A 
ATOM     88  F   UNL A   1      45.910  32.400  31.497  1.00  0.00    -0.206 F 
ATOM     89  C   UNL A   1      46.444  35.756  30.261  1.00  0.00     0.022 A 
BRANCH  86  90
ATOM     90  S   UNL A   1      45.796  37.105  27.910  1.00  0.00     0.124 S 
ATOM     91  O   UNL A   1      47.200  37.131  27.516  1.00  0.00    -0.237 OA
ATOM     92  O   UNL A   1      44.850  36.703  26.874  1.00  0.00    -0.237 OA
ATOM     93  O   UNL A   1      45.364  38.230  28.738  1.00  0.00    -0.744 OA
ENDBRANCH  86  90
ENDBRANCH  60  83
ENDBRANCH  34  35
ENDBRANCH  26  29
ENDBRANCH  24  25
ENDBRANCH  23  24
ENDBRANCH   1  23
TORSDOF 17
ENDMDL
MODEL 2
REMARK VINA RESULT:     -11.8      5.017      8.081
REMARK SMILES C[C@@H](C(=O)NCCCNC(=O)c1ccc(-c2c3nc(c(-c4cc(S(=O)(=O)[O-])ccc4F)c4ccc([nH]4)c(-c4cc(S(=O)(=O)[O-])ccc4F)c4nc(c(-c5cc(S(=O)(=O)[O-])ccc5F)c5ccc2[nH]5)C=C4)C=C3)cc1)c1ccc(C[C@@H]2CCC[C@@H]2O)cc1F
REMARK SMILES IDX 6 1 5 2 3 3 4 4 2 6 1 7 75 8 76 9 87 10 77 11 86 12 88 13
REMARK SMILES IDX 78 14 79 15 80 16 81 17 84 18 82 19 83 20 85 21 7 23 8 24
REMARK SMILES IDX 9 25 10 26 11 28 12 29 13 30 74 31 14 32 73 33 15 34 16 35
REMARK SMILES IDX 17 36 67 37 18 38 72 39 66 40 68 41 19 42 71 43 65 44 64 45
REMARK SMILES IDX 20 47 52 48 32 49 51 50 33 51 36 52 50 53 69 54 34 55 35 56
REMARK SMILES IDX 49 58 70 59 37 60 21 61 22 62 30 63 23 64 29 65 31 66 28 67
REMARK SMILES IDX 24 68 25 69 26 70 27 71 53 72 54 73 62 74 55 75 61 76 63 77
REMARK SMILES IDX 60 78 56 79 57 80 58 81 59 82 38 83 39 84 47 85 40 86 46 87
REMARK SMILES IDX 48 88 45 89 41 90 42 91 43 92 44 93
REMARK H PARENT 5 5 85 22 9 27 68 46 36 57
REMARK Flexibility Score: inf
ROOT
ATOM      1  C   UNL A   1      31.806  28.227  26.628  1.00  0.00     0.117 C 
ENDROOT
BRANCH   1   2
ATOM      2  N   UNL A   1      30.966  27.079  26.905  1.00  0.00    -0.356 N 
ATOM      3  C   UNL A   1      30.317  26.236  26.052  1.00  0.00     0.227 C 
ATOM      4  O   UNL A   1      29.580  25.393  26.569  1.00  0.00    -0.274 OA
ATOM      5  H   UNL A   1      30.844  26.876  27.860  1.00  0.00     0.163 HD
BRANCH   3   6
ATOM      6  C   UNL A   1      30.543  26.341  24.533  1.00  0.00     0.108 C 
ATOM      7  C   UNL A   1      29.259  26.108  23.732  1.00  0.00     0.023 C 
BRANCH   6   8
ATOM      8  C   UNL A   1      31.630  25.380  24.074  1.00  0.00    -0.000 A 
ATOM      9  C   UNL A   1      31.417  23.994  24.054  1.00  0.00     0.008 A 
ATOM     10  C   UNL A   1      32.893  25.857  23.718  1.00  0.00     0.127 A 
ATOM     11  C   UNL A   1      32.442  23.119  23.697  1.00  0.00     0.004 A 
ATOM     12  C   UNL A   1      33.927  24.986  23.379  1.00  0.00     0.043 A 
ATOM     13  F   UNL A   1      33.135  27.176  23.710  1.00  0.00    -0.207 F 
ATOM     14  C   UNL A   1      33.719  23.601  23.393  1.00  0.00    -0.045 A 
BRANCH  14  15
ATOM     15  C   UNL A   1      34.858  22.650  23.125  1.00  0.00     0.041 C 
BRANCH  15  16
ATOM     16  C   UNL A   1      35.587  22.028  24.339  1.00  0.00     0.022 C 
ATOM     17  C   UNL A   1      34.712  21.792  25.577  1.00  0.00     0.007 C 
ATOM     18  C   UNL A   1      36.775  22.803  24.919  1.00  0.00     0.117 C 
ATOM     19  C   UNL A   1      34.990  22.950  26.541  1.00  0.00     0.003 C 
ATOM     20  C   UNL A   1      36.165  23.731  25.961  1.00  0.00     0.032 C 
BRANCH  18  21
ATOM     21  O   UNL A   1      37.530  23.502  23.953  1.00  0.00    -0.393 OA
ATOM     22  H   UNL A   1      37.319  24.448  23.999  1.00  0.00     0.210 HD
ENDBRANCH  18  21
ENDBRANCH  15  16
ENDBRANCH  14  15
ENDBRANCH   6   8
ENDBRANCH   3   6
ENDBRANCH   1   2
BRANCH   1  23
ATOM     23  C   UNL A   1      33.282  27.900  26.844  1.00  0.00     0.042 C 
BRANCH  23  24
ATOM     24  C   UNL A   1      34.234  28.950  26.279  1.00  0.00     0.118 C 
BRANCH  24  25
ATOM     25  N   UNL A   1      33.954  30.285  26.787  1.00  0.00    -0.352 N 
ATOM     26  C   UNL A   1      34.587  30.990  27.783  1.00  0.00     0.251 C 
ATOM     27  H   UNL A   1      33.203  30.751  26.354  1.00  0.00     0.163 HD
ATOM     28  O   UNL A   1      34.078  32.021  28.214  1.00  0.00    -0.269 OA
BRANCH  26  29
ATOM     29  C   UNL A   1      35.862  30.493  28.344  1.00  0.00     0.039 A 
ATOM     30  C   UNL A   1      35.843  29.744  29.524  1.00  0.00     0.014 A 
ATOM     31  C   UNL A   1      37.074  30.769  27.709  1.00  0.00     0.014 A 
ATOM     32  C   UNL A   1      37.034  29.215  30.030  1.00  0.00     0.010 A 
ATOM     33  C   UNL A   1      38.246  30.177  28.169  1.00  0.00     0.010 A 
ATOM     34  C   UNL A   1      38.240  29.398  29.337  1.00  0.00    -0.014 A 
BRANCH  34  35
ATOM     35  C   UNL A   1      39.524  28.823  29.816  1.00  0.00     0.031 A 
ATOM     36  C   UNL A   1      40.288  29.527  30.904  1.00  0.00     0.074 A 
ATOM     37  C   UNL A   1      40.051  27.741  29.211  1.00  0.00     0.049 A 
ATOM     38  N   UNL A   1      41.504  29.317  31.336  1.00  0.00    -0.248 NA
ATOM     39  C   UNL A   1      39.598  30.647  31.559  1.00  0.00     0.031 C 
ATOM     40  C   UNL A   1      39.416  26.983  28.132  1.00  0.00     0.029 A 
ATOM     41  N   UNL A   1      41.254  27.107  29.399  1.00  0.00    -0.354 N 
ATOM     42  C   UNL A   1      41.736  30.298  32.296  1.00  0.00     0.074 A 
ATOM     43  C   UNL A   1      40.556  31.136  32.329  1.00  0.00     0.031 C 
ATOM     44  C   UNL A   1      40.234  25.987  27.756  1.00  0.00     0.029 A 
ATOM     45  C   UNL A   1      41.473  26.068  28.524  1.00  0.00     0.049 A 
ATOM     46  H   UNL A   1      41.899  27.372  30.094  1.00  0.00     0.167 HD
ATOM     47  C   UNL A   1      42.825  30.470  33.087  1.00  0.00     0.034 A 
ATOM     48  C   UNL A   1      42.559  25.291  28.339  1.00  0.00     0.034 A 
ATOM     49  C   UNL A   1      43.987  29.615  33.041  1.00  0.00     0.049 A 
ATOM     50  C   UNL A   1      43.775  25.516  29.201  1.00  0.00     0.074 A 
ATOM     51  C   UNL A   1      45.127  29.666  33.824  1.00  0.00     0.029 A 
ATOM     52  N   UNL A   1      44.162  28.559  32.155  1.00  0.00    -0.354 N 
ATOM     53  N   UNL A   1      43.975  26.429  30.123  1.00  0.00    -0.248 NA
ATOM     54  C   UNL A   1      44.907  24.601  29.006  1.00  0.00     0.031 C 
ATOM     55  C   UNL A   1      46.019  28.690  33.364  1.00  0.00     0.029 A 
ATOM     56  C   UNL A   1      45.401  27.970  32.353  1.00  0.00     0.049 A 
ATOM     57  H   UNL A   1      43.502  28.271  31.484  1.00  0.00     0.167 HD
ATOM     58  C   UNL A   1      45.240  26.174  30.644  1.00  0.00     0.074 A 
ATOM     59  C   UNL A   1      45.757  25.023  29.931  1.00  0.00     0.031 C 
ATOM     60  C   UNL A   1      45.906  26.822  31.634  1.00  0.00     0.034 A 
BRANCH  47  61
ATOM     61  C   UNL A   1      42.810  31.650  34.034  1.00  0.00     0.023 A 
ATOM     62  C   UNL A   1      42.335  31.534  35.352  1.00  0.00     0.031 A 
ATOM     63  C   UNL A   1      43.213  32.924  33.594  1.00  0.00     0.131 A 
ATOM     64  C   UNL A   1      42.169  32.681  36.142  1.00  0.00     0.055 A 
ATOM     65  C   UNL A   1      43.142  34.047  34.422  1.00  0.00     0.041 A 
ATOM     66  F   UNL A   1      43.659  33.107  32.341  1.00  0.00    -0.206 F 
ATOM     67  C   UNL A   1      42.595  33.933  35.697  1.00  0.00     0.022 A 
BRANCH  64  68
ATOM     68  S   UNL A   1      41.208  32.539  37.674  1.00  0.00     0.124 S 
ATOM     69  O   UNL A   1      42.046  31.641  38.465  1.00  0.00    -0.237 OA
ATOM     70  O   UNL A   1      41.142  33.922  38.133  1.00  0.00    -0.237 OA
ATOM     71  O   UNL A   1      39.939  31.966  37.231  1.00  0.00    -0.744 OA
ENDBRANCH  64  68
ENDBRANCH  47  61
BRANCH  48  72
ATOM     72  C   UNL A   1      42.551  24.243  27.279  1.00  0.00     0.023 A 
ATOM     73  C   UNL A   1      41.763  23.089  27.405  1.00  0.00     0.031 A 
ATOM     74  C   UNL A   1      43.340  24.381  26.122  1.00  0.00     0.131 A 
ATOM     75  C   UNL A   1      41.803  22.102  26.407  1.00  0.00     0.055 A 
ATOM     76  C   UNL A   1      43.339  23.419  25.110  1.00  0.00     0.041 A 
ATOM     77  F   UNL A   1      44.105  25.470  25.947  1.00  0.00    -0.206 F 
ATOM     78  C   UNL A   1      42.574  22.267  25.254  1.00  0.00     0.022 A 
BRANCH  75  79
ATOM     79  S   UNL A   1      40.874  20.567  26.664  1.00  0.00     0.124 S 
ATOM     80  O   UNL A   1      39.571  20.912  26.108  1.00  0.00    -0.237 OA
ATOM     81  O   UNL A   1      41.663  19.603  25.903  1.00  0.00    -0.237 OA
ATOM     82  O   UNL A   1      40.908  20.388  28.114  1.00  0.00    -0.744 OA
ENDBRANCH  75  79
ENDBRANCH  48  72
BRANCH  60  83
ATOM     83  C   UNL A   1      47.241  26.260  32.059  1.00  0.00     0.023 A 
ATOM     84  C   UNL A   1      47.368  25.346  33.118  1.00  0.00     0.031 A 
ATOM     85  C   UNL A   1      48.406  26.633  31.362  1.00  0.00     0.131 A 
ATOM     86  C   UNL A   1      48.638  24.862  33.473  1.00  0.00     0.055 A 
ATOM     87  C   UNL A   1      49.657  26.105  31.682  1.00  0.00     0.041 A 
ATOM     88  F   UNL A   1      48.342  27.506  30.343  1.00  0.00    -0.206 F 
ATOM     89  C   UNL A   1      49.779  25.220  32.749  1.00  0.00     0.022 A 
BRANCH  86  90
ATOM     90  S   UNL A   1      48.794  23.802  34.936  1.00  0.00     0.124 S 
ATOM     91  O   UNL A   1      48.690  24.770  36.024  1.00  0.00    -0.237 OA
ATOM     92  O   UNL A   1      47.666  22.889  34.785  1.00  0.00    -0.237 OA
ATOM     93  O   UNL A   1      50.112  23.188  34.778  1.00  0.00    -0.744 OA
ENDBRANCH  86  90
ENDBRANCH  60  83
ENDBRANCH  34  35
ENDBRANCH  26  29
ENDBRANCH  24  25
ENDBRANCH  23  24
ENDBRANCH   1  23
TORSDOF 17
ENDMDL
MODEL 3
REMARK VINA RESULT:     -11.7      2.264      8.805
REMARK SMILES C[C@@H](C(=O)NCCCNC(=O)c1ccc(-c2c3nc(c(-c4cc(S(=O)(=O)[O-])ccc4F)c4ccc([nH]4)c(-c4cc(S(=O)(=O)[O-])ccc4F)c4nc(c(-c5cc(S(=O)(=O)[O-])ccc5F)c5ccc2[nH]5)C=C4)C=C3)cc1)c1ccc(C[C@@H]2CCC[C@@H]2O)cc1F
REMARK SMILES IDX 6 1 5 2 3 3 4 4 2 6 1 7 75 8 76 9 87 10 77 11 86 12 88 13
REMARK SMILES IDX 78 14 79 15 80 16 81 17 84 18 82 19 83 20 85 21 7 23 8 24
REMARK SMILES IDX 9 25 10 26 11 28 12 29 13 30 74 31 14 32 73 33 15 34 16 35
REMARK SMILES IDX 17 36 67 37 18 38 72 39 66 40 68 41 19 42 71 43 65 44 64 45
REMARK SMILES IDX 20 47 52 48 32 49 51 50 33 51 36 52 50 53 69 54 34 55 35 56
REMARK SMILES IDX 49 58 70 59 37 60 21 61 22 62 30 63 23 64 29 65 31 66 28 67
REMARK SMILES IDX 24 68 25 69 26 70 27 71 53 72 54 73 62 74 55 75 61 76 63 77
REMARK SMILES IDX 60 78 56 79 57 80 58 81 59 82 38 83 39 84 47 85 40 86 46 87
REMARK SMILES IDX 48 88 45 89 41 90 42 91 43 92 44 93
REMARK H PARENT 5 5 85 22 9 27 68 46 36 57
REMARK Flexibility Score: inf
ROOT
ATOM      1  C   UNL A   1      35.798  23.738  23.832  1.00  0.00     0.117 C 
ENDROOT
BRANCH   1   2
ATOM      2  N   UNL A   1      35.287  24.592  24.885  1.00  0.00    -0.356 N 
ATOM      3  C   UNL A   1      34.067  25.184  25.026  1.00  0.00     0.227 C 
ATOM      4  O   UNL A   1      33.936  25.951  25.983  1.00  0.00    -0.274 OA
ATOM      5  H   UNL A   1      35.922  24.773  25.615  1.00  0.00     0.163 HD
BRANCH   3   6
ATOM      6  C   UNL A   1      32.929  24.863  24.041  1.00  0.00     0.108 C 
ATOM      7  C   UNL A   1      31.639  25.621  24.366  1.00  0.00     0.023 C 
BRANCH   6   8
ATOM      8  C   UNL A   1      32.658  23.366  23.987  1.00  0.00    -0.000 A 
ATOM      9  C   UNL A   1      32.401  22.630  25.152  1.00  0.00     0.008 A 
ATOM     10  C   UNL A   1      32.721  22.679  22.774  1.00  0.00     0.127 A 
ATOM     11  C   UNL A   1      32.223  21.248  25.099  1.00  0.00     0.004 A 
ATOM     12  C   UNL A   1      32.563  21.295  22.716  1.00  0.00     0.043 A 
ATOM     13  F   UNL A   1      32.951  23.347  21.634  1.00  0.00    -0.207 F 
ATOM     14  C   UNL A   1      32.340  20.559  23.887  1.00  0.00    -0.045 A 
BRANCH  14  15
ATOM     15  C   UNL A   1      32.267  19.053  23.846  1.00  0.00     0.041 C 
BRANCH  15  16
ATOM     16  C   UNL A   1      33.478  18.253  24.378  1.00  0.00     0.022 C 
ATOM     17  C   UNL A   1      33.924  17.078  23.499  1.00  0.00     0.007 C 
ATOM     18  C   UNL A   1      33.338  17.597  25.756  1.00  0.00     0.117 C 
ATOM     19  C   UNL A   1      33.345  15.808  24.133  1.00  0.00     0.003 C 
ATOM     20  C   UNL A   1      32.753  16.221  25.477  1.00  0.00     0.032 C 
BRANCH  18  21
ATOM     21  O   UNL A   1      32.556  18.340  26.667  1.00  0.00    -0.393 OA
ATOM     22  H   UNL A   1      31.636  18.035  26.627  1.00  0.00     0.210 HD
ENDBRANCH  18  21
ENDBRANCH  15  16
ENDBRANCH  14  15
ENDBRANCH   6   8
ENDBRANCH   3   6
ENDBRANCH   1   2
BRANCH   1  23
ATOM     23  C   UNL A   1      36.091  22.332  24.349  1.00  0.00     0.042 C 
BRANCH  23  24
ATOM     24  C   UNL A   1      36.643  22.301  25.770  1.00  0.00     0.118 C 
BRANCH  24  25
ATOM     25  N   UNL A   1      37.716  21.330  25.928  1.00  0.00    -0.352 N 
ATOM     26  C   UNL A   1      39.046  21.539  26.209  1.00  0.00     0.251 C 
ATOM     27  H   UNL A   1      37.453  20.389  25.818  1.00  0.00     0.163 HD
ATOM     28  O   UNL A   1      39.842  20.610  26.098  1.00  0.00    -0.269 OA
BRANCH  26  29
ATOM     29  C   UNL A   1      39.512  22.880  26.621  1.00  0.00     0.039 A 
ATOM     30  C   UNL A   1      40.383  22.997  27.708  1.00  0.00     0.014 A 
ATOM     31  C   UNL A   1      39.088  24.022  25.937  1.00  0.00     0.014 A 
ATOM     32  C   UNL A   1      40.882  24.253  28.066  1.00  0.00     0.010 A 
ATOM     33  C   UNL A   1      39.645  25.258  26.244  1.00  0.00     0.010 A 
ATOM     34  C   UNL A   1      40.543  25.389  27.315  1.00  0.00    -0.014 A 
BRANCH  34  35
ATOM     35  C   UNL A   1      41.078  26.738  27.636  1.00  0.00     0.031 A 
ATOM     36  C   UNL A   1      42.519  27.051  27.342  1.00  0.00     0.074 A 
ATOM     37  C   UNL A   1      40.308  27.638  28.279  1.00  0.00     0.049 A 
ATOM     38  N   UNL A   1      43.240  28.078  27.709  1.00  0.00    -0.248 NA
ATOM     39  C   UNL A   1      43.255  26.043  26.565  1.00  0.00     0.031 C 
ATOM     40  C   UNL A   1      38.902  27.445  28.638  1.00  0.00     0.029 A 
ATOM     41  N   UNL A   1      40.609  28.884  28.772  1.00  0.00    -0.354 N 
ATOM     42  C   UNL A   1      44.523  27.828  27.233  1.00  0.00     0.074 A 
ATOM     43  C   UNL A   1      44.488  26.522  26.609  1.00  0.00     0.031 C 
ATOM     44  C   UNL A   1      38.463  28.533  29.289  1.00  0.00     0.029 A 
ATOM     45  C   UNL A   1      39.567  29.476  29.447  1.00  0.00     0.049 A 
ATOM     46  H   UNL A   1      41.487  29.312  28.654  1.00  0.00     0.167 HD
ATOM     47  C   UNL A   1      45.622  28.622  27.294  1.00  0.00     0.034 A 
ATOM     48  C   UNL A   1      39.515  30.630  30.142  1.00  0.00     0.034 A 
ATOM     49  C   UNL A   1      45.629  29.925  27.914  1.00  0.00     0.049 A 
ATOM     50  C   UNL A   1      40.752  31.487  30.231  1.00  0.00     0.074 A 
ATOM     51  C   UNL A   1      46.668  30.835  27.997  1.00  0.00     0.029 A 
ATOM     52  N   UNL A   1      44.547  30.500  28.569  1.00  0.00    -0.354 N 
ATOM     53  N   UNL A   1      41.953  31.253  29.755  1.00  0.00    -0.248 NA
ATOM     54  C   UNL A   1      40.626  32.766  30.942  1.00  0.00     0.031 C 
ATOM     55  C   UNL A   1      46.237  31.925  28.762  1.00  0.00     0.029 A 
ATOM     56  C   UNL A   1      44.902  31.738  29.082  1.00  0.00     0.049 A 
ATOM     57  H   UNL A   1      43.657  30.088  28.657  1.00  0.00     0.167 HD
ATOM     58  C   UNL A   1      42.715  32.373  30.076  1.00  0.00     0.074 A 
ATOM     59  C   UNL A   1      41.838  33.280  30.789  1.00  0.00     0.031 C 
ATOM     60  C   UNL A   1      44.017  32.634  29.792  1.00  0.00     0.034 A 
BRANCH  47  61
ATOM     61  C   UNL A   1      46.903  28.074  26.706  1.00  0.00     0.023 A 
ATOM     62  C   UNL A   1      47.215  28.227  25.342  1.00  0.00     0.031 A 
ATOM     63  C   UNL A   1      47.793  27.330  27.500  1.00  0.00     0.131 A 
ATOM     64  C   UNL A   1      48.319  27.556  24.796  1.00  0.00     0.055 A 
ATOM     65  C   UNL A   1      48.948  26.750  26.970  1.00  0.00     0.041 A 
ATOM     66  F   UNL A   1      47.545  27.130  28.804  1.00  0.00    -0.206 F 
ATOM     67  C   UNL A   1      49.204  26.841  25.605  1.00  0.00     0.022 A 
BRANCH  64  68
ATOM     68  S   UNL A   1      48.464  27.468  22.990  1.00  0.00     0.124 S 
ATOM     69  O   UNL A   1      48.422  26.025  22.761  1.00  0.00    -0.237 OA
ATOM     70  O   UNL A   1      47.298  28.220  22.543  1.00  0.00    -0.237 OA
ATOM     71  O   UNL A   1      49.756  28.097  22.719  1.00  0.00    -0.744 OA
ENDBRANCH  64  68
ENDBRANCH  47  61
BRANCH  48  72
ATOM     72  C   UNL A   1      38.251  31.031  30.824  1.00  0.00     0.023 A 
ATOM     73  C   UNL A   1      37.260  31.758  30.147  1.00  0.00     0.031 A 
ATOM     74  C   UNL A   1      38.020  30.695  32.170  1.00  0.00     0.131 A 
ATOM     75  C   UNL A   1      36.096  32.152  30.825  1.00  0.00     0.055 A 
ATOM     76  C   UNL A   1      36.839  31.048  32.826  1.00  0.00     0.041 A 
ATOM     77  F   UNL A   1      38.932  29.993  32.861  1.00  0.00    -0.206 F 
ATOM     78  C   UNL A   1      35.872  31.789  32.155  1.00  0.00     0.022 A 
BRANCH  75  79
ATOM     79  S   UNL A   1      34.897  33.201  29.958  1.00  0.00     0.124 S 
ATOM     80  O   UNL A   1      35.754  34.251  29.421  1.00  0.00    -0.237 OA
ATOM     81  O   UNL A   1      34.330  32.272  28.985  1.00  0.00    -0.237 OA
ATOM     82  O   UNL A   1      33.983  33.621  31.019  1.00  0.00    -0.744 OA
ENDBRANCH  75  79
ENDBRANCH  48  72
BRANCH  60  83
ATOM     83  C   UNL A   1      44.558  33.986  30.188  1.00  0.00     0.023 A 
ATOM     84  C   UNL A   1      44.458  35.110  29.352  1.00  0.00     0.031 A 
ATOM     85  C   UNL A   1      45.163  34.151  31.449  1.00  0.00     0.131 A 
ATOM     86  C   UNL A   1      44.986  36.342  29.771  1.00  0.00     0.055 A 
ATOM     87  C   UNL A   1      45.635  35.389  31.883  1.00  0.00     0.041 A 
ATOM     88  F   UNL A   1      45.288  33.109  32.287  1.00  0.00    -0.206 F 
ATOM     89  C   UNL A   1      45.555  36.493  31.039  1.00  0.00     0.022 A 
BRANCH  86  90
ATOM     90  S   UNL A   1      44.978  37.738  28.614  1.00  0.00     0.124 S 
ATOM     91  O   UNL A   1      44.705  38.865  29.500  1.00  0.00    -0.237 OA
ATOM     92  O   UNL A   1      46.321  37.684  28.047  1.00  0.00    -0.237 OA
ATOM     93  O   UNL A   1      43.900  37.407  27.683  1.00  0.00    -0.744 OA
ENDBRANCH  86  90
ENDBRANCH  60  83
ENDBRANCH  34  35
ENDBRANCH  26  29
ENDBRANCH  24  25
ENDBRANCH  23  24
ENDBRANCH   1  23
TORSDOF 17
ENDMDL
