MODEL 1
REMARK VINA RESULT:     -13.7      0.000      0.000
REMARK SMILES Cc1nn(-c2ccccc2)c(C)c1CNC(=O)[C@@H]1[C@@H](C(=O)NCCCNC(=O)c2ccc(-c3c4nc(c(-c5cc(S(=O)(=O)[O-])ccc5F)c5ccc([nH]5)c(-c5cc(S(=O)(=O)[O-])ccc5F)c5nc(c(-c6cc(S(=O)(=O)[O-])ccc6F)c6ccc3[nH]6)C=C5)C=C4)cc2)[C@@H]2C=C[C@H]1C2
REMARK SMILES IDX 23 1 22 2 20 3 21 4 19 6 18 7 95 8 92 9 94 10 96 11 93 12
REMARK SMILES IDX 16 13 15 14 17 16 14 17 13 18 1 19 2 20 3 21 4 22 11 23
REMARK SMILES IDX 12 24 5 25 6 26 10 27 7 28 9 29 8 30 24 31 25 32 26 33 27 34
REMARK SMILES IDX 28 36 29 37 30 38 91 39 31 40 90 41 32 42 33 43 34 44 84 45
REMARK SMILES IDX 35 46 89 47 83 48 85 49 36 50 88 51 82 52 81 53 37 55 69 56
REMARK SMILES IDX 49 57 68 58 50 59 53 60 67 61 86 62 51 63 52 64 66 66 87 67
REMARK SMILES IDX 54 68 38 69 39 70 47 71 40 72 46 73 48 74 45 75 41 76 42 77
REMARK SMILES IDX 43 78 44 79 70 80 71 81 79 82 72 83 78 84 80 85 77 86 73 87
REMARK SMILES IDX 74 88 75 89 76 90 55 91 56 92 64 93 57 94 63 95 65 96 62 97
REMARK SMILES IDX 58 98 59 99 60 100 61 101
REMARK H PARENT 22 5 15 15 26 35 85 54 53 65
REMARK Flexibility Score: inf
ROOT
ATOM      1  C   UNL A   1      33.290  29.623  26.614  1.00  0.00     0.117 C 
ENDROOT
BRANCH   1   2
ATOM      2  N   UNL A   1      33.706  29.215  25.283  1.00  0.00    -0.356 N 
ATOM      3  C   UNL A   1      33.315  28.240  24.434  1.00  0.00     0.224 C 
ATOM      4  O   UNL A   1      34.114  27.976  23.527  1.00  0.00    -0.275 OA
ATOM      5  H   UNL A   1      34.433  29.772  24.920  1.00  0.00     0.163 HD
BRANCH   3   6
ATOM      6  C   UNL A   1      32.014  27.445  24.509  1.00  0.00     0.098 C 
ATOM      7  C   UNL A   1      32.054  25.888  24.424  1.00  0.00     0.098 C 
ATOM      8  C   UNL A   1      30.940  25.633  23.350  1.00  0.00     0.025 C 
ATOM      9  C   UNL A   1      31.006  27.869  23.415  1.00  0.00     0.025 C 
ATOM     10  C   UNL A   1      29.591  26.111  23.842  1.00  0.00    -0.027 C 
ATOM     11  C   UNL A   1      31.173  26.780  22.364  1.00  0.00     0.017 C 
ATOM     12  C   UNL A   1      29.633  27.451  23.897  1.00  0.00    -0.027 C 
BRANCH   7  13
ATOM     13  C   UNL A   1      31.803  25.146  25.745  1.00  0.00     0.224 C 
ATOM     14  N   UNL A   1      31.819  23.784  25.809  1.00  0.00    -0.352 N 
ATOM     15  H   UNL A   1      31.629  23.430  26.708  1.00  0.00     0.163 HD
ATOM     16  O   UNL A   1      31.546  25.731  26.799  1.00  0.00    -0.275 OA
BRANCH  14  17
ATOM     17  C   UNL A   1      32.059  22.748  24.817  1.00  0.00     0.155 C 
BRANCH  17  18
ATOM     18  C   UNL A   1      33.502  22.766  24.417  1.00  0.00     0.016 A 
ATOM     19  C   UNL A   1      33.406  23.373  21.871  1.00  0.00     0.069 C 
ATOM     20  C   UNL A   1      34.089  23.103  23.163  1.00  0.00     0.065 A 
ATOM     21  N   UNL A   1      35.425  23.204  23.238  1.00  0.00    -0.173 NA
ATOM     22  N   UNL A   1      35.732  22.788  24.488  1.00  0.00    -0.237 N 
ATOM     23  C   UNL A   1      34.599  22.519  25.224  1.00  0.00     0.046 A 
ATOM     24  C   UNL A   1      34.655  22.189  26.663  1.00  0.00     0.067 C 
BRANCH  22  25
ATOM     25  C   UNL A   1      37.051  22.787  25.002  1.00  0.00     0.065 A 
ATOM     26  C   UNL A   1      37.513  23.907  25.696  1.00  0.00     0.028 A 
ATOM     27  C   UNL A   1      37.776  21.585  25.026  1.00  0.00     0.028 A 
ATOM     28  C   UNL A   1      38.657  23.784  26.491  1.00  0.00     0.002 A 
ATOM     29  C   UNL A   1      38.921  21.475  25.809  1.00  0.00     0.002 A 
ATOM     30  C   UNL A   1      39.347  22.569  26.559  1.00  0.00     0.000 A 
ENDBRANCH  22  25
ENDBRANCH  17  18
ENDBRANCH  14  17
ENDBRANCH   7  13
ENDBRANCH   3   6
ENDBRANCH   1   2
BRANCH   1  31
ATOM     31  C   UNL A   1      34.358  30.475  27.305  1.00  0.00     0.042 C 
BRANCH  31  32
ATOM     32  C   UNL A   1      35.446  29.615  27.892  1.00  0.00     0.118 C 
BRANCH  32  33
ATOM     33  N   UNL A   1      35.636  29.838  29.330  1.00  0.00    -0.352 N 
ATOM     34  C   UNL A   1      36.676  29.358  30.125  1.00  0.00     0.251 C 
ATOM     35  H   UNL A   1      34.954  30.386  29.782  1.00  0.00     0.163 HD
ATOM     36  O   UNL A   1      36.575  29.311  31.332  1.00  0.00    -0.269 OA
BRANCH  34  37
ATOM     37  C   UNL A   1      37.892  28.909  29.418  1.00  0.00     0.039 A 
ATOM     38  C   UNL A   1      38.445  29.589  28.334  1.00  0.00     0.014 A 
ATOM     39  C   UNL A   1      38.561  27.847  30.005  1.00  0.00     0.014 A 
ATOM     40  C   UNL A   1      39.727  29.224  27.923  1.00  0.00     0.010 A 
ATOM     41  C   UNL A   1      39.906  27.751  29.831  1.00  0.00     0.010 A 
ATOM     42  C   UNL A   1      40.469  28.317  28.705  1.00  0.00    -0.014 A 
BRANCH  42  43
ATOM     43  C   UNL A   1      41.854  27.961  28.425  1.00  0.00     0.031 A 
ATOM     44  C   UNL A   1      42.014  26.722  27.631  1.00  0.00     0.074 A 
ATOM     45  C   UNL A   1      42.905  28.763  28.723  1.00  0.00     0.049 A 
ATOM     46  N   UNL A   1      42.356  25.565  28.083  1.00  0.00    -0.248 NA
ATOM     47  C   UNL A   1      41.564  26.702  26.231  1.00  0.00     0.031 C 
ATOM     48  C   UNL A   1      42.918  30.125  29.281  1.00  0.00     0.029 A 
ATOM     49  N   UNL A   1      44.228  28.539  28.503  1.00  0.00    -0.354 N 
ATOM     50  C   UNL A   1      42.421  24.723  26.982  1.00  0.00     0.074 A 
ATOM     51  C   UNL A   1      41.724  25.410  25.926  1.00  0.00     0.031 C 
ATOM     52  C   UNL A   1      44.141  30.681  29.130  1.00  0.00     0.029 A 
ATOM     53  C   UNL A   1      45.049  29.654  28.661  1.00  0.00     0.049 A 
ATOM     54  H   UNL A   1      44.579  27.655  28.252  1.00  0.00     0.167 HD
ATOM     55  C   UNL A   1      43.252  23.645  26.986  1.00  0.00     0.034 A 
ATOM     56  C   UNL A   1      46.393  29.728  28.461  1.00  0.00     0.034 A 
ATOM     57  C   UNL A   1      43.735  23.376  28.325  1.00  0.00     0.049 A 
ATOM     58  C   UNL A   1      46.898  28.340  28.610  1.00  0.00     0.074 A 
ATOM     59  C   UNL A   1      43.125  23.058  29.524  1.00  0.00     0.029 A 
ATOM     60  N   UNL A   1      44.986  23.848  28.662  1.00  0.00    -0.354 N 
ATOM     61  N   UNL A   1      46.835  27.686  29.741  1.00  0.00    -0.248 NA
ATOM     62  C   UNL A   1      46.965  27.505  27.420  1.00  0.00     0.031 C 
ATOM     63  C   UNL A   1      43.819  23.835  30.501  1.00  0.00     0.029 A 
ATOM     64  C   UNL A   1      44.873  24.499  29.868  1.00  0.00     0.049 A 
ATOM     65  H   UNL A   1      45.810  23.739  28.134  1.00  0.00     0.167 HD
ATOM     66  C   UNL A   1      46.407  26.412  29.398  1.00  0.00     0.074 A 
ATOM     67  C   UNL A   1      46.592  26.333  27.947  1.00  0.00     0.031 C 
ATOM     68  C   UNL A   1      45.681  25.643  30.264  1.00  0.00     0.034 A 
BRANCH  55  69
ATOM     69  C   UNL A   1      43.924  23.058  25.769  1.00  0.00     0.023 A 
ATOM     70  C   UNL A   1      43.730  21.685  25.528  1.00  0.00     0.031 A 
ATOM     71  C   UNL A   1      44.949  23.678  25.021  1.00  0.00     0.131 A 
ATOM     72  C   UNL A   1      44.586  20.975  24.670  1.00  0.00     0.055 A 
ATOM     73  C   UNL A   1      45.756  22.981  24.119  1.00  0.00     0.041 A 
ATOM     74  F   UNL A   1      45.293  24.960  25.189  1.00  0.00    -0.206 F 
ATOM     75  C   UNL A   1      45.600  21.614  23.964  1.00  0.00     0.022 A 
BRANCH  72  76
ATOM     76  S   UNL A   1      44.465  19.168  24.640  1.00  0.00     0.124 S 
ATOM     77  O   UNL A   1      45.409  18.790  25.686  1.00  0.00    -0.237 OA
ATOM     78  O   UNL A   1      43.053  18.958  24.939  1.00  0.00    -0.237 OA
ATOM     79  O   UNL A   1      44.873  18.826  23.279  1.00  0.00    -0.744 OA
ENDBRANCH  72  76
ENDBRANCH  55  69
BRANCH  56  80
ATOM     80  C   UNL A   1      47.117  30.818  27.738  1.00  0.00     0.023 A 
ATOM     81  C   UNL A   1      46.476  31.935  27.158  1.00  0.00     0.031 A 
ATOM     82  C   UNL A   1      48.528  30.875  27.824  1.00  0.00     0.131 A 
ATOM     83  C   UNL A   1      47.241  33.039  26.698  1.00  0.00     0.055 A 
ATOM     84  C   UNL A   1      49.275  31.968  27.376  1.00  0.00     0.041 A 
ATOM     85  F   UNL A   1      49.225  29.898  28.426  1.00  0.00    -0.206 F 
ATOM     86  C   UNL A   1      48.633  33.060  26.817  1.00  0.00     0.022 A 
BRANCH  83  87
ATOM     87  S   UNL A   1      46.429  34.512  25.986  1.00  0.00     0.124 S 
ATOM     88  O   UNL A   1      47.553  35.243  25.412  1.00  0.00    -0.237 OA
ATOM     89  O   UNL A   1      45.486  33.924  25.042  1.00  0.00    -0.237 OA
ATOM     90  O   UNL A   1      45.809  35.159  27.144  1.00  0.00    -0.744 OA
ENDBRANCH  83  87
ENDBRANCH  56  80
BRANCH  68  91
ATOM     91  C   UNL A   1      45.556  26.098  31.710  1.00  0.00     0.023 A 
ATOM     92  C   UNL A   1      44.408  26.693  32.287  1.00  0.00     0.031 A 
ATOM     93  C   UNL A   1      46.623  25.779  32.568  1.00  0.00     0.131 A 
ATOM     94  C   UNL A   1      44.369  26.947  33.677  1.00  0.00     0.055 A 
ATOM     95  C   UNL A   1      46.570  26.010  33.941  1.00  0.00     0.041 A 
ATOM     96  F   UNL A   1      47.731  25.191  32.086  1.00  0.00    -0.206 F 
ATOM     97  C   UNL A   1      45.444  26.599  34.501  1.00  0.00     0.022 A 
BRANCH  94  98
ATOM     98  S   UNL A   1      42.922  27.753  34.446  1.00  0.00     0.124 S 
ATOM     99  O   UNL A   1      43.504  28.877  35.171  1.00  0.00    -0.237 OA
ATOM    100  O   UNL A   1      42.096  28.097  33.291  1.00  0.00    -0.237 OA
ATOM    101  O   UNL A   1      42.361  26.705  35.300  1.00  0.00    -0.744 OA
ENDBRANCH  94  98
ENDBRANCH  68  91
ENDBRANCH  42  43
ENDBRANCH  34  37
ENDBRANCH  32  33
ENDBRANCH  31  32
ENDBRANCH   1  31
TORSDOF 17
ENDMDL
MODEL 2
REMARK VINA RESULT:     -13.3      1.464      2.052
REMARK SMILES Cc1nn(-c2ccccc2)c(C)c1CNC(=O)[C@@H]1[C@@H](C(=O)NCCCNC(=O)c2ccc(-c3c4nc(c(-c5cc(S(=O)(=O)[O-])ccc5F)c5ccc([nH]5)c(-c5cc(S(=O)(=O)[O-])ccc5F)c5nc(c(-c6cc(S(=O)(=O)[O-])ccc6F)c6ccc3[nH]6)C=C5)C=C4)cc2)[C@@H]2C=C[C@H]1C2
REMARK SMILES IDX 23 1 22 2 20 3 21 4 19 6 18 7 95 8 92 9 94 10 96 11 93 12
REMARK SMILES IDX 16 13 15 14 17 16 14 17 13 18 1 19 2 20 3 21 4 22 11 23
REMARK SMILES IDX 12 24 5 25 6 26 10 27 7 28 9 29 8 30 24 31 25 32 26 33 27 34
REMARK SMILES IDX 28 36 29 37 30 38 91 39 31 40 90 41 32 42 33 43 34 44 84 45
REMARK SMILES IDX 35 46 89 47 83 48 85 49 36 50 88 51 82 52 81 53 37 55 69 56
REMARK SMILES IDX 49 57 68 58 50 59 53 60 67 61 86 62 51 63 52 64 66 66 87 67
REMARK SMILES IDX 54 68 38 69 39 70 47 71 40 72 46 73 48 74 45 75 41 76 42 77
REMARK SMILES IDX 43 78 44 79 70 80 71 81 79 82 72 83 78 84 80 85 77 86 73 87
REMARK SMILES IDX 74 88 75 89 76 90 55 91 56 92 64 93 57 94 63 95 65 96 62 97
REMARK SMILES IDX 58 98 59 99 60 100 61 101
REMARK H PARENT 22 5 15 15 26 35 85 54 53 65
REMARK Flexibility Score: inf
ROOT
ATOM      1  C   UNL A   1      33.270  29.961  26.731  1.00  0.00     0.117 C 
ENDROOT
BRANCH   1   2
ATOM      2  N   UNL A   1      33.449  28.528  26.580  1.00  0.00    -0.356 N 
ATOM      3  C   UNL A   1      32.763  27.558  25.936  1.00  0.00     0.224 C 
ATOM      4  O   UNL A   1      33.015  26.402  26.298  1.00  0.00    -0.275 OA
ATOM      5  H   UNL A   1      34.246  28.188  27.048  1.00  0.00     0.163 HD
BRANCH   3   6
ATOM      6  C   UNL A   1      31.718  27.764  24.843  1.00  0.00     0.098 C 
ATOM      7  C   UNL A   1      31.431  26.620  23.823  1.00  0.00     0.098 C 
ATOM      8  C   UNL A   1      31.495  27.417  22.474  1.00  0.00     0.025 C 
ATOM      9  C   UNL A   1      32.026  29.000  23.965  1.00  0.00     0.025 C 
ATOM     10  C   UNL A   1      30.414  28.475  22.416  1.00  0.00    -0.027 C 
ATOM     11  C   UNL A   1      32.657  28.382  22.725  1.00  0.00     0.017 C 
ATOM     12  C   UNL A   1      30.721  29.417  23.320  1.00  0.00    -0.027 C 
BRANCH   7  13
ATOM     13  C   UNL A   1      30.103  25.873  24.022  1.00  0.00     0.224 C 
ATOM     14  N   UNL A   1      29.990  24.541  23.751  1.00  0.00    -0.352 N 
ATOM     15  H   UNL A   1      29.085  24.184  23.906  1.00  0.00     0.163 HD
ATOM     16  O   UNL A   1      29.074  26.434  24.402  1.00  0.00    -0.275 OA
BRANCH  14  17
ATOM     17  C   UNL A   1      30.935  23.541  23.281  1.00  0.00     0.155 C 
BRANCH  17  18
ATOM     18  C   UNL A   1      31.936  23.256  24.357  1.00  0.00     0.016 A 
ATOM     19  C   UNL A   1      30.443  22.558  26.392  1.00  0.00     0.069 C 
ATOM     20  C   UNL A   1      31.730  22.765  25.679  1.00  0.00     0.065 A 
ATOM     21  N   UNL A   1      32.881  22.439  26.286  1.00  0.00    -0.173 NA
ATOM     22  N   UNL A   1      33.848  22.851  25.436  1.00  0.00    -0.237 N 
ATOM     23  C   UNL A   1      33.315  23.346  24.265  1.00  0.00     0.046 A 
ATOM     24  C   UNL A   1      34.159  23.727  23.114  1.00  0.00     0.067 C 
BRANCH  22  25
ATOM     25  C   UNL A   1      35.229  22.648  25.674  1.00  0.00     0.065 A 
ATOM     26  C   UNL A   1      35.779  21.384  25.454  1.00  0.00     0.028 A 
ATOM     27  C   UNL A   1      36.059  23.761  25.880  1.00  0.00     0.028 A 
ATOM     28  C   UNL A   1      37.168  21.262  25.349  1.00  0.00     0.002 A 
ATOM     29  C   UNL A   1      37.441  23.628  25.788  1.00  0.00     0.002 A 
ATOM     30  C   UNL A   1      37.993  22.382  25.500  1.00  0.00     0.000 A 
ENDBRANCH  22  25
ENDBRANCH  17  18
ENDBRANCH  14  17
ENDBRANCH   7  13
ENDBRANCH   3   6
ENDBRANCH   1   2
BRANCH   1  31
ATOM     31  C   UNL A   1      34.497  30.621  27.366  1.00  0.00     0.042 C 
BRANCH  31  32
ATOM     32  C   UNL A   1      35.395  29.597  28.009  1.00  0.00     0.118 C 
BRANCH  32  33
ATOM     33  N   UNL A   1      35.618  29.850  29.438  1.00  0.00    -0.352 N 
ATOM     34  C   UNL A   1      36.661  29.367  30.224  1.00  0.00     0.251 C 
ATOM     35  H   UNL A   1      34.957  30.425  29.889  1.00  0.00     0.163 HD
ATOM     36  O   UNL A   1      36.583  29.351  31.434  1.00  0.00    -0.269 OA
BRANCH  34  37
ATOM     37  C   UNL A   1      37.854  28.873  29.506  1.00  0.00     0.039 A 
ATOM     38  C   UNL A   1      38.401  29.514  28.397  1.00  0.00     0.014 A 
ATOM     39  C   UNL A   1      38.508  27.809  30.106  1.00  0.00     0.014 A 
ATOM     40  C   UNL A   1      39.667  29.110  27.971  1.00  0.00     0.010 A 
ATOM     41  C   UNL A   1      39.848  27.678  29.909  1.00  0.00     0.010 A 
ATOM     42  C   UNL A   1      40.402  28.204  28.759  1.00  0.00    -0.014 A 
BRANCH  42  43
ATOM     43  C   UNL A   1      41.773  27.810  28.463  1.00  0.00     0.031 A 
ATOM     44  C   UNL A   1      41.888  26.584  27.641  1.00  0.00     0.074 A 
ATOM     45  C   UNL A   1      42.852  28.570  28.771  1.00  0.00     0.049 A 
ATOM     46  N   UNL A   1      42.194  25.407  28.066  1.00  0.00    -0.248 NA
ATOM     47  C   UNL A   1      41.429  26.609  26.245  1.00  0.00     0.031 C 
ATOM     48  C   UNL A   1      42.912  29.919  29.358  1.00  0.00     0.029 A 
ATOM     49  N   UNL A   1      44.165  28.309  28.537  1.00  0.00    -0.354 N 
ATOM     50  C   UNL A   1      42.225  24.587  26.947  1.00  0.00     0.074 A 
ATOM     51  C   UNL A   1      41.544  25.320  25.910  1.00  0.00     0.031 C 
ATOM     52  C   UNL A   1      44.151  30.438  29.211  1.00  0.00     0.029 A 
ATOM     53  C   UNL A   1      45.023  29.392  28.713  1.00  0.00     0.049 A 
ATOM     54  H   UNL A   1      44.485  27.419  28.265  1.00  0.00     0.167 HD
ATOM     55  C   UNL A   1      43.021  23.483  26.922  1.00  0.00     0.034 A 
ATOM     56  C   UNL A   1      46.368  29.427  28.506  1.00  0.00     0.034 A 
ATOM     57  C   UNL A   1      43.502  23.170  28.252  1.00  0.00     0.049 A 
ATOM     58  C   UNL A   1      46.828  28.021  28.622  1.00  0.00     0.074 A 
ATOM     59  C   UNL A   1      42.890  22.845  29.447  1.00  0.00     0.029 A 
ATOM     60  N   UNL A   1      44.770  23.593  28.590  1.00  0.00    -0.354 N 
ATOM     61  N   UNL A   1      46.750  27.345  29.739  1.00  0.00    -0.248 NA
ATOM     62  C   UNL A   1      46.860  27.210  27.413  1.00  0.00     0.031 C 
ATOM     63  C   UNL A   1      43.615  23.578  30.437  1.00  0.00     0.029 A 
ATOM     64  C   UNL A   1      44.686  24.221  29.811  1.00  0.00     0.049 A 
ATOM     65  H   UNL A   1      45.587  23.469  28.055  1.00  0.00     0.167 HD
ATOM     66  C   UNL A   1      46.279  26.093  29.372  1.00  0.00     0.074 A 
ATOM     67  C   UNL A   1      46.452  26.039  27.918  1.00  0.00     0.031 C 
ATOM     68  C   UNL A   1      45.533  25.329  30.226  1.00  0.00     0.034 A 
BRANCH  55  69
ATOM     69  C   UNL A   1      43.666  22.901  25.688  1.00  0.00     0.023 A 
ATOM     70  C   UNL A   1      43.599  21.504  25.527  1.00  0.00     0.031 A 
ATOM     71  C   UNL A   1      44.568  23.579  24.839  1.00  0.00     0.131 A 
ATOM     72  C   UNL A   1      44.464  20.838  24.643  1.00  0.00     0.055 A 
ATOM     73  C   UNL A   1      45.380  22.918  23.914  1.00  0.00     0.041 A 
ATOM     74  F   UNL A   1      44.788  24.896  24.921  1.00  0.00    -0.206 F 
ATOM     75  C   UNL A   1      45.356  21.536  23.835  1.00  0.00     0.022 A 
BRANCH  72  76
ATOM     76  S   UNL A   1      44.529  19.029  24.707  1.00  0.00     0.124 S 
ATOM     77  O   UNL A   1      43.163  18.696  25.097  1.00  0.00    -0.237 OA
ATOM     78  O   UNL A   1      44.909  18.695  23.339  1.00  0.00    -0.237 OA
ATOM     79  O   UNL A   1      45.548  18.764  25.720  1.00  0.00    -0.744 OA
ENDBRANCH  72  76
ENDBRANCH  55  69
BRANCH  56  80
ATOM     80  C   UNL A   1      47.122  30.508  27.802  1.00  0.00     0.023 A 
ATOM     81  C   UNL A   1      46.506  31.612  27.171  1.00  0.00     0.031 A 
ATOM     82  C   UNL A   1      48.527  30.575  27.958  1.00  0.00     0.131 A 
ATOM     83  C   UNL A   1      47.288  32.712  26.731  1.00  0.00     0.055 A 
ATOM     84  C   UNL A   1      49.290  31.664  27.529  1.00  0.00     0.041 A 
ATOM     85  F   UNL A   1      49.197  29.612  28.611  1.00  0.00    -0.206 F 
ATOM     86  C   UNL A   1      48.672  32.743  26.920  1.00  0.00     0.022 A 
BRANCH  83  87
ATOM     87  S   UNL A   1      46.507  34.168  25.953  1.00  0.00     0.124 S 
ATOM     88  O   UNL A   1      47.542  34.624  25.032  1.00  0.00    -0.237 OA
ATOM     89  O   UNL A   1      45.308  33.596  25.352  1.00  0.00    -0.237 OA
ATOM     90  O   UNL A   1      46.255  35.068  27.080  1.00  0.00    -0.744 OA
ENDBRANCH  83  87
ENDBRANCH  56  80
BRANCH  68  91
ATOM     91  C   UNL A   1      45.433  25.756  31.681  1.00  0.00     0.023 A 
ATOM     92  C   UNL A   1      46.424  25.543  32.670  1.00  0.00     0.031 A 
ATOM     93  C   UNL A   1      44.322  26.541  32.036  1.00  0.00     0.131 A 
ATOM     94  C   UNL A   1      46.270  26.108  33.957  1.00  0.00     0.055 A 
ATOM     95  C   UNL A   1      44.186  27.116  33.298  1.00  0.00     0.041 A 
ATOM     96  F   UNL A   1      43.358  26.800  31.136  1.00  0.00    -0.206 F 
ATOM     97  C   UNL A   1      45.159  26.898  34.265  1.00  0.00     0.022 A 
BRANCH  94  98
ATOM     98  S   UNL A   1      47.508  25.816  35.267  1.00  0.00     0.124 S 
ATOM     99  O   UNL A   1      46.984  24.656  35.978  1.00  0.00    -0.237 OA
ATOM    100  O   UNL A   1      48.735  25.597  34.505  1.00  0.00    -0.237 OA
ATOM    101  O   UNL A   1      47.490  27.061  36.038  1.00  0.00    -0.744 OA
ENDBRANCH  94  98
ENDBRANCH  68  91
ENDBRANCH  42  43
ENDBRANCH  34  37
ENDBRANCH  32  33
ENDBRANCH  31  32
ENDBRANCH   1  31
TORSDOF 17
ENDMDL
MODEL 3
REMARK VINA RESULT:     -13.2      1.821      2.501
REMARK SMILES Cc1nn(-c2ccccc2)c(C)c1CNC(=O)[C@@H]1[C@@H](C(=O)NCCCNC(=O)c2ccc(-c3c4nc(c(-c5cc(S(=O)(=O)[O-])ccc5F)c5ccc([nH]5)c(-c5cc(S(=O)(=O)[O-])ccc5F)c5nc(c(-c6cc(S(=O)(=O)[O-])ccc6F)c6ccc3[nH]6)C=C5)C=C4)cc2)[C@@H]2C=C[C@H]1C2
REMARK SMILES IDX 23 1 22 2 20 3 21 4 19 6 18 7 95 8 92 9 94 10 96 11 93 12
REMARK SMILES IDX 16 13 15 14 17 16 14 17 13 18 1 19 2 20 3 21 4 22 11 23
REMARK SMILES IDX 12 24 5 25 6 26 10 27 7 28 9 29 8 30 24 31 25 32 26 33 27 34
REMARK SMILES IDX 28 36 29 37 30 38 91 39 31 40 90 41 32 42 33 43 34 44 84 45
REMARK SMILES IDX 35 46 89 47 83 48 85 49 36 50 88 51 82 52 81 53 37 55 69 56
REMARK SMILES IDX 49 57 68 58 50 59 53 60 67 61 86 62 51 63 52 64 66 66 87 67
REMARK SMILES IDX 54 68 38 69 39 70 47 71 40 72 46 73 48 74 45 75 41 76 42 77
REMARK SMILES IDX 43 78 44 79 70 80 71 81 79 82 72 83 78 84 80 85 77 86 73 87
REMARK SMILES IDX 74 88 75 89 76 90 55 91 56 92 64 93 57 94 63 95 65 96 62 97
REMARK SMILES IDX 58 98 59 99 60 100 61 101
REMARK H PARENT 22 5 15 15 26 35 85 54 53 65
REMARK Flexibility Score: inf
ROOT
ATOM      1  C   UNL A   1      33.172  28.935  26.837  1.00  0.00     0.117 C 
ENDROOT
BRANCH   1   2
ATOM      2  N   UNL A   1      32.160  29.469  25.943  1.00  0.00    -0.356 N 
ATOM      3  C   UNL A   1      31.372  28.930  24.987  1.00  0.00     0.224 C 
ATOM      4  O   UNL A   1      30.871  29.738  24.196  1.00  0.00    -0.275 OA
ATOM      5  H   UNL A   1      32.016  30.436  26.058  1.00  0.00     0.163 HD
BRANCH   3   6
ATOM      6  C   UNL A   1      31.073  27.445  24.794  1.00  0.00     0.098 C 
ATOM      7  C   UNL A   1      32.248  26.441  24.586  1.00  0.00     0.098 C 
ATOM      8  C   UNL A   1      31.729  25.649  23.337  1.00  0.00     0.025 C 
ATOM      9  C   UNL A   1      30.127  27.191  23.597  1.00  0.00     0.025 C 
ATOM     10  C   UNL A   1      30.443  24.916  23.652  1.00  0.00    -0.027 C 
ATOM     11  C   UNL A   1      31.087  26.756  22.497  1.00  0.00     0.017 C 
ATOM     12  C   UNL A   1      29.484  25.839  23.825  1.00  0.00    -0.027 C 
BRANCH   7  13
ATOM     13  C   UNL A   1      32.565  25.536  25.787  1.00  0.00     0.224 C 
ATOM     14  N   UNL A   1      33.608  24.657  25.758  1.00  0.00    -0.352 N 
ATOM     15  H   UNL A   1      33.697  24.125  26.582  1.00  0.00     0.163 HD
ATOM     16  O   UNL A   1      31.887  25.533  26.816  1.00  0.00    -0.275 OA
BRANCH  14  17
ATOM     17  C   UNL A   1      34.614  24.345  24.756  1.00  0.00     0.155 C 
BRANCH  17  18
ATOM     18  C   UNL A   1      34.950  22.887  24.823  1.00  0.00     0.016 A 
ATOM     19  C   UNL A   1      37.388  22.881  25.780  1.00  0.00     0.069 C 
ATOM     20  C   UNL A   1      36.120  22.250  25.329  1.00  0.00     0.065 A 
ATOM     21  N   UNL A   1      35.978  20.919  25.412  1.00  0.00    -0.173 NA
ATOM     22  N   UNL A   1      34.788  20.661  24.825  1.00  0.00    -0.237 N 
ATOM     23  C   UNL A   1      34.142  21.823  24.460  1.00  0.00     0.046 A 
ATOM     24  C   UNL A   1      32.762  21.825  23.933  1.00  0.00     0.067 C 
BRANCH  22  25
ATOM     25  C   UNL A   1      34.226  19.364  24.746  1.00  0.00     0.065 A 
ATOM     26  C   UNL A   1      35.032  18.296  24.347  1.00  0.00     0.028 A 
ATOM     27  C   UNL A   1      32.959  19.131  25.303  1.00  0.00     0.028 A 
ATOM     28  C   UNL A   1      34.597  16.991  24.598  1.00  0.00     0.002 A 
ATOM     29  C   UNL A   1      32.527  17.829  25.536  1.00  0.00     0.002 A 
ATOM     30  C   UNL A   1      33.357  16.761  25.203  1.00  0.00     0.000 A 
ENDBRANCH  22  25
ENDBRANCH  17  18
ENDBRANCH  14  17
ENDBRANCH   7  13
ENDBRANCH   3   6
ENDBRANCH   1   2
BRANCH   1  31
ATOM     31  C   UNL A   1      34.226  29.987  27.192  1.00  0.00     0.042 C 
BRANCH  31  32
ATOM     32  C   UNL A   1      35.452  29.349  27.793  1.00  0.00     0.118 C 
BRANCH  32  33
ATOM     33  N   UNL A   1      35.644  29.700  29.205  1.00  0.00    -0.352 N 
ATOM     34  C   UNL A   1      36.696  29.312  30.032  1.00  0.00     0.251 C 
ATOM     35  H   UNL A   1      34.954  30.273  29.612  1.00  0.00     0.163 HD
ATOM     36  O   UNL A   1      36.602  29.368  31.239  1.00  0.00    -0.269 OA
BRANCH  34  37
ATOM     37  C   UNL A   1      37.918  28.825  29.360  1.00  0.00     0.039 A 
ATOM     38  C   UNL A   1      38.516  29.482  28.286  1.00  0.00     0.014 A 
ATOM     39  C   UNL A   1      38.542  27.750  29.971  1.00  0.00     0.014 A 
ATOM     40  C   UNL A   1      39.798  29.080  27.910  1.00  0.00     0.010 A 
ATOM     41  C   UNL A   1      39.889  27.617  29.831  1.00  0.00     0.010 A 
ATOM     42  C   UNL A   1      40.495  28.160  28.716  1.00  0.00    -0.014 A 
BRANCH  42  43
ATOM     43  C   UNL A   1      41.876  27.765  28.474  1.00  0.00     0.031 A 
ATOM     44  C   UNL A   1      42.025  26.553  27.638  1.00  0.00     0.074 A 
ATOM     45  C   UNL A   1      42.943  28.517  28.843  1.00  0.00     0.049 A 
ATOM     46  N   UNL A   1      42.308  25.367  28.057  1.00  0.00    -0.248 NA
ATOM     47  C   UNL A   1      41.628  26.602  26.224  1.00  0.00     0.031 C 
ATOM     48  C   UNL A   1      42.981  29.855  29.455  1.00  0.00     0.029 A 
ATOM     49  N   UNL A   1      44.264  28.254  28.664  1.00  0.00    -0.354 N 
ATOM     50  C   UNL A   1      42.387  24.567  26.926  1.00  0.00     0.074 A 
ATOM     51  C   UNL A   1      41.755  25.319  25.873  1.00  0.00     0.031 C 
ATOM     52  C   UNL A   1      44.227  30.372  29.372  1.00  0.00     0.029 A 
ATOM     53  C   UNL A   1      45.117  29.331  28.896  1.00  0.00     0.049 A 
ATOM     54  H   UNL A   1      44.594  27.368  28.391  1.00  0.00     0.167 HD
ATOM     55  C   UNL A   1      43.179  23.460  26.919  1.00  0.00     0.034 A 
ATOM     56  C   UNL A   1      46.470  29.365  28.749  1.00  0.00     0.034 A 
ATOM     57  C   UNL A   1      43.600  23.123  28.263  1.00  0.00     0.049 A 
ATOM     58  C   UNL A   1      46.920  27.955  28.863  1.00  0.00     0.074 A 
ATOM     59  C   UNL A   1      42.934  22.781  29.425  1.00  0.00     0.029 A 
ATOM     60  N   UNL A   1      44.853  23.536  28.665  1.00  0.00    -0.354 N 
ATOM     61  N   UNL A   1      46.791  27.261  29.964  1.00  0.00    -0.248 NA
ATOM     62  C   UNL A   1      47.004  27.165  27.643  1.00  0.00     0.031 C 
ATOM     63  C   UNL A   1      43.616  23.494  30.457  1.00  0.00     0.029 A 
ATOM     64  C   UNL A   1      44.716  24.144  29.891  1.00  0.00     0.049 A 
ATOM     65  H   UNL A   1      45.692  23.418  28.164  1.00  0.00     0.167 HD
ATOM     66  C   UNL A   1      46.333  26.017  29.555  1.00  0.00     0.074 A 
ATOM     67  C   UNL A   1      46.570  25.987  28.109  1.00  0.00     0.031 C 
ATOM     68  C   UNL A   1      45.547  25.242  30.362  1.00  0.00     0.034 A 
BRANCH  55  69
ATOM     69  C   UNL A   1      43.877  22.897  25.706  1.00  0.00     0.023 A 
ATOM     70  C   UNL A   1      43.788  21.506  25.501  1.00  0.00     0.031 A 
ATOM     71  C   UNL A   1      44.839  23.575  24.925  1.00  0.00     0.131 A 
ATOM     72  C   UNL A   1      44.685  20.844  24.647  1.00  0.00     0.055 A 
ATOM     73  C   UNL A   1      45.685  22.920  24.027  1.00  0.00     0.041 A 
ATOM     74  F   UNL A   1      45.084  24.884  25.055  1.00  0.00    -0.206 F 
ATOM     75  C   UNL A   1      45.635  21.542  23.908  1.00  0.00     0.022 A 
BRANCH  72  76
ATOM     76  S   UNL A   1      44.705  19.033  24.663  1.00  0.00     0.124 S 
ATOM     77  O   UNL A   1      45.782  18.756  25.608  1.00  0.00    -0.237 OA
ATOM     78  O   UNL A   1      43.354  18.722  25.115  1.00  0.00    -0.237 OA
ATOM     79  O   UNL A   1      44.993  18.687  23.272  1.00  0.00    -0.744 OA
ENDBRANCH  72  76
ENDBRANCH  55  69
BRANCH  56  80
ATOM     80  C   UNL A   1      47.258  30.455  28.098  1.00  0.00     0.023 A 
ATOM     81  C   UNL A   1      46.674  31.549  27.421  1.00  0.00     0.031 A 
ATOM     82  C   UNL A   1      48.647  30.541  28.354  1.00  0.00     0.131 A 
ATOM     83  C   UNL A   1      47.471  32.659  27.035  1.00  0.00     0.055 A 
ATOM     84  C   UNL A   1      49.424  31.639  27.978  1.00  0.00     0.041 A 
ATOM     85  F   UNL A   1      49.281  29.589  29.057  1.00  0.00    -0.206 F 
ATOM     86  C   UNL A   1      48.837  32.708  27.323  1.00  0.00     0.022 A 
BRANCH  83  87
ATOM     87  S   UNL A   1      46.728  34.103  26.199  1.00  0.00     0.124 S 
ATOM     88  O   UNL A   1      45.556  33.522  25.553  1.00  0.00    -0.237 OA
ATOM     89  O   UNL A   1      46.474  35.012  27.310  1.00  0.00    -0.237 OA
ATOM     90  O   UNL A   1      47.776  34.543  25.276  1.00  0.00    -0.744 OA
ENDBRANCH  83  87
ENDBRANCH  56  80
BRANCH  68  91
ATOM     91  C   UNL A   1      45.383  25.645  31.818  1.00  0.00     0.023 A 
ATOM     92  C   UNL A   1      46.330  25.415  32.846  1.00  0.00     0.031 A 
ATOM     93  C   UNL A   1      44.257  26.424  32.137  1.00  0.00     0.131 A 
ATOM     94  C   UNL A   1      46.120  25.959  34.133  1.00  0.00     0.055 A 
ATOM     95  C   UNL A   1      44.067  26.979  33.401  1.00  0.00     0.041 A 
ATOM     96  F   UNL A   1      43.334  26.699  31.200  1.00  0.00    -0.206 F 
ATOM     97  C   UNL A   1      44.996  26.745  34.406  1.00  0.00     0.022 A 
BRANCH  94  98
ATOM     98  S   UNL A   1      47.300  25.645  35.491  1.00  0.00     0.124 S 
ATOM     99  O   UNL A   1      46.827  26.517  36.561  1.00  0.00    -0.237 OA
ATOM    100  O   UNL A   1      47.148  24.211  35.723  1.00  0.00    -0.237 OA
ATOM    101  O   UNL A   1      48.591  26.032  34.919  1.00  0.00    -0.744 OA
ENDBRANCH  94  98
ENDBRANCH  68  91
ENDBRANCH  42  43
ENDBRANCH  34  37
ENDBRANCH  32  33
ENDBRANCH  31  32
ENDBRANCH   1  31
TORSDOF 17
ENDMDL
