MODEL 1
REMARK VINA RESULT:     -12.3      0.000      0.000
REMARK SMILES O=C(NCCCNC(=O)[C@@H](Cc1cccc(F)c1)[C@H]1CCOC2(CCC2)C1)c1ccc(-c2c3nc(c(-c4cc(S(=O)(=O)[O-])ccc4F)c4ccc([nH]4)c(-c4cc(S(=O)(=O)[O-])ccc4F)c4nc(c(-c5cc(S(=O)(=O)[O-])ccc5F)c5ccc2[nH]5)C=C4)C=C3)cc1
REMARK SMILES IDX 4 1 3 2 1 3 2 4 28 6 29 7 90 8 30 9 89 10 31 11 32 12 33 13
REMARK SMILES IDX 83 14 34 15 88 16 82 17 84 18 35 19 87 20 81 21 80 22 36 24
REMARK SMILES IDX 68 25 48 26 67 27 49 28 52 29 66 30 85 31 50 32 51 33 65 35
REMARK SMILES IDX 86 36 53 37 37 38 38 39 46 40 39 41 45 42 47 43 44 44 40 45
REMARK SMILES IDX 41 46 42 47 43 48 69 49 70 50 78 51 71 52 77 53 79 54 76 55
REMARK SMILES IDX 72 56 73 57 74 58 75 59 54 60 55 61 63 62 56 63 62 64 64 65
REMARK SMILES IDX 61 66 57 67 58 68 59 69 60 70 5 71 6 72 7 73 8 74 9 76 10 77
REMARK SMILES IDX 11 78 12 79 13 80 18 81 14 82 16 83 15 84 17 85 19 86 20 87
REMARK SMILES IDX 27 88 21 89 23 90 22 91 24 92 26 93 25 94
REMARK H PARENT 3 5 84 23 52 34 7 75
REMARK Flexibility Score: inf
ROOT
ATOM      1  C   UNL A   1      33.115  28.394  25.896  1.00  0.00     0.118 C 
ENDROOT
BRANCH   1   2
ATOM      2  N   UNL A   1      32.718  29.798  25.970  1.00  0.00    -0.352 N 
ATOM      3  O   UNL A   1      32.497  31.861  26.823  1.00  0.00    -0.269 OA
ATOM      4  C   UNL A   1      33.155  30.824  26.780  1.00  0.00     0.251 C 
ATOM      5  H   UNL A   1      32.015  30.056  25.330  1.00  0.00     0.163 HD
BRANCH   4   6
ATOM      6  C   UNL A   1      34.392  30.700  27.589  1.00  0.00     0.039 A 
ATOM      7  C   UNL A   1      34.706  29.511  28.238  1.00  0.00     0.014 A 
ATOM      8  C   UNL A   1      35.300  31.766  27.648  1.00  0.00     0.014 A 
ATOM      9  C   UNL A   1      35.792  29.445  29.096  1.00  0.00     0.010 A 
ATOM     10  C   UNL A   1      36.491  31.640  28.380  1.00  0.00     0.010 A 
ATOM     11  C   UNL A   1      36.738  30.480  29.126  1.00  0.00    -0.014 A 
BRANCH  11  12
ATOM     12  C   UNL A   1      38.015  30.222  29.844  1.00  0.00     0.031 A 
ATOM     13  C   UNL A   1      38.257  30.728  31.235  1.00  0.00     0.074 A 
ATOM     14  C   UNL A   1      38.926  29.432  29.236  1.00  0.00     0.049 A 
ATOM     15  N   UNL A   1      39.277  30.495  32.021  1.00  0.00    -0.248 NA
ATOM     16  C   UNL A   1      37.240  31.613  31.818  1.00  0.00     0.031 C 
ATOM     17  C   UNL A   1      38.792  28.894  27.877  1.00  0.00     0.029 A 
ATOM     18  N   UNL A   1      40.102  28.890  29.685  1.00  0.00    -0.354 N 
ATOM     19  C   UNL A   1      39.037  31.218  33.184  1.00  0.00     0.074 A 
ATOM     20  C   UNL A   1      37.786  31.920  32.988  1.00  0.00     0.031 C 
ATOM     21  C   UNL A   1      39.773  28.014  27.651  1.00  0.00     0.029 A 
ATOM     22  C   UNL A   1      40.671  28.006  28.797  1.00  0.00     0.049 A 
ATOM     23  H   UNL A   1      40.500  29.111  30.558  1.00  0.00     0.167 HD
ATOM     24  C   UNL A   1      39.796  31.283  34.305  1.00  0.00     0.034 A 
ATOM     25  C   UNL A   1      41.800  27.277  28.877  1.00  0.00     0.034 A 
ATOM     26  C   UNL A   1      41.038  30.566  34.476  1.00  0.00     0.049 A 
ATOM     27  C   UNL A   1      42.643  27.396  30.111  1.00  0.00     0.074 A 
ATOM     28  C   UNL A   1      41.870  30.541  35.582  1.00  0.00     0.029 A 
ATOM     29  N   UNL A   1      41.634  29.759  33.514  1.00  0.00    -0.354 N 
ATOM     30  N   UNL A   1      42.408  28.100  31.193  1.00  0.00    -0.248 NA
ATOM     31  C   UNL A   1      43.903  26.647  30.132  1.00  0.00     0.031 C 
ATOM     32  C   UNL A   1      43.000  29.782  35.264  1.00  0.00     0.029 A 
ATOM     33  C   UNL A   1      42.837  29.262  33.989  1.00  0.00     0.049 A 
ATOM     34  H   UNL A   1      41.256  29.566  32.626  1.00  0.00     0.167 HD
ATOM     35  C   UNL A   1      43.491  27.874  32.031  1.00  0.00     0.074 A 
ATOM     36  C   UNL A   1      44.377  26.963  31.332  1.00  0.00     0.031 C 
ATOM     37  C   UNL A   1      43.722  28.371  33.272  1.00  0.00     0.034 A 
BRANCH  24  38
ATOM     38  C   UNL A   1      39.333  32.192  35.415  1.00  0.00     0.023 A 
ATOM     39  C   UNL A   1      39.769  33.524  35.517  1.00  0.00     0.031 A 
ATOM     40  C   UNL A   1      38.428  31.720  36.385  1.00  0.00     0.131 A 
ATOM     41  C   UNL A   1      39.343  34.320  36.592  1.00  0.00     0.055 A 
ATOM     42  C   UNL A   1      37.954  32.537  37.412  1.00  0.00     0.041 A 
ATOM     43  F   UNL A   1      37.991  30.451  36.348  1.00  0.00    -0.206 F 
ATOM     44  C   UNL A   1      38.420  33.843  37.526  1.00  0.00     0.022 A 
BRANCH  41  45
ATOM     45  S   UNL A   1      40.097  35.954  36.813  1.00  0.00     0.124 S 
ATOM     46  O   UNL A   1      41.504  35.608  37.006  1.00  0.00    -0.237 OA
ATOM     47  O   UNL A   1      39.773  36.625  35.560  1.00  0.00    -0.237 OA
ATOM     48  O   UNL A   1      39.425  36.485  37.998  1.00  0.00    -0.744 OA
ENDBRANCH  41  45
ENDBRANCH  24  38
BRANCH  25  49
ATOM     49  C   UNL A   1      42.190  26.414  27.727  1.00  0.00     0.023 A 
ATOM     50  C   UNL A   1      41.831  25.059  27.678  1.00  0.00     0.031 A 
ATOM     51  C   UNL A   1      42.849  26.968  26.614  1.00  0.00     0.131 A 
ATOM     52  C   UNL A   1      42.127  24.304  26.531  1.00  0.00     0.055 A 
ATOM     53  C   UNL A   1      43.106  26.224  25.463  1.00  0.00     0.041 A 
ATOM     54  F   UNL A   1      43.196  28.265  26.607  1.00  0.00    -0.206 F 
ATOM     55  C   UNL A   1      42.744  24.882  25.418  1.00  0.00     0.022 A 
BRANCH  52  56
ATOM     56  S   UNL A   1      41.683  22.545  26.503  1.00  0.00     0.124 S 
ATOM     57  O   UNL A   1      42.369  22.086  25.301  1.00  0.00    -0.237 OA
ATOM     58  O   UNL A   1      42.224  22.071  27.773  1.00  0.00    -0.237 OA
ATOM     59  O   UNL A   1      40.223  22.565  26.422  1.00  0.00    -0.744 OA
ENDBRANCH  52  56
ENDBRANCH  25  49
BRANCH  37  60
ATOM     60  C   UNL A   1      44.973  27.923  33.975  1.00  0.00     0.023 A 
ATOM     61  C   UNL A   1      45.002  26.756  34.755  1.00  0.00     0.031 A 
ATOM     62  C   UNL A   1      46.169  28.642  33.800  1.00  0.00     0.131 A 
ATOM     63  C   UNL A   1      46.207  26.347  35.347  1.00  0.00     0.055 A 
ATOM     64  C   UNL A   1      47.373  28.206  34.353  1.00  0.00     0.041 A 
ATOM     65  F   UNL A   1      46.190  29.763  33.062  1.00  0.00    -0.206 F 
ATOM     66  C   UNL A   1      47.395  27.053  35.134  1.00  0.00     0.022 A 
BRANCH  63  67
ATOM     67  S   UNL A   1      46.204  24.883  36.417  1.00  0.00     0.124 S 
ATOM     68  O   UNL A   1      45.385  25.333  37.539  1.00  0.00    -0.237 OA
ATOM     69  O   UNL A   1      45.607  23.864  35.560  1.00  0.00    -0.237 OA
ATOM     70  O   UNL A   1      47.618  24.681  36.724  1.00  0.00    -0.744 OA
ENDBRANCH  63  67
ENDBRANCH  37  60
ENDBRANCH  11  12
ENDBRANCH   4   6
ENDBRANCH   1   2
BRANCH   1  71
ATOM     71  C   UNL A   1      31.982  27.475  26.300  1.00  0.00     0.042 C 
BRANCH  71  72
ATOM     72  C   UNL A   1      32.370  26.007  26.284  1.00  0.00     0.117 C 
BRANCH  72  73
ATOM     73  N   UNL A   1      31.331  25.195  26.878  1.00  0.00    -0.356 N 
ATOM     74  C   UNL A   1      30.797  24.015  26.482  1.00  0.00     0.223 C 
ATOM     75  H   UNL A   1      30.948  25.561  27.707  1.00  0.00     0.163 HD
ATOM     76  O   UNL A   1      29.856  23.584  27.159  1.00  0.00    -0.275 OA
BRANCH  74  77
ATOM     77  C   UNL A   1      31.313  23.197  25.293  1.00  0.00     0.086 C 
BRANCH  77  78
ATOM     78  C   UNL A   1      30.890  23.754  23.896  1.00  0.00     0.049 C 
BRANCH  78  79
ATOM     79  C   UNL A   1      30.714  25.215  23.502  1.00  0.00    -0.044 A 
ATOM     80  C   UNL A   1      31.813  25.850  22.883  1.00  0.00     0.004 A 
ATOM     81  C   UNL A   1      29.600  26.022  23.754  1.00  0.00     0.043 A 
ATOM     82  C   UNL A   1      31.758  27.184  22.452  1.00  0.00     0.003 A 
ATOM     83  C   UNL A   1      29.535  27.342  23.293  1.00  0.00     0.123 A 
ATOM     84  C   UNL A   1      30.598  27.927  22.631  1.00  0.00     0.039 A 
ATOM     85  F   UNL A   1      28.400  28.034  23.470  1.00  0.00    -0.207 F 
ENDBRANCH  78  79
ENDBRANCH  77  78
BRANCH  77  86
ATOM     86  C   UNL A   1      32.736  22.621  25.410  1.00  0.00     0.007 C 
ATOM     87  C   UNL A   1      32.859  21.101  25.612  1.00  0.00     0.033 C 
ATOM     88  C   UNL A   1      33.583  22.998  24.180  1.00  0.00     0.040 C 
ATOM     89  C   UNL A   1      34.331  20.768  25.867  1.00  0.00     0.161 C 
ATOM     90  C   UNL A   1      35.043  22.645  24.452  1.00  0.00     0.069 C 
ATOM     91  O   UNL A   1      35.155  21.239  24.799  1.00  0.00    -0.375 OA
ATOM     92  C   UNL A   1      36.013  23.094  23.321  1.00  0.00     0.035 C 
ATOM     93  C   UNL A   1      35.782  23.663  25.369  1.00  0.00     0.035 C 
ATOM     94  C   UNL A   1      36.984  23.570  24.417  1.00  0.00     0.006 C 
ENDBRANCH  77  86
ENDBRANCH  74  77
ENDBRANCH  72  73
ENDBRANCH  71  72
ENDBRANCH   1  71
TORSDOF 16
ENDMDL
MODEL 2
REMARK VINA RESULT:     -12.3      2.477      3.454
REMARK SMILES O=C(NCCCNC(=O)[C@@H](Cc1cccc(F)c1)[C@H]1CCOC2(CCC2)C1)c1ccc(-c2c3nc(c(-c4cc(S(=O)(=O)[O-])ccc4F)c4ccc([nH]4)c(-c4cc(S(=O)(=O)[O-])ccc4F)c4nc(c(-c5cc(S(=O)(=O)[O-])ccc5F)c5ccc2[nH]5)C=C4)C=C3)cc1
REMARK SMILES IDX 4 1 3 2 1 3 2 4 28 6 29 7 90 8 30 9 89 10 31 11 32 12 33 13
REMARK SMILES IDX 83 14 34 15 88 16 82 17 84 18 35 19 87 20 81 21 80 22 36 24
REMARK SMILES IDX 68 25 48 26 67 27 49 28 52 29 66 30 85 31 50 32 51 33 65 35
REMARK SMILES IDX 86 36 53 37 37 38 38 39 46 40 39 41 45 42 47 43 44 44 40 45
REMARK SMILES IDX 41 46 42 47 43 48 69 49 70 50 78 51 71 52 77 53 79 54 76 55
REMARK SMILES IDX 72 56 73 57 74 58 75 59 54 60 55 61 63 62 56 63 62 64 64 65
REMARK SMILES IDX 61 66 57 67 58 68 59 69 60 70 5 71 6 72 7 73 8 74 9 76 10 77
REMARK SMILES IDX 11 78 12 79 13 80 18 81 14 82 16 83 15 84 17 85 19 86 20 87
REMARK SMILES IDX 27 88 21 89 23 90 22 91 24 92 26 93 25 94
REMARK H PARENT 3 5 84 23 52 34 7 75
REMARK Flexibility Score: inf
ROOT
ATOM      1  C   UNL A   1      32.903  32.030  26.960  1.00  0.00     0.118 C 
ENDROOT
BRANCH   1   2
ATOM      2  N   UNL A   1      32.639  33.402  27.388  1.00  0.00    -0.352 N 
ATOM      3  O   UNL A   1      32.619  35.201  28.728  1.00  0.00    -0.269 OA
ATOM      4  C   UNL A   1      33.176  34.152  28.412  1.00  0.00     0.251 C 
ATOM      5  H   UNL A   1      31.960  33.872  26.852  1.00  0.00     0.163 HD
BRANCH   4   6
ATOM      6  C   UNL A   1      34.402  33.722  29.129  1.00  0.00     0.039 A 
ATOM      7  C   UNL A   1      34.367  32.670  30.038  1.00  0.00     0.014 A 
ATOM      8  C   UNL A   1      35.632  34.330  28.841  1.00  0.00     0.014 A 
ATOM      9  C   UNL A   1      35.482  32.361  30.798  1.00  0.00     0.010 A 
ATOM     10  C   UNL A   1      36.800  33.900  29.488  1.00  0.00     0.010 A 
ATOM     11  C   UNL A   1      36.730  32.920  30.487  1.00  0.00    -0.014 A 
BRANCH  11  12
ATOM     12  C   UNL A   1      37.928  32.336  31.148  1.00  0.00     0.031 A 
ATOM     13  C   UNL A   1      38.319  32.704  32.549  1.00  0.00     0.074 A 
ATOM     14  C   UNL A   1      38.611  31.383  30.477  1.00  0.00     0.049 A 
ATOM     15  N   UNL A   1      39.275  32.201  33.287  1.00  0.00    -0.248 NA
ATOM     16  C   UNL A   1      37.556  33.776  33.203  1.00  0.00     0.031 C 
ATOM     17  C   UNL A   1      38.319  30.957  29.103  1.00  0.00     0.029 A 
ATOM     18  N   UNL A   1      39.636  30.559  30.862  1.00  0.00    -0.354 N 
ATOM     19  C   UNL A   1      39.243  32.904  34.486  1.00  0.00     0.074 A 
ATOM     20  C   UNL A   1      38.189  33.889  34.364  1.00  0.00     0.031 C 
ATOM     21  C   UNL A   1      39.057  29.882  28.807  1.00  0.00     0.029 A 
ATOM     22  C   UNL A   1      39.957  29.609  29.919  1.00  0.00     0.049 A 
ATOM     23  H   UNL A   1      40.098  30.639  31.727  1.00  0.00     0.167 HD
ATOM     24  C   UNL A   1      40.024  32.736  35.581  1.00  0.00     0.034 A 
ATOM     25  C   UNL A   1      40.883  28.631  29.929  1.00  0.00     0.034 A 
ATOM     26  C   UNL A   1      41.064  31.740  35.678  1.00  0.00     0.049 A 
ATOM     27  C   UNL A   1      41.761  28.490  31.135  1.00  0.00     0.074 A 
ATOM     28  C   UNL A   1      41.895  31.467  36.752  1.00  0.00     0.029 A 
ATOM     29  N   UNL A   1      41.427  30.861  34.664  1.00  0.00    -0.354 N 
ATOM     30  N   UNL A   1      41.727  29.177  32.252  1.00  0.00    -0.248 NA
ATOM     31  C   UNL A   1      42.808  27.465  31.082  1.00  0.00     0.031 C 
ATOM     32  C   UNL A   1      42.804  30.479  36.363  1.00  0.00     0.029 A 
ATOM     33  C   UNL A   1      42.491  30.073  35.076  1.00  0.00     0.049 A 
ATOM     34  H   UNL A   1      40.992  30.805  33.783  1.00  0.00     0.167 HD
ATOM     35  C   UNL A   1      42.747  28.663  33.042  1.00  0.00     0.074 A 
ATOM     36  C   UNL A   1      43.374  27.604  32.275  1.00  0.00     0.031 C 
ATOM     37  C   UNL A   1      43.121  29.034  34.292  1.00  0.00     0.034 A 
BRANCH  24  38
ATOM     38  C   UNL A   1      39.817  33.675  36.742  1.00  0.00     0.023 A 
ATOM     39  C   UNL A   1      39.231  33.252  37.947  1.00  0.00     0.031 A 
ATOM     40  C   UNL A   1      40.226  35.019  36.645  1.00  0.00     0.131 A 
ATOM     41  C   UNL A   1      39.021  34.172  38.985  1.00  0.00     0.055 A 
ATOM     42  C   UNL A   1      40.078  35.913  37.707  1.00  0.00     0.041 A 
ATOM     43  F   UNL A   1      40.775  35.484  35.512  1.00  0.00    -0.206 F 
ATOM     44  C   UNL A   1      39.463  35.494  38.882  1.00  0.00     0.022 A 
BRANCH  41  45
ATOM     45  S   UNL A   1      38.065  33.645  40.433  1.00  0.00     0.124 S 
ATOM     46  O   UNL A   1      38.951  32.645  41.025  1.00  0.00    -0.237 OA
ATOM     47  O   UNL A   1      37.916  34.887  41.183  1.00  0.00    -0.237 OA
ATOM     48  O   UNL A   1      36.833  33.112  39.856  1.00  0.00    -0.744 OA
ENDBRANCH  41  45
ENDBRANCH  24  38
BRANCH  25  49
ATOM     49  C   UNL A   1      41.027  27.757  28.733  1.00  0.00     0.023 A 
ATOM     50  C   UNL A   1      42.019  27.996  27.770  1.00  0.00     0.031 A 
ATOM     51  C   UNL A   1      40.227  26.608  28.590  1.00  0.00     0.131 A 
ATOM     52  C   UNL A   1      42.189  27.091  26.709  1.00  0.00     0.055 A 
ATOM     53  C   UNL A   1      40.427  25.693  27.558  1.00  0.00     0.041 A 
ATOM     54  F   UNL A   1      39.278  26.327  29.497  1.00  0.00    -0.206 F 
ATOM     55  C   UNL A   1      41.414  25.933  26.608  1.00  0.00     0.022 A 
BRANCH  52  56
ATOM     56  S   UNL A   1      43.457  27.438  25.458  1.00  0.00     0.124 S 
ATOM     57  O   UNL A   1      42.642  27.811  24.307  1.00  0.00    -0.237 OA
ATOM     58  O   UNL A   1      44.218  28.515  26.083  1.00  0.00    -0.237 OA
ATOM     59  O   UNL A   1      44.170  26.168  25.334  1.00  0.00    -0.744 OA
ENDBRANCH  52  56
ENDBRANCH  25  49
BRANCH  37  60
ATOM     60  C   UNL A   1      44.248  28.271  34.932  1.00  0.00     0.023 A 
ATOM     61  C   UNL A   1      44.027  27.063  35.613  1.00  0.00     0.031 A 
ATOM     62  C   UNL A   1      45.570  28.729  34.792  1.00  0.00     0.131 A 
ATOM     63  C   UNL A   1      45.117  26.358  36.145  1.00  0.00     0.055 A 
ATOM     64  C   UNL A   1      46.653  28.002  35.284  1.00  0.00     0.041 A 
ATOM     65  F   UNL A   1      45.830  29.878  34.148  1.00  0.00    -0.206 F 
ATOM     66  C   UNL A   1      46.428  26.809  35.967  1.00  0.00     0.022 A 
BRANCH  63  67
ATOM     67  S   UNL A   1      44.802  24.844  37.092  1.00  0.00     0.124 S 
ATOM     68  O   UNL A   1      44.053  24.039  36.131  1.00  0.00    -0.237 OA
ATOM     69  O   UNL A   1      46.150  24.377  37.401  1.00  0.00    -0.237 OA
ATOM     70  O   UNL A   1      44.032  25.313  38.242  1.00  0.00    -0.744 OA
ENDBRANCH  63  67
ENDBRANCH  37  60
ENDBRANCH  11  12
ENDBRANCH   4   6
ENDBRANCH   1   2
BRANCH   1  71
ATOM     71  C   UNL A   1      31.640  31.347  26.478  1.00  0.00     0.042 C 
BRANCH  71  72
ATOM     72  C   UNL A   1      31.871  29.916  26.026  1.00  0.00     0.117 C 
BRANCH  72  73
ATOM     73  N   UNL A   1      32.817  29.868  24.934  1.00  0.00    -0.356 N 
ATOM     74  C   UNL A   1      33.065  28.899  24.021  1.00  0.00     0.223 C 
ATOM     75  H   UNL A   1      33.375  30.674  24.840  1.00  0.00     0.163 HD
ATOM     76  O   UNL A   1      33.997  29.110  23.237  1.00  0.00    -0.275 OA
BRANCH  74  77
ATOM     77  C   UNL A   1      32.244  27.611  23.896  1.00  0.00     0.086 C 
BRANCH  77  78
ATOM     78  C   UNL A   1      31.192  27.627  22.742  1.00  0.00     0.049 C 
BRANCH  78  79
ATOM     79  C   UNL A   1      29.917  28.458  22.669  1.00  0.00    -0.044 A 
ATOM     80  C   UNL A   1      30.024  29.749  22.108  1.00  0.00     0.004 A 
ATOM     81  C   UNL A   1      28.659  28.108  23.168  1.00  0.00     0.043 A 
ATOM     82  C   UNL A   1      28.914  30.595  21.963  1.00  0.00     0.003 A 
ATOM     83  C   UNL A   1      27.547  28.938  22.992  1.00  0.00     0.123 A 
ATOM     84  C   UNL A   1      27.658  30.173  22.381  1.00  0.00     0.039 A 
ATOM     85  F   UNL A   1      26.344  28.503  23.396  1.00  0.00    -0.207 F 
ENDBRANCH  78  79
ENDBRANCH  77  78
BRANCH  77  86
ATOM     86  C   UNL A   1      32.988  26.285  24.141  1.00  0.00     0.007 C 
ATOM     87  C   UNL A   1      33.896  26.213  25.380  1.00  0.00     0.033 C 
ATOM     88  C   UNL A   1      31.997  25.108  24.219  1.00  0.00     0.040 C 
ATOM     89  C   UNL A   1      34.656  24.885  25.341  1.00  0.00     0.161 C 
ATOM     90  C   UNL A   1      32.778  23.797  24.191  1.00  0.00     0.069 C 
ATOM     91  O   UNL A   1      33.754  23.780  25.268  1.00  0.00    -0.375 OA
ATOM     92  C   UNL A   1      31.872  22.533  24.143  1.00  0.00     0.035 C 
ATOM     93  C   UNL A   1      33.277  23.384  22.776  1.00  0.00     0.035 C 
ATOM     94  C   UNL A   1      32.835  21.948  23.094  1.00  0.00     0.006 C 
ENDBRANCH  77  86
ENDBRANCH  74  77
ENDBRANCH  72  73
ENDBRANCH  71  72
ENDBRANCH   1  71
TORSDOF 16
ENDMDL
MODEL 3
REMARK VINA RESULT:     -12.3      2.790      8.221
REMARK SMILES O=C(NCCCNC(=O)[C@@H](Cc1cccc(F)c1)[C@H]1CCOC2(CCC2)C1)c1ccc(-c2c3nc(c(-c4cc(S(=O)(=O)[O-])ccc4F)c4ccc([nH]4)c(-c4cc(S(=O)(=O)[O-])ccc4F)c4nc(c(-c5cc(S(=O)(=O)[O-])ccc5F)c5ccc2[nH]5)C=C4)C=C3)cc1
REMARK SMILES IDX 4 1 3 2 1 3 2 4 28 6 29 7 90 8 30 9 89 10 31 11 32 12 33 13
REMARK SMILES IDX 83 14 34 15 88 16 82 17 84 18 35 19 87 20 81 21 80 22 36 24
REMARK SMILES IDX 68 25 48 26 67 27 49 28 52 29 66 30 85 31 50 32 51 33 65 35
REMARK SMILES IDX 86 36 53 37 37 38 38 39 46 40 39 41 45 42 47 43 44 44 40 45
REMARK SMILES IDX 41 46 42 47 43 48 69 49 70 50 78 51 71 52 77 53 79 54 76 55
REMARK SMILES IDX 72 56 73 57 74 58 75 59 54 60 55 61 63 62 56 63 62 64 64 65
REMARK SMILES IDX 61 66 57 67 58 68 59 69 60 70 5 71 6 72 7 73 8 74 9 76 10 77
REMARK SMILES IDX 11 78 12 79 13 80 18 81 14 82 16 83 15 84 17 85 19 86 20 87
REMARK SMILES IDX 27 88 21 89 23 90 22 91 24 92 26 93 25 94
REMARK H PARENT 3 5 84 23 52 34 7 75
REMARK Flexibility Score: inf
ROOT
ATOM      1  C   UNL A   1      32.686  32.324  27.103  1.00  0.00     0.118 C 
ENDROOT
BRANCH   1   2
ATOM      2  N   UNL A   1      32.599  33.736  27.466  1.00  0.00    -0.352 N 
ATOM      3  O   UNL A   1      32.779  35.580  28.732  1.00  0.00    -0.269 OA
ATOM      4  C   UNL A   1      33.198  34.452  28.480  1.00  0.00     0.251 C 
ATOM      5  H   UNL A   1      32.009  34.270  26.885  1.00  0.00     0.163 HD
BRANCH   4   6
ATOM      6  C   UNL A   1      34.327  33.892  29.263  1.00  0.00     0.039 A 
ATOM      7  C   UNL A   1      34.127  32.848  30.160  1.00  0.00     0.014 A 
ATOM      8  C   UNL A   1      35.629  34.366  29.051  1.00  0.00     0.014 A 
ATOM      9  C   UNL A   1      35.158  32.421  30.980  1.00  0.00     0.010 A 
ATOM     10  C   UNL A   1      36.706  33.812  29.760  1.00  0.00     0.010 A 
ATOM     11  C   UNL A   1      36.474  32.844  30.746  1.00  0.00    -0.014 A 
BRANCH  11  12
ATOM     12  C   UNL A   1      37.563  32.134  31.469  1.00  0.00     0.031 A 
ATOM     13  C   UNL A   1      38.402  31.083  30.804  1.00  0.00     0.074 A 
ATOM     14  C   UNL A   1      37.840  32.531  32.730  1.00  0.00     0.049 A 
ATOM     15  N   UNL A   1      39.448  30.455  31.278  1.00  0.00    -0.248 NA
ATOM     16  C   UNL A   1      38.020  30.673  29.446  1.00  0.00     0.031 C 
ATOM     17  C   UNL A   1      37.077  33.541  33.475  1.00  0.00     0.029 A 
ATOM     18  N   UNL A   1      38.857  32.197  33.586  1.00  0.00    -0.354 N 
ATOM     19  C   UNL A   1      39.840  29.563  30.287  1.00  0.00     0.074 A 
ATOM     20  C   UNL A   1      38.900  29.713  29.195  1.00  0.00     0.031 C 
ATOM     21  C   UNL A   1      37.716  33.827  34.614  1.00  0.00     0.029 A 
ATOM     22  C   UNL A   1      38.868  32.945  34.741  1.00  0.00     0.049 A 
ATOM     23  H   UNL A   1      39.515  31.491  33.393  1.00  0.00     0.167 HD
ATOM     24  C   UNL A   1      40.888  28.704  30.295  1.00  0.00     0.034 A 
ATOM     25  C   UNL A   1      39.698  32.922  35.801  1.00  0.00     0.034 A 
ATOM     26  C   UNL A   1      41.815  28.580  31.395  1.00  0.00     0.049 A 
ATOM     27  C   UNL A   1      40.827  31.936  35.804  1.00  0.00     0.074 A 
ATOM     28  C   UNL A   1      42.926  27.760  31.494  1.00  0.00     0.029 A 
ATOM     29  N   UNL A   1      41.735  29.284  32.591  1.00  0.00    -0.354 N 
ATOM     30  N   UNL A   1      41.169  31.087  34.865  1.00  0.00    -0.248 NA
ATOM     31  C   UNL A   1      41.665  31.886  37.006  1.00  0.00     0.031 C 
ATOM     32  C   UNL A   1      43.472  27.913  32.772  1.00  0.00     0.029 A 
ATOM     33  C   UNL A   1      42.754  28.890  33.444  1.00  0.00     0.049 A 
ATOM     34  H   UNL A   1      41.055  29.964  32.801  1.00  0.00     0.167 HD
ATOM     35  C   UNL A   1      42.271  30.402  35.359  1.00  0.00     0.074 A 
ATOM     36  C   UNL A   1      42.539  30.942  36.678  1.00  0.00     0.031 C 
ATOM     37  C   UNL A   1      42.997  29.422  34.766  1.00  0.00     0.034 A 
BRANCH  24  38
ATOM     38  C   UNL A   1      41.063  27.797  29.102  1.00  0.00     0.023 A 
ATOM     39  C   UNL A   1      42.042  28.037  28.123  1.00  0.00     0.031 A 
ATOM     40  C   UNL A   1      40.241  26.665  28.949  1.00  0.00     0.131 A 
ATOM     41  C   UNL A   1      42.140  27.188  27.009  1.00  0.00     0.055 A 
ATOM     42  C   UNL A   1      40.389  25.786  27.874  1.00  0.00     0.041 A 
ATOM     43  F   UNL A   1      39.276  26.397  29.843  1.00  0.00    -0.206 F 
ATOM     44  C   UNL A   1      41.336  26.051  26.891  1.00  0.00     0.022 A 
BRANCH  41  45
ATOM     45  S   UNL A   1      43.260  27.652  25.661  1.00  0.00     0.124 S 
ATOM     46  O   UNL A   1      44.029  28.734  26.273  1.00  0.00    -0.237 OA
ATOM     47  O   UNL A   1      43.989  26.414  25.415  1.00  0.00    -0.237 OA
ATOM     48  O   UNL A   1      42.356  28.068  24.590  1.00  0.00    -0.744 OA
ENDBRANCH  41  45
ENDBRANCH  24  38
BRANCH  25  49
ATOM     49  C   UNL A   1      39.443  33.844  36.942  1.00  0.00     0.023 A 
ATOM     50  C   UNL A   1      38.797  33.402  38.106  1.00  0.00     0.031 A 
ATOM     51  C   UNL A   1      39.933  35.163  36.915  1.00  0.00     0.131 A 
ATOM     52  C   UNL A   1      38.665  34.273  39.200  1.00  0.00     0.055 A 
ATOM     53  C   UNL A   1      39.835  36.010  38.017  1.00  0.00     0.041 A 
ATOM     54  F   UNL A   1      40.575  35.625  35.829  1.00  0.00    -0.206 F 
ATOM     55  C   UNL A   1      39.197  35.566  39.170  1.00  0.00     0.022 A 
BRANCH  52  56
ATOM     56  S   UNL A   1      37.797  33.691  40.683  1.00  0.00     0.124 S 
ATOM     57  O   UNL A   1      36.692  32.936  40.102  1.00  0.00    -0.237 OA
ATOM     58  O   UNL A   1      38.829  32.906  41.354  1.00  0.00    -0.237 OA
ATOM     59  O   UNL A   1      37.420  34.928  41.364  1.00  0.00    -0.744 OA
ENDBRANCH  52  56
ENDBRANCH  25  49
BRANCH  37  60
ATOM     60  C   UNL A   1      44.176  28.879  35.525  1.00  0.00     0.023 A 
ATOM     61  C   UNL A   1      44.046  27.808  36.423  1.00  0.00     0.031 A 
ATOM     62  C   UNL A   1      45.461  29.401  35.288  1.00  0.00     0.131 A 
ATOM     63  C   UNL A   1      45.184  27.299  37.066  1.00  0.00     0.055 A 
ATOM     64  C   UNL A   1      46.594  28.862  35.895  1.00  0.00     0.041 A 
ATOM     65  F   UNL A   1      45.634  30.425  34.437  1.00  0.00    -0.206 F 
ATOM     66  C   UNL A   1      46.458  27.806  36.792  1.00  0.00     0.022 A 
BRANCH  63  67
ATOM     67  S   UNL A   1      44.982  25.971  38.283  1.00  0.00     0.124 S 
ATOM     68  O   UNL A   1      44.045  26.570  39.229  1.00  0.00    -0.237 OA
ATOM     69  O   UNL A   1      44.457  24.876  37.474  1.00  0.00    -0.237 OA
ATOM     70  O   UNL A   1      46.334  25.766  38.796  1.00  0.00    -0.744 OA
ENDBRANCH  63  67
ENDBRANCH  37  60
ENDBRANCH  11  12
ENDBRANCH   4   6
ENDBRANCH   1   2
BRANCH   1  71
ATOM     71  C   UNL A   1      31.402  31.834  26.467  1.00  0.00     0.042 C 
BRANCH  71  72
ATOM     72  C   UNL A   1      31.411  30.344  26.176  1.00  0.00     0.117 C 
BRANCH  72  73
ATOM     73  N   UNL A   1      31.906  30.084  24.842  1.00  0.00    -0.356 N 
ATOM     74  C   UNL A   1      31.514  29.179  23.915  1.00  0.00     0.223 C 
ATOM     75  H   UNL A   1      32.651  30.663  24.562  1.00  0.00     0.163 HD
ATOM     76  O   UNL A   1      32.179  29.138  22.873  1.00  0.00    -0.275 OA
BRANCH  74  77
ATOM     77  C   UNL A   1      30.302  28.256  24.078  1.00  0.00     0.086 C 
BRANCH  77  78
ATOM     78  C   UNL A   1      29.026  28.728  23.311  1.00  0.00     0.049 C 
BRANCH  78  79
ATOM     79  C   UNL A   1      28.764  30.107  22.720  1.00  0.00    -0.044 A 
ATOM     80  C   UNL A   1      28.341  30.159  21.374  1.00  0.00     0.004 A 
ATOM     81  C   UNL A   1      28.969  31.341  23.347  1.00  0.00     0.043 A 
ATOM     82  C   UNL A   1      28.044  31.370  20.731  1.00  0.00     0.003 A 
ATOM     83  C   UNL A   1      28.639  32.545  22.715  1.00  0.00     0.123 A 
ATOM     84  C   UNL A   1      28.164  32.571  21.418  1.00  0.00     0.039 A 
ATOM     85  F   UNL A   1      28.755  33.689  23.404  1.00  0.00    -0.207 F 
ENDBRANCH  78  79
ENDBRANCH  77  78
BRANCH  77  86
ATOM     86  C   UNL A   1      30.578  26.741  24.104  1.00  0.00     0.007 C 
ATOM     87  C   UNL A   1      30.913  26.070  22.762  1.00  0.00     0.033 C 
ATOM     88  C   UNL A   1      31.715  26.409  25.089  1.00  0.00     0.040 C 
ATOM     89  C   UNL A   1      30.987  24.558  22.987  1.00  0.00     0.161 C 
ATOM     90  C   UNL A   1      31.777  24.897  25.288  1.00  0.00     0.069 C 
ATOM     91  O   UNL A   1      31.938  24.237  24.004  1.00  0.00    -0.375 OA
ATOM     92  C   UNL A   1      32.814  24.452  26.359  1.00  0.00     0.035 C 
ATOM     93  C   UNL A   1      30.683  24.336  26.242  1.00  0.00     0.035 C 
ATOM     94  C   UNL A   1      31.765  23.454  26.882  1.00  0.00     0.006 C 
ENDBRANCH  77  86
ENDBRANCH  74  77
ENDBRANCH  72  73
ENDBRANCH  71  72
ENDBRANCH   1  71
TORSDOF 16
ENDMDL
