MODEL 1
REMARK VINA RESULT:     -13.1      0.000      0.000
REMARK SMILES CC(C)(C)c1cc(Nc2ccccc2C(=O)NCCCNC(=O)c2ccc(-c3c4nc(c(-c5cc(S(=O)(=O)[O-])ccc5F)c5ccc([nH]5)c(-c5cc(S(=O)(=O)[O-])ccc5F)c5nc(c(-c6cc(S(=O)(=O)[O-])ccc6F)c6ccc3[nH]6)C=C5)C=C4)cc2)cc2c1OCC2(C)C
REMARK SMILES IDX 19 1 18 2 17 3 15 4 16 5 14 7 9 8 10 9 11 10 13 11 12 12
REMARK SMILES IDX 8 13 7 15 5 16 6 17 89 18 88 19 90 20 87 21 92 22 91 23
REMARK SMILES IDX 93 24 94 25 2 26 1 27 3 28 4 29 20 30 21 31 22 32 23 34
REMARK SMILES IDX 24 35 25 36 86 37 26 38 85 39 27 40 28 41 29 42 79 43 30 44
REMARK SMILES IDX 84 45 78 46 80 47 31 48 83 49 77 50 76 51 32 53 64 54 44 55
REMARK SMILES IDX 63 56 45 57 48 58 62 59 81 60 46 61 47 62 61 64 82 65 49 66
REMARK SMILES IDX 33 67 34 68 42 69 35 70 41 71 43 72 40 73 36 74 37 75 38 76
REMARK SMILES IDX 39 77 65 78 66 79 74 80 67 81 73 82 75 83 72 84 68 85 69 86
REMARK SMILES IDX 70 87 71 88 50 89 51 90 59 91 52 92 58 93 60 94 57 95 53 96
REMARK SMILES IDX 54 97 55 98 56 99
REMARK H PARENT 17 6 8 14 21 33 80 52 48 63
REMARK Flexibility Score: inf
ROOT
ATOM      1  C   UNL A   1      33.674  29.109  24.102  1.00  0.00     0.042 C 
ENDROOT
BRANCH   1   2
ATOM      2  C   UNL A   1      33.024  28.953  22.725  1.00  0.00     0.118 C 
BRANCH   2   3
ATOM      3  N   UNL A   1      33.363  27.755  21.986  1.00  0.00    -0.352 N 
ATOM      4  C   UNL A   1      32.807  26.501  21.948  1.00  0.00     0.253 C 
ATOM      5  O   UNL A   1      33.359  25.704  21.178  1.00  0.00    -0.269 OA
ATOM      6  H   UNL A   1      34.144  27.860  21.397  1.00  0.00     0.163 HD
BRANCH   4   7
ATOM      7  C   UNL A   1      31.648  25.986  22.751  1.00  0.00     0.063 A 
ATOM      8  C   UNL A   1      31.332  24.661  23.115  1.00  0.00     0.051 A 
ATOM      9  C   UNL A   1      30.277  24.442  24.038  1.00  0.00     0.027 A 
ATOM     10  C   UNL A   1      29.506  25.480  24.551  1.00  0.00     0.002 A 
ATOM     11  C   UNL A   1      30.844  27.025  23.285  1.00  0.00     0.016 A 
ATOM     12  C   UNL A   1      29.779  26.777  24.157  1.00  0.00     0.001 A 
BRANCH   8  13
ATOM     13  N   UNL A   1      31.898  23.504  22.544  1.00  0.00    -0.355 N 
ATOM     14  H   UNL A   1      31.583  23.238  21.650  1.00  0.00     0.167 HD
BRANCH  13  15
ATOM     15  C   UNL A   1      32.888  22.692  23.159  1.00  0.00     0.039 A 
ATOM     16  C   UNL A   1      33.512  20.471  24.063  1.00  0.00     0.002 A 
ATOM     17  C   UNL A   1      32.671  21.304  23.286  1.00  0.00     0.034 A 
ATOM     18  C   UNL A   1      34.655  21.077  24.583  1.00  0.00     0.127 A 
ATOM     19  C   UNL A   1      34.909  22.430  24.441  1.00  0.00     0.006 A 
ATOM     20  O   UNL A   1      35.650  20.429  25.261  1.00  0.00    -0.492 OA
ATOM     21  C   UNL A   1      34.036  23.243  23.740  1.00  0.00     0.034 A 
ATOM     22  C   UNL A   1      36.177  22.810  25.127  1.00  0.00     0.028 C 
ATOM     23  C   UNL A   1      36.546  21.450  25.751  1.00  0.00     0.240 C 
ATOM     24  C   UNL A   1      37.226  23.278  24.114  1.00  0.00     0.020 C 
ATOM     25  C   UNL A   1      35.968  23.877  26.208  1.00  0.00     0.020 C 
BRANCH  16  26
ATOM     26  C   UNL A   1      33.147  19.002  24.324  1.00  0.00    -0.009 C 
ATOM     27  C   UNL A   1      34.387  18.077  24.251  1.00  0.00     0.016 C 
ATOM     28  C   UNL A   1      32.153  18.426  23.291  1.00  0.00     0.016 C 
ATOM     29  C   UNL A   1      32.530  18.878  25.725  1.00  0.00     0.016 C 
ENDBRANCH  16  26
ENDBRANCH  13  15
ENDBRANCH   8  13
ENDBRANCH   4   7
ENDBRANCH   2   3
ENDBRANCH   1   2
BRANCH   1  30
ATOM     30  C   UNL A   1      32.739  29.011  25.302  1.00  0.00     0.118 C 
BRANCH  30  31
ATOM     31  N   UNL A   1      32.439  30.276  25.953  1.00  0.00    -0.352 N 
ATOM     32  C   UNL A   1      33.093  31.110  26.827  1.00  0.00     0.251 C 
ATOM     33  H   UNL A   1      31.549  30.618  25.707  1.00  0.00     0.163 HD
ATOM     34  O   UNL A   1      32.509  32.164  27.097  1.00  0.00    -0.269 OA
BRANCH  32  35
ATOM     35  C   UNL A   1      34.393  30.820  27.509  1.00  0.00     0.039 A 
ATOM     36  C   UNL A   1      34.767  29.590  28.036  1.00  0.00     0.014 A 
ATOM     37  C   UNL A   1      35.313  31.884  27.626  1.00  0.00     0.014 A 
ATOM     38  C   UNL A   1      35.964  29.450  28.750  1.00  0.00     0.010 A 
ATOM     39  C   UNL A   1      36.545  31.730  28.285  1.00  0.00     0.010 A 
ATOM     40  C   UNL A   1      36.871  30.514  28.889  1.00  0.00    -0.014 A 
BRANCH  40  41
ATOM     41  C   UNL A   1      38.158  30.267  29.603  1.00  0.00     0.031 A 
ATOM     42  C   UNL A   1      38.438  30.836  30.965  1.00  0.00     0.074 A 
ATOM     43  C   UNL A   1      39.045  29.411  29.057  1.00  0.00     0.049 A 
ATOM     44  N   UNL A   1      39.297  30.423  31.864  1.00  0.00    -0.248 NA
ATOM     45  C   UNL A   1      37.653  31.999  31.386  1.00  0.00     0.031 C 
ATOM     46  C   UNL A   1      38.919  28.821  27.726  1.00  0.00     0.029 A 
ATOM     47  N   UNL A   1      40.198  28.862  29.562  1.00  0.00    -0.354 N 
ATOM     48  C   UNL A   1      39.090  31.222  32.983  1.00  0.00     0.074 A 
ATOM     49  C   UNL A   1      38.069  32.181  32.633  1.00  0.00     0.031 C 
ATOM     50  C   UNL A   1      39.916  27.946  27.540  1.00  0.00     0.029 A 
ATOM     51  C   UNL A   1      40.785  27.949  28.717  1.00  0.00     0.049 A 
ATOM     52  H   UNL A   1      40.569  29.100  30.443  1.00  0.00     0.167 HD
ATOM     53  C   UNL A   1      39.697  31.159  34.192  1.00  0.00     0.034 A 
ATOM     54  C   UNL A   1      41.894  27.194  28.865  1.00  0.00     0.034 A 
ATOM     55  C   UNL A   1      40.811  30.296  34.487  1.00  0.00     0.049 A 
ATOM     56  C   UNL A   1      42.641  27.242  30.171  1.00  0.00     0.074 A 
ATOM     57  C   UNL A   1      41.492  30.159  35.684  1.00  0.00     0.029 A 
ATOM     58  N   UNL A   1      41.450  29.478  33.568  1.00  0.00    -0.354 N 
ATOM     59  N   UNL A   1      42.323  27.871  31.279  1.00  0.00    -0.248 NA
ATOM     60  C   UNL A   1      43.895  26.483  30.253  1.00  0.00     0.031 C 
ATOM     61  C   UNL A   1      42.599  29.335  35.461  1.00  0.00     0.029 A 
ATOM     62  C   UNL A   1      42.564  28.892  34.147  1.00  0.00     0.049 A 
ATOM     63  H   UNL A   1      41.153  29.334  32.639  1.00  0.00     0.167 HD
ATOM     64  C   UNL A   1      43.337  27.583  32.189  1.00  0.00     0.074 A 
ATOM     65  C   UNL A   1      44.256  26.689  31.513  1.00  0.00     0.031 C 
ATOM     66  C   UNL A   1      43.494  28.026  33.463  1.00  0.00     0.034 A 
BRANCH  53  67
ATOM     67  C   UNL A   1      39.187  32.046  35.297  1.00  0.00     0.023 A 
ATOM     68  C   UNL A   1      39.698  33.346  35.466  1.00  0.00     0.031 A 
ATOM     69  C   UNL A   1      38.289  31.550  36.260  1.00  0.00     0.131 A 
ATOM     70  C   UNL A   1      39.331  34.095  36.591  1.00  0.00     0.055 A 
ATOM     71  C   UNL A   1      37.909  32.310  37.366  1.00  0.00     0.041 A 
ATOM     72  F   UNL A   1      37.778  30.314  36.143  1.00  0.00    -0.206 F 
ATOM     73  C   UNL A   1      38.438  33.586  37.541  1.00  0.00     0.022 A 
BRANCH  70  74
ATOM     74  S   UNL A   1      40.026  35.743  36.890  1.00  0.00     0.124 S 
ATOM     75  O   UNL A   1      39.653  36.453  35.670  1.00  0.00    -0.237 OA
ATOM     76  O   UNL A   1      39.318  36.158  38.096  1.00  0.00    -0.237 OA
ATOM     77  O   UNL A   1      41.456  35.495  37.049  1.00  0.00    -0.744 OA
ENDBRANCH  70  74
ENDBRANCH  53  67
BRANCH  54  78
ATOM     78  C   UNL A   1      42.320  26.316  27.736  1.00  0.00     0.023 A 
ATOM     79  C   UNL A   1      41.751  25.039  27.574  1.00  0.00     0.031 A 
ATOM     80  C   UNL A   1      43.378  26.679  26.887  1.00  0.00     0.131 A 
ATOM     81  C   UNL A   1      42.302  24.138  26.656  1.00  0.00     0.055 A 
ATOM     82  C   UNL A   1      43.872  25.805  25.915  1.00  0.00     0.041 A 
ATOM     83  F   UNL A   1      43.959  27.882  27.005  1.00  0.00    -0.206 F 
ATOM     84  C   UNL A   1      43.348  24.519  25.812  1.00  0.00     0.022 A 
BRANCH  81  85
ATOM     85  S   UNL A   1      41.788  22.397  26.650  1.00  0.00     0.124 S 
ATOM     86  O   UNL A   1      42.318  21.921  27.923  1.00  0.00    -0.237 OA
ATOM     87  O   UNL A   1      40.334  22.514  26.574  1.00  0.00    -0.237 OA
ATOM     88  O   UNL A   1      42.426  21.854  25.456  1.00  0.00    -0.744 OA
ENDBRANCH  81  85
ENDBRANCH  54  78
BRANCH  66  89
ATOM     89  C   UNL A   1      44.732  27.606  34.219  1.00  0.00     0.023 A 
ATOM     90  C   UNL A   1      44.726  26.439  35.005  1.00  0.00     0.031 A 
ATOM     91  C   UNL A   1      45.868  28.435  34.270  1.00  0.00     0.131 A 
ATOM     92  C   UNL A   1      45.816  26.151  35.837  1.00  0.00     0.055 A 
ATOM     93  C   UNL A   1      46.972  28.118  35.064  1.00  0.00     0.041 A 
ATOM     94  F   UNL A   1      45.920  29.565  33.548  1.00  0.00    -0.206 F 
ATOM     95  C   UNL A   1      46.941  26.980  35.864  1.00  0.00     0.022 A 
BRANCH  92  96
ATOM     96  S   UNL A   1      45.771  24.747  36.986  1.00  0.00     0.124 S 
ATOM     97  O   UNL A   1      47.173  24.640  37.382  1.00  0.00    -0.237 OA
ATOM     98  O   UNL A   1      44.864  25.227  38.025  1.00  0.00    -0.237 OA
ATOM     99  O   UNL A   1      45.265  23.644  36.175  1.00  0.00    -0.744 OA
ENDBRANCH  92  96
ENDBRANCH  66  89
ENDBRANCH  40  41
ENDBRANCH  32  35
ENDBRANCH  30  31
ENDBRANCH   1  30
TORSDOF 16
ENDMDL
MODEL 2
REMARK VINA RESULT:     -12.9      1.966      2.296
REMARK SMILES CC(C)(C)c1cc(Nc2ccccc2C(=O)NCCCNC(=O)c2ccc(-c3c4nc(c(-c5cc(S(=O)(=O)[O-])ccc5F)c5ccc([nH]5)c(-c5cc(S(=O)(=O)[O-])ccc5F)c5nc(c(-c6cc(S(=O)(=O)[O-])ccc6F)c6ccc3[nH]6)C=C5)C=C4)cc2)cc2c1OCC2(C)C
REMARK SMILES IDX 19 1 18 2 17 3 15 4 16 5 14 7 9 8 10 9 11 10 13 11 12 12
REMARK SMILES IDX 8 13 7 15 5 16 6 17 89 18 88 19 90 20 87 21 92 22 91 23
REMARK SMILES IDX 93 24 94 25 2 26 1 27 3 28 4 29 20 30 21 31 22 32 23 34
REMARK SMILES IDX 24 35 25 36 86 37 26 38 85 39 27 40 28 41 29 42 79 43 30 44
REMARK SMILES IDX 84 45 78 46 80 47 31 48 83 49 77 50 76 51 32 53 64 54 44 55
REMARK SMILES IDX 63 56 45 57 48 58 62 59 81 60 46 61 47 62 61 64 82 65 49 66
REMARK SMILES IDX 33 67 34 68 42 69 35 70 41 71 43 72 40 73 36 74 37 75 38 76
REMARK SMILES IDX 39 77 65 78 66 79 74 80 67 81 73 82 75 83 72 84 68 85 69 86
REMARK SMILES IDX 70 87 71 88 50 89 51 90 59 91 52 92 58 93 60 94 57 95 53 96
REMARK SMILES IDX 54 97 55 98 56 99
REMARK H PARENT 17 6 8 14 21 33 80 52 48 63
REMARK Flexibility Score: inf
ROOT
ATOM      1  C   UNL A   1      33.846  28.670  24.885  1.00  0.00     0.042 C 
ENDROOT
BRANCH   1   2
ATOM      2  C   UNL A   1      33.453  28.920  23.428  1.00  0.00     0.118 C 
BRANCH   2   3
ATOM      3  N   UNL A   1      33.755  27.861  22.489  1.00  0.00    -0.352 N 
ATOM      4  C   UNL A   1      33.098  26.704  22.153  1.00  0.00     0.253 C 
ATOM      5  O   UNL A   1      33.650  26.020  21.283  1.00  0.00    -0.269 OA
ATOM      6  H   UNL A   1      34.597  27.996  21.996  1.00  0.00     0.163 HD
BRANCH   4   7
ATOM      7  C   UNL A   1      31.826  26.168  22.742  1.00  0.00     0.063 A 
ATOM      8  C   UNL A   1      31.435  24.830  22.955  1.00  0.00     0.051 A 
ATOM      9  C   UNL A   1      30.254  24.576  23.700  1.00  0.00     0.027 A 
ATOM     10  C   UNL A   1      29.437  25.597  24.175  1.00  0.00     0.002 A 
ATOM     11  C   UNL A   1      30.973  27.188  23.234  1.00  0.00     0.016 A 
ATOM     12  C   UNL A   1      29.789  26.911  23.925  1.00  0.00     0.001 A 
BRANCH   8  13
ATOM     13  N   UNL A   1      32.055  23.701  22.384  1.00  0.00    -0.355 N 
ATOM     14  H   UNL A   1      31.813  23.470  21.458  1.00  0.00     0.167 HD
BRANCH  13  15
ATOM     15  C   UNL A   1      33.000  22.870  23.042  1.00  0.00     0.039 A 
ATOM     16  C   UNL A   1      33.536  20.639  23.978  1.00  0.00     0.002 A 
ATOM     17  C   UNL A   1      32.746  21.487  23.165  1.00  0.00     0.034 A 
ATOM     18  C   UNL A   1      34.670  21.221  24.543  1.00  0.00     0.127 A 
ATOM     19  C   UNL A   1      34.960  22.568  24.407  1.00  0.00     0.006 A 
ATOM     20  O   UNL A   1      35.622  20.554  25.264  1.00  0.00    -0.492 OA
ATOM     21  C   UNL A   1      34.136  23.397  23.668  1.00  0.00     0.034 A 
ATOM     22  C   UNL A   1      36.207  22.922  25.144  1.00  0.00     0.028 C 
ATOM     23  C   UNL A   1      36.519  21.557  25.787  1.00  0.00     0.240 C 
ATOM     24  C   UNL A   1      37.308  23.362  24.174  1.00  0.00     0.020 C 
ATOM     25  C   UNL A   1      35.978  23.998  26.212  1.00  0.00     0.020 C 
BRANCH  16  26
ATOM     26  C   UNL A   1      33.128  19.179  24.229  1.00  0.00    -0.009 C 
ATOM     27  C   UNL A   1      32.470  18.995  25.618  1.00  0.00     0.016 C 
ATOM     28  C   UNL A   1      34.321  18.199  24.215  1.00  0.00     0.016 C 
ATOM     29  C   UNL A   1      32.121  18.747  23.152  1.00  0.00     0.016 C 
ENDBRANCH  16  26
ENDBRANCH  13  15
ENDBRANCH   8  13
ENDBRANCH   4   7
ENDBRANCH   2   3
ENDBRANCH   1   2
BRANCH   1  30
ATOM     30  C   UNL A   1      32.739  28.842  25.920  1.00  0.00     0.118 C 
BRANCH  30  31
ATOM     31  N   UNL A   1      32.602  30.185  26.457  1.00  0.00    -0.352 N 
ATOM     32  C   UNL A   1      33.409  31.050  27.158  1.00  0.00     0.251 C 
ATOM     33  H   UNL A   1      31.715  30.570  26.274  1.00  0.00     0.163 HD
ATOM     34  O   UNL A   1      32.931  32.168  27.374  1.00  0.00    -0.269 OA
BRANCH  32  35
ATOM     35  C   UNL A   1      34.758  30.729  27.721  1.00  0.00     0.039 A 
ATOM     36  C   UNL A   1      35.126  29.512  28.282  1.00  0.00     0.014 A 
ATOM     37  C   UNL A   1      35.734  31.747  27.677  1.00  0.00     0.014 A 
ATOM     38  C   UNL A   1      36.383  29.349  28.877  1.00  0.00     0.010 A 
ATOM     39  C   UNL A   1      37.020  31.564  28.216  1.00  0.00     0.010 A 
ATOM     40  C   UNL A   1      37.349  30.368  28.857  1.00  0.00    -0.014 A 
BRANCH  40  41
ATOM     41  C   UNL A   1      38.690  30.093  29.450  1.00  0.00     0.031 A 
ATOM     42  C   UNL A   1      39.111  30.664  30.775  1.00  0.00     0.074 A 
ATOM     43  C   UNL A   1      39.501  29.211  28.833  1.00  0.00     0.049 A 
ATOM     44  N   UNL A   1      40.040  30.237  31.594  1.00  0.00    -0.248 NA
ATOM     45  C   UNL A   1      38.398  31.851  31.257  1.00  0.00     0.031 C 
ATOM     46  C   UNL A   1      39.236  28.614  27.525  1.00  0.00     0.029 A 
ATOM     47  N   UNL A   1      40.682  28.636  29.233  1.00  0.00    -0.354 N 
ATOM     48  C   UNL A   1      39.958  31.048  32.720  1.00  0.00     0.074 A 
ATOM     49  C   UNL A   1      38.934  32.031  32.457  1.00  0.00     0.031 C 
ATOM     50  C   UNL A   1      40.189  27.713  27.256  1.00  0.00     0.029 A 
ATOM     51  C   UNL A   1      41.164  27.702  28.346  1.00  0.00     0.049 A 
ATOM     52  H   UNL A   1      41.139  28.870  30.073  1.00  0.00     0.167 HD
ATOM     53  C   UNL A   1      40.674  30.979  33.867  1.00  0.00     0.034 A 
ATOM     54  C   UNL A   1      42.262  26.919  28.397  1.00  0.00     0.034 A 
ATOM     55  C   UNL A   1      41.789  30.089  34.065  1.00  0.00     0.049 A 
ATOM     56  C   UNL A   1      43.129  26.957  29.628  1.00  0.00     0.074 A 
ATOM     57  C   UNL A   1      42.575  29.943  35.195  1.00  0.00     0.029 A 
ATOM     58  N   UNL A   1      42.317  29.248  33.099  1.00  0.00    -0.354 N 
ATOM     59  N   UNL A   1      42.932  27.602  30.754  1.00  0.00    -0.248 NA
ATOM     60  C   UNL A   1      44.366  26.166  29.600  1.00  0.00     0.031 C 
ATOM     61  C   UNL A   1      43.635  29.089  34.877  1.00  0.00     0.029 A 
ATOM     62  C   UNL A   1      43.466  28.638  33.577  1.00  0.00     0.049 A 
ATOM     63  H   UNL A   1      41.932  29.105  32.203  1.00  0.00     0.167 HD
ATOM     64  C   UNL A   1      44.020  27.294  31.568  1.00  0.00     0.074 A 
ATOM     65  C   UNL A   1      44.848  26.372  30.818  1.00  0.00     0.031 C 
ATOM     66  C   UNL A   1      44.306  27.742  32.817  1.00  0.00     0.034 A 
BRANCH  53  67
ATOM     67  C   UNL A   1      40.292  31.887  35.006  1.00  0.00     0.023 A 
ATOM     68  C   UNL A   1      39.333  31.485  35.953  1.00  0.00     0.031 A 
ATOM     69  C   UNL A   1      40.786  33.203  35.072  1.00  0.00     0.131 A 
ATOM     70  C   UNL A   1      38.874  32.401  36.908  1.00  0.00     0.055 A 
ATOM     71  C   UNL A   1      40.342  34.104  36.041  1.00  0.00     0.041 A 
ATOM     72  F   UNL A   1      41.700  33.634  34.187  1.00  0.00    -0.206 F 
ATOM     73  C   UNL A   1      39.374  33.707  36.959  1.00  0.00     0.022 A 
BRANCH  70  74
ATOM     74  S   UNL A   1      37.581  31.950  38.097  1.00  0.00     0.124 S 
ATOM     75  O   UNL A   1      38.259  32.163  39.373  1.00  0.00    -0.237 OA
ATOM     76  O   UNL A   1      36.528  32.908  37.782  1.00  0.00    -0.237 OA
ATOM     77  O   UNL A   1      37.286  30.556  37.780  1.00  0.00    -0.744 OA
ENDBRANCH  70  74
ENDBRANCH  53  67
BRANCH  54  78
ATOM     78  C   UNL A   1      42.559  26.022  27.242  1.00  0.00     0.023 A 
ATOM     79  C   UNL A   1      42.015  24.725  27.191  1.00  0.00     0.031 A 
ATOM     80  C   UNL A   1      43.479  26.391  26.247  1.00  0.00     0.131 A 
ATOM     81  C   UNL A   1      42.464  23.814  26.228  1.00  0.00     0.055 A 
ATOM     82  C   UNL A   1      43.863  25.505  25.238  1.00  0.00     0.041 A 
ATOM     83  F   UNL A   1      44.031  27.614  26.255  1.00  0.00    -0.206 F 
ATOM     84  C   UNL A   1      43.373  24.201  25.240  1.00  0.00     0.022 A 
BRANCH  81  85
ATOM     85  S   UNL A   1      42.012  22.060  26.334  1.00  0.00     0.124 S 
ATOM     86  O   UNL A   1      42.767  21.485  25.226  1.00  0.00    -0.237 OA
ATOM     87  O   UNL A   1      42.485  21.710  27.671  1.00  0.00    -0.237 OA
ATOM     88  O   UNL A   1      40.562  22.068  26.175  1.00  0.00    -0.744 OA
ENDBRANCH  81  85
ENDBRANCH  54  78
BRANCH  66  89
ATOM     89  C   UNL A   1      45.598  27.296  33.459  1.00  0.00     0.023 A 
ATOM     90  C   UNL A   1      46.789  28.011  33.236  1.00  0.00     0.031 A 
ATOM     91  C   UNL A   1      45.674  26.089  34.178  1.00  0.00     0.131 A 
ATOM     92  C   UNL A   1      48.010  27.495  33.691  1.00  0.00     0.055 A 
ATOM     93  C   UNL A   1      46.886  25.604  34.672  1.00  0.00     0.041 A 
ATOM     94  F   UNL A   1      44.568  25.364  34.409  1.00  0.00    -0.206 F 
ATOM     95  C   UNL A   1      48.063  26.300  34.415  1.00  0.00     0.022 A 
BRANCH  92  96
ATOM     96  S   UNL A   1      49.581  28.304  33.276  1.00  0.00     0.124 S 
ATOM     97  O   UNL A   1      49.124  29.553  32.673  1.00  0.00    -0.237 OA
ATOM     98  O   UNL A   1      50.214  28.439  34.585  1.00  0.00    -0.237 OA
ATOM     99  O   UNL A   1      50.228  27.369  32.361  1.00  0.00    -0.744 OA
ENDBRANCH  92  96
ENDBRANCH  66  89
ENDBRANCH  40  41
ENDBRANCH  32  35
ENDBRANCH  30  31
ENDBRANCH   1  30
TORSDOF 16
ENDMDL
MODEL 3
REMARK VINA RESULT:     -12.9      4.807     10.079
REMARK SMILES CC(C)(C)c1cc(Nc2ccccc2C(=O)NCCCNC(=O)c2ccc(-c3c4nc(c(-c5cc(S(=O)(=O)[O-])ccc5F)c5ccc([nH]5)c(-c5cc(S(=O)(=O)[O-])ccc5F)c5nc(c(-c6cc(S(=O)(=O)[O-])ccc6F)c6ccc3[nH]6)C=C5)C=C4)cc2)cc2c1OCC2(C)C
REMARK SMILES IDX 19 1 18 2 17 3 15 4 16 5 14 7 9 8 10 9 11 10 13 11 12 12
REMARK SMILES IDX 8 13 7 15 5 16 6 17 89 18 88 19 90 20 87 21 92 22 91 23
REMARK SMILES IDX 93 24 94 25 2 26 1 27 3 28 4 29 20 30 21 31 22 32 23 34
REMARK SMILES IDX 24 35 25 36 86 37 26 38 85 39 27 40 28 41 29 42 79 43 30 44
REMARK SMILES IDX 84 45 78 46 80 47 31 48 83 49 77 50 76 51 32 53 64 54 44 55
REMARK SMILES IDX 63 56 45 57 48 58 62 59 81 60 46 61 47 62 61 64 82 65 49 66
REMARK SMILES IDX 33 67 34 68 42 69 35 70 41 71 43 72 40 73 36 74 37 75 38 76
REMARK SMILES IDX 39 77 65 78 66 79 74 80 67 81 73 82 75 83 72 84 68 85 69 86
REMARK SMILES IDX 70 87 71 88 50 89 51 90 59 91 52 92 58 93 60 94 57 95 53 96
REMARK SMILES IDX 54 97 55 98 56 99
REMARK H PARENT 17 6 8 14 21 33 80 52 48 63
REMARK Flexibility Score: inf
ROOT
ATOM      1  C   UNL A   1      36.821  22.205  24.195  1.00  0.00     0.042 C 
ENDROOT
BRANCH   1   2
ATOM      2  C   UNL A   1      36.004  23.466  23.905  1.00  0.00     0.118 C 
BRANCH   2   3
ATOM      3  N   UNL A   1      35.117  23.408  22.763  1.00  0.00    -0.352 N 
ATOM      4  C   UNL A   1      33.750  23.342  22.652  1.00  0.00     0.253 C 
ATOM      5  O   UNL A   1      33.317  23.316  21.494  1.00  0.00    -0.269 OA
ATOM      6  H   UNL A   1      35.585  23.418  21.897  1.00  0.00     0.163 HD
BRANCH   4   7
ATOM      7  C   UNL A   1      32.744  23.259  23.762  1.00  0.00     0.063 A 
ATOM      8  C   UNL A   1      31.541  23.974  23.932  1.00  0.00     0.051 A 
ATOM      9  C   UNL A   1      30.660  23.588  24.976  1.00  0.00     0.027 A 
ATOM     10  C   UNL A   1      30.967  22.569  25.873  1.00  0.00     0.002 A 
ATOM     11  C   UNL A   1      33.033  22.228  24.693  1.00  0.00     0.016 A 
ATOM     12  C   UNL A   1      32.169  21.898  25.742  1.00  0.00     0.001 A 
BRANCH   8  13
ATOM     13  N   UNL A   1      31.179  25.138  23.224  1.00  0.00    -0.355 N 
ATOM     14  H   UNL A   1      30.987  25.043  22.264  1.00  0.00     0.167 HD
BRANCH  13  15
ATOM     15  C   UNL A   1      31.071  26.436  23.791  1.00  0.00     0.039 A 
ATOM     16  C   UNL A   1      30.090  28.708  23.653  1.00  0.00     0.002 A 
ATOM     17  C   UNL A   1      30.118  27.342  23.280  1.00  0.00     0.034 A 
ATOM     18  C   UNL A   1      30.974  29.078  24.666  1.00  0.00     0.127 A 
ATOM     19  C   UNL A   1      31.895  28.199  25.208  1.00  0.00     0.006 A 
ATOM     20  O   UNL A   1      31.029  30.315  25.248  1.00  0.00    -0.492 OA
ATOM     21  C   UNL A   1      31.956  26.886  24.778  1.00  0.00     0.034 A 
ATOM     22  C   UNL A   1      32.733  28.874  26.240  1.00  0.00     0.028 C 
ATOM     23  C   UNL A   1      32.179  30.307  26.121  1.00  0.00     0.240 C 
ATOM     24  C   UNL A   1      32.478  28.275  27.627  1.00  0.00     0.020 C 
ATOM     25  C   UNL A   1      34.229  28.829  25.908  1.00  0.00     0.020 C 
BRANCH  16  26
ATOM     26  C   UNL A   1      29.155  29.701  22.948  1.00  0.00    -0.009 C 
ATOM     27  C   UNL A   1      29.701  30.121  21.561  1.00  0.00     0.016 C 
ATOM     28  C   UNL A   1      28.968  31.023  23.724  1.00  0.00     0.016 C 
ATOM     29  C   UNL A   1      27.780  29.045  22.751  1.00  0.00     0.016 C 
ENDBRANCH  16  26
ENDBRANCH  13  15
ENDBRANCH   8  13
ENDBRANCH   4   7
ENDBRANCH   2   3
ENDBRANCH   1   2
BRANCH   1  30
ATOM     30  C   UNL A   1      37.175  21.954  25.657  1.00  0.00     0.118 C 
BRANCH  30  31
ATOM     31  N   UNL A   1      38.326  21.095  25.873  1.00  0.00    -0.352 N 
ATOM     32  C   UNL A   1      39.573  21.244  26.432  1.00  0.00     0.251 C 
ATOM     33  H   UNL A   1      38.177  20.182  25.537  1.00  0.00     0.163 HD
ATOM     34  O   UNL A   1      40.258  20.219  26.490  1.00  0.00    -0.269 OA
BRANCH  32  35
ATOM     35  C   UNL A   1      40.173  22.531  26.905  1.00  0.00     0.039 A 
ATOM     36  C   UNL A   1      41.094  22.657  27.939  1.00  0.00     0.014 A 
ATOM     37  C   UNL A   1      39.771  23.712  26.246  1.00  0.00     0.014 A 
ATOM     38  C   UNL A   1      41.514  23.920  28.374  1.00  0.00     0.010 A 
ATOM     39  C   UNL A   1      40.241  24.977  26.638  1.00  0.00     0.010 A 
ATOM     40  C   UNL A   1      41.096  25.100  27.735  1.00  0.00    -0.014 A 
BRANCH  40  41
ATOM     41  C   UNL A   1      41.643  26.403  28.213  1.00  0.00     0.031 A 
ATOM     42  C   UNL A   1      43.044  26.846  27.898  1.00  0.00     0.074 A 
ATOM     43  C   UNL A   1      40.816  27.258  28.846  1.00  0.00     0.049 A 
ATOM     44  N   UNL A   1      43.538  28.059  27.892  1.00  0.00    -0.248 NA
ATOM     45  C   UNL A   1      44.013  25.810  27.526  1.00  0.00     0.031 C 
ATOM     46  C   UNL A   1      39.447  26.942  29.252  1.00  0.00     0.029 A 
ATOM     47  N   UNL A   1      40.985  28.567  29.223  1.00  0.00    -0.354 N 
ATOM     48  C   UNL A   1      44.845  27.936  27.432  1.00  0.00     0.074 A 
ATOM     49  C   UNL A   1      45.088  26.527  27.227  1.00  0.00     0.031 C 
ATOM     50  C   UNL A   1      38.879  28.041  29.764  1.00  0.00     0.029 A 
ATOM     51  C   UNL A   1      39.857  29.129  29.774  1.00  0.00     0.049 A 
ATOM     52  H   UNL A   1      41.833  29.056  29.111  1.00  0.00     0.167 HD
ATOM     53  C   UNL A   1      45.757  28.910  27.204  1.00  0.00     0.034 A 
ATOM     54  C   UNL A   1      39.625  30.377  30.233  1.00  0.00     0.034 A 
ATOM     55  C   UNL A   1      45.556  30.294  27.546  1.00  0.00     0.049 A 
ATOM     56  C   UNL A   1      40.705  31.416  30.097  1.00  0.00     0.074 A 
ATOM     57  C   UNL A   1      46.420  31.357  27.351  1.00  0.00     0.029 A 
ATOM     58  N   UNL A   1      44.449  30.797  28.211  1.00  0.00    -0.354 N 
ATOM     59  N   UNL A   1      41.869  31.322  29.497  1.00  0.00    -0.248 NA
ATOM     60  C   UNL A   1      40.448  32.731  30.700  1.00  0.00     0.031 C 
ATOM     61  C   UNL A   1      45.879  32.478  27.984  1.00  0.00     0.029 A 
ATOM     62  C   UNL A   1      44.639  32.138  28.505  1.00  0.00     0.049 A 
ATOM     63  H   UNL A   1      43.644  30.277  28.441  1.00  0.00     0.167 HD
ATOM     64  C   UNL A   1      42.481  32.564  29.649  1.00  0.00     0.074 A 
ATOM     65  C   UNL A   1      41.540  33.403  30.363  1.00  0.00     0.031 C 
ATOM     66  C   UNL A   1      43.713  32.965  29.242  1.00  0.00     0.034 A 
BRANCH  53  67
ATOM     67  C   UNL A   1      47.064  28.531  26.560  1.00  0.00     0.023 A 
ATOM     68  C   UNL A   1      47.146  28.325  25.171  1.00  0.00     0.031 A 
ATOM     69  C   UNL A   1      48.196  28.245  27.346  1.00  0.00     0.131 A 
ATOM     70  C   UNL A   1      48.327  27.819  24.613  1.00  0.00     0.055 A 
ATOM     71  C   UNL A   1      49.377  27.763  26.781  1.00  0.00     0.041 A 
ATOM     72  F   UNL A   1      48.164  28.422  28.677  1.00  0.00    -0.206 F 
ATOM     73  C   UNL A   1      49.443  27.538  25.409  1.00  0.00     0.022 A 
BRANCH  70  74
ATOM     74  S   UNL A   1      48.450  27.464  22.839  1.00  0.00     0.124 S 
ATOM     75  O   UNL A   1      48.333  26.009  22.814  1.00  0.00    -0.237 OA
ATOM     76  O   UNL A   1      47.307  28.193  22.301  1.00  0.00    -0.237 OA
ATOM     77  O   UNL A   1      49.764  27.984  22.470  1.00  0.00    -0.744 OA
ENDBRANCH  70  74
ENDBRANCH  53  67
BRANCH  54  78
ATOM     78  C   UNL A   1      38.293  30.685  30.831  1.00  0.00     0.023 A 
ATOM     79  C   UNL A   1      37.288  31.292  30.054  1.00  0.00     0.031 A 
ATOM     80  C   UNL A   1      38.046  30.501  32.200  1.00  0.00     0.131 A 
ATOM     81  C   UNL A   1      36.126  31.777  30.666  1.00  0.00     0.055 A 
ATOM     82  C   UNL A   1      36.850  30.913  32.793  1.00  0.00     0.041 A 
ATOM     83  F   UNL A   1      38.975  29.933  32.986  1.00  0.00    -0.206 F 
ATOM     84  C   UNL A   1      35.894  31.576  32.029  1.00  0.00     0.022 A 
BRANCH  81  85
ATOM     85  S   UNL A   1      34.969  32.829  29.746  1.00  0.00     0.124 S 
ATOM     86  O   UNL A   1      35.855  33.853  29.205  1.00  0.00    -0.237 OA
ATOM     87  O   UNL A   1      34.420  31.889  28.772  1.00  0.00    -0.237 OA
ATOM     88  O   UNL A   1      34.029  33.280  30.766  1.00  0.00    -0.744 OA
ENDBRANCH  81  85
ENDBRANCH  54  78
BRANCH  66  89
ATOM     89  C   UNL A   1      44.164  34.362  29.594  1.00  0.00     0.023 A 
ATOM     90  C   UNL A   1      43.932  35.431  28.708  1.00  0.00     0.031 A 
ATOM     91  C   UNL A   1      44.941  34.608  30.741  1.00  0.00     0.131 A 
ATOM     92  C   UNL A   1      44.504  36.685  28.961  1.00  0.00     0.055 A 
ATOM     93  C   UNL A   1      45.467  35.871  31.013  1.00  0.00     0.041 A 
ATOM     94  F   UNL A   1      45.200  33.620  31.612  1.00  0.00    -0.206 F 
ATOM     95  C   UNL A   1      45.263  36.912  30.113  1.00  0.00     0.022 A 
BRANCH  92  96
ATOM     96  S   UNL A   1      44.366  38.036  27.758  1.00  0.00     0.124 S 
ATOM     97  O   UNL A   1      43.246  37.589  26.933  1.00  0.00    -0.237 OA
ATOM     98  O   UNL A   1      44.089  39.186  28.614  1.00  0.00    -0.237 OA
ATOM     99  O   UNL A   1      45.665  38.050  27.093  1.00  0.00    -0.744 OA
ENDBRANCH  92  96
ENDBRANCH  66  89
ENDBRANCH  40  41
ENDBRANCH  32  35
ENDBRANCH  30  31
ENDBRANCH   1  30
TORSDOF 16
ENDMDL
