MODEL 1
REMARK VINA RESULT:     -12.6      0.000      0.000
REMARK SMILES O=C(NCCCNC(=O)[C@H]1CC[C@@H]2CCCC[C@H]2N1C(=O)Cn1cnnn1)c1ccc(-c2c3nc(c(-c4cc(S(=O)(=O)[O-])ccc4F)c4ccc([nH]4)c(-c4cc(S(=O)(=O)[O-])ccc4F)c4nc(c(-c5cc(S(=O)(=O)[O-])ccc5F)c5ccc2[nH]5)C=C4)C=C3)cc1
REMARK SMILES IDX 5 1 4 2 3 3 1 4 2 5 28 7 29 8 90 9 30 10 89 11 31 12 32 13
REMARK SMILES IDX 33 14 83 15 34 16 88 17 82 18 84 19 35 20 87 21 81 22 80 23
REMARK SMILES IDX 36 25 68 26 48 27 67 28 49 29 52 30 66 31 85 32 50 33 51 34
REMARK SMILES IDX 65 36 86 37 53 38 37 39 38 40 46 41 39 42 45 43 47 44 44 45
REMARK SMILES IDX 40 46 41 47 42 48 43 49 69 50 70 51 78 52 71 53 77 54 79 55
REMARK SMILES IDX 76 56 72 57 73 58 74 59 75 60 54 61 55 62 63 63 56 64 62 65
REMARK SMILES IDX 64 66 61 67 57 68 58 69 59 70 60 71 6 72 7 73 8 74 9 76
REMARK SMILES IDX 10 77 11 78 19 79 12 80 18 81 13 82 17 83 14 84 16 85 15 86
REMARK SMILES IDX 20 87 21 88 22 89 23 90 24 91 27 92 25 93 26 94
REMARK H PARENT 3 6 84 24 52 35 7 75
REMARK Flexibility Score: inf
ROOT
ATOM      1  C   UNL A   1      37.419  23.331  24.979  1.00  0.00     0.042 C 
ENDROOT
BRANCH   1   2
ATOM      2  C   UNL A   1      38.076  22.444  26.044  1.00  0.00     0.118 C 
BRANCH   2   3
ATOM      3  N   UNL A   1      39.526  22.358  26.034  1.00  0.00    -0.352 N 
ATOM      4  O   UNL A   1      41.605  22.345  26.757  1.00  0.00    -0.269 OA
ATOM      5  C   UNL A   1      40.539  22.967  26.730  1.00  0.00     0.251 C 
ATOM      6  H   UNL A   1      39.861  21.711  25.372  1.00  0.00     0.163 HD
BRANCH   5   7
ATOM      7  C   UNL A   1      40.468  24.306  27.382  1.00  0.00     0.039 A 
ATOM      8  C   UNL A   1      39.525  25.291  27.100  1.00  0.00     0.014 A 
ATOM      9  C   UNL A   1      41.513  24.614  28.276  1.00  0.00     0.014 A 
ATOM     10  C   UNL A   1      39.672  26.581  27.615  1.00  0.00     0.010 A 
ATOM     11  C   UNL A   1      41.655  25.894  28.805  1.00  0.00     0.010 A 
ATOM     12  C   UNL A   1      40.757  26.892  28.438  1.00  0.00    -0.014 A 
BRANCH  12  13
ATOM     13  C   UNL A   1      40.844  28.237  29.013  1.00  0.00     0.031 A 
ATOM     14  C   UNL A   1      41.949  29.084  28.471  1.00  0.00     0.074 A 
ATOM     15  C   UNL A   1      39.897  28.761  29.819  1.00  0.00     0.049 A 
ATOM     16  N   UNL A   1      42.896  29.693  29.109  1.00  0.00    -0.248 NA
ATOM     17  C   UNL A   1      42.062  29.193  27.007  1.00  0.00     0.031 C 
ATOM     18  C   UNL A   1      38.616  28.162  30.199  1.00  0.00     0.029 A 
ATOM     19  N   UNL A   1      39.826  30.009  30.373  1.00  0.00    -0.354 N 
ATOM     20  C   UNL A   1      43.607  30.419  28.153  1.00  0.00     0.074 A 
ATOM     21  C   UNL A   1      43.148  29.953  26.874  1.00  0.00     0.031 C 
ATOM     22  C   UNL A   1      37.809  29.119  30.709  1.00  0.00     0.029 A 
ATOM     23  C   UNL A   1      38.552  30.365  30.809  1.00  0.00     0.049 A 
ATOM     24  H   UNL A   1      40.607  30.603  30.456  1.00  0.00     0.167 HD
ATOM     25  C   UNL A   1      44.384  31.490  28.483  1.00  0.00     0.034 A 
ATOM     26  C   UNL A   1      38.110  31.608  31.145  1.00  0.00     0.034 A 
ATOM     27  C   UNL A   1      44.742  31.473  29.879  1.00  0.00     0.049 A 
ATOM     28  C   UNL A   1      39.304  32.427  31.463  1.00  0.00     0.074 A 
ATOM     29  C   UNL A   1      45.421  30.588  30.695  1.00  0.00     0.029 A 
ATOM     30  N   UNL A   1      44.087  32.324  30.740  1.00  0.00    -0.354 N 
ATOM     31  N   UNL A   1      40.087  32.194  32.481  1.00  0.00    -0.248 NA
ATOM     32  C   UNL A   1      39.902  33.214  30.394  1.00  0.00     0.031 C 
ATOM     33  C   UNL A   1      44.716  30.620  31.935  1.00  0.00     0.029 A 
ATOM     34  C   UNL A   1      43.697  31.568  31.817  1.00  0.00     0.049 A 
ATOM     35  H   UNL A   1      43.930  33.287  30.609  1.00  0.00     0.167 HD
ATOM     36  C   UNL A   1      41.370  32.411  32.005  1.00  0.00     0.074 A 
ATOM     37  C   UNL A   1      41.188  33.133  30.747  1.00  0.00     0.031 C 
ATOM     38  C   UNL A   1      42.445  31.747  32.525  1.00  0.00     0.034 A 
BRANCH  25  39
ATOM     39  C   UNL A   1      44.554  32.727  27.625  1.00  0.00     0.023 A 
ATOM     40  C   UNL A   1      43.874  33.898  28.017  1.00  0.00     0.031 A 
ATOM     41  C   UNL A   1      45.088  32.741  26.315  1.00  0.00     0.131 A 
ATOM     42  C   UNL A   1      43.663  34.953  27.111  1.00  0.00     0.055 A 
ATOM     43  C   UNL A   1      44.936  33.821  25.442  1.00  0.00     0.041 A 
ATOM     44  F   UNL A   1      45.699  31.682  25.772  1.00  0.00    -0.206 F 
ATOM     45  C   UNL A   1      44.192  34.922  25.824  1.00  0.00     0.022 A 
BRANCH  42  46
ATOM     46  S   UNL A   1      42.520  36.280  27.579  1.00  0.00     0.124 S 
ATOM     47  O   UNL A   1      42.827  37.301  26.583  1.00  0.00    -0.237 OA
ATOM     48  O   UNL A   1      41.226  35.620  27.448  1.00  0.00    -0.237 OA
ATOM     49  O   UNL A   1      42.920  36.604  28.946  1.00  0.00    -0.744 OA
ENDBRANCH  42  46
ENDBRANCH  25  39
BRANCH  26  50
ATOM     50  C   UNL A   1      36.769  32.186  30.838  1.00  0.00     0.023 A 
ATOM     51  C   UNL A   1      35.939  32.792  31.808  1.00  0.00     0.031 A 
ATOM     52  C   UNL A   1      36.379  32.345  29.488  1.00  0.00     0.131 A 
ATOM     53  C   UNL A   1      34.776  33.497  31.410  1.00  0.00     0.055 A 
ATOM     54  C   UNL A   1      35.227  33.032  29.103  1.00  0.00     0.041 A 
ATOM     55  F   UNL A   1      37.155  31.906  28.485  1.00  0.00    -0.206 F 
ATOM     56  C   UNL A   1      34.421  33.618  30.064  1.00  0.00     0.022 A 
BRANCH  53  57
ATOM     57  S   UNL A   1      33.737  34.355  32.642  1.00  0.00     0.124 S 
ATOM     58  O   UNL A   1      32.820  35.118  31.797  1.00  0.00    -0.237 OA
ATOM     59  O   UNL A   1      33.161  33.252  33.393  1.00  0.00    -0.237 OA
ATOM     60  O   UNL A   1      34.697  35.170  33.391  1.00  0.00    -0.744 OA
ENDBRANCH  53  57
ENDBRANCH  26  50
BRANCH  38  61
ATOM     61  C   UNL A   1      42.257  30.950  33.800  1.00  0.00     0.023 A 
ATOM     62  C   UNL A   1      42.016  29.557  33.850  1.00  0.00     0.031 A 
ATOM     63  C   UNL A   1      42.466  31.617  35.020  1.00  0.00     0.131 A 
ATOM     64  C   UNL A   1      41.981  28.890  35.090  1.00  0.00     0.055 A 
ATOM     65  C   UNL A   1      42.451  30.949  36.244  1.00  0.00     0.041 A 
ATOM     66  F   UNL A   1      42.732  32.934  35.040  1.00  0.00    -0.206 F 
ATOM     67  C   UNL A   1      42.203  29.583  36.284  1.00  0.00     0.022 A 
BRANCH  64  68
ATOM     68  S   UNL A   1      41.642  27.100  35.181  1.00  0.00     0.124 S 
ATOM     69  O   UNL A   1      41.234  26.899  36.566  1.00  0.00    -0.237 OA
ATOM     70  O   UNL A   1      40.607  26.925  34.168  1.00  0.00    -0.237 OA
ATOM     71  O   UNL A   1      42.930  26.493  34.834  1.00  0.00    -0.744 OA
ENDBRANCH  64  68
ENDBRANCH  38  61
ENDBRANCH  12  13
ENDBRANCH   5   7
ENDBRANCH   2   3
ENDBRANCH   1   2
BRANCH   1  72
ATOM     72  C   UNL A   1      35.954  23.660  25.202  1.00  0.00     0.117 C 
BRANCH  72  73
ATOM     73  N   UNL A   1      35.007  23.182  24.216  1.00  0.00    -0.354 N 
ATOM     74  C   UNL A   1      34.169  23.930  23.431  1.00  0.00     0.242 C 
ATOM     75  H   UNL A   1      34.959  22.206  24.096  1.00  0.00     0.163 HD
ATOM     76  O   UNL A   1      33.882  23.458  22.324  1.00  0.00    -0.273 OA
BRANCH  74  77
ATOM     77  C   UNL A   1      33.603  25.327  23.858  1.00  0.00     0.174 C 
ATOM     78  C   UNL A   1      33.554  26.428  22.793  1.00  0.00     0.036 C 
ATOM     79  N   UNL A   1      32.586  25.551  24.941  1.00  0.00    -0.326 N 
ATOM     80  C   UNL A   1      33.720  27.806  23.443  1.00  0.00     0.008 C 
ATOM     81  C   UNL A   1      32.764  26.875  25.633  1.00  0.00     0.089 C 
ATOM     82  C   UNL A   1      32.706  28.021  24.579  1.00  0.00     0.012 C 
ATOM     83  C   UNL A   1      31.808  27.205  26.800  1.00  0.00     0.025 C 
ATOM     84  C   UNL A   1      32.931  29.402  25.217  1.00  0.00     0.006 C 
ATOM     85  C   UNL A   1      32.037  28.584  27.407  1.00  0.00     0.002 C 
ATOM     86  C   UNL A   1      31.946  29.670  26.348  1.00  0.00     0.000 C 
BRANCH  79  87
ATOM     87  C   UNL A   1      31.476  24.755  25.229  1.00  0.00     0.245 C 
ATOM     88  O   UNL A   1      30.438  24.793  24.560  1.00  0.00    -0.273 OA
BRANCH  87  89
ATOM     89  C   UNL A   1      31.460  23.795  26.379  1.00  0.00     0.248 C 
BRANCH  89  90
ATOM     90  N   UNL A   1      32.040  22.509  26.075  1.00  0.00    -0.223 N 
ATOM     91  C   UNL A   1      31.813  21.655  25.044  1.00  0.00     0.246 A 
ATOM     92  N   UNL A   1      33.148  22.126  26.736  1.00  0.00    -0.045 NA
ATOM     93  N   UNL A   1      32.824  20.822  24.971  1.00  0.00    -0.117 NA
ATOM     94  N   UNL A   1      33.629  21.103  26.043  1.00  0.00    -0.024 NA
ENDBRANCH  89  90
ENDBRANCH  87  89
ENDBRANCH  79  87
ENDBRANCH  74  77
ENDBRANCH  72  73
ENDBRANCH   1  72
TORSDOF 16
ENDMDL
MODEL 2
REMARK VINA RESULT:     -12.5      3.326      8.871
REMARK SMILES O=C(NCCCNC(=O)[C@H]1CC[C@@H]2CCCC[C@H]2N1C(=O)Cn1cnnn1)c1ccc(-c2c3nc(c(-c4cc(S(=O)(=O)[O-])ccc4F)c4ccc([nH]4)c(-c4cc(S(=O)(=O)[O-])ccc4F)c4nc(c(-c5cc(S(=O)(=O)[O-])ccc5F)c5ccc2[nH]5)C=C4)C=C3)cc1
REMARK SMILES IDX 5 1 4 2 3 3 1 4 2 5 28 7 29 8 90 9 30 10 89 11 31 12 32 13
REMARK SMILES IDX 33 14 83 15 34 16 88 17 82 18 84 19 35 20 87 21 81 22 80 23
REMARK SMILES IDX 36 25 68 26 48 27 67 28 49 29 52 30 66 31 85 32 50 33 51 34
REMARK SMILES IDX 65 36 86 37 53 38 37 39 38 40 46 41 39 42 45 43 47 44 44 45
REMARK SMILES IDX 40 46 41 47 42 48 43 49 69 50 70 51 78 52 71 53 77 54 79 55
REMARK SMILES IDX 76 56 72 57 73 58 74 59 75 60 54 61 55 62 63 63 56 64 62 65
REMARK SMILES IDX 64 66 61 67 57 68 58 69 59 70 60 71 6 72 7 73 8 74 9 76
REMARK SMILES IDX 10 77 11 78 19 79 12 80 18 81 13 82 17 83 14 84 16 85 15 86
REMARK SMILES IDX 20 87 21 88 22 89 23 90 24 91 27 92 25 93 26 94
REMARK H PARENT 3 6 84 24 52 35 7 75
REMARK Flexibility Score: inf
ROOT
ATOM      1  C   UNL A   1      32.152  28.537  26.912  1.00  0.00     0.042 C 
ENDROOT
BRANCH   1   2
ATOM      2  C   UNL A   1      33.321  29.498  26.659  1.00  0.00     0.118 C 
BRANCH   2   3
ATOM      3  N   UNL A   1      33.511  30.578  27.610  1.00  0.00    -0.352 N 
ATOM      4  O   UNL A   1      34.369  32.360  28.578  1.00  0.00    -0.269 OA
ATOM      5  C   UNL A   1      34.598  31.231  28.133  1.00  0.00     0.251 C 
ATOM      6  H   UNL A   1      32.660  30.924  27.964  1.00  0.00     0.163 HD
BRANCH   5   7
ATOM      7  C   UNL A   1      35.975  30.675  28.256  1.00  0.00     0.039 A 
ATOM      8  C   UNL A   1      36.323  29.337  28.081  1.00  0.00     0.014 A 
ATOM      9  C   UNL A   1      36.971  31.575  28.685  1.00  0.00     0.014 A 
ATOM     10  C   UNL A   1      37.600  28.886  28.421  1.00  0.00     0.010 A 
ATOM     11  C   UNL A   1      38.251  31.134  29.010  1.00  0.00     0.010 A 
ATOM     12  C   UNL A   1      38.553  29.778  28.919  1.00  0.00    -0.014 A 
BRANCH  12  13
ATOM     13  C   UNL A   1      39.902  29.283  29.204  1.00  0.00     0.031 A 
ATOM     14  C   UNL A   1      40.241  29.172  30.655  1.00  0.00     0.074 A 
ATOM     15  C   UNL A   1      40.720  28.775  28.258  1.00  0.00     0.049 A 
ATOM     16  N   UNL A   1      41.235  29.692  31.302  1.00  0.00    -0.248 NA
ATOM     17  C   UNL A   1      39.287  28.455  31.519  1.00  0.00     0.031 C 
ATOM     18  C   UNL A   1      40.415  28.545  26.844  1.00  0.00     0.029 A 
ATOM     19  N   UNL A   1      41.967  28.233  28.394  1.00  0.00    -0.354 N 
ATOM     20  C   UNL A   1      41.145  29.210  32.608  1.00  0.00     0.074 A 
ATOM     21  C   UNL A   1      39.855  28.587  32.717  1.00  0.00     0.031 C 
ATOM     22  C   UNL A   1      41.339  27.709  26.319  1.00  0.00     0.029 A 
ATOM     23  C   UNL A   1      42.364  27.445  27.316  1.00  0.00     0.049 A 
ATOM     24  H   UNL A   1      42.535  28.386  29.183  1.00  0.00     0.167 HD
ATOM     25  C   UNL A   1      42.217  29.188  33.450  1.00  0.00     0.034 A 
ATOM     26  C   UNL A   1      43.407  26.570  27.270  1.00  0.00     0.034 A 
ATOM     27  C   UNL A   1      43.245  30.104  33.022  1.00  0.00     0.049 A 
ATOM     28  C   UNL A   1      44.349  26.954  28.348  1.00  0.00     0.074 A 
ATOM     29  C   UNL A   1      43.298  31.469  32.809  1.00  0.00     0.029 A 
ATOM     30  N   UNL A   1      44.363  29.599  32.399  1.00  0.00    -0.354 N 
ATOM     31  N   UNL A   1      45.010  28.079  28.359  1.00  0.00    -0.248 NA
ATOM     32  C   UNL A   1      44.206  26.310  29.645  1.00  0.00     0.031 C 
ATOM     33  C   UNL A   1      44.115  31.625  31.650  1.00  0.00     0.029 A 
ATOM     34  C   UNL A   1      44.558  30.357  31.271  1.00  0.00     0.049 A 
ATOM     35  H   UNL A   1      44.915  28.844  32.704  1.00  0.00     0.167 HD
ATOM     36  C   UNL A   1      44.982  28.499  29.680  1.00  0.00     0.074 A 
ATOM     37  C   UNL A   1      44.564  27.323  30.440  1.00  0.00     0.031 C 
ATOM     38  C   UNL A   1      45.029  29.825  30.007  1.00  0.00     0.034 A 
BRANCH  25  39
ATOM     39  C   UNL A   1      42.482  28.106  34.477  1.00  0.00     0.023 A 
ATOM     40  C   UNL A   1      43.245  26.990  34.076  1.00  0.00     0.031 A 
ATOM     41  C   UNL A   1      41.797  27.967  35.706  1.00  0.00     0.131 A 
ATOM     42  C   UNL A   1      43.222  25.792  34.813  1.00  0.00     0.055 A 
ATOM     43  C   UNL A   1      41.834  26.798  36.472  1.00  0.00     0.041 A 
ATOM     44  F   UNL A   1      40.978  28.909  36.188  1.00  0.00    -0.206 F 
ATOM     45  C   UNL A   1      42.521  25.689  36.011  1.00  0.00     0.022 A 
BRANCH  42  46
ATOM     46  S   UNL A   1      43.965  24.311  34.079  1.00  0.00     0.124 S 
ATOM     47  O   UNL A   1      45.199  24.186  34.847  1.00  0.00    -0.237 OA
ATOM     48  O   UNL A   1      42.940  23.305  34.336  1.00  0.00    -0.237 OA
ATOM     49  O   UNL A   1      44.139  24.680  32.677  1.00  0.00    -0.744 OA
ENDBRANCH  42  46
ENDBRANCH  25  39
BRANCH  26  50
ATOM     50  C   UNL A   1      43.419  25.240  26.595  1.00  0.00     0.023 A 
ATOM     51  C   UNL A   1      42.563  24.174  26.952  1.00  0.00     0.031 A 
ATOM     52  C   UNL A   1      44.157  25.080  25.398  1.00  0.00     0.131 A 
ATOM     53  C   UNL A   1      42.489  23.016  26.138  1.00  0.00     0.055 A 
ATOM     54  C   UNL A   1      44.087  23.933  24.606  1.00  0.00     0.041 A 
ATOM     55  F   UNL A   1      44.912  26.077  24.911  1.00  0.00    -0.206 F 
ATOM     56  C   UNL A   1      43.247  22.896  24.970  1.00  0.00     0.022 A 
BRANCH  53  57
ATOM     57  S   UNL A   1      41.329  21.666  26.540  1.00  0.00     0.124 S 
ATOM     58  O   UNL A   1      41.863  20.554  25.756  1.00  0.00    -0.237 OA
ATOM     59  O   UNL A   1      41.454  21.561  27.984  1.00  0.00    -0.237 OA
ATOM     60  O   UNL A   1      40.036  22.174  26.072  1.00  0.00    -0.744 OA
ENDBRANCH  53  57
ENDBRANCH  26  50
BRANCH  38  61
ATOM     61  C   UNL A   1      45.362  30.828  28.921  1.00  0.00     0.023 A 
ATOM     62  C   UNL A   1      46.674  31.188  28.533  1.00  0.00     0.031 A 
ATOM     63  C   UNL A   1      44.295  31.337  28.159  1.00  0.00     0.131 A 
ATOM     64  C   UNL A   1      46.874  32.037  27.426  1.00  0.00     0.055 A 
ATOM     65  C   UNL A   1      44.500  32.160  27.052  1.00  0.00     0.041 A 
ATOM     66  F   UNL A   1      43.027  31.006  28.455  1.00  0.00    -0.206 F 
ATOM     67  C   UNL A   1      45.791  32.517  26.685  1.00  0.00     0.022 A 
BRANCH  64  68
ATOM     68  S   UNL A   1      48.554  32.539  26.926  1.00  0.00     0.124 S 
ATOM     69  O   UNL A   1      48.322  33.422  25.789  1.00  0.00    -0.237 OA
ATOM     70  O   UNL A   1      49.070  33.165  28.138  1.00  0.00    -0.237 OA
ATOM     71  O   UNL A   1      49.201  31.269  26.584  1.00  0.00    -0.744 OA
ENDBRANCH  64  68
ENDBRANCH  38  61
ENDBRANCH  12  13
ENDBRANCH   5   7
ENDBRANCH   2   3
ENDBRANCH   1   2
BRANCH   1  72
ATOM     72  C   UNL A   1      32.448  27.063  26.705  1.00  0.00     0.117 C 
BRANCH  72  73
ATOM     73  N   UNL A   1      31.317  26.167  26.584  1.00  0.00    -0.354 N 
ATOM     74  C   UNL A   1      31.323  24.799  26.654  1.00  0.00     0.242 C 
ATOM     75  H   UNL A   1      30.440  26.591  26.434  1.00  0.00     0.163 HD
ATOM     76  O   UNL A   1      30.297  24.264  27.089  1.00  0.00    -0.273 OA
BRANCH  74  77
ATOM     77  C   UNL A   1      32.553  23.919  26.243  1.00  0.00     0.174 C 
ATOM     78  C   UNL A   1      32.898  22.722  27.136  1.00  0.00     0.036 C 
ATOM     79  N   UNL A   1      33.044  23.728  24.837  1.00  0.00    -0.326 N 
ATOM     80  C   UNL A   1      34.406  22.448  27.101  1.00  0.00     0.008 C 
ATOM     81  C   UNL A   1      34.533  23.513  24.771  1.00  0.00     0.089 C 
ATOM     82  C   UNL A   1      34.918  22.292  25.659  1.00  0.00     0.012 C 
ATOM     83  C   UNL A   1      35.170  23.350  23.374  1.00  0.00     0.025 C 
ATOM     84  C   UNL A   1      36.436  22.048  25.675  1.00  0.00     0.006 C 
ATOM     85  C   UNL A   1      36.671  23.093  23.413  1.00  0.00     0.002 C 
ATOM     86  C   UNL A   1      36.997  21.880  24.268  1.00  0.00     0.000 C 
BRANCH  79  87
ATOM     87  C   UNL A   1      32.267  23.588  23.685  1.00  0.00     0.245 C 
ATOM     88  O   UNL A   1      31.704  22.530  23.386  1.00  0.00    -0.273 OA
BRANCH  87  89
ATOM     89  C   UNL A   1      32.061  24.716  22.721  1.00  0.00     0.248 C 
BRANCH  89  90
ATOM     90  N   UNL A   1      31.008  25.626  23.104  1.00  0.00    -0.223 N 
ATOM     91  C   UNL A   1      29.739  25.389  23.524  1.00  0.00     0.246 A 
ATOM     92  N   UNL A   1      31.317  26.917  23.326  1.00  0.00    -0.045 NA
ATOM     93  N   UNL A   1      29.294  26.471  24.119  1.00  0.00    -0.117 NA
ATOM     94  N   UNL A   1      30.269  27.420  23.962  1.00  0.00    -0.024 NA
ENDBRANCH  89  90
ENDBRANCH  87  89
ENDBRANCH  79  87
ENDBRANCH  74  77
ENDBRANCH  72  73
ENDBRANCH   1  72
TORSDOF 16
ENDMDL
MODEL 3
REMARK VINA RESULT:     -12.5      3.263      9.283
REMARK SMILES O=C(NCCCNC(=O)[C@H]1CC[C@@H]2CCCC[C@H]2N1C(=O)Cn1cnnn1)c1ccc(-c2c3nc(c(-c4cc(S(=O)(=O)[O-])ccc4F)c4ccc([nH]4)c(-c4cc(S(=O)(=O)[O-])ccc4F)c4nc(c(-c5cc(S(=O)(=O)[O-])ccc5F)c5ccc2[nH]5)C=C4)C=C3)cc1
REMARK SMILES IDX 5 1 4 2 3 3 1 4 2 5 28 7 29 8 90 9 30 10 89 11 31 12 32 13
REMARK SMILES IDX 33 14 83 15 34 16 88 17 82 18 84 19 35 20 87 21 81 22 80 23
REMARK SMILES IDX 36 25 68 26 48 27 67 28 49 29 52 30 66 31 85 32 50 33 51 34
REMARK SMILES IDX 65 36 86 37 53 38 37 39 38 40 46 41 39 42 45 43 47 44 44 45
REMARK SMILES IDX 40 46 41 47 42 48 43 49 69 50 70 51 78 52 71 53 77 54 79 55
REMARK SMILES IDX 76 56 72 57 73 58 74 59 75 60 54 61 55 62 63 63 56 64 62 65
REMARK SMILES IDX 64 66 61 67 57 68 58 69 59 70 60 71 6 72 7 73 8 74 9 76
REMARK SMILES IDX 10 77 11 78 19 79 12 80 18 81 13 82 17 83 14 84 16 85 15 86
REMARK SMILES IDX 20 87 21 88 22 89 23 90 24 91 27 92 25 93 26 94
REMARK H PARENT 3 6 84 24 52 35 7 75
REMARK Flexibility Score: inf
ROOT
ATOM      1  C   UNL A   1      32.341  29.211  26.995  1.00  0.00     0.042 C 
ENDROOT
BRANCH   1   2
ATOM      2  C   UNL A   1      33.751  29.804  26.876  1.00  0.00     0.118 C 
BRANCH   2   3
ATOM      3  N   UNL A   1      34.090  30.896  27.771  1.00  0.00    -0.352 N 
ATOM      4  O   UNL A   1      35.184  32.595  28.646  1.00  0.00    -0.269 OA
ATOM      5  C   UNL A   1      35.258  31.424  28.261  1.00  0.00     0.251 C 
ATOM      6  H   UNL A   1      33.294  31.370  28.106  1.00  0.00     0.163 HD
BRANCH   5   7
ATOM      7  C   UNL A   1      36.548  30.694  28.413  1.00  0.00     0.039 A 
ATOM      8  C   UNL A   1      36.733  29.330  28.204  1.00  0.00     0.014 A 
ATOM      9  C   UNL A   1      37.631  31.449  28.909  1.00  0.00     0.014 A 
ATOM     10  C   UNL A   1      37.930  28.711  28.574  1.00  0.00     0.010 A 
ATOM     11  C   UNL A   1      38.831  30.841  29.264  1.00  0.00     0.010 A 
ATOM     12  C   UNL A   1      38.966  29.461  29.136  1.00  0.00    -0.014 A 
BRANCH  12  13
ATOM     13  C   UNL A   1      40.230  28.792  29.451  1.00  0.00     0.031 A 
ATOM     14  C   UNL A   1      40.563  28.723  30.906  1.00  0.00     0.074 A 
ATOM     15  C   UNL A   1      40.956  28.110  28.539  1.00  0.00     0.049 A 
ATOM     16  N   UNL A   1      41.628  29.129  31.519  1.00  0.00    -0.248 NA
ATOM     17  C   UNL A   1      39.522  28.209  31.814  1.00  0.00     0.031 C 
ATOM     18  C   UNL A   1      40.607  27.840  27.143  1.00  0.00     0.029 A 
ATOM     19  N   UNL A   1      42.111  27.400  28.709  1.00  0.00    -0.354 N 
ATOM     20  C   UNL A   1      41.481  28.749  32.853  1.00  0.00     0.074 A 
ATOM     21  C   UNL A   1      40.114  28.330  33.002  1.00  0.00     0.031 C 
ATOM     22  C   UNL A   1      41.393  26.845  26.671  1.00  0.00     0.029 A 
ATOM     23  C   UNL A   1      42.378  26.496  27.683  1.00  0.00     0.049 A 
ATOM     24  H   UNL A   1      42.702  27.517  29.487  1.00  0.00     0.167 HD
ATOM     25  C   UNL A   1      42.546  28.621  33.694  1.00  0.00     0.034 A 
ATOM     26  C   UNL A   1      43.280  25.477  27.692  1.00  0.00     0.034 A 
ATOM     27  C   UNL A   1      43.693  29.348  33.209  1.00  0.00     0.049 A 
ATOM     28  C   UNL A   1      44.279  25.784  28.743  1.00  0.00     0.074 A 
ATOM     29  C   UNL A   1      43.944  30.674  32.911  1.00  0.00     0.029 A 
ATOM     30  N   UNL A   1      44.719  28.646  32.619  1.00  0.00    -0.354 N 
ATOM     31  N   UNL A   1      45.098  26.798  28.683  1.00  0.00    -0.248 NA
ATOM     32  C   UNL A   1      44.055  25.250  30.079  1.00  0.00     0.031 C 
ATOM     33  C   UNL A   1      44.764  30.636  31.744  1.00  0.00     0.029 A 
ATOM     34  C   UNL A   1      45.013  29.294  31.446  1.00  0.00     0.049 A 
ATOM     35  H   UNL A   1      45.157  27.838  32.971  1.00  0.00     0.167 HD
ATOM     36  C   UNL A   1      45.144  27.299  29.975  1.00  0.00     0.074 A 
ATOM     37  C   UNL A   1      44.565  26.247  30.808  1.00  0.00     0.031 C 
ATOM     38  C   UNL A   1      45.388  28.621  30.218  1.00  0.00     0.034 A 
BRANCH  25  39
ATOM     39  C   UNL A   1      42.659  27.579  34.788  1.00  0.00     0.023 A 
ATOM     40  C   UNL A   1      43.396  26.410  34.508  1.00  0.00     0.031 A 
ATOM     41  C   UNL A   1      41.858  27.532  35.952  1.00  0.00     0.131 A 
ATOM     42  C   UNL A   1      43.244  25.251  35.292  1.00  0.00     0.055 A 
ATOM     43  C   UNL A   1      41.764  26.400  36.767  1.00  0.00     0.041 A 
ATOM     44  F   UNL A   1      41.048  28.534  36.314  1.00  0.00    -0.206 F 
ATOM     45  C   UNL A   1      42.431  25.239  36.422  1.00  0.00     0.022 A 
BRANCH  42  46
ATOM     46  S   UNL A   1      43.972  23.702  34.696  1.00  0.00     0.124 S 
ATOM     47  O   UNL A   1      42.797  22.990  34.207  1.00  0.00    -0.237 OA
ATOM     48  O   UNL A   1      44.904  24.181  33.681  1.00  0.00    -0.237 OA
ATOM     49  O   UNL A   1      44.590  23.136  35.893  1.00  0.00    -0.744 OA
ENDBRANCH  42  46
ENDBRANCH  25  39
BRANCH  26  50
ATOM     50  C   UNL A   1      43.091  24.119  27.102  1.00  0.00     0.023 A 
ATOM     51  C   UNL A   1      43.933  23.575  26.107  1.00  0.00     0.031 A 
ATOM     52  C   UNL A   1      42.169  23.229  27.702  1.00  0.00     0.131 A 
ATOM     53  C   UNL A   1      43.817  22.209  25.744  1.00  0.00     0.055 A 
ATOM     54  C   UNL A   1      42.052  21.888  27.333  1.00  0.00     0.041 A 
ATOM     55  F   UNL A   1      41.402  23.616  28.733  1.00  0.00    -0.206 F 
ATOM     56  C   UNL A   1      42.882  21.370  26.354  1.00  0.00     0.022 A 
BRANCH  53  57
ATOM     57  S   UNL A   1      44.951  21.470  24.520  1.00  0.00     0.124 S 
ATOM     58  O   UNL A   1      44.774  22.347  23.364  1.00  0.00    -0.237 OA
ATOM     59  O   UNL A   1      46.236  21.541  25.196  1.00  0.00    -0.237 OA
ATOM     60  O   UNL A   1      44.427  20.114  24.341  1.00  0.00    -0.744 OA
ENDBRANCH  53  57
ENDBRANCH  26  50
BRANCH  38  61
ATOM     61  C   UNL A   1      45.855  29.495  29.071  1.00  0.00     0.023 A 
ATOM     62  C   UNL A   1      45.030  30.401  28.362  1.00  0.00     0.031 A 
ATOM     63  C   UNL A   1      47.230  29.502  28.777  1.00  0.00     0.131 A 
ATOM     64  C   UNL A   1      45.592  31.258  27.395  1.00  0.00     0.055 A 
ATOM     65  C   UNL A   1      47.784  30.367  27.834  1.00  0.00     0.041 A 
ATOM     66  F   UNL A   1      48.071  28.689  29.438  1.00  0.00    -0.206 F 
ATOM     67  C   UNL A   1      46.965  31.245  27.135  1.00  0.00     0.022 A 
BRANCH  64  68
ATOM     68  S   UNL A   1      44.544  32.412  26.449  1.00  0.00     0.124 S 
ATOM     69  O   UNL A   1      43.550  31.543  25.831  1.00  0.00    -0.237 OA
ATOM     70  O   UNL A   1      44.058  33.318  27.485  1.00  0.00    -0.237 OA
ATOM     71  O   UNL A   1      45.483  33.026  25.505  1.00  0.00    -0.744 OA
ENDBRANCH  64  68
ENDBRANCH  38  61
ENDBRANCH  12  13
ENDBRANCH   5   7
ENDBRANCH   2   3
ENDBRANCH   1   2
BRANCH   1  72
ATOM     72  C   UNL A   1      32.260  27.696  27.036  1.00  0.00     0.117 C 
BRANCH  72  73
ATOM     73  N   UNL A   1      31.055  27.079  26.522  1.00  0.00    -0.354 N 
ATOM     74  C   UNL A   1      30.814  25.743  26.336  1.00  0.00     0.242 C 
ATOM     75  H   UNL A   1      30.324  27.691  26.276  1.00  0.00     0.163 HD
ATOM     76  O   UNL A   1      29.639  25.374  26.445  1.00  0.00    -0.273 OA
BRANCH  74  77
ATOM     77  C   UNL A   1      31.940  24.697  26.030  1.00  0.00     0.174 C 
ATOM     78  C   UNL A   1      32.090  23.515  26.994  1.00  0.00     0.036 C 
ATOM     79  N   UNL A   1      32.466  24.373  24.662  1.00  0.00    -0.326 N 
ATOM     80  C   UNL A   1      33.551  23.054  27.049  1.00  0.00     0.008 C 
ATOM     81  C   UNL A   1      33.917  23.972  24.683  1.00  0.00     0.089 C 
ATOM     82  C   UNL A   1      34.104  22.760  25.645  1.00  0.00     0.012 C 
ATOM     83  C   UNL A   1      34.591  23.658  23.329  1.00  0.00     0.025 C 
ATOM     84  C   UNL A   1      35.577  22.330  25.750  1.00  0.00     0.006 C 
ATOM     85  C   UNL A   1      36.044  23.218  23.457  1.00  0.00     0.002 C 
ATOM     86  C   UNL A   1      36.175  22.020  24.383  1.00  0.00     0.000 C 
BRANCH  79  87
ATOM     87  C   UNL A   1      31.730  24.270  23.479  1.00  0.00     0.245 C 
ATOM     88  O   UNL A   1      31.129  23.241  23.156  1.00  0.00    -0.273 OA
BRANCH  87  89
ATOM     89  C   UNL A   1      31.619  25.407  22.509  1.00  0.00     0.248 C 
BRANCH  89  90
ATOM     90  N   UNL A   1      31.906  26.698  23.087  1.00  0.00    -0.223 N 
ATOM     91  C   UNL A   1      33.070  27.392  23.173  1.00  0.00     0.246 A 
ATOM     92  N   UNL A   1      30.880  27.507  23.409  1.00  0.00    -0.045 NA
ATOM     93  N   UNL A   1      32.782  28.649  23.418  1.00  0.00    -0.117 NA
ATOM     94  N   UNL A   1      31.424  28.701  23.593  1.00  0.00    -0.024 NA
ENDBRANCH  89  90
ENDBRANCH  87  89
ENDBRANCH  79  87
ENDBRANCH  74  77
ENDBRANCH  72  73
ENDBRANCH   1  72
TORSDOF 16
ENDMDL
