MODEL 1
REMARK VINA RESULT:     -11.5      0.000      0.000
REMARK SMILES CC1(CNS(=O)(=O)Cc2ccc(C(=O)NCCCNC(=O)c3ccc(-c4c5nc(c(-c6cc(S(=O)(=O)[O-])ccc6F)c6ccc([nH]6)c(-c6cc(S(=O)(=O)[O-])ccc6F)c6nc(c(-c7cc(S(=O)(=O)[O-])ccc7F)c7ccc4[nH]7)C=C6)C=C5)cc3)cc2)COC1
REMARK SMILES IDX 16 1 15 2 13 3 14 4 12 6 9 7 10 8 86 9 11 10 85 11 8 12 5 13
REMARK SMILES IDX 6 14 7 15 4 16 3 18 2 19 1 20 87 21 89 22 88 23 17 24 18 25
REMARK SMILES IDX 19 26 20 27 21 29 22 30 23 31 84 32 24 33 83 34 25 35 26 36
REMARK SMILES IDX 27 37 77 38 28 39 82 40 76 41 78 42 29 43 81 44 75 45 74 46
REMARK SMILES IDX 30 48 62 49 42 50 61 51 43 52 46 53 60 54 79 55 44 56 45 57
REMARK SMILES IDX 59 59 80 60 47 61 31 62 32 63 40 64 33 65 39 66 41 67 38 68
REMARK SMILES IDX 34 69 35 70 36 71 37 72 63 73 64 74 72 75 65 76 71 77 73 78
REMARK SMILES IDX 70 79 66 80 67 81 68 82 69 83 48 84 49 85 57 86 50 87 56 88
REMARK SMILES IDX 58 89 55 90 51 91 52 92 53 93 54 94
REMARK H PARENT 15 5 4 17 19 28 78 47 46 58
REMARK Flexibility Score: inf
ROOT
ATOM      1  C   UNL A   1      37.545  21.177  24.519  1.00  0.00     0.118 C 
ENDROOT
BRANCH   1   2
ATOM      2  N   UNL A   1      38.117  22.387  25.080  1.00  0.00    -0.352 N 
ATOM      3  C   UNL A   1      37.555  23.422  25.782  1.00  0.00     0.251 C 
ATOM      4  O   UNL A   1      38.301  24.304  26.209  1.00  0.00    -0.269 OA
ATOM      5  H   UNL A   1      39.086  22.484  24.929  1.00  0.00     0.163 HD
BRANCH   3   6
ATOM      6  C   UNL A   1      36.103  23.489  26.096  1.00  0.00     0.039 A 
ATOM      7  C   UNL A   1      33.329  23.731  26.550  1.00  0.00    -0.032 A 
ATOM      8  C   UNL A   1      33.958  24.511  25.573  1.00  0.00     0.005 A 
ATOM      9  C   UNL A   1      34.099  22.832  27.295  1.00  0.00     0.005 A 
ATOM     10  C   UNL A   1      35.331  24.388  25.347  1.00  0.00     0.014 A 
ATOM     11  C   UNL A   1      35.464  22.689  27.044  1.00  0.00     0.014 A 
BRANCH   7  12
ATOM     12  C   UNL A   1      31.845  23.820  26.775  1.00  0.00     0.189 C 
BRANCH  12  13
ATOM     13  S   UNL A   1      30.979  22.578  25.793  1.00  0.00     0.215 S 
ATOM     14  O   UNL A   1      30.903  23.052  24.425  1.00  0.00    -0.212 OA
ATOM     15  O   UNL A   1      29.786  22.147  26.486  1.00  0.00    -0.212 OA
BRANCH  13  16
ATOM     16  N   UNL A   1      32.021  21.254  25.798  1.00  0.00    -0.214 NA
ATOM     17  H   UNL A   1      32.948  21.596  26.052  1.00  0.00     0.141 HD
BRANCH  16  18
ATOM     18  C   UNL A   1      32.162  20.493  24.548  1.00  0.00     0.110 C 
BRANCH  18  19
ATOM     19  C   UNL A   1      33.067  19.268  24.702  1.00  0.00     0.028 C 
ATOM     20  C   UNL A   1      34.558  19.569  24.679  1.00  0.00     0.018 C 
ATOM     21  C   UNL A   1      32.653  18.142  23.734  1.00  0.00     0.170 C 
ATOM     22  C   UNL A   1      32.594  18.280  25.785  1.00  0.00     0.170 C 
ATOM     23  O   UNL A   1      31.913  17.474  24.787  1.00  0.00    -0.380 OA
ENDBRANCH  18  19
ENDBRANCH  16  18
ENDBRANCH  13  16
ENDBRANCH  12  13
ENDBRANCH   7  12
ENDBRANCH   3   6
ENDBRANCH   1   2
BRANCH   1  24
ATOM     24  C   UNL A   1      38.319  19.943  24.975  1.00  0.00     0.042 C 
BRANCH  24  25
ATOM     25  C   UNL A   1      39.313  20.243  26.092  1.00  0.00     0.118 C 
BRANCH  25  26
ATOM     26  N   UNL A   1      40.401  19.277  26.113  1.00  0.00    -0.352 N 
ATOM     27  C   UNL A   1      41.757  19.479  26.093  1.00  0.00     0.251 C 
ATOM     28  H   UNL A   1      40.121  18.333  26.147  1.00  0.00     0.163 HD
ATOM     29  O   UNL A   1      42.498  18.535  25.828  1.00  0.00    -0.269 OA
BRANCH  27  30
ATOM     30  C   UNL A   1      42.319  20.815  26.380  1.00  0.00     0.039 A 
ATOM     31  C   UNL A   1      42.598  21.674  25.314  1.00  0.00     0.014 A 
ATOM     32  C   UNL A   1      42.608  21.207  27.691  1.00  0.00     0.014 A 
ATOM     33  C   UNL A   1      43.119  22.944  25.568  1.00  0.00     0.010 A 
ATOM     34  C   UNL A   1      43.048  22.502  27.946  1.00  0.00     0.010 A 
ATOM     35  C   UNL A   1      43.318  23.381  26.887  1.00  0.00    -0.014 A 
BRANCH  35  36
ATOM     36  C   UNL A   1      43.812  24.751  27.176  1.00  0.00     0.031 A 
ATOM     37  C   UNL A   1      42.875  25.794  27.719  1.00  0.00     0.074 A 
ATOM     38  C   UNL A   1      45.089  25.067  26.891  1.00  0.00     0.049 A 
ATOM     39  N   UNL A   1      43.100  27.058  27.973  1.00  0.00    -0.248 NA
ATOM     40  C   UNL A   1      41.493  25.366  27.978  1.00  0.00     0.031 C 
ATOM     41  C   UNL A   1      46.077  24.148  26.322  1.00  0.00     0.029 A 
ATOM     42  N   UNL A   1      45.777  26.245  27.033  1.00  0.00    -0.354 N 
ATOM     43  C   UNL A   1      41.887  27.579  28.411  1.00  0.00     0.074 A 
ATOM     44  C   UNL A   1      40.917  26.508  28.316  1.00  0.00     0.031 C 
ATOM     45  C   UNL A   1      47.248  24.788  26.190  1.00  0.00     0.029 A 
ATOM     46  C   UNL A   1      47.084  26.176  26.611  1.00  0.00     0.049 A 
ATOM     47  H   UNL A   1      45.372  27.064  27.401  1.00  0.00     0.167 HD
ATOM     48  C   UNL A   1      41.615  28.826  28.871  1.00  0.00     0.034 A 
ATOM     49  C   UNL A   1      48.038  27.126  26.552  1.00  0.00     0.034 A 
ATOM     50  C   UNL A   1      42.601  29.877  28.953  1.00  0.00     0.049 A 
ATOM     51  C   UNL A   1      47.707  28.515  27.032  1.00  0.00     0.074 A 
ATOM     52  C   UNL A   1      42.456  31.160  29.450  1.00  0.00     0.029 A 
ATOM     53  N   UNL A   1      43.915  29.774  28.506  1.00  0.00    -0.354 N 
ATOM     54  N   UNL A   1      46.571  28.979  27.498  1.00  0.00    -0.248 NA
ATOM     55  C   UNL A   1      48.790  29.504  26.986  1.00  0.00     0.031 C 
ATOM     56  C   UNL A   1      43.648  31.856  29.226  1.00  0.00     0.029 A 
ATOM     57  C   UNL A   1      44.575  30.983  28.677  1.00  0.00     0.049 A 
ATOM     58  H   UNL A   1      44.317  28.962  28.123  1.00  0.00     0.167 HD
ATOM     59  C   UNL A   1      46.812  30.310  27.828  1.00  0.00     0.074 A 
ATOM     60  C   UNL A   1      48.205  30.565  27.520  1.00  0.00     0.031 C 
ATOM     61  C   UNL A   1      45.960  31.233  28.347  1.00  0.00     0.034 A 
BRANCH  48  62
ATOM     62  C   UNL A   1      40.189  29.117  29.282  1.00  0.00     0.023 A 
ATOM     63  C   UNL A   1      39.798  29.148  30.634  1.00  0.00     0.031 A 
ATOM     64  C   UNL A   1      39.190  29.315  28.311  1.00  0.00     0.131 A 
ATOM     65  C   UNL A   1      38.441  29.265  30.971  1.00  0.00     0.055 A 
ATOM     66  C   UNL A   1      37.855  29.531  28.657  1.00  0.00     0.041 A 
ATOM     67  F   UNL A   1      39.490  29.276  27.004  1.00  0.00    -0.206 F 
ATOM     68  C   UNL A   1      37.469  29.486  29.994  1.00  0.00     0.022 A 
BRANCH  65  69
ATOM     69  S   UNL A   1      37.947  28.933  32.686  1.00  0.00     0.124 S 
ATOM     70  O   UNL A   1      36.692  29.676  32.780  1.00  0.00    -0.237 OA
ATOM     71  O   UNL A   1      37.834  27.479  32.705  1.00  0.00    -0.237 OA
ATOM     72  O   UNL A   1      39.049  29.485  33.472  1.00  0.00    -0.744 OA
ENDBRANCH  65  69
ENDBRANCH  48  62
BRANCH  49  73
ATOM     73  C   UNL A   1      49.387  26.795  26.009  1.00  0.00     0.023 A 
ATOM     74  C   UNL A   1      49.768  27.193  24.719  1.00  0.00     0.031 A 
ATOM     75  C   UNL A   1      50.314  26.067  26.777  1.00  0.00     0.131 A 
ATOM     76  C   UNL A   1      51.031  26.833  24.221  1.00  0.00     0.055 A 
ATOM     77  C   UNL A   1      51.588  25.758  26.298  1.00  0.00     0.041 A 
ATOM     78  F   UNL A   1      50.001  25.667  28.020  1.00  0.00    -0.206 F 
ATOM     79  C   UNL A   1      51.949  26.134  25.009  1.00  0.00     0.022 A 
BRANCH  76  80
ATOM     80  S   UNL A   1      51.435  27.235  22.500  1.00  0.00     0.124 S 
ATOM     81  O   UNL A   1      51.563  28.687  22.556  1.00  0.00    -0.237 OA
ATOM     82  O   UNL A   1      52.672  26.489  22.296  1.00  0.00    -0.237 OA
ATOM     83  O   UNL A   1      50.280  26.738  21.755  1.00  0.00    -0.744 OA
ENDBRANCH  76  80
ENDBRANCH  49  73
BRANCH  61  84
ATOM     84  C   UNL A   1      46.530  32.599  28.652  1.00  0.00     0.023 A 
ATOM     85  C   UNL A   1      46.542  33.630  27.696  1.00  0.00     0.031 A 
ATOM     86  C   UNL A   1      47.078  32.868  29.919  1.00  0.00     0.131 A 
ATOM     87  C   UNL A   1      47.142  34.861  28.003  1.00  0.00     0.055 A 
ATOM     88  C   UNL A   1      47.609  34.117  30.242  1.00  0.00     0.041 A 
ATOM     89  F   UNL A   1      47.100  31.919  30.870  1.00  0.00    -0.206 F 
ATOM     90  C   UNL A   1      47.656  35.118  29.277  1.00  0.00     0.022 A 
BRANCH  87  91
ATOM     91  S   UNL A   1      47.339  36.088  26.683  1.00  0.00     0.124 S 
ATOM     92  O   UNL A   1      47.382  35.245  25.492  1.00  0.00    -0.237 OA
ATOM     93  O   UNL A   1      46.146  36.911  26.839  1.00  0.00    -0.237 OA
ATOM     94  O   UNL A   1      48.598  36.753  27.016  1.00  0.00    -0.744 OA
ENDBRANCH  87  91
ENDBRANCH  61  84
ENDBRANCH  35  36
ENDBRANCH  27  30
ENDBRANCH  25  26
ENDBRANCH  24  25
ENDBRANCH   1  24
TORSDOF 18
ENDMDL
MODEL 2
REMARK VINA RESULT:     -11.4      5.053      8.008
REMARK SMILES CC1(CNS(=O)(=O)Cc2ccc(C(=O)NCCCNC(=O)c3ccc(-c4c5nc(c(-c6cc(S(=O)(=O)[O-])ccc6F)c6ccc([nH]6)c(-c6cc(S(=O)(=O)[O-])ccc6F)c6nc(c(-c7cc(S(=O)(=O)[O-])ccc7F)c7ccc4[nH]7)C=C6)C=C5)cc3)cc2)COC1
REMARK SMILES IDX 16 1 15 2 13 3 14 4 12 6 9 7 10 8 86 9 11 10 85 11 8 12 5 13
REMARK SMILES IDX 6 14 7 15 4 16 3 18 2 19 1 20 87 21 89 22 88 23 17 24 18 25
REMARK SMILES IDX 19 26 20 27 21 29 22 30 23 31 84 32 24 33 83 34 25 35 26 36
REMARK SMILES IDX 27 37 77 38 28 39 82 40 76 41 78 42 29 43 81 44 75 45 74 46
REMARK SMILES IDX 30 48 62 49 42 50 61 51 43 52 46 53 60 54 79 55 44 56 45 57
REMARK SMILES IDX 59 59 80 60 47 61 31 62 32 63 40 64 33 65 39 66 41 67 38 68
REMARK SMILES IDX 34 69 35 70 36 71 37 72 63 73 64 74 72 75 65 76 71 77 73 78
REMARK SMILES IDX 70 79 66 80 67 81 68 82 69 83 48 84 49 85 57 86 50 87 56 88
REMARK SMILES IDX 58 89 55 90 51 91 52 92 53 93 54 94
REMARK H PARENT 15 5 4 17 19 28 78 47 46 58
REMARK Flexibility Score: inf
ROOT
ATOM      1  C   UNL A   1      31.984  27.610  25.004  1.00  0.00     0.118 C 
ENDROOT
BRANCH   1   2
ATOM      2  N   UNL A   1      32.729  27.783  23.771  1.00  0.00    -0.352 N 
ATOM      3  C   UNL A   1      33.481  26.910  23.030  1.00  0.00     0.251 C 
ATOM      4  O   UNL A   1      33.954  27.311  21.967  1.00  0.00    -0.269 OA
ATOM      5  H   UNL A   1      32.688  28.694  23.399  1.00  0.00     0.163 HD
BRANCH   3   6
ATOM      6  C   UNL A   1      33.698  25.493  23.427  1.00  0.00     0.039 A 
ATOM      7  C   UNL A   1      34.032  22.756  24.024  1.00  0.00    -0.032 A 
ATOM      8  C   UNL A   1      33.321  23.151  22.885  1.00  0.00     0.005 A 
ATOM      9  C   UNL A   1      34.571  23.739  24.859  1.00  0.00     0.005 A 
ATOM     10  C   UNL A   1      33.160  24.507  22.589  1.00  0.00     0.014 A 
ATOM     11  C   UNL A   1      34.435  25.092  24.542  1.00  0.00     0.014 A 
BRANCH   7  12
ATOM     12  C   UNL A   1      34.252  21.300  24.333  1.00  0.00     0.189 C 
BRANCH  12  13
ATOM     13  S   UNL A   1      32.700  20.510  24.806  1.00  0.00     0.215 S 
ATOM     14  O   UNL A   1      32.181  19.802  23.652  1.00  0.00    -0.212 OA
ATOM     15  O   UNL A   1      31.869  21.450  25.523  1.00  0.00    -0.212 OA
BRANCH  13  16
ATOM     16  N   UNL A   1      33.161  19.346  25.932  1.00  0.00    -0.214 NA
ATOM     17  H   UNL A   1      34.179  19.371  25.999  1.00  0.00     0.141 HD
BRANCH  16  18
ATOM     18  C   UNL A   1      32.774  17.951  25.669  1.00  0.00     0.110 C 
BRANCH  18  19
ATOM     19  C   UNL A   1      33.878  17.155  24.970  1.00  0.00     0.028 C 
ATOM     20  C   UNL A   1      35.105  17.966  24.585  1.00  0.00     0.018 C 
ATOM     21  C   UNL A   1      33.311  16.312  23.810  1.00  0.00     0.170 C 
ATOM     22  C   UNL A   1      34.151  15.780  25.610  1.00  0.00     0.170 C 
ATOM     23  O   UNL A   1      33.272  15.132  24.651  1.00  0.00    -0.380 OA
ENDBRANCH  18  19
ENDBRANCH  16  18
ENDBRANCH  13  16
ENDBRANCH  12  13
ENDBRANCH   7  12
ENDBRANCH   3   6
ENDBRANCH   1   2
BRANCH   1  24
ATOM     24  C   UNL A   1      32.874  27.849  26.222  1.00  0.00     0.042 C 
BRANCH  24  25
ATOM     25  C   UNL A   1      34.044  28.782  25.928  1.00  0.00     0.118 C 
BRANCH  25  26
ATOM     26  N   UNL A   1      33.795  30.125  26.432  1.00  0.00    -0.352 N 
ATOM     27  C   UNL A   1      34.391  30.802  27.464  1.00  0.00     0.251 C 
ATOM     28  H   UNL A   1      33.089  30.624  25.959  1.00  0.00     0.163 HD
ATOM     29  O   UNL A   1      33.848  31.808  27.913  1.00  0.00    -0.269 OA
BRANCH  27  30
ATOM     30  C   UNL A   1      35.668  30.323  28.034  1.00  0.00     0.039 A 
ATOM     31  C   UNL A   1      35.664  29.731  29.299  1.00  0.00     0.014 A 
ATOM     32  C   UNL A   1      36.872  30.491  27.342  1.00  0.00     0.014 A 
ATOM     33  C   UNL A   1      36.859  29.263  29.847  1.00  0.00     0.010 A 
ATOM     34  C   UNL A   1      38.047  29.950  27.853  1.00  0.00     0.010 A 
ATOM     35  C   UNL A   1      38.055  29.339  29.116  1.00  0.00    -0.014 A 
BRANCH  35  36
ATOM     36  C   UNL A   1      39.324  28.790  29.658  1.00  0.00     0.031 A 
ATOM     37  C   UNL A   1      39.995  29.451  30.830  1.00  0.00     0.074 A 
ATOM     38  C   UNL A   1      39.898  27.732  29.055  1.00  0.00     0.049 A 
ATOM     39  N   UNL A   1      41.135  29.161  31.403  1.00  0.00    -0.248 NA
ATOM     40  C   UNL A   1      39.308  30.614  31.411  1.00  0.00     0.031 C 
ATOM     41  C   UNL A   1      39.358  27.036  27.884  1.00  0.00     0.029 A 
ATOM     42  N   UNL A   1      41.060  27.060  29.333  1.00  0.00    -0.354 N 
ATOM     43  C   UNL A   1      41.308  30.111  32.405  1.00  0.00     0.074 A 
ATOM     44  C   UNL A   1      40.190  31.026  32.308  1.00  0.00     0.031 C 
ATOM     45  C   UNL A   1      40.174  26.020  27.564  1.00  0.00     0.029 A 
ATOM     46  C   UNL A   1      41.320  26.024  28.467  1.00  0.00     0.049 A 
ATOM     47  H   UNL A   1      41.654  27.298  30.082  1.00  0.00     0.167 HD
ATOM     48  C   UNL A   1      42.295  30.197  33.333  1.00  0.00     0.034 A 
ATOM     49  C   UNL A   1      42.370  25.182  28.395  1.00  0.00     0.034 A 
ATOM     50  C   UNL A   1      43.401  29.272  33.406  1.00  0.00     0.049 A 
ATOM     51  C   UNL A   1      43.475  25.316  29.410  1.00  0.00     0.074 A 
ATOM     52  C   UNL A   1      44.428  29.227  34.332  1.00  0.00     0.029 A 
ATOM     53  N   UNL A   1      43.638  28.239  32.504  1.00  0.00    -0.354 N 
ATOM     54  N   UNL A   1      43.598  26.183  30.389  1.00  0.00    -0.248 NA
ATOM     55  C   UNL A   1      44.577  24.352  29.316  1.00  0.00     0.031 C 
ATOM     56  C   UNL A   1      45.327  28.229  33.942  1.00  0.00     0.029 A 
ATOM     57  C   UNL A   1      44.816  27.581  32.828  1.00  0.00     0.049 A 
ATOM     58  H   UNL A   1      43.054  28.009  31.746  1.00  0.00     0.167 HD
ATOM     59  C   UNL A   1      44.779  25.850  31.045  1.00  0.00     0.074 A 
ATOM     60  C   UNL A   1      45.320  24.694  30.358  1.00  0.00     0.031 C 
ATOM     61  C   UNL A   1      45.358  26.441  32.123  1.00  0.00     0.034 A 
BRANCH  48  62
ATOM     62  C   UNL A   1      42.229  31.350  34.309  1.00  0.00     0.023 A 
ATOM     63  C   UNL A   1      41.342  31.347  35.401  1.00  0.00     0.031 A 
ATOM     64  C   UNL A   1      43.026  32.494  34.120  1.00  0.00     0.131 A 
ATOM     65  C   UNL A   1      41.197  32.497  36.192  1.00  0.00     0.055 A 
ATOM     66  C   UNL A   1      42.949  33.597  34.972  1.00  0.00     0.041 A 
ATOM     67  F   UNL A   1      43.878  32.571  33.086  1.00  0.00    -0.206 F 
ATOM     68  C   UNL A   1      42.015  33.612  36.004  1.00  0.00     0.022 A 
BRANCH  65  69
ATOM     69  S   UNL A   1      39.796  32.580  37.344  1.00  0.00     0.124 S 
ATOM     70  O   UNL A   1      39.211  33.876  37.003  1.00  0.00    -0.237 OA
ATOM     71  O   UNL A   1      39.013  31.407  36.973  1.00  0.00    -0.237 OA
ATOM     72  O   UNL A   1      40.430  32.520  38.659  1.00  0.00    -0.744 OA
ENDBRANCH  65  69
ENDBRANCH  48  62
BRANCH  49  73
ATOM     73  C   UNL A   1      42.428  24.152  27.319  1.00  0.00     0.023 A 
ATOM     74  C   UNL A   1      41.662  22.979  27.393  1.00  0.00     0.031 A 
ATOM     75  C   UNL A   1      43.260  24.328  26.198  1.00  0.00     0.131 A 
ATOM     76  C   UNL A   1      41.768  22.010  26.383  1.00  0.00     0.055 A 
ATOM     77  C   UNL A   1      43.321  23.387  25.169  1.00  0.00     0.041 A 
ATOM     78  F   UNL A   1      44.010  25.435  26.075  1.00  0.00    -0.206 F 
ATOM     79  C   UNL A   1      42.579  22.215  25.263  1.00  0.00     0.022 A 
BRANCH  76  80
ATOM     80  S   UNL A   1      40.879  20.443  26.583  1.00  0.00     0.124 S 
ATOM     81  O   UNL A   1      39.562  20.778  26.053  1.00  0.00    -0.237 OA
ATOM     82  O   UNL A   1      41.683  19.532  25.775  1.00  0.00    -0.237 OA
ATOM     83  O   UNL A   1      40.931  20.204  28.024  1.00  0.00    -0.744 OA
ENDBRANCH  76  80
ENDBRANCH  49  73
BRANCH  61  84
ATOM     84  C   UNL A   1      46.629  25.816  32.650  1.00  0.00     0.023 A 
ATOM     85  C   UNL A   1      47.890  26.133  32.117  1.00  0.00     0.031 A 
ATOM     86  C   UNL A   1      46.572  24.880  33.699  1.00  0.00     0.131 A 
ATOM     87  C   UNL A   1      49.036  25.476  32.593  1.00  0.00     0.055 A 
ATOM     88  C   UNL A   1      47.722  24.284  34.218  1.00  0.00     0.041 A 
ATOM     89  F   UNL A   1      45.394  24.533  34.243  1.00  0.00    -0.206 F 
ATOM     90  C   UNL A   1      48.962  24.570  33.655  1.00  0.00     0.022 A 
BRANCH  87  91
ATOM     91  S   UNL A   1      50.612  25.742  31.738  1.00  0.00     0.124 S 
ATOM     92  O   UNL A   1      51.580  25.423  32.782  1.00  0.00    -0.237 OA
ATOM     93  O   UNL A   1      50.532  24.795  30.631  1.00  0.00    -0.237 OA
ATOM     94  O   UNL A   1      50.560  27.152  31.352  1.00  0.00    -0.744 OA
ENDBRANCH  87  91
ENDBRANCH  61  84
ENDBRANCH  35  36
ENDBRANCH  27  30
ENDBRANCH  25  26
ENDBRANCH  24  25
ENDBRANCH   1  24
TORSDOF 18
ENDMDL
MODEL 3
REMARK VINA RESULT:     -11.3      5.887     11.675
REMARK SMILES CC1(CNS(=O)(=O)Cc2ccc(C(=O)NCCCNC(=O)c3ccc(-c4c5nc(c(-c6cc(S(=O)(=O)[O-])ccc6F)c6ccc([nH]6)c(-c6cc(S(=O)(=O)[O-])ccc6F)c6nc(c(-c7cc(S(=O)(=O)[O-])ccc7F)c7ccc4[nH]7)C=C6)C=C5)cc3)cc2)COC1
REMARK SMILES IDX 16 1 15 2 13 3 14 4 12 6 9 7 10 8 86 9 11 10 85 11 8 12 5 13
REMARK SMILES IDX 6 14 7 15 4 16 3 18 2 19 1 20 87 21 89 22 88 23 17 24 18 25
REMARK SMILES IDX 19 26 20 27 21 29 22 30 23 31 84 32 24 33 83 34 25 35 26 36
REMARK SMILES IDX 27 37 77 38 28 39 82 40 76 41 78 42 29 43 81 44 75 45 74 46
REMARK SMILES IDX 30 48 62 49 42 50 61 51 43 52 46 53 60 54 79 55 44 56 45 57
REMARK SMILES IDX 59 59 80 60 47 61 31 62 32 63 40 64 33 65 39 66 41 67 38 68
REMARK SMILES IDX 34 69 35 70 36 71 37 72 63 73 64 74 72 75 65 76 71 77 73 78
REMARK SMILES IDX 70 79 66 80 67 81 68 82 69 83 48 84 49 85 57 86 50 87 56 88
REMARK SMILES IDX 58 89 55 90 51 91 52 92 53 93 54 94
REMARK H PARENT 15 5 4 17 19 28 78 47 46 58
REMARK Flexibility Score: inf
ROOT
ATOM      1  C   UNL A   1      31.779  30.430  26.277  1.00  0.00     0.118 C 
ENDROOT
BRANCH   1   2
ATOM      2  N   UNL A   1      31.262  30.223  24.937  1.00  0.00    -0.352 N 
ATOM      3  C   UNL A   1      31.117  29.089  24.181  1.00  0.00     0.251 C 
ATOM      4  O   UNL A   1      30.572  29.192  23.081  1.00  0.00    -0.269 OA
ATOM      5  H   UNL A   1      30.959  31.046  24.489  1.00  0.00     0.163 HD
BRANCH   3   6
ATOM      6  C   UNL A   1      31.537  27.743  24.655  1.00  0.00     0.039 A 
ATOM      7  C   UNL A   1      32.168  25.171  25.628  1.00  0.00    -0.032 A 
ATOM      8  C   UNL A   1      30.948  25.774  25.957  1.00  0.00     0.005 A 
ATOM      9  C   UNL A   1      33.066  25.866  24.812  1.00  0.00     0.005 A 
ATOM     10  C   UNL A   1      30.636  27.046  25.471  1.00  0.00     0.014 A 
ATOM     11  C   UNL A   1      32.736  27.123  24.303  1.00  0.00     0.014 A 
BRANCH   7  12
ATOM     12  C   UNL A   1      32.501  23.784  26.106  1.00  0.00     0.189 C 
BRANCH  12  13
ATOM     13  S   UNL A   1      32.073  22.561  24.851  1.00  0.00     0.215 S 
ATOM     14  O   UNL A   1      31.363  23.237  23.782  1.00  0.00    -0.212 OA
ATOM     15  O   UNL A   1      31.509  21.388  25.479  1.00  0.00    -0.212 OA
BRANCH  13  16
ATOM     16  N   UNL A   1      33.562  22.081  24.225  1.00  0.00    -0.214 NA
ATOM     17  H   UNL A   1      33.428  21.173  23.780  1.00  0.00     0.141 HD
BRANCH  16  18
ATOM     18  C   UNL A   1      34.686  21.948  25.165  1.00  0.00     0.110 C 
BRANCH  18  19
ATOM     19  C   UNL A   1      35.865  22.856  24.807  1.00  0.00     0.028 C 
ATOM     20  C   UNL A   1      36.440  23.646  25.973  1.00  0.00     0.018 C 
ATOM     21  C   UNL A   1      35.546  23.726  23.575  1.00  0.00     0.170 C 
ATOM     22  C   UNL A   1      36.891  22.198  23.866  1.00  0.00     0.170 C 
ATOM     23  O   UNL A   1      36.256  22.805  22.709  1.00  0.00    -0.380 OA
ENDBRANCH  18  19
ENDBRANCH  16  18
ENDBRANCH  13  16
ENDBRANCH  12  13
ENDBRANCH   7  12
ENDBRANCH   3   6
ENDBRANCH   1   2
BRANCH   1  24
ATOM     24  C   UNL A   1      31.614  31.886  26.708  1.00  0.00     0.042 C 
BRANCH  24  25
ATOM     25  C   UNL A   1      32.910  32.504  27.221  1.00  0.00     0.118 C 
BRANCH  25  26
ATOM     26  N   UNL A   1      32.713  33.881  27.648  1.00  0.00    -0.352 N 
ATOM     27  C   UNL A   1      33.245  34.555  28.717  1.00  0.00     0.251 C 
ATOM     28  H   UNL A   1      32.105  34.411  27.083  1.00  0.00     0.163 HD
ATOM     29  O   UNL A   1      32.736  35.616  29.068  1.00  0.00    -0.269 OA
BRANCH  27  30
ATOM     30  C   UNL A   1      34.411  34.008  29.442  1.00  0.00     0.039 A 
ATOM     31  C   UNL A   1      34.194  33.159  30.530  1.00  0.00     0.014 A 
ATOM     32  C   UNL A   1      35.714  34.359  29.076  1.00  0.00     0.014 A 
ATOM     33  C   UNL A   1      35.284  32.625  31.218  1.00  0.00     0.010 A 
ATOM     34  C   UNL A   1      36.798  33.761  29.710  1.00  0.00     0.010 A 
ATOM     35  C   UNL A   1      36.595  32.895  30.795  1.00  0.00    -0.014 A 
BRANCH  35  36
ATOM     36  C   UNL A   1      37.764  32.284  31.477  1.00  0.00     0.031 A 
ATOM     37  C   UNL A   1      38.508  31.149  30.832  1.00  0.00     0.074 A 
ATOM     38  C   UNL A   1      38.113  32.716  32.704  1.00  0.00     0.049 A 
ATOM     39  N   UNL A   1      39.509  30.444  31.296  1.00  0.00    -0.248 NA
ATOM     40  C   UNL A   1      38.043  30.729  29.502  1.00  0.00     0.031 C 
ATOM     41  C   UNL A   1      37.436  33.782  33.446  1.00  0.00     0.029 A 
ATOM     42  N   UNL A   1      39.115  32.311  33.548  1.00  0.00    -0.354 N 
ATOM     43  C   UNL A   1      39.786  29.491  30.321  1.00  0.00     0.074 A 
ATOM     44  C   UNL A   1      38.799  29.666  29.277  1.00  0.00     0.031 C 
ATOM     45  C   UNL A   1      38.059  33.964  34.619  1.00  0.00     0.029 A 
ATOM     46  C   UNL A   1      39.143  32.995  34.740  1.00  0.00     0.049 A 
ATOM     47  H   UNL A   1      39.754  31.596  33.321  1.00  0.00     0.167 HD
ATOM     48  C   UNL A   1      40.785  28.574  30.291  1.00  0.00     0.034 A 
ATOM     49  C   UNL A   1      39.939  32.847  35.818  1.00  0.00     0.034 A 
ATOM     50  C   UNL A   1      41.756  28.418  31.348  1.00  0.00     0.049 A 
ATOM     51  C   UNL A   1      41.019  31.798  35.782  1.00  0.00     0.074 A 
ATOM     52  C   UNL A   1      42.842  27.562  31.404  1.00  0.00     0.029 A 
ATOM     53  N   UNL A   1      41.747  29.122  32.548  1.00  0.00    -0.354 N 
ATOM     54  N   UNL A   1      41.307  30.941  34.829  1.00  0.00    -0.248 NA
ATOM     55  C   UNL A   1      41.886  31.703  36.962  1.00  0.00     0.031 C 
ATOM     56  C   UNL A   1      43.434  27.686  32.665  1.00  0.00     0.029 A 
ATOM     57  C   UNL A   1      42.782  28.689  33.365  1.00  0.00     0.049 A 
ATOM     58  H   UNL A   1      41.101  29.826  32.784  1.00  0.00     0.167 HD
ATOM     59  C   UNL A   1      42.409  30.223  35.285  1.00  0.00     0.074 A 
ATOM     60  C   UNL A   1      42.739  30.760  36.590  1.00  0.00     0.031 C 
ATOM     61  C   UNL A   1      43.090  29.217  34.676  1.00  0.00     0.034 A 
BRANCH  48  62
ATOM     62  C   UNL A   1      40.844  27.652  29.093  1.00  0.00     0.023 A 
ATOM     63  C   UNL A   1      41.796  27.825  28.071  1.00  0.00     0.031 A 
ATOM     64  C   UNL A   1      39.903  26.618  28.938  1.00  0.00     0.131 A 
ATOM     65  C   UNL A   1      41.722  27.052  26.902  1.00  0.00     0.055 A 
ATOM     66  C   UNL A   1      39.898  25.786  27.817  1.00  0.00     0.041 A 
ATOM     67  F   UNL A   1      38.954  26.412  29.865  1.00  0.00    -0.206 F 
ATOM     68  C   UNL A   1      40.797  26.014  26.780  1.00  0.00     0.022 A 
BRANCH  65  69
ATOM     69  S   UNL A   1      42.724  27.551  25.473  1.00  0.00     0.124 S 
ATOM     70  O   UNL A   1      42.735  26.324  24.679  1.00  0.00    -0.237 OA
ATOM     71  O   UNL A   1      41.958  28.663  24.923  1.00  0.00    -0.237 OA
ATOM     72  O   UNL A   1      44.011  27.909  26.067  1.00  0.00    -0.744 OA
ENDBRANCH  65  69
ENDBRANCH  48  62
BRANCH  49  73
ATOM     73  C   UNL A   1      39.734  33.707  37.019  1.00  0.00     0.023 A 
ATOM     74  C   UNL A   1      39.026  33.238  38.136  1.00  0.00     0.031 A 
ATOM     75  C   UNL A   1      40.244  35.017  37.062  1.00  0.00     0.131 A 
ATOM     76  C   UNL A   1      38.817  34.085  39.236  1.00  0.00     0.055 A 
ATOM     77  C   UNL A   1      40.080  35.836  38.180  1.00  0.00     0.041 A 
ATOM     78  F   UNL A   1      40.935  35.512  36.023  1.00  0.00    -0.206 F 
ATOM     79  C   UNL A   1      39.354  35.374  39.273  1.00  0.00     0.022 A 
BRANCH  76  80
ATOM     80  S   UNL A   1      37.772  33.500  40.597  1.00  0.00     0.124 S 
ATOM     81  O   UNL A   1      36.629  32.946  39.879  1.00  0.00    -0.237 OA
ATOM     82  O   UNL A   1      38.644  32.534  41.256  1.00  0.00    -0.237 OA
ATOM     83  O   UNL A   1      37.500  34.714  41.363  1.00  0.00    -0.744 OA
ENDBRANCH  76  80
ENDBRANCH  49  73
BRANCH  61  84
ATOM     84  C   UNL A   1      44.291  28.660  35.404  1.00  0.00     0.023 A 
ATOM     85  C   UNL A   1      44.171  27.636  36.360  1.00  0.00     0.031 A 
ATOM     86  C   UNL A   1      45.575  29.171  35.142  1.00  0.00     0.131 A 
ATOM     87  C   UNL A   1      45.306  27.197  37.060  1.00  0.00     0.055 A 
ATOM     88  C   UNL A   1      46.710  28.681  35.789  1.00  0.00     0.041 A 
ATOM     89  F   UNL A   1      45.749  30.155  34.244  1.00  0.00    -0.206 F 
ATOM     90  C   UNL A   1      46.577  27.697  36.765  1.00  0.00     0.022 A 
BRANCH  87  91
ATOM     91  S   UNL A   1      45.087  26.038  38.437  1.00  0.00     0.124 S 
ATOM     92  O   UNL A   1      43.782  26.432  38.957  1.00  0.00    -0.237 OA
ATOM     93  O   UNL A   1      45.143  24.743  37.769  1.00  0.00    -0.237 OA
ATOM     94  O   UNL A   1      46.218  26.330  39.316  1.00  0.00    -0.744 OA
ENDBRANCH  87  91
ENDBRANCH  61  84
ENDBRANCH  35  36
ENDBRANCH  27  30
ENDBRANCH  25  26
ENDBRANCH  24  25
ENDBRANCH   1  24
TORSDOF 18
ENDMDL
