MODEL 1
REMARK VINA RESULT:     -13.0      0.000      0.000
REMARK SMILES Cc1ccc(/C=C/C(=O)N[C@](C)(C(=O)NCCCNC(=O)c2ccc(-c3c4nc(c(-c5cc(S(=O)(=O)[O-])ccc5F)c5ccc([nH]5)c(-c5cc(S(=O)(=O)[O-])ccc5F)c5nc(c(-c6cc(S(=O)(=O)[O-])ccc6F)c6ccc3[nH]6)C=C5)C=C4)cc2)C(F)(F)F)cc1
REMARK SMILES IDX 17 1 16 2 15 3 13 4 14 5 11 7 12 8 10 9 8 10 9 11 7 13 6 14
REMARK SMILES IDX 5 15 1 16 2 17 3 18 90 19 4 20 89 21 85 22 86 23 87 24 88 25
REMARK SMILES IDX 18 26 19 27 20 28 21 30 22 31 23 32 84 33 24 34 83 35 25 36
REMARK SMILES IDX 26 37 27 38 77 39 28 40 82 41 76 42 78 43 29 44 81 45 75 46
REMARK SMILES IDX 74 47 30 49 62 50 42 51 61 52 43 53 46 54 60 55 79 56 44 57
REMARK SMILES IDX 45 58 59 60 80 61 47 62 31 63 32 64 40 65 33 66 39 67 41 68
REMARK SMILES IDX 38 69 34 70 35 71 36 72 37 73 63 74 64 75 72 76 65 77 71 78
REMARK SMILES IDX 73 79 70 80 66 81 67 82 68 83 69 84 48 85 49 86 57 87 50 88
REMARK SMILES IDX 56 89 58 90 55 91 51 92 52 93 53 94 54 95
REMARK H PARENT 15 6 10 12 19 29 78 48 46 59
REMARK Flexibility Score: inf
ROOT
ATOM      1  C   UNL A   1      32.814  30.667  27.251  1.00  0.00     0.042 C 
ENDROOT
BRANCH   1   2
ATOM      2  C   UNL A   1      32.197  30.234  25.928  1.00  0.00     0.117 C 
BRANCH   2   3
ATOM      3  N   UNL A   1      33.189  29.830  24.935  1.00  0.00    -0.354 N 
ATOM      4  C   UNL A   1      33.193  28.872  23.953  1.00  0.00     0.254 C 
ATOM      5  O   UNL A   1      34.236  28.731  23.310  1.00  0.00    -0.272 OA
ATOM      6  H   UNL A   1      34.023  30.351  24.979  1.00  0.00     0.163 HD
BRANCH   4   7
ATOM      7  C   UNL A   1      32.016  27.877  23.777  1.00  0.00     0.212 C 
ATOM      8  C   UNL A   1      32.481  26.746  22.851  1.00  0.00     0.056 C 
BRANCH   7   9
ATOM      9  N   UNL A   1      31.529  27.468  25.137  1.00  0.00    -0.331 N 
ATOM     10  C   UNL A   1      31.828  26.499  26.031  1.00  0.00     0.245 C 
ATOM     11  O   UNL A   1      31.100  26.317  27.004  1.00  0.00    -0.270 OA
ATOM     12  H   UNL A   1      30.808  28.055  25.461  1.00  0.00     0.165 HD
BRANCH  10  13
ATOM     13  C   UNL A   1      33.097  25.767  25.944  1.00  0.00     0.072 C 
ATOM     14  C   UNL A   1      33.151  24.431  25.996  1.00  0.00     0.014 C 
BRANCH  14  15
ATOM     15  C   UNL A   1      34.426  23.720  25.889  1.00  0.00    -0.025 A 
ATOM     16  C   UNL A   1      38.199  21.671  25.470  1.00  0.00     0.044 C 
ATOM     17  C   UNL A   1      36.897  22.393  25.643  1.00  0.00    -0.051 A 
ATOM     18  C   UNL A   1      35.751  21.694  26.044  1.00  0.00     0.004 A 
ATOM     19  C   UNL A   1      36.797  23.761  25.373  1.00  0.00     0.004 A 
ATOM     20  C   UNL A   1      34.525  22.353  26.171  1.00  0.00     0.008 A 
ATOM     21  C   UNL A   1      35.570  24.418  25.491  1.00  0.00     0.008 A 
ENDBRANCH  14  15
ENDBRANCH  10  13
ENDBRANCH   7   9
BRANCH   7  22
ATOM     22  C   UNL A   1      30.886  28.637  23.037  1.00  0.00     0.420 C 
ATOM     23  F   UNL A   1      30.029  29.283  23.855  1.00  0.00    -0.168 F 
ATOM     24  F   UNL A   1      31.433  29.605  22.241  1.00  0.00    -0.168 F 
ATOM     25  F   UNL A   1      30.176  27.838  22.207  1.00  0.00    -0.168 F 
ENDBRANCH   7  22
ENDBRANCH   4   7
ENDBRANCH   2   3
ENDBRANCH   1   2
BRANCH   1  26
ATOM     26  C   UNL A   1      34.332  30.548  27.292  1.00  0.00     0.118 C 
BRANCH  26  27
ATOM     27  N   UNL A   1      34.947  31.430  28.280  1.00  0.00    -0.352 N 
ATOM     28  C   UNL A   1      36.072  31.199  29.065  1.00  0.00     0.251 C 
ATOM     29  H   UNL A   1      34.509  32.302  28.408  1.00  0.00     0.163 HD
ATOM     30  O   UNL A   1      36.498  32.011  29.849  1.00  0.00    -0.269 OA
BRANCH  28  31
ATOM     31  C   UNL A   1      36.809  29.937  28.818  1.00  0.00     0.039 A 
ATOM     32  C   UNL A   1      37.082  29.135  29.929  1.00  0.00     0.014 A 
ATOM     33  C   UNL A   1      37.451  29.728  27.601  1.00  0.00     0.014 A 
ATOM     34  C   UNL A   1      38.172  28.272  29.887  1.00  0.00     0.010 A 
ATOM     35  C   UNL A   1      38.587  28.937  27.589  1.00  0.00     0.010 A 
ATOM     36  C   UNL A   1      38.986  28.265  28.753  1.00  0.00    -0.014 A 
BRANCH  36  37
ATOM     37  C   UNL A   1      40.349  27.736  28.780  1.00  0.00     0.031 A 
ATOM     38  C   UNL A   1      40.644  26.346  28.382  1.00  0.00     0.074 A 
ATOM     39  C   UNL A   1      41.375  28.527  29.170  1.00  0.00     0.049 A 
ATOM     40  N   UNL A   1      41.633  25.652  28.843  1.00  0.00    -0.248 NA
ATOM     41  C   UNL A   1      39.805  25.601  27.455  1.00  0.00     0.031 C 
ATOM     42  C   UNL A   1      42.802  28.249  29.045  1.00  0.00     0.029 A 
ATOM     43  N   UNL A   1      41.308  29.639  30.005  1.00  0.00    -0.354 N 
ATOM     44  C   UNL A   1      41.751  24.525  28.062  1.00  0.00     0.074 A 
ATOM     45  C   UNL A   1      40.536  24.497  27.279  1.00  0.00     0.031 C 
ATOM     46  C   UNL A   1      43.465  28.970  29.961  1.00  0.00     0.029 A 
ATOM     47  C   UNL A   1      42.478  29.643  30.784  1.00  0.00     0.049 A 
ATOM     48  H   UNL A   1      40.578  30.300  30.042  1.00  0.00     0.167 HD
ATOM     49  C   UNL A   1      42.926  23.831  28.052  1.00  0.00     0.034 A 
ATOM     50  C   UNL A   1      42.431  29.624  32.147  1.00  0.00     0.034 A 
ATOM     51  C   UNL A   1      43.901  24.387  28.995  1.00  0.00     0.049 A 
ATOM     52  C   UNL A   1      43.147  28.447  32.761  1.00  0.00     0.074 A 
ATOM     53  C   UNL A   1      45.030  25.174  28.827  1.00  0.00     0.029 A 
ATOM     54  N   UNL A   1      43.646  24.363  30.364  1.00  0.00    -0.354 N 
ATOM     55  N   UNL A   1      43.504  27.383  32.096  1.00  0.00    -0.248 NA
ATOM     56  C   UNL A   1      43.496  28.360  34.174  1.00  0.00     0.031 C 
ATOM     57  C   UNL A   1      45.437  25.646  30.100  1.00  0.00     0.029 A 
ATOM     58  C   UNL A   1      44.567  25.133  31.047  1.00  0.00     0.049 A 
ATOM     59  H   UNL A   1      42.910  23.864  30.785  1.00  0.00     0.167 HD
ATOM     60  C   UNL A   1      44.091  26.479  32.946  1.00  0.00     0.074 A 
ATOM     61  C   UNL A   1      44.082  27.152  34.233  1.00  0.00     0.031 C 
ATOM     62  C   UNL A   1      44.517  25.256  32.501  1.00  0.00     0.034 A 
BRANCH  49  63
ATOM     63  C   UNL A   1      43.317  22.856  26.954  1.00  0.00     0.023 A 
ATOM     64  C   UNL A   1      42.780  21.550  26.963  1.00  0.00     0.031 A 
ATOM     65  C   UNL A   1      44.236  23.111  25.919  1.00  0.00     0.131 A 
ATOM     66  C   UNL A   1      43.243  20.551  26.086  1.00  0.00     0.055 A 
ATOM     67  C   UNL A   1      44.746  22.105  25.085  1.00  0.00     0.041 A 
ATOM     68  F   UNL A   1      44.636  24.354  25.623  1.00  0.00    -0.206 F 
ATOM     69  C   UNL A   1      44.263  20.810  25.178  1.00  0.00     0.022 A 
BRANCH  66  70
ATOM     70  S   UNL A   1      42.488  18.902  26.145  1.00  0.00     0.124 S 
ATOM     71  O   UNL A   1      41.118  19.172  25.724  1.00  0.00    -0.237 OA
ATOM     72  O   UNL A   1      43.317  18.149  25.211  1.00  0.00    -0.237 OA
ATOM     73  O   UNL A   1      42.635  18.513  27.548  1.00  0.00    -0.744 OA
ENDBRANCH  66  70
ENDBRANCH  49  63
BRANCH  50  74
ATOM     74  C   UNL A   1      41.231  30.309  32.703  1.00  0.00     0.023 A 
ATOM     75  C   UNL A   1      41.262  31.719  32.715  1.00  0.00     0.031 A 
ATOM     76  C   UNL A   1      39.987  29.677  32.817  1.00  0.00     0.131 A 
ATOM     77  C   UNL A   1      40.073  32.451  32.630  1.00  0.00     0.055 A 
ATOM     78  C   UNL A   1      38.798  30.420  32.831  1.00  0.00     0.041 A 
ATOM     79  F   UNL A   1      39.891  28.341  32.782  1.00  0.00    -0.206 F 
ATOM     80  C   UNL A   1      38.835  31.811  32.688  1.00  0.00     0.022 A 
BRANCH  77  81
ATOM     81  S   UNL A   1      40.188  34.190  32.114  1.00  0.00     0.124 S 
ATOM     82  O   UNL A   1      40.354  34.881  33.386  1.00  0.00    -0.237 OA
ATOM     83  O   UNL A   1      41.356  34.189  31.229  1.00  0.00    -0.237 OA
ATOM     84  O   UNL A   1      38.927  34.437  31.420  1.00  0.00    -0.744 OA
ENDBRANCH  77  81
ENDBRANCH  50  74
BRANCH  62  85
ATOM     85  C   UNL A   1      45.017  24.101  33.353  1.00  0.00     0.023 A 
ATOM     86  C   UNL A   1      46.308  24.026  33.899  1.00  0.00     0.031 A 
ATOM     87  C   UNL A   1      44.154  23.029  33.702  1.00  0.00     0.131 A 
ATOM     88  C   UNL A   1      46.719  22.919  34.667  1.00  0.00     0.055 A 
ATOM     89  C   UNL A   1      44.543  21.963  34.521  1.00  0.00     0.041 A 
ATOM     90  F   UNL A   1      42.884  22.972  33.275  1.00  0.00    -0.206 F 
ATOM     91  C   UNL A   1      45.840  21.894  34.999  1.00  0.00     0.022 A 
BRANCH  88  92
ATOM     92  S   UNL A   1      48.454  22.829  35.188  1.00  0.00     0.124 S 
ATOM     93  O   UNL A   1      48.712  21.393  35.129  1.00  0.00    -0.237 OA
ATOM     94  O   UNL A   1      49.127  23.635  34.175  1.00  0.00    -0.237 OA
ATOM     95  O   UNL A   1      48.443  23.402  36.532  1.00  0.00    -0.744 OA
ENDBRANCH  88  92
ENDBRANCH  62  85
ENDBRANCH  36  37
ENDBRANCH  28  31
ENDBRANCH  26  27
ENDBRANCH   1  26
TORSDOF 17
ENDMDL
MODEL 2
REMARK VINA RESULT:     -12.7      4.437     10.760
REMARK SMILES Cc1ccc(/C=C/C(=O)N[C@](C)(C(=O)NCCCNC(=O)c2ccc(-c3c4nc(c(-c5cc(S(=O)(=O)[O-])ccc5F)c5ccc([nH]5)c(-c5cc(S(=O)(=O)[O-])ccc5F)c5nc(c(-c6cc(S(=O)(=O)[O-])ccc6F)c6ccc3[nH]6)C=C5)C=C4)cc2)C(F)(F)F)cc1
REMARK SMILES IDX 17 1 16 2 15 3 13 4 14 5 11 7 12 8 10 9 8 10 9 11 7 13 6 14
REMARK SMILES IDX 5 15 1 16 2 17 3 18 90 19 4 20 89 21 85 22 86 23 87 24 88 25
REMARK SMILES IDX 18 26 19 27 20 28 21 30 22 31 23 32 84 33 24 34 83 35 25 36
REMARK SMILES IDX 26 37 27 38 77 39 28 40 82 41 76 42 78 43 29 44 81 45 75 46
REMARK SMILES IDX 74 47 30 49 62 50 42 51 61 52 43 53 46 54 60 55 79 56 44 57
REMARK SMILES IDX 45 58 59 60 80 61 47 62 31 63 32 64 40 65 33 66 39 67 41 68
REMARK SMILES IDX 38 69 34 70 35 71 36 72 37 73 63 74 64 75 72 76 65 77 71 78
REMARK SMILES IDX 73 79 70 80 66 81 67 82 68 83 69 84 48 85 49 86 57 87 50 88
REMARK SMILES IDX 56 89 58 90 55 91 51 92 52 93 53 94 54 95
REMARK H PARENT 15 6 10 12 19 29 78 48 46 59
REMARK Flexibility Score: inf
ROOT
ATOM      1  C   UNL A   1      38.244  21.598  25.735  1.00  0.00     0.042 C 
ENDROOT
BRANCH   1   2
ATOM      2  C   UNL A   1      36.787  21.545  25.296  1.00  0.00     0.117 C 
BRANCH   2   3
ATOM      3  N   UNL A   1      35.846  21.653  26.408  1.00  0.00    -0.354 N 
ATOM      4  C   UNL A   1      34.480  21.546  26.490  1.00  0.00     0.254 C 
ATOM      5  O   UNL A   1      33.965  21.764  27.591  1.00  0.00    -0.272 OA
ATOM      6  H   UNL A   1      36.278  21.842  27.271  1.00  0.00     0.163 HD
BRANCH   4   7
ATOM      7  C   UNL A   1      33.597  21.349  25.230  1.00  0.00     0.212 C 
ATOM      8  C   UNL A   1      32.186  21.855  25.553  1.00  0.00     0.056 C 
BRANCH   7   9
ATOM      9  N   UNL A   1      34.285  21.991  24.061  1.00  0.00    -0.331 N 
ATOM     10  C   UNL A   1      34.347  23.230  23.524  1.00  0.00     0.245 C 
ATOM     11  O   UNL A   1      34.869  23.396  22.424  1.00  0.00    -0.270 OA
ATOM     12  H   UNL A   1      34.830  21.345  23.555  1.00  0.00     0.165 HD
BRANCH  10  13
ATOM     13  C   UNL A   1      33.945  24.405  24.306  1.00  0.00     0.072 C 
ATOM     14  C   UNL A   1      34.060  25.650  23.828  1.00  0.00     0.014 C 
BRANCH  14  15
ATOM     15  C   UNL A   1      33.637  26.806  24.618  1.00  0.00    -0.025 A 
ATOM     16  C   UNL A   1      32.310  30.149  27.000  1.00  0.00     0.044 C 
ATOM     17  C   UNL A   1      32.799  28.994  26.181  1.00  0.00    -0.051 A 
ATOM     18  C   UNL A   1      32.947  29.125  24.794  1.00  0.00     0.004 A 
ATOM     19  C   UNL A   1      33.078  27.762  26.779  1.00  0.00     0.004 A 
ATOM     20  C   UNL A   1      33.368  28.041  24.019  1.00  0.00     0.008 A 
ATOM     21  C   UNL A   1      33.489  26.676  26.003  1.00  0.00     0.008 A 
ENDBRANCH  14  15
ENDBRANCH  10  13
ENDBRANCH   7   9
BRANCH   7  22
ATOM     22  C   UNL A   1      33.490  19.822  24.986  1.00  0.00     0.420 C 
ATOM     23  F   UNL A   1      32.942  19.138  26.012  1.00  0.00    -0.168 F 
ATOM     24  F   UNL A   1      32.677  19.588  23.912  1.00  0.00    -0.168 F 
ATOM     25  F   UNL A   1      34.680  19.259  24.674  1.00  0.00    -0.168 F 
ENDBRANCH   7  22
ENDBRANCH   4   7
ENDBRANCH   2   3
ENDBRANCH   1   2
BRANCH   1  26
ATOM     26  C   UNL A   1      38.738  23.001  26.063  1.00  0.00     0.118 C 
BRANCH  26  27
ATOM     27  N   UNL A   1      40.157  23.041  26.407  1.00  0.00    -0.352 N 
ATOM     28  C   UNL A   1      40.901  24.115  26.885  1.00  0.00     0.251 C 
ATOM     29  H   UNL A   1      40.651  22.199  26.285  1.00  0.00     0.163 HD
ATOM     30  O   UNL A   1      42.076  24.029  27.145  1.00  0.00    -0.269 OA
BRANCH  28  31
ATOM     31  C   UNL A   1      40.159  25.364  27.175  1.00  0.00     0.039 A 
ATOM     32  C   UNL A   1      40.540  26.506  26.466  1.00  0.00     0.014 A 
ATOM     33  C   UNL A   1      39.347  25.451  28.302  1.00  0.00     0.014 A 
ATOM     34  C   UNL A   1      40.301  27.758  27.025  1.00  0.00     0.010 A 
ATOM     35  C   UNL A   1      39.189  26.689  28.900  1.00  0.00     0.010 A 
ATOM     36  C   UNL A   1      39.728  27.834  28.296  1.00  0.00    -0.014 A 
BRANCH  36  37
ATOM     37  C   UNL A   1      39.830  29.035  29.122  1.00  0.00     0.031 A 
ATOM     38  C   UNL A   1      38.792  30.084  29.090  1.00  0.00     0.074 A 
ATOM     39  C   UNL A   1      40.890  29.203  29.945  1.00  0.00     0.049 A 
ATOM     40  N   UNL A   1      39.013  31.333  29.334  1.00  0.00    -0.248 NA
ATOM     41  C   UNL A   1      37.410  29.807  28.725  1.00  0.00     0.031 C 
ATOM     42  C   UNL A   1      41.047  30.207  30.992  1.00  0.00     0.029 A 
ATOM     43  N   UNL A   1      42.158  28.643  29.807  1.00  0.00    -0.354 N 
ATOM     44  C   UNL A   1      37.793  31.953  29.475  1.00  0.00     0.074 A 
ATOM     45  C   UNL A   1      36.835  30.982  28.994  1.00  0.00     0.031 C 
ATOM     46  C   UNL A   1      42.355  30.393  31.222  1.00  0.00     0.029 A 
ATOM     47  C   UNL A   1      43.085  29.603  30.249  1.00  0.00     0.049 A 
ATOM     48  H   UNL A   1      42.366  27.743  29.465  1.00  0.00     0.167 HD
ATOM     49  C   UNL A   1      37.715  33.152  30.125  1.00  0.00     0.034 A 
ATOM     50  C   UNL A   1      44.082  30.061  29.439  1.00  0.00     0.034 A 
ATOM     51  C   UNL A   1      39.036  33.651  30.517  1.00  0.00     0.049 A 
ATOM     52  C   UNL A   1      44.053  31.554  29.226  1.00  0.00     0.074 A 
ATOM     53  C   UNL A   1      39.705  33.689  31.731  1.00  0.00     0.029 A 
ATOM     54  N   UNL A   1      39.974  33.991  29.546  1.00  0.00    -0.354 N 
ATOM     55  N   UNL A   1      43.026  32.309  29.503  1.00  0.00    -0.248 NA
ATOM     56  C   UNL A   1      45.163  32.313  28.662  1.00  0.00     0.031 C 
ATOM     57  C   UNL A   1      41.059  34.027  31.482  1.00  0.00     0.029 A 
ATOM     58  C   UNL A   1      41.212  34.212  30.118  1.00  0.00     0.049 A 
ATOM     59  H   UNL A   1      39.780  34.063  28.584  1.00  0.00     0.167 HD
ATOM     60  C   UNL A   1      43.298  33.609  29.154  1.00  0.00     0.074 A 
ATOM     61  C   UNL A   1      44.660  33.560  28.654  1.00  0.00     0.031 C 
ATOM     62  C   UNL A   1      42.361  34.597  29.305  1.00  0.00     0.034 A 
BRANCH  49  63
ATOM     63  C   UNL A   1      36.425  33.712  30.702  1.00  0.00     0.023 A 
ATOM     64  C   UNL A   1      35.469  34.284  29.834  1.00  0.00     0.031 A 
ATOM     65  C   UNL A   1      36.096  33.772  32.069  1.00  0.00     0.131 A 
ATOM     66  C   UNL A   1      34.347  34.981  30.322  1.00  0.00     0.055 A 
ATOM     67  C   UNL A   1      35.015  34.519  32.562  1.00  0.00     0.041 A 
ATOM     68  F   UNL A   1      36.764  33.061  32.986  1.00  0.00    -0.206 F 
ATOM     69  C   UNL A   1      34.143  35.145  31.687  1.00  0.00     0.022 A 
BRANCH  66  70
ATOM     70  S   UNL A   1      33.152  35.669  29.144  1.00  0.00     0.124 S 
ATOM     71  O   UNL A   1      33.991  36.525  28.313  1.00  0.00    -0.237 OA
ATOM     72  O   UNL A   1      32.619  34.470  28.508  1.00  0.00    -0.237 OA
ATOM     73  O   UNL A   1      32.204  36.382  30.001  1.00  0.00    -0.744 OA
ENDBRANCH  66  70
ENDBRANCH  49  63
BRANCH  50  74
ATOM     74  C   UNL A   1      44.558  29.045  28.460  1.00  0.00     0.023 A 
ATOM     75  C   UNL A   1      45.378  28.016  28.970  1.00  0.00     0.031 A 
ATOM     76  C   UNL A   1      43.930  28.834  27.226  1.00  0.00     0.131 A 
ATOM     77  C   UNL A   1      45.388  26.756  28.363  1.00  0.00     0.055 A 
ATOM     78  C   UNL A   1      44.024  27.599  26.569  1.00  0.00     0.041 A 
ATOM     79  F   UNL A   1      43.116  29.762  26.705  1.00  0.00    -0.206 F 
ATOM     80  C   UNL A   1      44.715  26.537  27.161  1.00  0.00     0.022 A 
BRANCH  77  81
ATOM     81  S   UNL A   1      46.013  25.355  29.338  1.00  0.00     0.124 S 
ATOM     82  O   UNL A   1      46.275  25.971  30.633  1.00  0.00    -0.237 OA
ATOM     83  O   UNL A   1      44.897  24.407  29.295  1.00  0.00    -0.237 OA
ATOM     84  O   UNL A   1      47.192  24.909  28.601  1.00  0.00    -0.744 OA
ENDBRANCH  77  81
ENDBRANCH  50  74
BRANCH  62  85
ATOM     85  C   UNL A   1      42.460  36.028  28.803  1.00  0.00     0.023 A 
ATOM     86  C   UNL A   1      43.092  37.067  29.504  1.00  0.00     0.031 A 
ATOM     87  C   UNL A   1      41.951  36.388  27.526  1.00  0.00     0.131 A 
ATOM     88  C   UNL A   1      43.136  38.379  28.994  1.00  0.00     0.055 A 
ATOM     89  C   UNL A   1      42.055  37.677  26.992  1.00  0.00     0.041 A 
ATOM     90  F   UNL A   1      41.341  35.498  26.730  1.00  0.00    -0.206 F 
ATOM     91  C   UNL A   1      42.638  38.689  27.733  1.00  0.00     0.022 A 
BRANCH  88  92
ATOM     92  S   UNL A   1      43.823  39.688  30.044  1.00  0.00     0.124 S 
ATOM     93  O   UNL A   1      42.656  40.536  30.271  1.00  0.00    -0.237 OA
ATOM     94  O   UNL A   1      44.298  38.942  31.205  1.00  0.00    -0.237 OA
ATOM     95  O   UNL A   1      44.870  40.284  29.216  1.00  0.00    -0.744 OA
ENDBRANCH  88  92
ENDBRANCH  62  85
ENDBRANCH  36  37
ENDBRANCH  28  31
ENDBRANCH  26  27
ENDBRANCH   1  26
TORSDOF 17
ENDMDL
MODEL 3
REMARK VINA RESULT:     -12.2      1.891      2.301
REMARK SMILES Cc1ccc(/C=C/C(=O)N[C@](C)(C(=O)NCCCNC(=O)c2ccc(-c3c4nc(c(-c5cc(S(=O)(=O)[O-])ccc5F)c5ccc([nH]5)c(-c5cc(S(=O)(=O)[O-])ccc5F)c5nc(c(-c6cc(S(=O)(=O)[O-])ccc6F)c6ccc3[nH]6)C=C5)C=C4)cc2)C(F)(F)F)cc1
REMARK SMILES IDX 17 1 16 2 15 3 13 4 14 5 11 7 12 8 10 9 8 10 9 11 7 13 6 14
REMARK SMILES IDX 5 15 1 16 2 17 3 18 90 19 4 20 89 21 85 22 86 23 87 24 88 25
REMARK SMILES IDX 18 26 19 27 20 28 21 30 22 31 23 32 84 33 24 34 83 35 25 36
REMARK SMILES IDX 26 37 27 38 77 39 28 40 82 41 76 42 78 43 29 44 81 45 75 46
REMARK SMILES IDX 74 47 30 49 62 50 42 51 61 52 43 53 46 54 60 55 79 56 44 57
REMARK SMILES IDX 45 58 59 60 80 61 47 62 31 63 32 64 40 65 33 66 39 67 41 68
REMARK SMILES IDX 38 69 34 70 35 71 36 72 37 73 63 74 64 75 72 76 65 77 71 78
REMARK SMILES IDX 73 79 70 80 66 81 67 82 68 83 69 84 48 85 49 86 57 87 50 88
REMARK SMILES IDX 56 89 58 90 55 91 51 92 52 93 53 94 54 95
REMARK H PARENT 15 6 10 12 19 29 78 48 46 59
REMARK Flexibility Score: inf
ROOT
ATOM      1  C   UNL A   1      32.996  30.273  27.406  1.00  0.00     0.042 C 
ENDROOT
BRANCH   1   2
ATOM      2  C   UNL A   1      32.220  30.097  26.108  1.00  0.00     0.117 C 
BRANCH   2   3
ATOM      3  N   UNL A   1      33.072  29.776  24.966  1.00  0.00    -0.354 N 
ATOM      4  C   UNL A   1      32.891  28.991  23.856  1.00  0.00     0.254 C 
ATOM      5  O   UNL A   1      33.852  28.869  23.091  1.00  0.00    -0.272 OA
ATOM      6  H   UNL A   1      33.954  30.211  25.000  1.00  0.00     0.163 HD
BRANCH   4   7
ATOM      7  C   UNL A   1      31.610  28.139  23.656  1.00  0.00     0.212 C 
ATOM      8  C   UNL A   1      31.907  27.071  22.596  1.00  0.00     0.056 C 
BRANCH   7   9
ATOM      9  N   UNL A   1      31.156  27.640  24.998  1.00  0.00    -0.331 N 
ATOM     10  C   UNL A   1      31.471  26.610  25.814  1.00  0.00     0.245 C 
ATOM     11  O   UNL A   1      30.768  26.365  26.792  1.00  0.00    -0.270 OA
ATOM     12  H   UNL A   1      30.448  28.207  25.380  1.00  0.00     0.165 HD
BRANCH  10  13
ATOM     13  C   UNL A   1      32.732  25.879  25.643  1.00  0.00     0.072 C 
ATOM     14  C   UNL A   1      32.780  24.541  25.626  1.00  0.00     0.014 C 
BRANCH  14  15
ATOM     15  C   UNL A   1      34.047  23.832  25.437  1.00  0.00    -0.025 A 
ATOM     16  C   UNL A   1      37.738  21.655  24.941  1.00  0.00     0.044 C 
ATOM     17  C   UNL A   1      36.455  22.416  25.083  1.00  0.00    -0.051 A 
ATOM     18  C   UNL A   1      36.470  23.751  25.508  1.00  0.00     0.004 A 
ATOM     19  C   UNL A   1      35.226  21.798  24.833  1.00  0.00     0.004 A 
ATOM     20  C   UNL A   1      35.275  24.456  25.679  1.00  0.00     0.008 A 
ATOM     21  C   UNL A   1      34.032  22.500  25.013  1.00  0.00     0.008 A 
ENDBRANCH  14  15
ENDBRANCH  10  13
ENDBRANCH   7   9
BRANCH   7  22
ATOM     22  C   UNL A   1      30.527  29.078  23.067  1.00  0.00     0.420 C 
ATOM     23  F   UNL A   1      30.936  29.781  21.989  1.00  0.00    -0.168 F 
ATOM     24  F   UNL A   1      29.462  28.335  22.638  1.00  0.00    -0.168 F 
ATOM     25  F   UNL A   1      30.029  29.939  23.983  1.00  0.00    -0.168 F 
ENDBRANCH   7  22
ENDBRANCH   4   7
ENDBRANCH   2   3
ENDBRANCH   1   2
BRANCH   1  26
ATOM     26  C   UNL A   1      34.120  31.297  27.317  1.00  0.00     0.118 C 
BRANCH  26  27
ATOM     27  N   UNL A   1      34.485  31.859  28.615  1.00  0.00    -0.352 N 
ATOM     28  C   UNL A   1      35.418  31.386  29.531  1.00  0.00     0.251 C 
ATOM     29  H   UNL A   1      34.008  32.680  28.875  1.00  0.00     0.163 HD
ATOM     30  O   UNL A   1      35.643  31.942  30.578  1.00  0.00    -0.269 OA
BRANCH  28  31
ATOM     31  C   UNL A   1      36.222  30.211  29.119  1.00  0.00     0.039 A 
ATOM     32  C   UNL A   1      36.661  29.356  30.133  1.00  0.00     0.014 A 
ATOM     33  C   UNL A   1      36.757  30.145  27.836  1.00  0.00     0.014 A 
ATOM     34  C   UNL A   1      37.804  28.592  29.923  1.00  0.00     0.010 A 
ATOM     35  C   UNL A   1      37.943  29.455  27.657  1.00  0.00     0.010 A 
ATOM     36  C   UNL A   1      38.503  28.736  28.723  1.00  0.00    -0.014 A 
BRANCH  36  37
ATOM     37  C   UNL A   1      39.898  28.322  28.584  1.00  0.00     0.031 A 
ATOM     38  C   UNL A   1      40.263  26.914  28.331  1.00  0.00     0.074 A 
ATOM     39  C   UNL A   1      40.889  29.237  28.680  1.00  0.00     0.049 A 
ATOM     40  N   UNL A   1      41.377  26.374  28.702  1.00  0.00    -0.248 NA
ATOM     41  C   UNL A   1      39.365  25.978  27.672  1.00  0.00     0.031 C 
ATOM     42  C   UNL A   1      42.299  29.053  28.348  1.00  0.00     0.029 A 
ATOM     43  N   UNL A   1      40.847  30.453  29.358  1.00  0.00    -0.354 N 
ATOM     44  C   UNL A   1      41.481  25.155  28.071  1.00  0.00     0.074 A 
ATOM     45  C   UNL A   1      40.165  24.919  27.521  1.00  0.00     0.031 C 
ATOM     46  C   UNL A   1      43.025  29.951  29.031  1.00  0.00     0.029 A 
ATOM     47  C   UNL A   1      42.121  30.662  29.914  1.00  0.00     0.049 A 
ATOM     48  H   UNL A   1      40.070  31.055  29.432  1.00  0.00     0.167 HD
ATOM     49  C   UNL A   1      42.703  24.559  27.951  1.00  0.00     0.034 A 
ATOM     50  C   UNL A   1      42.295  30.843  31.255  1.00  0.00     0.034 A 
ATOM     51  C   UNL A   1      43.756  25.322  28.627  1.00  0.00     0.049 A 
ATOM     52  C   UNL A   1      43.215  29.828  31.888  1.00  0.00     0.074 A 
ATOM     53  C   UNL A   1      44.758  26.158  28.161  1.00  0.00     0.029 A 
ATOM     54  N   UNL A   1      43.728  25.482  30.009  1.00  0.00    -0.354 N 
ATOM     55  N   UNL A   1      43.565  28.708  31.320  1.00  0.00    -0.248 NA
ATOM     56  C   UNL A   1      43.793  29.980  33.218  1.00  0.00     0.031 C 
ATOM     57  C   UNL A   1      45.316  26.845  29.270  1.00  0.00     0.029 A 
ATOM     58  C   UNL A   1      44.665  26.414  30.413  1.00  0.00     0.049 A 
ATOM     59  H   UNL A   1      43.123  24.998  30.615  1.00  0.00     0.167 HD
ATOM     60  C   UNL A   1      44.369  27.987  32.169  1.00  0.00     0.074 A 
ATOM     61  C   UNL A   1      44.500  28.842  33.336  1.00  0.00     0.031 C 
ATOM     62  C   UNL A   1      44.838  26.748  31.824  1.00  0.00     0.034 A 
BRANCH  49  63
ATOM     63  C   UNL A   1      43.008  23.464  26.942  1.00  0.00     0.023 A 
ATOM     64  C   UNL A   1      42.389  22.202  27.081  1.00  0.00     0.031 A 
ATOM     65  C   UNL A   1      43.918  23.563  25.873  1.00  0.00     0.131 A 
ATOM     66  C   UNL A   1      42.769  21.098  26.293  1.00  0.00     0.055 A 
ATOM     67  C   UNL A   1      44.345  22.453  25.129  1.00  0.00     0.041 A 
ATOM     68  F   UNL A   1      44.389  24.745  25.456  1.00  0.00    -0.206 F 
ATOM     69  C   UNL A   1      43.783  21.207  25.350  1.00  0.00     0.022 A 
BRANCH  66  70
ATOM     70  S   UNL A   1      41.912  19.515  26.517  1.00  0.00     0.124 S 
ATOM     71  O   UNL A   1      42.551  18.671  25.513  1.00  0.00    -0.237 OA
ATOM     72  O   UNL A   1      42.205  19.199  27.910  1.00  0.00    -0.237 OA
ATOM     73  O   UNL A   1      40.513  19.845  26.243  1.00  0.00    -0.744 OA
ENDBRANCH  66  70
ENDBRANCH  49  63
BRANCH  50  74
ATOM     74  C   UNL A   1      41.139  31.510  31.914  1.00  0.00     0.023 A 
ATOM     75  C   UNL A   1      40.493  30.782  32.936  1.00  0.00     0.031 A 
ATOM     76  C   UNL A   1      40.939  32.895  31.866  1.00  0.00     0.131 A 
ATOM     77  C   UNL A   1      39.851  31.454  33.982  1.00  0.00     0.055 A 
ATOM     78  C   UNL A   1      40.209  33.554  32.864  1.00  0.00     0.041 A 
ATOM     79  F   UNL A   1      41.549  33.643  30.936  1.00  0.00    -0.206 F 
ATOM     80  C   UNL A   1      39.703  32.841  33.955  1.00  0.00     0.022 A 
BRANCH  77  81
ATOM     81  S   UNL A   1      39.520  30.521  35.506  1.00  0.00     0.124 S 
ATOM     82  O   UNL A   1      40.486  29.433  35.420  1.00  0.00    -0.237 OA
ATOM     83  O   UNL A   1      39.767  31.514  36.555  1.00  0.00    -0.237 OA
ATOM     84  O   UNL A   1      38.118  30.132  35.384  1.00  0.00    -0.744 OA
ENDBRANCH  77  81
ENDBRANCH  50  74
BRANCH  62  85
ATOM     85  C   UNL A   1      45.581  25.774  32.723  1.00  0.00     0.023 A 
ATOM     86  C   UNL A   1      44.953  24.802  33.520  1.00  0.00     0.031 A 
ATOM     87  C   UNL A   1      47.000  25.754  32.760  1.00  0.00     0.131 A 
ATOM     88  C   UNL A   1      45.695  23.937  34.347  1.00  0.00     0.055 A 
ATOM     89  C   UNL A   1      47.738  24.850  33.532  1.00  0.00     0.041 A 
ATOM     90  F   UNL A   1      47.740  26.606  32.035  1.00  0.00    -0.206 F 
ATOM     91  C   UNL A   1      47.086  23.941  34.346  1.00  0.00     0.022 A 
BRANCH  88  92
ATOM     92  S   UNL A   1      44.793  22.832  35.467  1.00  0.00     0.124 S 
ATOM     93  O   UNL A   1      44.497  21.698  34.595  1.00  0.00    -0.237 OA
ATOM     94  O   UNL A   1      45.774  22.582  36.517  1.00  0.00    -0.237 OA
ATOM     95  O   UNL A   1      43.633  23.621  35.874  1.00  0.00    -0.744 OA
ENDBRANCH  88  92
ENDBRANCH  62  85
ENDBRANCH  36  37
ENDBRANCH  28  31
ENDBRANCH  26  27
ENDBRANCH   1  26
TORSDOF 17
ENDMDL
