MODEL 1
REMARK VINA RESULT:     -12.2      0.000      0.000
REMARK SMILES O=C(C[C@@H]([NH2+]Cc1cccnc1)C(=O)NCCCNC(=O)c1ccc(-c2c3nc(c(-c4cc(S(=O)(=O)[O-])ccc4F)c4ccc([nH]4)c(-c4cc(S(=O)(=O)[O-])ccc4F)c4nc(c(-c5cc(S(=O)(=O)[O-])ccc5F)c5ccc2[nH]5)C=C4)C=C3)cc1)Nc1ccc2ccccc2c1
REMARK SMILES IDX 17 1 16 2 15 3 13 4 14 5 4 7 3 8 2 9 1 10 85 11 86 13 87 14
REMARK SMILES IDX 95 15 88 16 94 17 89 18 93 19 90 20 92 21 91 22 5 23 6 26
REMARK SMILES IDX 7 27 8 28 12 29 9 30 11 31 10 32 18 33 19 34 20 35 21 37
REMARK SMILES IDX 22 38 23 39 84 40 24 41 83 42 25 43 26 44 27 45 77 46 28 47
REMARK SMILES IDX 82 48 76 49 78 50 29 51 81 52 75 53 74 54 30 56 62 57 42 58
REMARK SMILES IDX 61 59 43 60 46 61 60 62 79 63 44 64 45 65 59 67 80 68 47 69
REMARK SMILES IDX 31 70 32 71 40 72 33 73 39 74 41 75 38 76 34 77 35 78 36 79
REMARK SMILES IDX 37 80 63 81 64 82 72 83 65 84 71 85 73 86 70 87 66 88 67 89
REMARK SMILES IDX 68 90 69 91 48 92 49 93 57 94 50 95 56 96 58 97 55 98 51 99
REMARK SMILES IDX 52 100 53 101 54 102
REMARK H PARENT 15 6 85 12 5 24 5 25 19 36 78 55 46 66
REMARK Flexibility Score: inf
ROOT
ATOM      1  C   UNL A   1      31.211  31.952  26.657  1.00  0.00     0.042 C 
ENDROOT
BRANCH   1   2
ATOM      2  C   UNL A   1      31.237  31.024  25.448  1.00  0.00     0.118 C 
BRANCH   2   3
ATOM      3  N   UNL A   1      31.403  29.637  25.846  1.00  0.00    -0.351 N 
ATOM      4  C   UNL A   1      31.654  28.528  25.094  1.00  0.00     0.278 C 
ATOM      5  O   UNL A   1      31.787  27.454  25.687  1.00  0.00    -0.268 OA
ATOM      6  H   UNL A   1      31.320  29.471  26.813  1.00  0.00     0.163 HD
BRANCH   4   7
ATOM      7  C   UNL A   1      31.835  28.612  23.566  1.00  0.00     0.282 C 
BRANCH   7   8
ATOM      8  C   UNL A   1      33.284  28.246  23.186  1.00  0.00     0.175 C 
BRANCH   8   9
ATOM      9  C   UNL A   1      33.520  26.760  23.007  1.00  0.00     0.230 C 
ATOM     10  O   UNL A   1      33.256  26.180  21.959  1.00  0.00    -0.274 OA
ATOM     11  N   UNL A   1      34.009  26.164  24.158  1.00  0.00    -0.326 N 
ATOM     12  H   UNL A   1      34.294  26.745  24.899  1.00  0.00     0.169 HD
BRANCH  11  13
ATOM     13  C   UNL A   1      34.120  24.778  24.322  1.00  0.00     0.041 A 
ATOM     14  C   UNL A   1      35.365  24.194  24.093  1.00  0.00     0.027 A 
ATOM     15  C   UNL A   1      33.021  23.984  24.649  1.00  0.00     0.034 A 
ATOM     16  C   UNL A   1      35.542  22.828  24.297  1.00  0.00     0.011 A 
ATOM     17  C   UNL A   1      33.158  22.586  24.708  1.00  0.00    -0.016 A 
ATOM     18  C   UNL A   1      34.446  22.010  24.591  1.00  0.00    -0.018 A 
ATOM     19  C   UNL A   1      32.047  21.736  24.840  1.00  0.00     0.009 A 
ATOM     20  C   UNL A   1      34.601  20.623  24.725  1.00  0.00     0.009 A 
ATOM     21  C   UNL A   1      32.211  20.350  24.881  1.00  0.00     0.001 A 
ATOM     22  C   UNL A   1      33.488  19.796  24.856  1.00  0.00     0.001 A 
ENDBRANCH  11  13
ENDBRANCH   8   9
ENDBRANCH   7   8
BRANCH   7  23
ATOM     23  N   UNL A   1      30.796  27.804  22.848  1.00  0.00    -0.332 N 
ATOM     24  H   UNL A   1      30.972  26.816  23.034  1.00  0.00     0.347 HD
ATOM     25  H   UNL A   1      30.873  28.035  21.857  1.00  0.00     0.347 HD
BRANCH  23  26
ATOM     26  C   UNL A   1      29.412  28.115  23.256  1.00  0.00     0.299 C 
BRANCH  26  27
ATOM     27  C   UNL A   1      28.965  29.484  22.825  1.00  0.00     0.024 A 
ATOM     28  C   UNL A   1      28.082  30.246  23.600  1.00  0.00     0.013 A 
ATOM     29  C   UNL A   1      29.400  30.038  21.625  1.00  0.00     0.120 A 
ATOM     30  C   UNL A   1      27.642  31.480  23.138  1.00  0.00     0.021 A 
ATOM     31  N   UNL A   1      29.011  31.251  21.169  1.00  0.00    -0.264 NA
ATOM     32  C   UNL A   1      28.128  31.934  21.926  1.00  0.00     0.111 A 
ENDBRANCH  26  27
ENDBRANCH  23  26
ENDBRANCH   7  23
ENDBRANCH   4   7
ENDBRANCH   2   3
ENDBRANCH   1   2
BRANCH   1  33
ATOM     33  C   UNL A   1      32.580  32.514  27.022  1.00  0.00     0.118 C 
BRANCH  33  34
ATOM     34  N   UNL A   1      32.495  33.869  27.546  1.00  0.00    -0.352 N 
ATOM     35  C   UNL A   1      33.182  34.457  28.581  1.00  0.00     0.251 C 
ATOM     36  H   UNL A   1      31.848  34.453  27.089  1.00  0.00     0.163 HD
ATOM     37  O   UNL A   1      32.799  35.537  29.014  1.00  0.00    -0.269 OA
BRANCH  35  38
ATOM     38  C   UNL A   1      34.355  33.781  29.178  1.00  0.00     0.039 A 
ATOM     39  C   UNL A   1      35.635  34.201  28.810  1.00  0.00     0.014 A 
ATOM     40  C   UNL A   1      34.200  32.728  30.084  1.00  0.00     0.014 A 
ATOM     41  C   UNL A   1      36.755  33.609  29.399  1.00  0.00     0.010 A 
ATOM     42  C   UNL A   1      35.313  32.200  30.734  1.00  0.00     0.010 A 
ATOM     43  C   UNL A   1      36.604  32.632  30.395  1.00  0.00    -0.014 A 
BRANCH  43  44
ATOM     44  C   UNL A   1      37.783  32.052  31.093  1.00  0.00     0.031 A 
ATOM     45  C   UNL A   1      38.552  30.920  30.465  1.00  0.00     0.074 A 
ATOM     46  C   UNL A   1      38.118  32.502  32.319  1.00  0.00     0.049 A 
ATOM     47  N   UNL A   1      39.555  30.234  30.949  1.00  0.00    -0.248 NA
ATOM     48  C   UNL A   1      38.119  30.486  29.128  1.00  0.00     0.031 C 
ATOM     49  C   UNL A   1      37.421  33.565  33.048  1.00  0.00     0.029 A 
ATOM     50  N   UNL A   1      39.118  32.118  33.178  1.00  0.00    -0.354 N 
ATOM     51  C   UNL A   1      39.860  29.276  29.988  1.00  0.00     0.074 A 
ATOM     52  C   UNL A   1      38.901  29.437  28.916  1.00  0.00     0.031 C 
ATOM     53  C   UNL A   1      38.027  33.760  34.230  1.00  0.00     0.029 A 
ATOM     54  C   UNL A   1      39.118  32.803  34.373  1.00  0.00     0.049 A 
ATOM     55  H   UNL A   1      39.775  31.417  32.960  1.00  0.00     0.167 HD
ATOM     56  C   UNL A   1      40.858  28.358  29.993  1.00  0.00     0.034 A 
ATOM     57  C   UNL A   1      39.892  32.662  35.467  1.00  0.00     0.034 A 
ATOM     58  C   UNL A   1      41.816  28.224  31.064  1.00  0.00     0.049 A 
ATOM     59  C   UNL A   1      40.983  31.618  35.456  1.00  0.00     0.074 A 
ATOM     60  C   UNL A   1      42.911  27.380  31.136  1.00  0.00     0.029 A 
ATOM     61  N   UNL A   1      41.787  28.937  32.255  1.00  0.00    -0.354 N 
ATOM     62  N   UNL A   1      41.301  30.767  34.507  1.00  0.00    -0.248 NA
ATOM     63  C   UNL A   1      41.825  31.524  36.654  1.00  0.00     0.031 C 
ATOM     64  C   UNL A   1      43.490  27.521  32.400  1.00  0.00     0.029 A 
ATOM     65  C   UNL A   1      42.818  28.521  33.083  1.00  0.00     0.049 A 
ATOM     66  H   UNL A   1      41.131  29.637  32.478  1.00  0.00     0.167 HD
ATOM     67  C   UNL A   1      42.402  30.060  34.984  1.00  0.00     0.074 A 
ATOM     68  C   UNL A   1      42.702  30.598  36.295  1.00  0.00     0.031 C 
ATOM     69  C   UNL A   1      43.104  29.061  34.393  1.00  0.00     0.034 A 
BRANCH  56  70
ATOM     70  C   UNL A   1      40.945  27.403  28.825  1.00  0.00     0.023 A 
ATOM     71  C   UNL A   1      41.923  27.538  27.824  1.00  0.00     0.031 A 
ATOM     72  C   UNL A   1      40.035  26.337  28.715  1.00  0.00     0.131 A 
ATOM     73  C   UNL A   1      41.929  26.661  26.728  1.00  0.00     0.055 A 
ATOM     74  C   UNL A   1      40.096  25.419  27.665  1.00  0.00     0.041 A 
ATOM     75  F   UNL A   1      39.063  26.171  29.627  1.00  0.00    -0.206 F 
ATOM     76  C   UNL A   1      41.040  25.586  26.656  1.00  0.00     0.022 A 
BRANCH  73  77
ATOM     77  S   UNL A   1      43.027  27.024  25.332  1.00  0.00     0.124 S 
ATOM     78  O   UNL A   1      44.262  27.399  26.017  1.00  0.00    -0.237 OA
ATOM     79  O   UNL A   1      43.055  25.754  24.615  1.00  0.00    -0.237 OA
ATOM     80  O   UNL A   1      42.352  28.118  24.637  1.00  0.00    -0.744 OA
ENDBRANCH  73  77
ENDBRANCH  56  70
BRANCH  57  81
ATOM     81  C   UNL A   1      39.655  33.500  36.680  1.00  0.00     0.023 A 
ATOM     82  C   UNL A   1      39.028  32.973  37.819  1.00  0.00     0.031 A 
ATOM     83  C   UNL A   1      40.000  34.865  36.693  1.00  0.00     0.131 A 
ATOM     84  C   UNL A   1      38.710  33.815  38.898  1.00  0.00     0.055 A 
ATOM     85  C   UNL A   1      39.741  35.682  37.795  1.00  0.00     0.041 A 
ATOM     86  F   UNL A   1      40.603  35.424  35.632  1.00  0.00    -0.206 F 
ATOM     87  C   UNL A   1      39.076  35.162  38.899  1.00  0.00     0.022 A 
BRANCH  84  88
ATOM     88  S   UNL A   1      37.705  33.148  40.252  1.00  0.00     0.124 S 
ATOM     89  O   UNL A   1      36.444  32.866  39.575  1.00  0.00    -0.237 OA
ATOM     90  O   UNL A   1      38.485  31.985  40.664  1.00  0.00    -0.237 OA
ATOM     91  O   UNL A   1      37.665  34.243  41.218  1.00  0.00    -0.744 OA
ENDBRANCH  84  88
ENDBRANCH  57  81
BRANCH  69  92
ATOM     92  C   UNL A   1      44.300  28.521  35.140  1.00  0.00     0.023 A 
ATOM     93  C   UNL A   1      44.177  27.524  36.123  1.00  0.00     0.031 A 
ATOM     94  C   UNL A   1      45.586  29.019  34.864  1.00  0.00     0.131 A 
ATOM     95  C   UNL A   1      45.310  27.099  36.835  1.00  0.00     0.055 A 
ATOM     96  C   UNL A   1      46.719  28.542  35.525  1.00  0.00     0.041 A 
ATOM     97  F   UNL A   1      45.765  29.976  33.939  1.00  0.00    -0.206 F 
ATOM     98  C   UNL A   1      46.583  27.586  36.527  1.00  0.00     0.022 A 
BRANCH  95  99
ATOM     99  S   UNL A   1      45.085  25.972  38.238  1.00  0.00     0.124 S 
ATOM    100  O   UNL A   1      43.853  26.476  38.836  1.00  0.00    -0.237 OA
ATOM    101  O   UNL A   1      44.991  24.672  37.583  1.00  0.00    -0.237 OA
ATOM    102  O   UNL A   1      46.292  26.177  39.038  1.00  0.00    -0.744 OA
ENDBRANCH  95  99
ENDBRANCH  69  92
ENDBRANCH  43  44
ENDBRANCH  35  38
ENDBRANCH  33  34
ENDBRANCH   1  33
TORSDOF 19
ENDMDL
MODEL 2
REMARK VINA RESULT:     -12.1      5.634     11.708
REMARK SMILES O=C(C[C@@H]([NH2+]Cc1cccnc1)C(=O)NCCCNC(=O)c1ccc(-c2c3nc(c(-c4cc(S(=O)(=O)[O-])ccc4F)c4ccc([nH]4)c(-c4cc(S(=O)(=O)[O-])ccc4F)c4nc(c(-c5cc(S(=O)(=O)[O-])ccc5F)c5ccc2[nH]5)C=C4)C=C3)cc1)Nc1ccc2ccccc2c1
REMARK SMILES IDX 17 1 16 2 15 3 13 4 14 5 4 7 3 8 2 9 1 10 85 11 86 13 87 14
REMARK SMILES IDX 95 15 88 16 94 17 89 18 93 19 90 20 92 21 91 22 5 23 6 26
REMARK SMILES IDX 7 27 8 28 12 29 9 30 11 31 10 32 18 33 19 34 20 35 21 37
REMARK SMILES IDX 22 38 23 39 84 40 24 41 83 42 25 43 26 44 27 45 77 46 28 47
REMARK SMILES IDX 82 48 76 49 78 50 29 51 81 52 75 53 74 54 30 56 62 57 42 58
REMARK SMILES IDX 61 59 43 60 46 61 60 62 79 63 44 64 45 65 59 67 80 68 47 69
REMARK SMILES IDX 31 70 32 71 40 72 33 73 39 74 41 75 38 76 34 77 35 78 36 79
REMARK SMILES IDX 37 80 63 81 64 82 72 83 65 84 71 85 73 86 70 87 66 88 67 89
REMARK SMILES IDX 68 90 69 91 48 92 49 93 57 94 50 95 56 96 58 97 55 98 51 99
REMARK SMILES IDX 52 100 53 101 54 102
REMARK H PARENT 15 6 85 12 5 24 5 25 19 36 78 55 46 66
REMARK Flexibility Score: inf
ROOT
ATOM      1  C   UNL A   1      37.702  20.287  24.946  1.00  0.00     0.042 C 
ENDROOT
BRANCH   1   2
ATOM      2  C   UNL A   1      36.401  20.849  25.510  1.00  0.00     0.118 C 
BRANCH   2   3
ATOM      3  N   UNL A   1      35.633  21.538  24.488  1.00  0.00    -0.351 N 
ATOM      4  C   UNL A   1      34.351  22.000  24.510  1.00  0.00     0.278 C 
ATOM      5  O   UNL A   1      33.940  22.591  23.508  1.00  0.00    -0.268 OA
ATOM      6  H   UNL A   1      36.115  21.696  23.644  1.00  0.00     0.163 HD
BRANCH   4   7
ATOM      7  C   UNL A   1      33.462  21.857  25.761  1.00  0.00     0.282 C 
BRANCH   7   8
ATOM      8  C   UNL A   1      32.109  22.559  25.529  1.00  0.00     0.175 C 
BRANCH   8   9
ATOM      9  C   UNL A   1      31.999  23.921  26.183  1.00  0.00     0.230 C 
ATOM     10  O   UNL A   1      31.398  24.090  27.239  1.00  0.00    -0.274 OA
ATOM     11  N   UNL A   1      32.604  24.914  25.431  1.00  0.00    -0.326 N 
ATOM     12  H   UNL A   1      33.158  24.646  24.662  1.00  0.00     0.169 HD
BRANCH  11  13
ATOM     13  C   UNL A   1      32.472  26.281  25.707  1.00  0.00     0.041 A 
ATOM     14  C   UNL A   1      31.407  26.962  25.122  1.00  0.00     0.027 A 
ATOM     15  C   UNL A   1      33.397  26.965  26.495  1.00  0.00     0.034 A 
ATOM     16  C   UNL A   1      31.198  28.308  25.410  1.00  0.00     0.011 A 
ATOM     17  C   UNL A   1      33.279  28.357  26.667  1.00  0.00    -0.016 A 
ATOM     18  C   UNL A   1      32.132  29.021  26.170  1.00  0.00    -0.018 A 
ATOM     19  C   UNL A   1      34.285  29.116  27.285  1.00  0.00     0.009 A 
ATOM     20  C   UNL A   1      31.970  30.394  26.403  1.00  0.00     0.009 A 
ATOM     21  C   UNL A   1      34.149  30.498  27.429  1.00  0.00     0.001 A 
ATOM     22  C   UNL A   1      32.979  31.131  27.018  1.00  0.00     0.001 A 
ENDBRANCH  11  13
ENDBRANCH   8   9
ENDBRANCH   7   8
BRANCH   7  23
ATOM     23  N   UNL A   1      33.338  20.424  26.181  1.00  0.00    -0.332 N 
ATOM     24  H   UNL A   1      32.866  20.393  27.085  1.00  0.00     0.347 HD
ATOM     25  H   UNL A   1      34.284  20.043  26.222  1.00  0.00     0.347 HD
BRANCH  23  26
ATOM     26  C   UNL A   1      32.579  19.586  25.231  1.00  0.00     0.299 C 
BRANCH  26  27
ATOM     27  C   UNL A   1      33.154  18.206  25.074  1.00  0.00     0.024 A 
ATOM     28  C   UNL A   1      32.502  17.077  25.585  1.00  0.00     0.013 A 
ATOM     29  C   UNL A   1      34.370  18.002  24.428  1.00  0.00     0.120 A 
ATOM     30  C   UNL A   1      33.095  15.825  25.477  1.00  0.00     0.021 A 
ATOM     31  N   UNL A   1      34.952  16.790  24.281  1.00  0.00    -0.264 NA
ATOM     32  C   UNL A   1      34.311  15.734  24.824  1.00  0.00     0.111 A 
ENDBRANCH  26  27
ENDBRANCH  23  26
ENDBRANCH   7  23
ENDBRANCH   4   7
ENDBRANCH   2   3
ENDBRANCH   1   2
BRANCH   1  33
ATOM     33  C   UNL A   1      38.943  20.761  25.694  1.00  0.00     0.118 C 
BRANCH  33  34
ATOM     34  N   UNL A   1      39.917  19.694  25.869  1.00  0.00    -0.352 N 
ATOM     35  C   UNL A   1      41.276  19.767  26.065  1.00  0.00     0.251 C 
ATOM     36  H   UNL A   1      39.547  18.783  25.845  1.00  0.00     0.163 HD
ATOM     37  O   UNL A   1      41.950  18.749  25.959  1.00  0.00    -0.269 OA
BRANCH  35  38
ATOM     38  C   UNL A   1      41.917  21.063  26.378  1.00  0.00     0.039 A 
ATOM     39  C   UNL A   1      42.219  21.938  25.332  1.00  0.00     0.014 A 
ATOM     40  C   UNL A   1      42.235  21.413  27.694  1.00  0.00     0.014 A 
ATOM     41  C   UNL A   1      42.779  23.186  25.611  1.00  0.00     0.010 A 
ATOM     42  C   UNL A   1      42.712  22.691  27.977  1.00  0.00     0.010 A 
ATOM     43  C   UNL A   1      42.994  23.591  26.938  1.00  0.00    -0.014 A 
BRANCH  43  44
ATOM     44  C   UNL A   1      43.510  24.949  27.258  1.00  0.00     0.031 A 
ATOM     45  C   UNL A   1      42.583  26.002  27.805  1.00  0.00     0.074 A 
ATOM     46  C   UNL A   1      44.798  25.250  26.994  1.00  0.00     0.049 A 
ATOM     47  N   UNL A   1      42.825  27.259  28.071  1.00  0.00    -0.248 NA
ATOM     48  C   UNL A   1      41.192  25.592  28.059  1.00  0.00     0.031 C 
ATOM     49  C   UNL A   1      45.781  24.324  26.424  1.00  0.00     0.029 A 
ATOM     50  N   UNL A   1      45.502  26.418  27.155  1.00  0.00    -0.354 N 
ATOM     51  C   UNL A   1      41.618  27.796  28.504  1.00  0.00     0.074 A 
ATOM     52  C   UNL A   1      40.633  26.740  28.415  1.00  0.00     0.031 C 
ATOM     53  C   UNL A   1      46.961  24.954  26.305  1.00  0.00     0.029 A 
ATOM     54  C   UNL A   1      46.810  26.340  26.734  1.00  0.00     0.049 A 
ATOM     55  H   UNL A   1      45.107  27.234  27.538  1.00  0.00     0.167 HD
ATOM     56  C   UNL A   1      41.360  29.050  28.951  1.00  0.00     0.034 A 
ATOM     57  C   UNL A   1      47.773  27.282  26.676  1.00  0.00     0.034 A 
ATOM     58  C   UNL A   1      42.360  30.086  29.049  1.00  0.00     0.049 A 
ATOM     59  C   UNL A   1      47.454  28.677  27.160  1.00  0.00     0.074 A 
ATOM     60  C   UNL A   1      42.224  31.366  29.558  1.00  0.00     0.029 A 
ATOM     61  N   UNL A   1      43.675  29.970  28.617  1.00  0.00    -0.354 N 
ATOM     62  N   UNL A   1      46.323  29.148  27.633  1.00  0.00    -0.248 NA
ATOM     63  C   UNL A   1      48.542  29.661  27.113  1.00  0.00     0.031 C 
ATOM     64  C   UNL A   1      43.427  32.049  29.355  1.00  0.00     0.029 A 
ATOM     65  C   UNL A   1      44.346  31.168  28.807  1.00  0.00     0.049 A 
ATOM     66  H   UNL A   1      44.073  29.156  28.231  1.00  0.00     0.167 HD
ATOM     67  C   UNL A   1      46.576  30.474  27.971  1.00  0.00     0.074 A 
ATOM     68  C   UNL A   1      47.970  30.721  27.664  1.00  0.00     0.031 C 
ATOM     69  C   UNL A   1      45.736  31.404  28.491  1.00  0.00     0.034 A 
BRANCH  56  70
ATOM     70  C   UNL A   1      39.937  29.385  29.333  1.00  0.00     0.023 A 
ATOM     71  C   UNL A   1      39.524  29.459  30.674  1.00  0.00     0.031 A 
ATOM     72  C   UNL A   1      38.979  29.638  28.335  1.00  0.00     0.131 A 
ATOM     73  C   UNL A   1      38.178  29.717  30.979  1.00  0.00     0.055 A 
ATOM     74  C   UNL A   1      37.660  29.974  28.646  1.00  0.00     0.041 A 
ATOM     75  F   UNL A   1      39.308  29.559  27.036  1.00  0.00    -0.206 F 
ATOM     76  C   UNL A   1      37.250  30.003  29.976  1.00  0.00     0.022 A 
BRANCH  73  77
ATOM     77  S   UNL A   1      37.629  29.543  32.699  1.00  0.00     0.124 S 
ATOM     78  O   UNL A   1      38.704  30.217  33.423  1.00  0.00    -0.237 OA
ATOM     79  O   UNL A   1      36.340  30.225  32.689  1.00  0.00    -0.237 OA
ATOM     80  O   UNL A   1      37.568  28.096  32.896  1.00  0.00    -0.744 OA
ENDBRANCH  73  77
ENDBRANCH  56  70
BRANCH  57  81
ATOM     81  C   UNL A   1      49.119  26.961  26.115  1.00  0.00     0.023 A 
ATOM     82  C   UNL A   1      50.215  26.703  26.953  1.00  0.00     0.031 A 
ATOM     83  C   UNL A   1      49.343  26.968  24.726  1.00  0.00     0.131 A 
ATOM     84  C   UNL A   1      51.493  26.523  26.400  1.00  0.00     0.055 A 
ATOM     85  C   UNL A   1      50.604  26.723  24.178  1.00  0.00     0.041 A 
ATOM     86  F   UNL A   1      48.332  27.208  23.876  1.00  0.00    -0.206 F 
ATOM     87  C   UNL A   1      51.692  26.516  25.019  1.00  0.00     0.022 A 
BRANCH  84  88
ATOM     88  S   UNL A   1      52.916  26.415  27.520  1.00  0.00     0.124 S 
ATOM     89  O   UNL A   1      53.521  27.733  27.361  1.00  0.00    -0.237 OA
ATOM     90  O   UNL A   1      52.271  26.156  28.804  1.00  0.00    -0.237 OA
ATOM     91  O   UNL A   1      53.691  25.301  26.979  1.00  0.00    -0.744 OA
ENDBRANCH  84  88
ENDBRANCH  57  81
BRANCH  69  92
ATOM     92  C   UNL A   1      46.318  32.761  28.811  1.00  0.00     0.023 A 
ATOM     93  C   UNL A   1      46.301  33.816  27.883  1.00  0.00     0.031 A 
ATOM     94  C   UNL A   1      46.905  32.996  30.067  1.00  0.00     0.131 A 
ATOM     95  C   UNL A   1      46.910  35.039  28.203  1.00  0.00     0.055 A 
ATOM     96  C   UNL A   1      47.447  34.237  30.406  1.00  0.00     0.041 A 
ATOM     97  F   UNL A   1      46.956  32.024  30.992  1.00  0.00    -0.206 F 
ATOM     98  C   UNL A   1      47.464  35.263  29.466  1.00  0.00     0.022 A 
BRANCH  95  99
ATOM     99  S   UNL A   1      47.060  36.304  26.911  1.00  0.00     0.124 S 
ATOM    100  O   UNL A   1      47.407  37.489  27.687  1.00  0.00    -0.237 OA
ATOM    101  O   UNL A   1      48.119  35.762  26.065  1.00  0.00    -0.237 OA
ATOM    102  O   UNL A   1      45.731  36.328  26.301  1.00  0.00    -0.744 OA
ENDBRANCH  95  99
ENDBRANCH  69  92
ENDBRANCH  43  44
ENDBRANCH  35  38
ENDBRANCH  33  34
ENDBRANCH   1  33
TORSDOF 19
ENDMDL
MODEL 3
REMARK VINA RESULT:     -12.0      5.606     11.607
REMARK SMILES O=C(C[C@@H]([NH2+]Cc1cccnc1)C(=O)NCCCNC(=O)c1ccc(-c2c3nc(c(-c4cc(S(=O)(=O)[O-])ccc4F)c4ccc([nH]4)c(-c4cc(S(=O)(=O)[O-])ccc4F)c4nc(c(-c5cc(S(=O)(=O)[O-])ccc5F)c5ccc2[nH]5)C=C4)C=C3)cc1)Nc1ccc2ccccc2c1
REMARK SMILES IDX 17 1 16 2 15 3 13 4 14 5 4 7 3 8 2 9 1 10 85 11 86 13 87 14
REMARK SMILES IDX 95 15 88 16 94 17 89 18 93 19 90 20 92 21 91 22 5 23 6 26
REMARK SMILES IDX 7 27 8 28 12 29 9 30 11 31 10 32 18 33 19 34 20 35 21 37
REMARK SMILES IDX 22 38 23 39 84 40 24 41 83 42 25 43 26 44 27 45 77 46 28 47
REMARK SMILES IDX 82 48 76 49 78 50 29 51 81 52 75 53 74 54 30 56 62 57 42 58
REMARK SMILES IDX 61 59 43 60 46 61 60 62 79 63 44 64 45 65 59 67 80 68 47 69
REMARK SMILES IDX 31 70 32 71 40 72 33 73 39 74 41 75 38 76 34 77 35 78 36 79
REMARK SMILES IDX 37 80 63 81 64 82 72 83 65 84 71 85 73 86 70 87 66 88 67 89
REMARK SMILES IDX 68 90 69 91 48 92 49 93 57 94 50 95 56 96 58 97 55 98 51 99
REMARK SMILES IDX 52 100 53 101 54 102
REMARK H PARENT 15 6 85 12 5 24 5 25 19 36 78 55 46 66
REMARK Flexibility Score: inf
ROOT
ATOM      1  C   UNL A   1      37.698  20.520  24.974  1.00  0.00     0.042 C 
ENDROOT
BRANCH   1   2
ATOM      2  C   UNL A   1      36.407  21.083  25.559  1.00  0.00     0.118 C 
BRANCH   2   3
ATOM      3  N   UNL A   1      35.598  21.727  24.540  1.00  0.00    -0.351 N 
ATOM      4  C   UNL A   1      34.282  22.083  24.552  1.00  0.00     0.278 C 
ATOM      5  O   UNL A   1      33.837  22.656  23.555  1.00  0.00    -0.268 OA
ATOM      6  H   UNL A   1      36.076  21.940  23.706  1.00  0.00     0.163 HD
BRANCH   4   7
ATOM      7  C   UNL A   1      33.393  21.843  25.788  1.00  0.00     0.282 C 
BRANCH   7   8
ATOM      8  C   UNL A   1      32.046  22.574  25.617  1.00  0.00     0.175 C 
BRANCH   8   9
ATOM      9  C   UNL A   1      31.999  23.944  26.262  1.00  0.00     0.230 C 
ATOM     10  O   UNL A   1      31.516  24.124  27.374  1.00  0.00    -0.274 OA
ATOM     11  N   UNL A   1      32.514  24.930  25.436  1.00  0.00    -0.326 N 
ATOM     12  H   UNL A   1      32.982  24.654  24.615  1.00  0.00     0.169 HD
BRANCH  11  13
ATOM     13  C   UNL A   1      32.404  26.299  25.708  1.00  0.00     0.041 A 
ATOM     14  C   UNL A   1      31.375  27.005  25.088  1.00  0.00     0.027 A 
ATOM     15  C   UNL A   1      33.318  26.962  26.527  1.00  0.00     0.034 A 
ATOM     16  C   UNL A   1      31.189  28.356  25.369  1.00  0.00     0.011 A 
ATOM     17  C   UNL A   1      33.227  28.356  26.695  1.00  0.00    -0.016 A 
ATOM     18  C   UNL A   1      32.113  29.047  26.159  1.00  0.00    -0.018 A 
ATOM     19  C   UNL A   1      34.229  29.092  27.347  1.00  0.00     0.009 A 
ATOM     20  C   UNL A   1      31.975  30.423  26.387  1.00  0.00     0.009 A 
ATOM     21  C   UNL A   1      34.120  30.477  27.487  1.00  0.00     0.001 A 
ATOM     22  C   UNL A   1      32.980  31.137  27.036  1.00  0.00     0.001 A 
ENDBRANCH  11  13
ENDBRANCH   8   9
ENDBRANCH   7   8
BRANCH   7  23
ATOM     23  N   UNL A   1      33.256  20.381  26.087  1.00  0.00    -0.332 N 
ATOM     24  H   UNL A   1      32.760  20.278  26.972  1.00  0.00     0.347 HD
ATOM     25  H   UNL A   1      34.201  19.996  26.122  1.00  0.00     0.347 HD
BRANCH  23  26
ATOM     26  C   UNL A   1      32.523  19.625  25.051  1.00  0.00     0.299 C 
BRANCH  26  27
ATOM     27  C   UNL A   1      33.011  18.212  24.898  1.00  0.00     0.024 A 
ATOM     28  C   UNL A   1      33.929  17.856  23.902  1.00  0.00     0.013 A 
ATOM     29  C   UNL A   1      32.550  17.197  25.732  1.00  0.00     0.120 A 
ATOM     30  C   UNL A   1      34.307  16.527  23.750  1.00  0.00     0.021 A 
ATOM     31  N   UNL A   1      32.928  15.903  25.625  1.00  0.00    -0.264 NA
ATOM     32  C   UNL A   1      33.782  15.596  24.627  1.00  0.00     0.111 A 
ENDBRANCH  26  27
ENDBRANCH  23  26
ENDBRANCH   7  23
ENDBRANCH   4   7
ENDBRANCH   2   3
ENDBRANCH   1   2
BRANCH   1  33
ATOM     33  C   UNL A   1      38.953  21.011  25.686  1.00  0.00     0.118 C 
BRANCH  33  34
ATOM     34  N   UNL A   1      39.909  19.937  25.914  1.00  0.00    -0.352 N 
ATOM     35  C   UNL A   1      41.260  19.999  26.156  1.00  0.00     0.251 C 
ATOM     36  H   UNL A   1      39.529  19.029  25.893  1.00  0.00     0.163 HD
ATOM     37  O   UNL A   1      41.926  18.972  26.091  1.00  0.00    -0.269 OA
BRANCH  35  38
ATOM     38  C   UNL A   1      41.905  21.294  26.468  1.00  0.00     0.039 A 
ATOM     39  C   UNL A   1      42.147  22.195  25.429  1.00  0.00     0.014 A 
ATOM     40  C   UNL A   1      42.286  21.616  27.773  1.00  0.00     0.014 A 
ATOM     41  C   UNL A   1      42.709  23.442  25.709  1.00  0.00     0.010 A 
ATOM     42  C   UNL A   1      42.765  22.891  28.064  1.00  0.00     0.010 A 
ATOM     43  C   UNL A   1      42.986  23.818  27.033  1.00  0.00    -0.014 A 
BRANCH  43  44
ATOM     44  C   UNL A   1      43.507  25.173  27.359  1.00  0.00     0.031 A 
ATOM     45  C   UNL A   1      42.585  26.221  27.925  1.00  0.00     0.074 A 
ATOM     46  C   UNL A   1      44.791  25.476  27.084  1.00  0.00     0.049 A 
ATOM     47  N   UNL A   1      42.831  27.476  28.200  1.00  0.00    -0.248 NA
ATOM     48  C   UNL A   1      41.198  25.809  28.191  1.00  0.00     0.031 C 
ATOM     49  C   UNL A   1      45.768  24.556  26.496  1.00  0.00     0.029 A 
ATOM     50  N   UNL A   1      45.497  26.643  27.248  1.00  0.00    -0.354 N 
ATOM     51  C   UNL A   1      41.628  28.009  28.651  1.00  0.00     0.074 A 
ATOM     52  C   UNL A   1      40.642  26.953  28.563  1.00  0.00     0.031 C 
ATOM     53  C   UNL A   1      46.947  25.186  26.369  1.00  0.00     0.029 A 
ATOM     54  C   UNL A   1      46.801  26.569  26.812  1.00  0.00     0.049 A 
ATOM     55  H   UNL A   1      45.107  27.456  27.643  1.00  0.00     0.167 HD
ATOM     56  C   UNL A   1      41.375  29.259  29.111  1.00  0.00     0.034 A 
ATOM     57  C   UNL A   1      47.763  27.511  26.752  1.00  0.00     0.034 A 
ATOM     58  C   UNL A   1      42.376  30.294  29.208  1.00  0.00     0.049 A 
ATOM     59  C   UNL A   1      47.449  28.901  27.252  1.00  0.00     0.074 A 
ATOM     60  C   UNL A   1      42.245  31.569  29.730  1.00  0.00     0.029 A 
ATOM     61  N   UNL A   1      43.686  30.182  28.760  1.00  0.00    -0.354 N 
ATOM     62  N   UNL A   1      46.323  29.368  27.741  1.00  0.00    -0.248 NA
ATOM     63  C   UNL A   1      48.537  29.887  27.202  1.00  0.00     0.031 C 
ATOM     64  C   UNL A   1      43.446  32.254  29.519  1.00  0.00     0.029 A 
ATOM     65  C   UNL A   1      44.359  31.378  28.955  1.00  0.00     0.049 A 
ATOM     66  H   UNL A   1      44.080  29.371  28.364  1.00  0.00     0.167 HD
ATOM     67  C   UNL A   1      46.580  30.692  28.088  1.00  0.00     0.074 A 
ATOM     68  C   UNL A   1      47.971  30.941  27.768  1.00  0.00     0.031 C 
ATOM     69  C   UNL A   1      45.746  31.617  28.625  1.00  0.00     0.034 A 
BRANCH  56  70
ATOM     70  C   UNL A   1      39.957  29.591  29.512  1.00  0.00     0.023 A 
ATOM     71  C   UNL A   1      39.565  29.687  30.858  1.00  0.00     0.031 A 
ATOM     72  C   UNL A   1      38.979  29.818  28.526  1.00  0.00     0.131 A 
ATOM     73  C   UNL A   1      38.223  29.940  31.182  1.00  0.00     0.055 A 
ATOM     74  C   UNL A   1      37.663  30.151  28.854  1.00  0.00     0.041 A 
ATOM     75  F   UNL A   1      39.286  29.717  27.223  1.00  0.00    -0.206 F 
ATOM     76  C   UNL A   1      37.276  30.200  30.189  1.00  0.00     0.022 A 
BRANCH  73  77
ATOM     77  S   UNL A   1      37.705  29.794  32.913  1.00  0.00     0.124 S 
ATOM     78  O   UNL A   1      36.612  30.762  32.978  1.00  0.00    -0.237 OA
ATOM     79  O   UNL A   1      37.320  28.390  33.009  1.00  0.00    -0.237 OA
ATOM     80  O   UNL A   1      38.902  30.166  33.664  1.00  0.00    -0.744 OA
ENDBRANCH  73  77
ENDBRANCH  56  70
BRANCH  57  81
ATOM     81  C   UNL A   1      49.103  27.196  26.174  1.00  0.00     0.023 A 
ATOM     82  C   UNL A   1      49.426  27.541  24.853  1.00  0.00     0.031 A 
ATOM     83  C   UNL A   1      50.062  26.486  26.921  1.00  0.00     0.131 A 
ATOM     84  C   UNL A   1      50.648  27.125  24.299  1.00  0.00     0.055 A 
ATOM     85  C   UNL A   1      51.302  26.132  26.386  1.00  0.00     0.041 A 
ATOM     86  F   UNL A   1      49.808  26.129  28.190  1.00  0.00    -0.206 F 
ATOM     87  C   UNL A   1      51.594  26.437  25.060  1.00  0.00     0.022 A 
BRANCH  84  88
ATOM     88  S   UNL A   1      50.935  27.396  22.528  1.00  0.00     0.124 S 
ATOM     89  O   UNL A   1      52.210  26.718  22.327  1.00  0.00    -0.237 OA
ATOM     90  O   UNL A   1      49.766  26.756  21.932  1.00  0.00    -0.237 OA
ATOM     91  O   UNL A   1      50.974  28.852  22.409  1.00  0.00    -0.744 OA
ENDBRANCH  84  88
ENDBRANCH  57  81
BRANCH  69  92
ATOM     92  C   UNL A   1      46.331  32.971  28.951  1.00  0.00     0.023 A 
ATOM     93  C   UNL A   1      46.870  33.264  30.215  1.00  0.00     0.031 A 
ATOM     94  C   UNL A   1      46.342  33.986  27.977  1.00  0.00     0.131 A 
ATOM     95  C   UNL A   1      47.346  34.556  30.490  1.00  0.00     0.055 A 
ATOM     96  C   UNL A   1      46.881  35.247  28.234  1.00  0.00     0.041 A 
ATOM     97  F   UNL A   1      45.836  33.765  26.753  1.00  0.00    -0.206 F 
ATOM     98  C   UNL A   1      47.374  35.543  29.501  1.00  0.00     0.022 A 
BRANCH  95  99
ATOM     99  S   UNL A   1      47.836  34.961  32.189  1.00  0.00     0.124 S 
ATOM    100  O   UNL A   1      48.852  33.950  32.459  1.00  0.00    -0.237 OA
ATOM    101  O   UNL A   1      48.319  36.332  32.056  1.00  0.00    -0.237 OA
ATOM    102  O   UNL A   1      46.595  34.813  32.947  1.00  0.00    -0.744 OA
ENDBRANCH  95  99
ENDBRANCH  69  92
ENDBRANCH  43  44
ENDBRANCH  35  38
ENDBRANCH  33  34
ENDBRANCH   1  33
TORSDOF 19
ENDMDL
