MODEL 1
REMARK VINA RESULT:     -12.0      0.000      0.000
REMARK SMILES Cc1ccccc1OCC(=O)N1C[C@@H](O)C[C@H]1C(=O)NCCCNC(=O)c1ccc(-c2c3nc(c(-c4cc(S(=O)(=O)[O-])ccc4F)c4ccc([nH]4)c(-c4cc(S(=O)(=O)[O-])ccc4F)c4nc(c(-c5cc(S(=O)(=O)[O-])ccc5F)c5ccc2[nH]5)C=C4)C=C3)cc1
REMARK SMILES IDX 21 1 20 2 18 3 19 4 17 6 12 7 13 8 14 9 16 10 10 11 11 12
REMARK SMILES IDX 9 13 8 14 7 15 1 16 2 17 3 18 4 19 6 20 5 21 15 22 22 24
REMARK SMILES IDX 23 25 24 26 25 27 26 29 27 30 28 31 89 32 29 33 88 34 30 35
REMARK SMILES IDX 31 36 32 37 82 38 33 39 87 40 81 41 83 42 34 43 86 44 80 45
REMARK SMILES IDX 79 46 35 48 67 49 47 50 66 51 48 52 51 53 65 54 84 55 49 56
REMARK SMILES IDX 50 57 64 59 85 60 52 61 36 62 37 63 45 64 38 65 44 66 46 67
REMARK SMILES IDX 43 68 39 69 40 70 41 71 42 72 68 73 69 74 77 75 70 76 76 77
REMARK SMILES IDX 78 78 75 79 71 80 72 81 73 82 74 83 53 84 54 85 62 86 55 87
REMARK SMILES IDX 61 88 63 89 60 90 56 91 57 92 58 93 59 94
REMARK H PARENT 20 5 15 23 24 28 83 47 51 58
REMARK Flexibility Score: inf
ROOT
ATOM      1  C   UNL A   1      33.424  29.668  25.609  1.00  0.00     0.117 C 
ENDROOT
BRANCH   1   2
ATOM      2  N   UNL A   1      32.185  29.308  24.940  1.00  0.00    -0.354 N 
ATOM      3  C   UNL A   1      31.847  28.236  24.168  1.00  0.00     0.242 C 
ATOM      4  O   UNL A   1      30.654  28.092  23.876  1.00  0.00    -0.273 OA
ATOM      5  H   UNL A   1      31.456  29.957  25.068  1.00  0.00     0.163 HD
BRANCH   3   6
ATOM      6  C   UNL A   1      32.864  27.148  23.750  1.00  0.00     0.177 C 
ATOM      7  N   UNL A   1      32.422  25.758  23.884  1.00  0.00    -0.325 N 
ATOM      8  C   UNL A   1      32.416  25.070  22.610  1.00  0.00     0.152 C 
ATOM      9  C   UNL A   1      33.321  25.902  21.705  1.00  0.00     0.136 C 
ATOM     10  C   UNL A   1      33.338  27.309  22.302  1.00  0.00     0.069 C 
BRANCH   7  11
ATOM     11  C   UNL A   1      32.338  25.177  25.135  1.00  0.00     0.261 C 
ATOM     12  O   UNL A   1      31.279  25.144  25.765  1.00  0.00    -0.271 OA
BRANCH  11  13
ATOM     13  C   UNL A   1      33.627  24.675  25.801  1.00  0.00     0.329 C 
BRANCH  13  14
ATOM     14  O   UNL A   1      34.770  24.464  25.012  1.00  0.00    -0.484 OA
BRANCH  14  15
ATOM     15  C   UNL A   1      35.591  23.387  25.145  1.00  0.00     0.122 A 
ATOM     16  C   UNL A   1      34.122  21.397  24.360  1.00  0.00     0.048 C 
ATOM     17  C   UNL A   1      35.384  22.024  24.883  1.00  0.00    -0.009 A 
ATOM     18  C   UNL A   1      36.470  21.136  25.070  1.00  0.00     0.007 A 
ATOM     19  C   UNL A   1      37.715  21.572  25.519  1.00  0.00     0.001 A 
ATOM     20  C   UNL A   1      36.853  23.805  25.613  1.00  0.00     0.047 A 
ATOM     21  C   UNL A   1      37.907  22.913  25.798  1.00  0.00     0.004 A 
ENDBRANCH  14  15
ENDBRANCH  13  14
ENDBRANCH  11  13
ENDBRANCH   7  11
BRANCH   9  22
ATOM     22  O   UNL A   1      32.883  25.898  20.355  1.00  0.00    -0.391 OA
ATOM     23  H   UNL A   1      33.063  26.763  19.954  1.00  0.00     0.211 HD
ENDBRANCH   9  22
ENDBRANCH   3   6
ENDBRANCH   1   2
BRANCH   1  24
ATOM     24  C   UNL A   1      33.222  30.645  26.754  1.00  0.00     0.042 C 
BRANCH  24  25
ATOM     25  C   UNL A   1      33.912  30.199  28.034  1.00  0.00     0.118 C 
BRANCH  25  26
ATOM     26  N   UNL A   1      34.695  31.259  28.675  1.00  0.00    -0.352 N 
ATOM     27  C   UNL A   1      35.994  31.192  29.150  1.00  0.00     0.251 C 
ATOM     28  H   UNL A   1      34.242  32.127  28.780  1.00  0.00     0.163 HD
ATOM     29  O   UNL A   1      36.539  32.137  29.701  1.00  0.00    -0.269 OA
BRANCH  27  30
ATOM     30  C   UNL A   1      36.759  29.962  28.858  1.00  0.00     0.039 A 
ATOM     31  C   UNL A   1      37.038  29.117  29.937  1.00  0.00     0.014 A 
ATOM     32  C   UNL A   1      37.438  29.838  27.650  1.00  0.00     0.014 A 
ATOM     33  C   UNL A   1      38.166  28.307  29.883  1.00  0.00     0.010 A 
ATOM     34  C   UNL A   1      38.612  29.109  27.634  1.00  0.00     0.010 A 
ATOM     35  C   UNL A   1      39.010  28.399  28.774  1.00  0.00    -0.014 A 
BRANCH  35  36
ATOM     36  C   UNL A   1      40.389  27.919  28.805  1.00  0.00     0.031 A 
ATOM     37  C   UNL A   1      40.725  26.548  28.379  1.00  0.00     0.074 A 
ATOM     38  C   UNL A   1      41.381  28.736  29.224  1.00  0.00     0.049 A 
ATOM     39  N   UNL A   1      41.739  25.880  28.819  1.00  0.00    -0.248 NA
ATOM     40  C   UNL A   1      39.901  25.797  27.441  1.00  0.00     0.031 C 
ATOM     41  C   UNL A   1      42.820  28.508  29.124  1.00  0.00     0.029 A 
ATOM     42  N   UNL A   1      41.259  29.830  30.080  1.00  0.00    -0.354 N 
ATOM     43  C   UNL A   1      41.872  24.761  28.034  1.00  0.00     0.074 A 
ATOM     44  C   UNL A   1      40.665  24.722  27.236  1.00  0.00     0.031 C 
ATOM     45  C   UNL A   1      43.435  29.221  30.077  1.00  0.00     0.029 A 
ATOM     46  C   UNL A   1      42.405  29.831  30.897  1.00  0.00     0.049 A 
ATOM     47  H   UNL A   1      40.516  30.477  30.108  1.00  0.00     0.167 HD
ATOM     48  C   UNL A   1      43.043  24.065  28.036  1.00  0.00     0.034 A 
ATOM     49  C   UNL A   1      42.309  29.733  32.253  1.00  0.00     0.034 A 
ATOM     50  C   UNL A   1      44.011  24.615  28.986  1.00  0.00     0.049 A 
ATOM     51  C   UNL A   1      43.042  28.547  32.838  1.00  0.00     0.074 A 
ATOM     52  C   UNL A   1      45.134  25.412  28.844  1.00  0.00     0.029 A 
ATOM     53  N   UNL A   1      43.733  24.579  30.349  1.00  0.00    -0.354 N 
ATOM     54  N   UNL A   1      43.503  27.542  32.145  1.00  0.00    -0.248 NA
ATOM     55  C   UNL A   1      43.280  28.392  34.266  1.00  0.00     0.031 C 
ATOM     56  C   UNL A   1      45.518  25.876  30.131  1.00  0.00     0.029 A 
ATOM     57  C   UNL A   1      44.641  25.342  31.060  1.00  0.00     0.049 A 
ATOM     58  H   UNL A   1      42.990  24.076  30.754  1.00  0.00     0.167 HD
ATOM     59  C   UNL A   1      44.056  26.607  32.991  1.00  0.00     0.074 A 
ATOM     60  C   UNL A   1      43.912  27.207  34.307  1.00  0.00     0.031 C 
ATOM     61  C   UNL A   1      44.560  25.422  32.517  1.00  0.00     0.034 A 
BRANCH  48  62
ATOM     62  C   UNL A   1      43.407  23.081  26.945  1.00  0.00     0.023 A 
ATOM     63  C   UNL A   1      42.885  21.771  26.977  1.00  0.00     0.031 A 
ATOM     64  C   UNL A   1      44.296  23.348  25.887  1.00  0.00     0.131 A 
ATOM     65  C   UNL A   1      43.336  20.780  26.087  1.00  0.00     0.055 A 
ATOM     66  C   UNL A   1      44.804  22.348  25.049  1.00  0.00     0.041 A 
ATOM     67  F   UNL A   1      44.672  24.602  25.590  1.00  0.00    -0.206 F 
ATOM     68  C   UNL A   1      44.337  21.047  25.159  1.00  0.00     0.022 A 
BRANCH  65  69
ATOM     69  S   UNL A   1      42.585  19.128  26.147  1.00  0.00     0.124 S 
ATOM     70  O   UNL A   1      42.407  18.915  27.579  1.00  0.00    -0.237 OA
ATOM     71  O   UNL A   1      41.369  19.318  25.364  1.00  0.00    -0.237 OA
ATOM     72  O   UNL A   1      43.594  18.274  25.518  1.00  0.00    -0.744 OA
ENDBRANCH  65  69
ENDBRANCH  48  62
BRANCH  49  73
ATOM     73  C   UNL A   1      41.071  30.353  32.807  1.00  0.00     0.023 A 
ATOM     74  C   UNL A   1      41.025  31.763  32.861  1.00  0.00     0.031 A 
ATOM     75  C   UNL A   1      39.863  29.653  32.910  1.00  0.00     0.131 A 
ATOM     76  C   UNL A   1      39.794  32.433  32.841  1.00  0.00     0.055 A 
ATOM     77  C   UNL A   1      38.636  30.328  32.964  1.00  0.00     0.041 A 
ATOM     78  F   UNL A   1      39.839  28.315  32.834  1.00  0.00    -0.206 F 
ATOM     79  C   UNL A   1      38.596  31.721  32.883  1.00  0.00     0.022 A 
BRANCH  76  80
ATOM     80  S   UNL A   1      39.771  34.213  32.477  1.00  0.00     0.124 S 
ATOM     81  O   UNL A   1      41.111  34.442  31.951  1.00  0.00    -0.237 OA
ATOM     82  O   UNL A   1      38.678  34.341  31.514  1.00  0.00    -0.237 OA
ATOM     83  O   UNL A   1      39.489  34.826  33.774  1.00  0.00    -0.744 OA
ENDBRANCH  76  80
ENDBRANCH  49  73
BRANCH  61  84
ATOM     84  C   UNL A   1      45.079  24.240  33.333  1.00  0.00     0.023 A 
ATOM     85  C   UNL A   1      46.348  24.178  33.926  1.00  0.00     0.031 A 
ATOM     86  C   UNL A   1      44.258  23.105  33.575  1.00  0.00     0.131 A 
ATOM     87  C   UNL A   1      46.771  23.053  34.665  1.00  0.00     0.055 A 
ATOM     88  C   UNL A   1      44.659  22.008  34.347  1.00  0.00     0.041 A 
ATOM     89  F   UNL A   1      43.015  23.007  33.081  1.00  0.00    -0.206 F 
ATOM     90  C   UNL A   1      45.928  21.971  34.893  1.00  0.00     0.022 A 
BRANCH  87  91
ATOM     91  S   UNL A   1      48.470  23.031  35.299  1.00  0.00     0.124 S 
ATOM     92  O   UNL A   1      49.193  23.744  34.250  1.00  0.00    -0.237 OA
ATOM     93  O   UNL A   1      48.337  23.739  36.569  1.00  0.00    -0.237 OA
ATOM     94  O   UNL A   1      48.780  21.607  35.411  1.00  0.00    -0.744 OA
ENDBRANCH  87  91
ENDBRANCH  61  84
ENDBRANCH  35  36
ENDBRANCH  27  30
ENDBRANCH  25  26
ENDBRANCH  24  25
ENDBRANCH   1  24
TORSDOF 18
ENDMDL
MODEL 2
REMARK VINA RESULT:     -12.0      3.979     10.479
REMARK SMILES Cc1ccccc1OCC(=O)N1C[C@@H](O)C[C@H]1C(=O)NCCCNC(=O)c1ccc(-c2c3nc(c(-c4cc(S(=O)(=O)[O-])ccc4F)c4ccc([nH]4)c(-c4cc(S(=O)(=O)[O-])ccc4F)c4nc(c(-c5cc(S(=O)(=O)[O-])ccc5F)c5ccc2[nH]5)C=C4)C=C3)cc1
REMARK SMILES IDX 21 1 20 2 18 3 19 4 17 6 12 7 13 8 14 9 16 10 10 11 11 12
REMARK SMILES IDX 9 13 8 14 7 15 1 16 2 17 3 18 4 19 6 20 5 21 15 22 22 24
REMARK SMILES IDX 23 25 24 26 25 27 26 29 27 30 28 31 89 32 29 33 88 34 30 35
REMARK SMILES IDX 31 36 32 37 82 38 33 39 87 40 81 41 83 42 34 43 86 44 80 45
REMARK SMILES IDX 79 46 35 48 67 49 47 50 66 51 48 52 51 53 65 54 84 55 49 56
REMARK SMILES IDX 50 57 64 59 85 60 52 61 36 62 37 63 45 64 38 65 44 66 46 67
REMARK SMILES IDX 43 68 39 69 40 70 41 71 42 72 68 73 69 74 77 75 70 76 76 77
REMARK SMILES IDX 78 78 75 79 71 80 72 81 73 82 74 83 53 84 54 85 62 86 55 87
REMARK SMILES IDX 61 88 63 89 60 90 56 91 57 92 58 93 59 94
REMARK H PARENT 20 5 15 23 24 28 83 47 51 58
REMARK Flexibility Score: inf
ROOT
ATOM      1  C   UNL A   1      36.620  21.651  24.696  1.00  0.00     0.117 C 
ENDROOT
BRANCH   1   2
ATOM      2  N   UNL A   1      35.571  20.708  25.045  1.00  0.00    -0.354 N 
ATOM      3  C   UNL A   1      34.248  20.881  25.325  1.00  0.00     0.242 C 
ATOM      4  O   UNL A   1      33.542  19.870  25.411  1.00  0.00    -0.273 OA
ATOM      5  H   UNL A   1      35.872  19.770  25.086  1.00  0.00     0.163 HD
BRANCH   3   6
ATOM      6  C   UNL A   1      33.587  22.276  25.421  1.00  0.00     0.177 C 
ATOM      7  N   UNL A   1      32.447  22.518  24.534  1.00  0.00    -0.325 N 
ATOM      8  C   UNL A   1      31.238  22.808  25.276  1.00  0.00     0.152 C 
ATOM      9  C   UNL A   1      31.716  23.221  26.666  1.00  0.00     0.136 C 
ATOM     10  C   UNL A   1      33.104  22.603  26.837  1.00  0.00     0.069 C 
BRANCH   7  11
ATOM     11  C   UNL A   1      32.654  22.726  23.183  1.00  0.00     0.261 C 
ATOM     12  O   UNL A   1      32.520  21.820  22.359  1.00  0.00    -0.271 OA
BRANCH  11  13
ATOM     13  C   UNL A   1      33.184  24.091  22.722  1.00  0.00     0.329 C 
BRANCH  13  14
ATOM     14  O   UNL A   1      32.369  25.227  22.861  1.00  0.00    -0.484 OA
BRANCH  14  15
ATOM     15  C   UNL A   1      32.271  25.950  24.010  1.00  0.00     0.122 A 
ATOM     16  C   UNL A   1      29.752  26.560  24.136  1.00  0.00     0.048 C 
ATOM     17  C   UNL A   1      31.171  26.562  24.630  1.00  0.00    -0.009 A 
ATOM     18  C   UNL A   1      31.379  27.207  25.874  1.00  0.00     0.007 A 
ATOM     19  C   UNL A   1      32.634  27.264  26.478  1.00  0.00     0.001 A 
ATOM     20  C   UNL A   1      33.534  26.033  24.631  1.00  0.00     0.047 A 
ATOM     21  C   UNL A   1      33.719  26.679  25.851  1.00  0.00     0.004 A 
ENDBRANCH  14  15
ENDBRANCH  13  14
ENDBRANCH  11  13
ENDBRANCH   7  11
BRANCH   9  22
ATOM     22  O   UNL A   1      30.818  22.814  27.687  1.00  0.00    -0.391 OA
ATOM     23  H   UNL A   1      30.047  22.382  27.288  1.00  0.00     0.211 HD
ENDBRANCH   9  22
ENDBRANCH   3   6
ENDBRANCH   1   2
BRANCH   1  24
ATOM     24  C   UNL A   1      37.733  21.714  25.726  1.00  0.00     0.042 C 
BRANCH  24  25
ATOM     25  C   UNL A   1      38.540  23.001  25.640  1.00  0.00     0.118 C 
BRANCH  25  26
ATOM     26  N   UNL A   1      39.882  22.889  26.217  1.00  0.00    -0.352 N 
ATOM     27  C   UNL A   1      40.634  23.878  26.831  1.00  0.00     0.251 C 
ATOM     28  H   UNL A   1      40.301  22.000  26.165  1.00  0.00     0.163 HD
ATOM     29  O   UNL A   1      41.764  23.677  27.250  1.00  0.00    -0.269 OA
BRANCH  27  30
ATOM     30  C   UNL A   1      39.971  25.175  27.078  1.00  0.00     0.039 A 
ATOM     31  C   UNL A   1      40.507  26.294  26.433  1.00  0.00     0.014 A 
ATOM     32  C   UNL A   1      39.089  25.311  28.145  1.00  0.00     0.014 A 
ATOM     33  C   UNL A   1      40.346  27.547  27.013  1.00  0.00     0.010 A 
ATOM     34  C   UNL A   1      39.012  26.539  28.776  1.00  0.00     0.010 A 
ATOM     35  C   UNL A   1      39.697  27.641  28.246  1.00  0.00    -0.014 A 
BRANCH  35  36
ATOM     36  C   UNL A   1      39.838  28.808  29.112  1.00  0.00     0.031 A 
ATOM     37  C   UNL A   1      38.818  29.874  29.120  1.00  0.00     0.074 A 
ATOM     38  C   UNL A   1      40.911  28.923  29.925  1.00  0.00     0.049 A 
ATOM     39  N   UNL A   1      39.060  31.106  29.420  1.00  0.00    -0.248 NA
ATOM     40  C   UNL A   1      37.433  29.632  28.742  1.00  0.00     0.031 C 
ATOM     41  C   UNL A   1      41.114  29.895  30.995  1.00  0.00     0.029 A 
ATOM     42  N   UNL A   1      42.163  28.333  29.748  1.00  0.00    -0.354 N 
ATOM     43  C   UNL A   1      37.852  31.745  29.558  1.00  0.00     0.074 A 
ATOM     44  C   UNL A   1      36.874  30.803  29.060  1.00  0.00     0.031 C 
ATOM     45  C   UNL A   1      42.430  30.049  31.194  1.00  0.00     0.029 A 
ATOM     46  C   UNL A   1      43.116  29.275  30.175  1.00  0.00     0.049 A 
ATOM     47  H   UNL A   1      42.344  27.432  29.393  1.00  0.00     0.167 HD
ATOM     48  C   UNL A   1      37.787  32.943  30.206  1.00  0.00     0.034 A 
ATOM     49  C   UNL A   1      44.072  29.751  29.328  1.00  0.00     0.034 A 
ATOM     50  C   UNL A   1      39.108  33.421  30.617  1.00  0.00     0.049 A 
ATOM     51  C   UNL A   1      44.047  31.253  29.153  1.00  0.00     0.074 A 
ATOM     52  C   UNL A   1      39.778  33.437  31.828  1.00  0.00     0.029 A 
ATOM     53  N   UNL A   1      40.053  33.747  29.650  1.00  0.00    -0.354 N 
ATOM     54  N   UNL A   1      43.069  32.030  29.530  1.00  0.00    -0.248 NA
ATOM     55  C   UNL A   1      45.121  31.989  28.501  1.00  0.00     0.031 C 
ATOM     56  C   UNL A   1      41.141  33.752  31.581  1.00  0.00     0.029 A 
ATOM     57  C   UNL A   1      41.297  33.951  30.220  1.00  0.00     0.049 A 
ATOM     58  H   UNL A   1      39.863  33.823  28.687  1.00  0.00     0.167 HD
ATOM     59  C   UNL A   1      43.338  33.329  29.163  1.00  0.00     0.074 A 
ATOM     60  C   UNL A   1      44.651  33.247  28.546  1.00  0.00     0.031 C 
ATOM     61  C   UNL A   1      42.437  34.338  29.392  1.00  0.00     0.034 A 
BRANCH  48  62
ATOM     62  C   UNL A   1      36.489  33.512  30.734  1.00  0.00     0.023 A 
ATOM     63  C   UNL A   1      35.575  34.117  29.846  1.00  0.00     0.031 A 
ATOM     64  C   UNL A   1      36.119  33.542  32.092  1.00  0.00     0.131 A 
ATOM     65  C   UNL A   1      34.446  34.813  30.317  1.00  0.00     0.055 A 
ATOM     66  C   UNL A   1      35.040  34.297  32.570  1.00  0.00     0.041 A 
ATOM     67  F   UNL A   1      36.760  32.800  33.007  1.00  0.00    -0.206 F 
ATOM     68  C   UNL A   1      34.205  34.956  31.680  1.00  0.00     0.022 A 
BRANCH  65  69
ATOM     69  S   UNL A   1      33.281  35.523  29.121  1.00  0.00     0.124 S 
ATOM     70  O   UNL A   1      34.150  36.343  28.284  1.00  0.00    -0.237 OA
ATOM     71  O   UNL A   1      32.719  34.330  28.497  1.00  0.00    -0.237 OA
ATOM     72  O   UNL A   1      32.347  36.274  29.961  1.00  0.00    -0.744 OA
ENDBRANCH  65  69
ENDBRANCH  48  62
BRANCH  49  73
ATOM     73  C   UNL A   1      44.501  28.760  28.300  1.00  0.00     0.023 A 
ATOM     74  C   UNL A   1      45.272  27.664  28.743  1.00  0.00     0.031 A 
ATOM     75  C   UNL A   1      43.882  28.662  27.048  1.00  0.00     0.131 A 
ATOM     76  C   UNL A   1      45.267  26.458  28.028  1.00  0.00     0.055 A 
ATOM     77  C   UNL A   1      43.940  27.479  26.300  1.00  0.00     0.041 A 
ATOM     78  F   UNL A   1      43.111  29.658  26.586  1.00  0.00    -0.206 F 
ATOM     79  C   UNL A   1      44.595  26.357  26.810  1.00  0.00     0.022 A 
BRANCH  76  80
ATOM     80  S   UNL A   1      45.901  24.958  28.834  1.00  0.00     0.124 S 
ATOM     81  O   UNL A   1      45.327  23.897  28.016  1.00  0.00    -0.237 OA
ATOM     82  O   UNL A   1      47.351  25.120  28.742  1.00  0.00    -0.237 OA
ATOM     83  O   UNL A   1      45.383  25.055  30.198  1.00  0.00    -0.744 OA
ENDBRANCH  76  80
ENDBRANCH  49  73
BRANCH  61  84
ATOM     84  C   UNL A   1      42.530  35.790  28.928  1.00  0.00     0.023 A 
ATOM     85  C   UNL A   1      43.162  36.815  29.646  1.00  0.00     0.031 A 
ATOM     86  C   UNL A   1      41.989  36.192  27.677  1.00  0.00     0.131 A 
ATOM     87  C   UNL A   1      43.210  38.142  29.166  1.00  0.00     0.055 A 
ATOM     88  C   UNL A   1      42.077  37.498  27.177  1.00  0.00     0.041 A 
ATOM     89  F   UNL A   1      41.354  35.333  26.866  1.00  0.00    -0.206 F 
ATOM     90  C   UNL A   1      42.684  38.487  27.926  1.00  0.00     0.022 A 
BRANCH  87  91
ATOM     91  S   UNL A   1      43.959  39.411  30.222  1.00  0.00     0.124 S 
ATOM     92  O   UNL A   1      44.142  38.690  31.478  1.00  0.00    -0.237 OA
ATOM     93  O   UNL A   1      45.183  39.738  29.496  1.00  0.00    -0.237 OA
ATOM     94  O   UNL A   1      42.954  40.471  30.255  1.00  0.00    -0.744 OA
ENDBRANCH  87  91
ENDBRANCH  61  84
ENDBRANCH  35  36
ENDBRANCH  27  30
ENDBRANCH  25  26
ENDBRANCH  24  25
ENDBRANCH   1  24
TORSDOF 18
ENDMDL
MODEL 3
REMARK VINA RESULT:     -11.4      2.736      3.843
REMARK SMILES Cc1ccccc1OCC(=O)N1C[C@@H](O)C[C@H]1C(=O)NCCCNC(=O)c1ccc(-c2c3nc(c(-c4cc(S(=O)(=O)[O-])ccc4F)c4ccc([nH]4)c(-c4cc(S(=O)(=O)[O-])ccc4F)c4nc(c(-c5cc(S(=O)(=O)[O-])ccc5F)c5ccc2[nH]5)C=C4)C=C3)cc1
REMARK SMILES IDX 21 1 20 2 18 3 19 4 17 6 12 7 13 8 14 9 16 10 10 11 11 12
REMARK SMILES IDX 9 13 8 14 7 15 1 16 2 17 3 18 4 19 6 20 5 21 15 22 22 24
REMARK SMILES IDX 23 25 24 26 25 27 26 29 27 30 28 31 89 32 29 33 88 34 30 35
REMARK SMILES IDX 31 36 32 37 82 38 33 39 87 40 81 41 83 42 34 43 86 44 80 45
REMARK SMILES IDX 79 46 35 48 67 49 47 50 66 51 48 52 51 53 65 54 84 55 49 56
REMARK SMILES IDX 50 57 64 59 85 60 52 61 36 62 37 63 45 64 38 65 44 66 46 67
REMARK SMILES IDX 43 68 39 69 40 70 41 71 42 72 68 73 69 74 77 75 70 76 76 77
REMARK SMILES IDX 78 78 75 79 71 80 72 81 73 82 74 83 53 84 54 85 62 86 55 87
REMARK SMILES IDX 61 88 63 89 60 90 56 91 57 92 58 93 59 94
REMARK H PARENT 20 5 15 23 24 28 83 47 51 58
REMARK Flexibility Score: inf
ROOT
ATOM      1  C   UNL A   1      34.169  29.528  27.097  1.00  0.00     0.117 C 
ENDROOT
BRANCH   1   2
ATOM      2  N   UNL A   1      32.908  29.036  27.626  1.00  0.00    -0.354 N 
ATOM      3  C   UNL A   1      31.913  28.293  27.064  1.00  0.00     0.242 C 
ATOM      4  O   UNL A   1      31.028  27.860  27.811  1.00  0.00    -0.273 OA
ATOM      5  H   UNL A   1      32.742  29.286  28.565  1.00  0.00     0.163 HD
BRANCH   3   6
ATOM      6  C   UNL A   1      31.915  27.880  25.574  1.00  0.00     0.177 C 
ATOM      7  N   UNL A   1      31.135  26.689  25.228  1.00  0.00    -0.325 N 
ATOM      8  C   UNL A   1      30.076  26.993  24.287  1.00  0.00     0.152 C 
ATOM      9  C   UNL A   1      30.477  28.323  23.655  1.00  0.00     0.136 C 
ATOM     10  C   UNL A   1      31.420  28.998  24.651  1.00  0.00     0.069 C 
BRANCH   7  11
ATOM     11  C   UNL A   1      31.606  25.433  25.560  1.00  0.00     0.261 C 
ATOM     12  O   UNL A   1      30.842  24.494  25.790  1.00  0.00    -0.271 OA
BRANCH  11  13
ATOM     13  C   UNL A   1      33.115  25.245  25.768  1.00  0.00     0.329 C 
BRANCH  13  14
ATOM     14  O   UNL A   1      33.600  23.992  26.178  1.00  0.00    -0.484 OA
BRANCH  14  15
ATOM     15  C   UNL A   1      34.617  23.336  25.555  1.00  0.00     0.122 A 
ATOM     16  C   UNL A   1      33.473  21.214  24.591  1.00  0.00     0.048 C 
ATOM     17  C   UNL A   1      34.641  22.126  24.844  1.00  0.00    -0.009 A 
ATOM     18  C   UNL A   1      35.862  21.725  24.250  1.00  0.00     0.007 A 
ATOM     19  C   UNL A   1      37.026  22.482  24.368  1.00  0.00     0.001 A 
ATOM     20  C   UNL A   1      35.809  24.078  25.674  1.00  0.00     0.047 A 
ATOM     21  C   UNL A   1      37.002  23.662  25.089  1.00  0.00     0.004 A 
ENDBRANCH  14  15
ENDBRANCH  13  14
ENDBRANCH  11  13
ENDBRANCH   7  11
BRANCH   9  22
ATOM     22  O   UNL A   1      29.354  29.134  23.346  1.00  0.00    -0.391 OA
ATOM     23  H   UNL A   1      29.568  30.064  23.520  1.00  0.00     0.211 HD
ENDBRANCH   9  22
ENDBRANCH   3   6
ENDBRANCH   1   2
BRANCH   1  24
ATOM     24  C   UNL A   1      34.940  30.383  28.086  1.00  0.00     0.042 C 
BRANCH  24  25
ATOM     25  C   UNL A   1      35.087  31.825  27.627  1.00  0.00     0.118 C 
BRANCH  25  26
ATOM     26  N   UNL A   1      34.131  32.739  28.256  1.00  0.00    -0.352 N 
ATOM     27  C   UNL A   1      34.287  33.467  29.424  1.00  0.00     0.251 C 
ATOM     28  H   UNL A   1      33.271  32.852  27.791  1.00  0.00     0.163 HD
ATOM     29  O   UNL A   1      33.402  34.178  29.877  1.00  0.00    -0.269 OA
BRANCH  27  30
ATOM     30  C   UNL A   1      35.622  33.454  30.056  1.00  0.00     0.039 A 
ATOM     31  C   UNL A   1      36.661  34.077  29.357  1.00  0.00     0.014 A 
ATOM     32  C   UNL A   1      35.883  32.586  31.112  1.00  0.00     0.014 A 
ATOM     33  C   UNL A   1      37.965  33.641  29.559  1.00  0.00     0.010 A 
ATOM     34  C   UNL A   1      37.164  32.083  31.242  1.00  0.00     0.010 A 
ATOM     35  C   UNL A   1      38.190  32.563  30.418  1.00  0.00    -0.014 A 
BRANCH  35  36
ATOM     36  C   UNL A   1      39.424  31.784  30.381  1.00  0.00     0.031 A 
ATOM     37  C   UNL A   1      39.465  30.458  29.737  1.00  0.00     0.074 A 
ATOM     38  C   UNL A   1      40.554  32.276  30.937  1.00  0.00     0.049 A 
ATOM     39  N   UNL A   1      40.284  29.516  30.068  1.00  0.00    -0.248 NA
ATOM     40  C   UNL A   1      38.539  30.073  28.681  1.00  0.00     0.031 C 
ATOM     41  C   UNL A   1      41.908  31.746  30.813  1.00  0.00     0.029 A 
ATOM     42  N   UNL A   1      40.640  33.219  31.961  1.00  0.00    -0.354 N 
ATOM     43  C   UNL A   1      40.200  28.535  29.110  1.00  0.00     0.074 A 
ATOM     44  C   UNL A   1      39.053  28.899  28.307  1.00  0.00     0.031 C 
ATOM     45  C   UNL A   1      42.623  32.139  31.876  1.00  0.00     0.029 A 
ATOM     46  C   UNL A   1      41.718  32.829  32.777  1.00  0.00     0.049 A 
ATOM     47  H   UNL A   1      40.059  34.005  32.090  1.00  0.00     0.167 HD
ATOM     48  C   UNL A   1      41.186  27.600  29.006  1.00  0.00     0.034 A 
ATOM     49  C   UNL A   1      41.541  32.541  34.097  1.00  0.00     0.034 A 
ATOM     50  C   UNL A   1      42.207  27.757  30.043  1.00  0.00     0.049 A 
ATOM     51  C   UNL A   1      41.965  31.142  34.484  1.00  0.00     0.074 A 
ATOM     52  C   UNL A   1      43.485  28.290  30.044  1.00  0.00     0.029 A 
ATOM     53  N   UNL A   1      41.867  27.568  31.378  1.00  0.00    -0.354 N 
ATOM     54  N   UNL A   1      42.221  30.182  33.638  1.00  0.00    -0.248 NA
ATOM     55  C   UNL A   1      42.096  30.711  35.869  1.00  0.00     0.031 C 
ATOM     56  C   UNL A   1      43.903  28.444  31.393  1.00  0.00     0.029 A 
ATOM     57  C   UNL A   1      42.888  27.983  32.214  1.00  0.00     0.049 A 
ATOM     58  H   UNL A   1      41.012  27.190  31.688  1.00  0.00     0.167 HD
ATOM     59  C   UNL A   1      42.512  29.023  34.322  1.00  0.00     0.074 A 
ATOM     60  C   UNL A   1      42.446  29.423  35.718  1.00  0.00     0.031 C 
ATOM     61  C   UNL A   1      42.761  27.846  33.663  1.00  0.00     0.034 A 
BRANCH  48  62
ATOM     62  C   UNL A   1      41.370  26.746  27.771  1.00  0.00     0.023 A 
ATOM     63  C   UNL A   1      41.245  25.344  27.861  1.00  0.00     0.031 A 
ATOM     64  C   UNL A   1      41.721  27.239  26.500  1.00  0.00     0.131 A 
ATOM     65  C   UNL A   1      41.583  24.507  26.781  1.00  0.00     0.055 A 
ATOM     66  C   UNL A   1      42.131  26.408  25.449  1.00  0.00     0.041 A 
ATOM     67  F   UNL A   1      41.635  28.545  26.209  1.00  0.00    -0.206 F 
ATOM     68  C   UNL A   1      42.081  25.030  25.593  1.00  0.00     0.022 A 
BRANCH  65  69
ATOM     69  S   UNL A   1      41.348  22.714  26.944  1.00  0.00     0.124 S 
ATOM     70  O   UNL A   1      41.732  22.472  28.330  1.00  0.00    -0.237 OA
ATOM     71  O   UNL A   1      39.932  22.562  26.628  1.00  0.00    -0.237 OA
ATOM     72  O   UNL A   1      42.263  22.161  25.945  1.00  0.00    -0.744 OA
ENDBRANCH  65  69
ENDBRANCH  48  62
BRANCH  49  73
ATOM     73  C   UNL A   1      40.449  33.330  34.736  1.00  0.00     0.023 A 
ATOM     74  C   UNL A   1      39.453  32.610  35.429  1.00  0.00     0.031 A 
ATOM     75  C   UNL A   1      40.569  34.700  34.998  1.00  0.00     0.131 A 
ATOM     76  C   UNL A   1      38.733  33.215  36.468  1.00  0.00     0.055 A 
ATOM     77  C   UNL A   1      39.795  35.320  35.987  1.00  0.00     0.041 A 
ATOM     78  F   UNL A   1      41.517  35.432  34.394  1.00  0.00    -0.206 F 
ATOM     79  C   UNL A   1      38.906  34.568  36.758  1.00  0.00     0.022 A 
BRANCH  76  80
ATOM     80  S   UNL A   1      37.788  32.163  37.609  1.00  0.00     0.124 S 
ATOM     81  O   UNL A   1      37.778  30.881  36.917  1.00  0.00    -0.237 OA
ATOM     82  O   UNL A   1      38.576  32.217  38.840  1.00  0.00    -0.237 OA
ATOM     83  O   UNL A   1      36.495  32.838  37.707  1.00  0.00    -0.744 OA
ENDBRANCH  76  80
ENDBRANCH  49  73
BRANCH  61  84
ATOM     84  C   UNL A   1      42.965  26.462  34.277  1.00  0.00     0.023 A 
ATOM     85  C   UNL A   1      44.171  25.748  34.245  1.00  0.00     0.031 A 
ATOM     86  C   UNL A   1      41.910  25.809  34.970  1.00  0.00     0.131 A 
ATOM     87  C   UNL A   1      44.295  24.468  34.827  1.00  0.00     0.055 A 
ATOM     88  C   UNL A   1      42.045  24.560  35.589  1.00  0.00     0.041 A 
ATOM     89  F   UNL A   1      40.693  26.358  35.095  1.00  0.00    -0.206 F 
ATOM     90  C   UNL A   1      43.242  23.875  35.514  1.00  0.00     0.022 A 
BRANCH  87  91
ATOM     91  S   UNL A   1      45.869  23.587  34.637  1.00  0.00     0.124 S 
ATOM     92  O   UNL A   1      46.633  24.510  33.802  1.00  0.00    -0.237 OA
ATOM     93  O   UNL A   1      46.323  23.461  36.019  1.00  0.00    -0.237 OA
ATOM     94  O   UNL A   1      45.488  22.333  33.991  1.00  0.00    -0.744 OA
ENDBRANCH  87  91
ENDBRANCH  61  84
ENDBRANCH  35  36
ENDBRANCH  27  30
ENDBRANCH  25  26
ENDBRANCH  24  25
ENDBRANCH   1  24
TORSDOF 18
ENDMDL
