MODEL 1
REMARK VINA RESULT:     -13.1      0.000      0.000
REMARK SMILES O=C(NCCCNC(=O)c1cccc(Nc2ccc([N+](=O)[O-])cc2)c1)c1ccc(-c2c3nc(c(-c4cc(S(=O)(=O)[O-])ccc4F)c4ccc([nH]4)c(-c4cc(S(=O)(=O)[O-])ccc4F)c4nc(c(-c5cc(S(=O)(=O)[O-])ccc5F)c5ccc2[nH]5)C=C4)C=C3)cc1
REMARK SMILES IDX 5 1 4 2 3 3 1 4 2 5 26 7 27 8 88 9 28 10 87 11 29 12 30 13
REMARK SMILES IDX 31 14 81 15 32 16 86 17 80 18 82 19 33 20 85 21 79 22 78 23
REMARK SMILES IDX 34 25 66 26 46 27 65 28 47 29 50 30 64 31 83 32 48 33 49 34
REMARK SMILES IDX 63 36 84 37 51 38 35 39 36 40 44 41 37 42 43 43 45 44 42 45
REMARK SMILES IDX 38 46 39 47 40 48 41 49 67 50 68 51 76 52 69 53 75 54 77 55
REMARK SMILES IDX 74 56 70 57 71 58 72 59 73 60 52 61 53 62 61 63 54 64 60 65
REMARK SMILES IDX 62 66 59 67 55 68 56 69 57 70 58 71 6 72 7 73 8 74 9 76
REMARK SMILES IDX 10 77 11 78 25 79 12 80 14 81 13 82 15 83 16 85 17 86 24 87
REMARK SMILES IDX 18 88 23 89 19 90 20 91 21 92 22 93
REMARK H PARENT 3 6 82 24 50 35 7 75 15 84
REMARK Flexibility Score: inf
ROOT
ATOM      1  C   UNL A   1      35.379  21.915  26.460  1.00  0.00     0.042 C 
ENDROOT
BRANCH   1   2
ATOM      2  C   UNL A   1      36.464  22.023  25.399  1.00  0.00     0.118 C 
BRANCH   2   3
ATOM      3  N   UNL A   1      37.476  20.977  25.497  1.00  0.00    -0.352 N 
ATOM      4  O   UNL A   1      39.510  20.052  25.753  1.00  0.00    -0.269 OA
ATOM      5  C   UNL A   1      38.794  21.043  25.886  1.00  0.00     0.251 C 
ATOM      6  H   UNL A   1      37.165  20.078  25.245  1.00  0.00     0.163 HD
BRANCH   5   7
ATOM      7  C   UNL A   1      39.358  22.299  26.429  1.00  0.00     0.039 A 
ATOM      8  C   UNL A   1      38.858  23.538  26.032  1.00  0.00     0.014 A 
ATOM      9  C   UNL A   1      40.405  22.237  27.354  1.00  0.00     0.014 A 
ATOM     10  C   UNL A   1      39.531  24.700  26.389  1.00  0.00     0.010 A 
ATOM     11  C   UNL A   1      41.009  23.418  27.804  1.00  0.00     0.010 A 
ATOM     12  C   UNL A   1      40.612  24.659  27.284  1.00  0.00    -0.014 A 
BRANCH  12  13
ATOM     13  C   UNL A   1      41.289  25.932  27.657  1.00  0.00     0.031 A 
ATOM     14  C   UNL A   1      42.650  26.278  27.114  1.00  0.00     0.074 A 
ATOM     15  C   UNL A   1      40.635  26.808  28.447  1.00  0.00     0.049 A 
ATOM     16  N   UNL A   1      43.357  27.367  27.290  1.00  0.00    -0.248 NA
ATOM     17  C   UNL A   1      43.312  25.268  26.276  1.00  0.00     0.031 C 
ATOM     18  C   UNL A   1      39.315  26.580  29.042  1.00  0.00     0.029 A 
ATOM     19  N   UNL A   1      40.966  28.074  28.856  1.00  0.00    -0.354 N 
ATOM     20  C   UNL A   1      44.555  27.163  26.610  1.00  0.00     0.074 A 
ATOM     21  C   UNL A   1      44.489  25.832  26.047  1.00  0.00     0.031 C 
ATOM     22  C   UNL A   1      38.920  27.691  29.677  1.00  0.00     0.029 A 
ATOM     23  C   UNL A   1      39.983  28.686  29.601  1.00  0.00     0.049 A 
ATOM     24  H   UNL A   1      41.824  28.504  28.639  1.00  0.00     0.167 HD
ATOM     25  C   UNL A   1      45.604  28.012  26.463  1.00  0.00     0.034 A 
ATOM     26  C   UNL A   1      39.942  29.907  30.166  1.00  0.00     0.034 A 
ATOM     27  C   UNL A   1      45.645  29.346  27.016  1.00  0.00     0.049 A 
ATOM     28  C   UNL A   1      41.122  30.824  29.994  1.00  0.00     0.074 A 
ATOM     29  C   UNL A   1      46.642  30.300  26.896  1.00  0.00     0.029 A 
ATOM     30  N   UNL A   1      44.648  29.915  27.799  1.00  0.00    -0.354 N 
ATOM     31  N   UNL A   1      42.238  30.619  29.334  1.00  0.00    -0.248 NA
ATOM     32  C   UNL A   1      41.033  32.137  30.643  1.00  0.00     0.031 C 
ATOM     33  C   UNL A   1      46.277  31.418  27.656  1.00  0.00     0.029 A 
ATOM     34  C   UNL A   1      45.019  31.194  28.191  1.00  0.00     0.049 A 
ATOM     35  H   UNL A   1      43.802  29.476  28.041  1.00  0.00     0.167 HD
ATOM     36  C   UNL A   1      42.976  31.790  29.471  1.00  0.00     0.074 A 
ATOM     37  C   UNL A   1      42.168  32.701  30.256  1.00  0.00     0.031 C 
ATOM     38  C   UNL A   1      44.211  32.086  28.990  1.00  0.00     0.034 A 
BRANCH  25  39
ATOM     39  C   UNL A   1      46.814  27.500  25.714  1.00  0.00     0.023 A 
ATOM     40  C   UNL A   1      47.099  27.897  24.395  1.00  0.00     0.031 A 
ATOM     41  C   UNL A   1      47.684  26.577  26.322  1.00  0.00     0.131 A 
ATOM     42  C   UNL A   1      48.176  27.319  23.705  1.00  0.00     0.055 A 
ATOM     43  C   UNL A   1      48.801  26.065  25.657  1.00  0.00     0.041 A 
ATOM     44  F   UNL A   1      47.455  26.143  27.572  1.00  0.00    -0.206 F 
ATOM     45  C   UNL A   1      49.044  26.425  24.336  1.00  0.00     0.022 A 
BRANCH  42  46
ATOM     46  S   UNL A   1      48.344  27.645  21.927  1.00  0.00     0.124 S 
ATOM     47  O   UNL A   1      49.510  28.525  21.896  1.00  0.00    -0.237 OA
ATOM     48  O   UNL A   1      48.539  26.309  21.379  1.00  0.00    -0.237 OA
ATOM     49  O   UNL A   1      47.079  28.287  21.576  1.00  0.00    -0.744 OA
ENDBRANCH  42  46
ENDBRANCH  25  39
BRANCH  26  50
ATOM     50  C   UNL A   1      38.753  30.326  30.961  1.00  0.00     0.023 A 
ATOM     51  C   UNL A   1      37.693  31.026  30.365  1.00  0.00     0.031 A 
ATOM     52  C   UNL A   1      38.673  30.051  32.338  1.00  0.00     0.131 A 
ATOM     53  C   UNL A   1      36.615  31.460  31.151  1.00  0.00     0.055 A 
ATOM     54  C   UNL A   1      37.575  30.440  33.105  1.00  0.00     0.041 A 
ATOM     55  F   UNL A   1      39.659  29.379  32.955  1.00  0.00    -0.206 F 
ATOM     56  C   UNL A   1      36.543  31.160  32.513  1.00  0.00     0.022 A 
BRANCH  53  57
ATOM     57  S   UNL A   1      35.339  32.493  30.379  1.00  0.00     0.124 S 
ATOM     58  O   UNL A   1      34.339  32.571  31.437  1.00  0.00    -0.237 OA
ATOM     59  O   UNL A   1      36.074  33.722  30.097  1.00  0.00    -0.237 OA
ATOM     60  O   UNL A   1      34.946  31.722  29.201  1.00  0.00    -0.744 OA
ENDBRANCH  53  57
ENDBRANCH  26  50
BRANCH  38  61
ATOM     61  C   UNL A   1      44.733  33.473  29.275  1.00  0.00     0.023 A 
ATOM     62  C   UNL A   1      44.534  34.536  28.376  1.00  0.00     0.031 A 
ATOM     63  C   UNL A   1      45.474  33.722  30.443  1.00  0.00     0.131 A 
ATOM     64  C   UNL A   1      45.128  35.782  28.627  1.00  0.00     0.055 A 
ATOM     65  C   UNL A   1      46.012  34.981  30.717  1.00  0.00     0.041 A 
ATOM     66  F   UNL A   1      45.696  32.743  31.335  1.00  0.00    -0.206 F 
ATOM     67  C   UNL A   1      45.854  36.015  29.798  1.00  0.00     0.022 A 
BRANCH  64  68
ATOM     68  S   UNL A   1      45.033  37.064  27.346  1.00  0.00     0.124 S 
ATOM     69  O   UNL A   1      45.935  36.542  26.325  1.00  0.00    -0.237 OA
ATOM     70  O   UNL A   1      43.613  37.059  27.007  1.00  0.00    -0.237 OA
ATOM     71  O   UNL A   1      45.501  38.267  28.031  1.00  0.00    -0.744 OA
ENDBRANCH  64  68
ENDBRANCH  38  61
ENDBRANCH  12  13
ENDBRANCH   5   7
ENDBRANCH   2   3
ENDBRANCH   1   2
BRANCH   1  72
ATOM     72  C   UNL A   1      34.784  23.248  26.887  1.00  0.00     0.118 C 
BRANCH  72  73
ATOM     73  N   UNL A   1      33.396  23.128  27.315  1.00  0.00    -0.352 N 
ATOM     74  C   UNL A   1      32.247  23.009  26.578  1.00  0.00     0.251 C 
ATOM     75  H   UNL A   1      33.262  23.134  28.290  1.00  0.00     0.163 HD
ATOM     76  O   UNL A   1      31.155  23.120  27.127  1.00  0.00    -0.269 OA
BRANCH  74  77
ATOM     77  C   UNL A   1      32.305  22.731  25.129  1.00  0.00     0.041 A 
ATOM     78  C   UNL A   1      32.441  23.799  24.242  1.00  0.00     0.014 A 
ATOM     79  C   UNL A   1      32.142  21.428  24.642  1.00  0.00     0.039 A 
ATOM     80  C   UNL A   1      32.468  23.552  22.874  1.00  0.00     0.003 A 
ATOM     81  C   UNL A   1      32.190  21.161  23.270  1.00  0.00     0.039 A 
ATOM     82  C   UNL A   1      32.355  22.242  22.395  1.00  0.00     0.026 A 
BRANCH  81  83
ATOM     83  N   UNL A   1      32.082  19.825  22.844  1.00  0.00    -0.356 N 
ATOM     84  H   UNL A   1      31.616  19.710  21.985  1.00  0.00     0.167 HD
BRANCH  83  85
ATOM     85  C   UNL A   1      32.520  18.629  23.432  1.00  0.00     0.039 A 
ATOM     86  C   UNL A   1      33.289  17.749  22.656  1.00  0.00     0.033 A 
ATOM     87  C   UNL A   1      32.303  18.324  24.781  1.00  0.00     0.033 A 
ATOM     88  C   UNL A   1      33.866  16.611  23.222  1.00  0.00     0.088 A 
ATOM     89  C   UNL A   1      32.866  17.182  25.360  1.00  0.00     0.088 A 
ATOM     90  C   UNL A   1      33.664  16.339  24.580  1.00  0.00     0.269 A 
BRANCH  90  91
ATOM     91  N   UNL A   1      34.319  15.177  25.190  1.00  0.00     0.062 N 
ATOM     92  O   UNL A   1      33.607  14.210  25.500  1.00  0.00    -0.258 OA
ATOM     93  O   UNL A   1      35.548  15.220  25.344  1.00  0.00    -0.258 OA
ENDBRANCH  90  91
ENDBRANCH  83  85
ENDBRANCH  81  83
ENDBRANCH  74  77
ENDBRANCH  72  73
ENDBRANCH   1  72
TORSDOF 16
ENDMDL
MODEL 2
REMARK VINA RESULT:     -12.7      5.115      9.882
REMARK SMILES O=C(NCCCNC(=O)c1cccc(Nc2ccc([N+](=O)[O-])cc2)c1)c1ccc(-c2c3nc(c(-c4cc(S(=O)(=O)[O-])ccc4F)c4ccc([nH]4)c(-c4cc(S(=O)(=O)[O-])ccc4F)c4nc(c(-c5cc(S(=O)(=O)[O-])ccc5F)c5ccc2[nH]5)C=C4)C=C3)cc1
REMARK SMILES IDX 5 1 4 2 3 3 1 4 2 5 26 7 27 8 88 9 28 10 87 11 29 12 30 13
REMARK SMILES IDX 31 14 81 15 32 16 86 17 80 18 82 19 33 20 85 21 79 22 78 23
REMARK SMILES IDX 34 25 66 26 46 27 65 28 47 29 50 30 64 31 83 32 48 33 49 34
REMARK SMILES IDX 63 36 84 37 51 38 35 39 36 40 44 41 37 42 43 43 45 44 42 45
REMARK SMILES IDX 38 46 39 47 40 48 41 49 67 50 68 51 76 52 69 53 75 54 77 55
REMARK SMILES IDX 74 56 70 57 71 58 72 59 73 60 52 61 53 62 61 63 54 64 60 65
REMARK SMILES IDX 62 66 59 67 55 68 56 69 57 70 58 71 6 72 7 73 8 74 9 76
REMARK SMILES IDX 10 77 11 78 25 79 12 80 14 81 13 82 15 83 16 85 17 86 24 87
REMARK SMILES IDX 18 88 23 89 19 90 20 91 21 92 22 93
REMARK H PARENT 3 6 82 24 50 35 7 75 15 84
REMARK Flexibility Score: inf
ROOT
ATOM      1  C   UNL A   1      32.927  29.081  24.409  1.00  0.00     0.042 C 
ENDROOT
BRANCH   1   2
ATOM      2  C   UNL A   1      33.074  29.245  25.915  1.00  0.00     0.118 C 
BRANCH   2   3
ATOM      3  N   UNL A   1      32.778  30.596  26.381  1.00  0.00    -0.352 N 
ATOM      4  O   UNL A   1      32.955  32.470  27.612  1.00  0.00    -0.269 OA
ATOM      5  C   UNL A   1      33.468  31.415  27.244  1.00  0.00     0.251 C 
ATOM      6  H   UNL A   1      31.949  30.985  26.018  1.00  0.00     0.163 HD
BRANCH   5   7
ATOM      7  C   UNL A   1      34.802  31.022  27.751  1.00  0.00     0.039 A 
ATOM      8  C   UNL A   1      35.087  29.692  28.058  1.00  0.00     0.014 A 
ATOM      9  C   UNL A   1      35.786  32.000  27.923  1.00  0.00     0.014 A 
ATOM     10  C   UNL A   1      36.263  29.375  28.725  1.00  0.00     0.010 A 
ATOM     11  C   UNL A   1      37.020  31.655  28.489  1.00  0.00     0.010 A 
ATOM     12  C   UNL A   1      37.250  30.349  28.946  1.00  0.00    -0.014 A 
BRANCH  12  13
ATOM     13  C   UNL A   1      38.506  29.959  29.643  1.00  0.00     0.031 A 
ATOM     14  C   UNL A   1      38.804  30.442  31.038  1.00  0.00     0.074 A 
ATOM     15  C   UNL A   1      39.354  29.109  29.028  1.00  0.00     0.049 A 
ATOM     16  N   UNL A   1      39.822  30.154  31.812  1.00  0.00    -0.248 NA
ATOM     17  C   UNL A   1      37.847  31.381  31.639  1.00  0.00     0.031 C 
ATOM     18  C   UNL A   1      39.177  28.580  27.673  1.00  0.00     0.029 A 
ATOM     19  N   UNL A   1      40.507  28.511  29.467  1.00  0.00    -0.354 N 
ATOM     20  C   UNL A   1      39.642  30.895  32.977  1.00  0.00     0.074 A 
ATOM     21  C   UNL A   1      38.434  31.671  32.791  1.00  0.00     0.031 C 
ATOM     22  C   UNL A   1      40.142  27.686  27.419  1.00  0.00     0.029 A 
ATOM     23  C   UNL A   1      41.049  27.630  28.559  1.00  0.00     0.049 A 
ATOM     24  H   UNL A   1      40.909  28.695  30.346  1.00  0.00     0.167 HD
ATOM     25  C   UNL A   1      40.407  30.917  34.098  1.00  0.00     0.034 A 
ATOM     26  C   UNL A   1      42.156  26.865  28.630  1.00  0.00     0.034 A 
ATOM     27  C   UNL A   1      41.600  30.121  34.275  1.00  0.00     0.049 A 
ATOM     28  C   UNL A   1      42.990  26.915  29.880  1.00  0.00     0.074 A 
ATOM     29  C   UNL A   1      42.427  30.039  35.382  1.00  0.00     0.029 A 
ATOM     30  N   UNL A   1      42.140  29.271  33.317  1.00  0.00    -0.354 N 
ATOM     31  N   UNL A   1      42.794  27.610  30.977  1.00  0.00    -0.248 NA
ATOM     32  C   UNL A   1      44.194  26.076  29.901  1.00  0.00     0.031 C 
ATOM     33  C   UNL A   1      43.499  29.192  35.072  1.00  0.00     0.029 A 
ATOM     34  C   UNL A   1      43.303  28.685  33.798  1.00  0.00     0.049 A 
ATOM     35  H   UNL A   1      41.755  29.108  32.426  1.00  0.00     0.167 HD
ATOM     36  C   UNL A   1      43.841  27.272  31.828  1.00  0.00     0.074 A 
ATOM     37  C   UNL A   1      44.650  26.297  31.125  1.00  0.00     0.031 C 
ATOM     38  C   UNL A   1      44.110  27.727  33.079  1.00  0.00     0.034 A 
BRANCH  25  39
ATOM     39  C   UNL A   1      40.002  31.871  35.199  1.00  0.00     0.023 A 
ATOM     40  C   UNL A   1      39.191  31.467  36.275  1.00  0.00     0.031 A 
ATOM     41  C   UNL A   1      40.416  33.215  35.158  1.00  0.00     0.131 A 
ATOM     42  C   UNL A   1      38.758  32.412  37.220  1.00  0.00     0.055 A 
ATOM     43  C   UNL A   1      40.047  34.132  36.145  1.00  0.00     0.041 A 
ATOM     44  F   UNL A   1      41.175  33.666  34.147  1.00  0.00    -0.206 F 
ATOM     45  C   UNL A   1      39.201  33.735  37.176  1.00  0.00     0.022 A 
BRANCH  42  46
ATOM     46  S   UNL A   1      37.494  31.917  38.425  1.00  0.00     0.124 S 
ATOM     47  O   UNL A   1      37.238  30.532  38.034  1.00  0.00    -0.237 OA
ATOM     48  O   UNL A   1      38.180  32.105  39.697  1.00  0.00    -0.237 OA
ATOM     49  O   UNL A   1      36.393  32.842  38.165  1.00  0.00    -0.744 OA
ENDBRANCH  42  46
ENDBRANCH  25  39
BRANCH  26  50
ATOM     50  C   UNL A   1      42.547  26.004  27.479  1.00  0.00     0.023 A 
ATOM     51  C   UNL A   1      42.116  24.672  27.391  1.00  0.00     0.031 A 
ATOM     52  C   UNL A   1      43.381  26.498  26.460  1.00  0.00     0.131 A 
ATOM     53  C   UNL A   1      42.551  23.867  26.327  1.00  0.00     0.055 A 
ATOM     54  C   UNL A   1      43.768  25.709  25.377  1.00  0.00     0.041 A 
ATOM     55  F   UNL A   1      43.817  27.768  26.495  1.00  0.00    -0.206 F 
ATOM     56  C   UNL A   1      43.362  24.381  25.313  1.00  0.00     0.022 A 
BRANCH  53  57
ATOM     57  S   UNL A   1      42.099  22.111  26.327  1.00  0.00     0.124 S 
ATOM     58  O   UNL A   1      40.667  22.171  26.062  1.00  0.00    -0.237 OA
ATOM     59  O   UNL A   1      42.930  21.584  25.249  1.00  0.00    -0.237 OA
ATOM     60  O   UNL A   1      42.469  21.665  27.669  1.00  0.00    -0.744 OA
ENDBRANCH  53  57
ENDBRANCH  26  50
BRANCH  38  61
ATOM     61  C   UNL A   1      45.312  27.132  33.770  1.00  0.00     0.023 A 
ATOM     62  C   UNL A   1      45.224  25.940  34.510  1.00  0.00     0.031 A 
ATOM     63  C   UNL A   1      46.553  27.791  33.722  1.00  0.00     0.131 A 
ATOM     64  C   UNL A   1      46.338  25.478  35.227  1.00  0.00     0.055 A 
ATOM     65  C   UNL A   1      47.674  27.295  34.388  1.00  0.00     0.041 A 
ATOM     66  F   UNL A   1      46.693  28.935  33.031  1.00  0.00    -0.206 F 
ATOM     67  C   UNL A   1      47.566  26.141  35.159  1.00  0.00     0.022 A 
BRANCH  64  68
ATOM     68  S   UNL A   1      46.131  24.061  36.340  1.00  0.00     0.124 S 
ATOM     69  O   UNL A   1      46.901  23.024  35.660  1.00  0.00    -0.237 OA
ATOM     70  O   UNL A   1      46.697  24.560  37.588  1.00  0.00    -0.237 OA
ATOM     71  O   UNL A   1      44.685  23.848  36.357  1.00  0.00    -0.744 OA
ENDBRANCH  64  68
ENDBRANCH  38  61
ENDBRANCH  12  13
ENDBRANCH   5   7
ENDBRANCH   2   3
ENDBRANCH   1   2
BRANCH   1  72
ATOM     72  C   UNL A   1      32.103  27.874  23.988  1.00  0.00     0.118 C 
BRANCH  72  73
ATOM     73  N   UNL A   1      32.526  27.330  22.704  1.00  0.00    -0.352 N 
ATOM     74  C   UNL A   1      33.198  26.172  22.409  1.00  0.00     0.251 C 
ATOM     75  H   UNL A   1      32.292  27.881  21.923  1.00  0.00     0.163 HD
ATOM     76  O   UNL A   1      33.635  25.991  21.277  1.00  0.00    -0.269 OA
BRANCH  74  77
ATOM     77  C   UNL A   1      33.391  25.129  23.437  1.00  0.00     0.041 A 
ATOM     78  C   UNL A   1      34.399  25.296  24.387  1.00  0.00     0.014 A 
ATOM     79  C   UNL A   1      32.636  23.951  23.411  1.00  0.00     0.039 A 
ATOM     80  C   UNL A   1      34.608  24.307  25.342  1.00  0.00     0.003 A 
ATOM     81  C   UNL A   1      32.819  22.957  24.378  1.00  0.00     0.039 A 
ATOM     82  C   UNL A   1      33.816  23.153  25.342  1.00  0.00     0.026 A 
BRANCH  81  83
ATOM     83  N   UNL A   1      31.989  21.823  24.338  1.00  0.00    -0.356 N 
ATOM     84  H   UNL A   1      31.026  22.022  24.374  1.00  0.00     0.167 HD
BRANCH  83  85
ATOM     85  C   UNL A   1      32.295  20.455  24.257  1.00  0.00     0.039 A 
ATOM     86  C   UNL A   1      32.124  19.807  23.026  1.00  0.00     0.033 A 
ATOM     87  C   UNL A   1      32.851  19.740  25.324  1.00  0.00     0.033 A 
ATOM     88  C   UNL A   1      32.537  18.485  22.847  1.00  0.00     0.088 A 
ATOM     89  C   UNL A   1      33.260  18.412  25.165  1.00  0.00     0.088 A 
ATOM     90  C   UNL A   1      33.119  17.795  23.917  1.00  0.00     0.269 A 
BRANCH  90  91
ATOM     91  N   UNL A   1      33.609  16.428  23.715  1.00  0.00     0.062 N 
ATOM     92  O   UNL A   1      34.285  16.202  22.700  1.00  0.00    -0.258 OA
ATOM     93  O   UNL A   1      33.337  15.581  24.578  1.00  0.00    -0.258 OA
ENDBRANCH  90  91
ENDBRANCH  83  85
ENDBRANCH  81  83
ENDBRANCH  74  77
ENDBRANCH  72  73
ENDBRANCH   1  72
TORSDOF 16
ENDMDL
MODEL 3
REMARK VINA RESULT:     -12.7      2.106      8.002
REMARK SMILES O=C(NCCCNC(=O)c1cccc(Nc2ccc([N+](=O)[O-])cc2)c1)c1ccc(-c2c3nc(c(-c4cc(S(=O)(=O)[O-])ccc4F)c4ccc([nH]4)c(-c4cc(S(=O)(=O)[O-])ccc4F)c4nc(c(-c5cc(S(=O)(=O)[O-])ccc5F)c5ccc2[nH]5)C=C4)C=C3)cc1
REMARK SMILES IDX 5 1 4 2 3 3 1 4 2 5 26 7 27 8 88 9 28 10 87 11 29 12 30 13
REMARK SMILES IDX 31 14 81 15 32 16 86 17 80 18 82 19 33 20 85 21 79 22 78 23
REMARK SMILES IDX 34 25 66 26 46 27 65 28 47 29 50 30 64 31 83 32 48 33 49 34
REMARK SMILES IDX 63 36 84 37 51 38 35 39 36 40 44 41 37 42 43 43 45 44 42 45
REMARK SMILES IDX 38 46 39 47 40 48 41 49 67 50 68 51 76 52 69 53 75 54 77 55
REMARK SMILES IDX 74 56 70 57 71 58 72 59 73 60 52 61 53 62 61 63 54 64 60 65
REMARK SMILES IDX 62 66 59 67 55 68 56 69 57 70 58 71 6 72 7 73 8 74 9 76
REMARK SMILES IDX 10 77 11 78 25 79 12 80 14 81 13 82 15 83 16 85 17 86 24 87
REMARK SMILES IDX 18 88 23 89 19 90 20 91 21 92 22 93
REMARK H PARENT 3 6 82 24 50 35 7 75 15 84
REMARK Flexibility Score: inf
ROOT
ATOM      1  C   UNL A   1      38.074  20.330  24.957  1.00  0.00     0.042 C 
ENDROOT
BRANCH   1   2
ATOM      2  C   UNL A   1      39.107  20.554  26.052  1.00  0.00     0.118 C 
BRANCH   2   3
ATOM      3  N   UNL A   1      40.152  19.535  26.078  1.00  0.00    -0.352 N 
ATOM      4  O   UNL A   1      42.222  18.659  26.003  1.00  0.00    -0.269 OA
ATOM      5  C   UNL A   1      41.520  19.660  26.140  1.00  0.00     0.251 C 
ATOM      6  H   UNL A   1      39.823  18.607  26.048  1.00  0.00     0.163 HD
BRANCH   5   7
ATOM      7  C   UNL A   1      42.148  20.986  26.336  1.00  0.00     0.039 A 
ATOM      8  C   UNL A   1      42.435  21.459  27.615  1.00  0.00     0.014 A 
ATOM      9  C   UNL A   1      42.458  21.770  25.221  1.00  0.00     0.014 A 
ATOM     10  C   UNL A   1      42.828  22.780  27.790  1.00  0.00     0.010 A 
ATOM     11  C   UNL A   1      42.966  23.063  25.396  1.00  0.00     0.010 A 
ATOM     12  C   UNL A   1      43.105  23.601  26.685  1.00  0.00    -0.014 A 
BRANCH  12  13
ATOM     13  C   UNL A   1      43.547  25.003  26.919  1.00  0.00     0.031 A 
ATOM     14  C   UNL A   1      42.623  26.016  27.544  1.00  0.00     0.074 A 
ATOM     15  C   UNL A   1      44.817  25.342  26.620  1.00  0.00     0.049 A 
ATOM     16  N   UNL A   1      42.864  27.262  27.871  1.00  0.00    -0.248 NA
ATOM     17  C   UNL A   1      41.248  25.582  27.826  1.00  0.00     0.031 C 
ATOM     18  C   UNL A   1      45.802  24.450  26.003  1.00  0.00     0.029 A 
ATOM     19  N   UNL A   1      45.511  26.508  26.824  1.00  0.00    -0.354 N 
ATOM     20  C   UNL A   1      41.667  27.767  28.370  1.00  0.00     0.074 A 
ATOM     21  C   UNL A   1      40.694  26.701  28.270  1.00  0.00     0.031 C 
ATOM     22  C   UNL A   1      46.987  25.073  25.944  1.00  0.00     0.029 A 
ATOM     23  C   UNL A   1      46.833  26.432  26.449  1.00  0.00     0.049 A 
ATOM     24  H   UNL A   1      45.102  27.319  27.201  1.00  0.00     0.167 HD
ATOM     25  C   UNL A   1      41.409  29.002  28.872  1.00  0.00     0.034 A 
ATOM     26  C   UNL A   1      47.814  27.354  26.498  1.00  0.00     0.034 A 
ATOM     27  C   UNL A   1      42.398  30.050  28.982  1.00  0.00     0.049 A 
ATOM     28  C   UNL A   1      47.498  28.717  27.052  1.00  0.00     0.074 A 
ATOM     29  C   UNL A   1      42.252  31.322  29.509  1.00  0.00     0.029 A 
ATOM     30  N   UNL A   1      43.716  29.950  28.554  1.00  0.00    -0.354 N 
ATOM     31  N   UNL A   1      46.364  29.171  27.534  1.00  0.00    -0.248 NA
ATOM     32  C   UNL A   1      48.597  29.690  27.069  1.00  0.00     0.031 C 
ATOM     33  C   UNL A   1      43.460  32.011  29.342  1.00  0.00     0.029 A 
ATOM     34  C   UNL A   1      44.384  31.146  28.779  1.00  0.00     0.049 A 
ATOM     35  H   UNL A   1      44.118  29.148  28.149  1.00  0.00     0.167 HD
ATOM     36  C   UNL A   1      46.621  30.478  27.933  1.00  0.00     0.074 A 
ATOM     37  C   UNL A   1      48.021  30.729  27.654  1.00  0.00     0.031 C 
ATOM     38  C   UNL A   1      45.777  31.389  28.480  1.00  0.00     0.034 A 
BRANCH  25  39
ATOM     39  C   UNL A   1      39.987  29.299  29.294  1.00  0.00     0.023 A 
ATOM     40  C   UNL A   1      39.609  29.370  30.646  1.00  0.00     0.031 A 
ATOM     41  C   UNL A   1      38.988  29.490  28.322  1.00  0.00     0.131 A 
ATOM     42  C   UNL A   1      38.259  29.549  30.988  1.00  0.00     0.055 A 
ATOM     43  C   UNL A   1      37.659  29.747  28.670  1.00  0.00     0.041 A 
ATOM     44  F   UNL A   1      39.281  29.415  27.015  1.00  0.00    -0.206 F 
ATOM     45  C   UNL A   1      37.286  29.763  30.010  1.00  0.00     0.022 A 
BRANCH  42  46
ATOM     46  S   UNL A   1      37.772  29.356  32.726  1.00  0.00     0.124 S 
ATOM     47  O   UNL A   1      36.511  30.096  32.764  1.00  0.00    -0.237 OA
ATOM     48  O   UNL A   1      37.666  27.909  32.865  1.00  0.00    -0.237 OA
ATOM     49  O   UNL A   1      38.871  29.976  33.462  1.00  0.00    -0.744 OA
ENDBRANCH  42  46
ENDBRANCH  25  39
BRANCH  26  50
ATOM     50  C   UNL A   1      49.177  27.027  25.994  1.00  0.00     0.023 A 
ATOM     51  C   UNL A   1      49.602  27.450  24.725  1.00  0.00     0.031 A 
ATOM     52  C   UNL A   1      50.068  26.264  26.769  1.00  0.00     0.131 A 
ATOM     53  C   UNL A   1      50.868  27.075  24.253  1.00  0.00     0.055 A 
ATOM     54  C   UNL A   1      51.347  25.938  26.316  1.00  0.00     0.041 A 
ATOM     55  F   UNL A   1      49.712  25.840  27.993  1.00  0.00    -0.206 F 
ATOM     56  C   UNL A   1      51.748  26.334  25.045  1.00  0.00     0.022 A 
BRANCH  53  57
ATOM     57  S   UNL A   1      51.323  27.508  22.552  1.00  0.00     0.124 S 
ATOM     58  O   UNL A   1      52.644  26.903  22.433  1.00  0.00    -0.237 OA
ATOM     59  O   UNL A   1      50.255  26.877  21.783  1.00  0.00    -0.237 OA
ATOM     60  O   UNL A   1      51.303  28.970  22.557  1.00  0.00    -0.744 OA
ENDBRANCH  53  57
ENDBRANCH  26  50
BRANCH  38  61
ATOM     61  C   UNL A   1      46.371  32.726  28.846  1.00  0.00     0.023 A 
ATOM     62  C   UNL A   1      46.351  33.813  27.954  1.00  0.00     0.031 A 
ATOM     63  C   UNL A   1      47.003  32.902  30.089  1.00  0.00     0.131 A 
ATOM     64  C   UNL A   1      47.009  35.005  28.290  1.00  0.00     0.055 A 
ATOM     65  C   UNL A   1      47.605  34.110  30.443  1.00  0.00     0.041 A 
ATOM     66  F   UNL A   1      47.054  31.897  30.979  1.00  0.00    -0.206 F 
ATOM     67  C   UNL A   1      47.624  35.165  29.535  1.00  0.00     0.022 A 
BRANCH  64  68
ATOM     68  S   UNL A   1      47.148  36.307  27.034  1.00  0.00     0.124 S 
ATOM     69  O   UNL A   1      47.765  35.592  25.922  1.00  0.00    -0.237 OA
ATOM     70  O   UNL A   1      45.757  36.705  26.844  1.00  0.00    -0.237 OA
ATOM     71  O   UNL A   1      47.997  37.310  27.674  1.00  0.00    -0.744 OA
ENDBRANCH  64  68
ENDBRANCH  38  61
ENDBRANCH  12  13
ENDBRANCH   5   7
ENDBRANCH   2   3
ENDBRANCH   1   2
BRANCH   1  72
ATOM     72  C   UNL A   1      37.398  21.600  24.465  1.00  0.00     0.118 C 
BRANCH  72  73
ATOM     73  N   UNL A   1      36.741  22.335  25.537  1.00  0.00    -0.352 N 
ATOM     74  C   UNL A   1      35.528  22.973  25.563  1.00  0.00     0.251 C 
ATOM     75  H   UNL A   1      37.248  22.381  26.380  1.00  0.00     0.163 HD
ATOM     76  O   UNL A   1      35.242  23.705  26.506  1.00  0.00    -0.269 OA
BRANCH  74  77
ATOM     77  C   UNL A   1      34.550  22.779  24.474  1.00  0.00     0.041 A 
ATOM     78  C   UNL A   1      34.316  23.825  23.582  1.00  0.00     0.014 A 
ATOM     79  C   UNL A   1      33.804  21.597  24.383  1.00  0.00     0.039 A 
ATOM     80  C   UNL A   1      33.377  23.664  22.569  1.00  0.00     0.003 A 
ATOM     81  C   UNL A   1      32.873  21.410  23.357  1.00  0.00     0.039 A 
ATOM     82  C   UNL A   1      32.671  22.461  22.453  1.00  0.00     0.026 A 
BRANCH  81  83
ATOM     83  N   UNL A   1      32.198  20.179  23.281  1.00  0.00    -0.356 N 
ATOM     84  H   UNL A   1      31.345  20.213  22.792  1.00  0.00     0.167 HD
BRANCH  83  85
ATOM     85  C   UNL A   1      32.529  18.911  23.781  1.00  0.00     0.039 A 
ATOM     86  C   UNL A   1      33.031  17.953  22.889  1.00  0.00     0.033 A 
ATOM     87  C   UNL A   1      32.470  18.596  25.144  1.00  0.00     0.033 A 
ATOM     88  C   UNL A   1      33.503  16.721  23.347  1.00  0.00     0.088 A 
ATOM     89  C   UNL A   1      32.929  17.363  25.619  1.00  0.00     0.088 A 
ATOM     90  C   UNL A   1      33.464  16.436  24.717  1.00  0.00     0.269 A 
BRANCH  90  91
ATOM     91  N   UNL A   1      34.016  15.170  25.208  1.00  0.00     0.062 N 
ATOM     92  O   UNL A   1      35.249  15.073  25.294  1.00  0.00    -0.258 OA
ATOM     93  O   UNL A   1      33.219  14.275  25.526  1.00  0.00    -0.258 OA
ENDBRANCH  90  91
ENDBRANCH  83  85
ENDBRANCH  81  83
ENDBRANCH  74  77
ENDBRANCH  72  73
ENDBRANCH   1  72
TORSDOF 16
ENDMDL
