MODEL 1
REMARK VINA RESULT:      -8.9      0.000      0.000
REMARK SMILES CC(C)Oc1ccc(-c2ccc(/C(=C\c3ccc(S(C)(=O)=O)cc3)C(=O)NCCCNC(=O)c3ccc(-c4c5nc(c(-c6cc(S(=O)(=O)[O-])ccc6F)c6ccc([nH]6)c(-c6cc(S(=O)(=O)[O-])ccc6F)c6nc(c(-c7cc(S(=O)(=O)[O-])ccc7F)c7ccc4[nH]7)C=C6)C=C5)cc3)cc2)cc1
REMARK SMILES IDX 28 1 27 2 25 3 26 4 13 6 14 7 12 8 9 9 10 10 98 11 11 12
REMARK SMILES IDX 97 13 8 14 5 15 6 16 100 17 7 18 99 19 4 20 2 21 1 22 3 23
REMARK SMILES IDX 15 24 16 25 24 26 17 27 23 28 18 29 19 30 20 31 21 32 22 33
REMARK SMILES IDX 29 34 30 35 31 36 32 37 33 39 34 40 35 41 96 42 36 43 95 44
REMARK SMILES IDX 37 45 38 46 39 47 89 48 40 49 94 50 88 51 90 52 41 53 93 54
REMARK SMILES IDX 87 55 86 56 42 58 74 59 54 60 73 61 55 62 58 63 72 64 91 65
REMARK SMILES IDX 56 66 57 67 71 69 92 70 59 71 43 72 44 73 52 74 45 75 51 76
REMARK SMILES IDX 53 77 50 78 46 79 47 80 48 81 49 82 75 83 76 84 84 85 77 86
REMARK SMILES IDX 83 87 85 88 82 89 78 90 79 91 80 92 81 93 60 94 61 95 69 96
REMARK SMILES IDX 62 97 68 98 70 99 67 100 63 101 64 102 65 103 66 104
REMARK H PARENT 27 5 31 38 90 57 58 68
REMARK Flexibility Score: inf
ROOT
ATOM      1  C   UNL A   1      47.290  27.180  25.296  1.00  0.00     0.118 C 
ENDROOT
BRANCH   1   2
ATOM      2  N   UNL A   1      45.927  27.622  25.059  1.00  0.00    -0.352 N 
ATOM      3  C   UNL A   1      44.687  27.122  25.292  1.00  0.00     0.251 C 
ATOM      4  O   UNL A   1      43.776  27.891  24.971  1.00  0.00    -0.269 OA
ATOM      5  H   UNL A   1      45.896  28.504  24.622  1.00  0.00     0.163 HD
BRANCH   3   6
ATOM      6  C   UNL A   1      44.393  25.777  25.948  1.00  0.00     0.047 C 
ATOM      7  C   UNL A   1      43.772  24.813  25.223  1.00  0.00     0.022 C 
BRANCH   6   8
ATOM      8  C   UNL A   1      44.612  25.617  27.436  1.00  0.00    -0.013 A 
ATOM      9  C   UNL A   1      44.734  24.901  30.229  1.00  0.00    -0.018 A 
ATOM     10  C   UNL A   1      45.789  24.624  29.350  1.00  0.00     0.009 A 
ATOM     11  C   UNL A   1      43.683  25.663  29.705  1.00  0.00     0.009 A 
ATOM     12  C   UNL A   1      45.749  25.021  27.999  1.00  0.00     0.009 A 
ATOM     13  C   UNL A   1      43.604  25.973  28.341  1.00  0.00     0.009 A 
BRANCH   9  14
ATOM     14  C   UNL A   1      44.680  24.373  31.616  1.00  0.00    -0.018 A 
ATOM     15  C   UNL A   1      44.571  23.260  34.228  1.00  0.00     0.119 A 
ATOM     16  C   UNL A   1      45.514  24.236  33.914  1.00  0.00     0.047 A 
ATOM     17  C   UNL A   1      43.653  22.869  33.267  1.00  0.00     0.047 A 
ATOM     18  C   UNL A   1      45.569  24.783  32.623  1.00  0.00     0.012 A 
ATOM     19  C   UNL A   1      43.728  23.397  31.975  1.00  0.00     0.012 A 
BRANCH  15  20
ATOM     20  O   UNL A   1      44.521  22.815  35.517  1.00  0.00    -0.491 OA
BRANCH  20  21
ATOM     21  C   UNL A   1      45.650  22.070  36.010  1.00  0.00     0.167 C 
ATOM     22  C   UNL A   1      45.900  22.254  37.504  1.00  0.00     0.052 C 
ATOM     23  C   UNL A   1      45.658  20.600  35.595  1.00  0.00     0.052 C 
ENDBRANCH  20  21
ENDBRANCH  15  20
ENDBRANCH   9  14
ENDBRANCH   6   8
BRANCH   7  24
ATOM     24  C   UNL A   1      43.513  23.416  25.601  1.00  0.00    -0.025 A 
ATOM     25  C   UNL A   1      42.201  23.067  25.968  1.00  0.00     0.009 A 
ATOM     26  C   UNL A   1      44.491  22.420  25.494  1.00  0.00     0.009 A 
ATOM     27  C   UNL A   1      41.848  21.729  26.140  1.00  0.00     0.021 A 
ATOM     28  C   UNL A   1      44.143  21.078  25.671  1.00  0.00     0.021 A 
ATOM     29  C   UNL A   1      42.820  20.739  25.971  1.00  0.00     0.067 A 
BRANCH  29  30
ATOM     30  S   UNL A   1      42.318  19.034  25.996  1.00  0.00     0.175 S 
ATOM     31  C   UNL A   1      42.531  18.544  27.684  1.00  0.00     0.163 C 
ATOM     32  O   UNL A   1      40.901  19.002  25.690  1.00  0.00    -0.224 OA
ATOM     33  O   UNL A   1      43.262  18.281  25.189  1.00  0.00    -0.224 OA
ENDBRANCH  29  30
ENDBRANCH   7  24
ENDBRANCH   3   6
ENDBRANCH   1   2
BRANCH   1  34
ATOM     34  C   UNL A   1      48.095  27.138  23.996  1.00  0.00     0.042 C 
BRANCH  34  35
ATOM     35  C   UNL A   1      49.525  27.662  24.137  1.00  0.00     0.118 C 
BRANCH  35  36
ATOM     36  N   UNL A   1      50.498  26.581  24.204  1.00  0.00    -0.352 N 
ATOM     37  C   UNL A   1      51.069  25.968  25.292  1.00  0.00     0.251 C 
ATOM     38  H   UNL A   1      50.793  26.234  23.331  1.00  0.00     0.163 HD
ATOM     39  O   UNL A   1      52.071  25.278  25.130  1.00  0.00    -0.269 OA
BRANCH  37  40
ATOM     40  C   UNL A   1      50.495  26.140  26.646  1.00  0.00     0.039 A 
ATOM     41  C   UNL A   1      49.699  25.122  27.178  1.00  0.00     0.014 A 
ATOM     42  C   UNL A   1      50.698  27.318  27.371  1.00  0.00     0.014 A 
ATOM     43  C   UNL A   1      49.162  25.257  28.461  1.00  0.00     0.010 A 
ATOM     44  C   UNL A   1      50.217  27.424  28.675  1.00  0.00     0.010 A 
ATOM     45  C   UNL A   1      49.447  26.392  29.236  1.00  0.00    -0.014 A 
BRANCH  45  46
ATOM     46  C   UNL A   1      48.969  26.512  30.639  1.00  0.00     0.031 A 
ATOM     47  C   UNL A   1      49.644  25.741  31.740  1.00  0.00     0.074 A 
ATOM     48  C   UNL A   1      47.879  27.260  30.905  1.00  0.00     0.049 A 
ATOM     49  N   UNL A   1      49.314  25.638  33.002  1.00  0.00    -0.248 NA
ATOM     50  C   UNL A   1      50.832  24.960  31.365  1.00  0.00     0.031 C 
ATOM     51  C   UNL A   1      47.120  28.023  29.912  1.00  0.00     0.029 A 
ATOM     52  N   UNL A   1      47.210  27.488  32.080  1.00  0.00    -0.354 N 
ATOM     53  C   UNL A   1      50.242  24.772  33.570  1.00  0.00     0.074 A 
ATOM     54  C   UNL A   1      51.114  24.336  32.499  1.00  0.00     0.031 C 
ATOM     55  C   UNL A   1      46.099  28.646  30.523  1.00  0.00     0.029 A 
ATOM     56  C   UNL A   1      46.098  28.288  31.937  1.00  0.00     0.049 A 
ATOM     57  H   UNL A   1      47.497  27.115  32.945  1.00  0.00     0.167 HD
ATOM     58  C   UNL A   1      50.364  24.390  34.866  1.00  0.00     0.034 A 
ATOM     59  C   UNL A   1      45.171  28.672  32.836  1.00  0.00     0.034 A 
ATOM     60  C   UNL A   1      49.488  24.842  35.920  1.00  0.00     0.049 A 
ATOM     61  C   UNL A   1      45.308  28.208  34.265  1.00  0.00     0.074 A 
ATOM     62  C   UNL A   1      49.558  24.570  37.276  1.00  0.00     0.029 A 
ATOM     63  N   UNL A   1      48.372  25.649  35.738  1.00  0.00    -0.354 N 
ATOM     64  N   UNL A   1      46.224  27.432  34.795  1.00  0.00    -0.248 NA
ATOM     65  C   UNL A   1      44.290  28.677  35.214  1.00  0.00     0.031 C 
ATOM     66  C   UNL A   1      48.447  25.149  37.899  1.00  0.00     0.029 A 
ATOM     67  C   UNL A   1      47.725  25.852  36.948  1.00  0.00     0.049 A 
ATOM     68  H   UNL A   1      48.082  26.024  34.874  1.00  0.00     0.167 HD
ATOM     69  C   UNL A   1      45.907  27.342  36.148  1.00  0.00     0.074 A 
ATOM     70  C   UNL A   1      44.727  28.156  36.351  1.00  0.00     0.031 C 
ATOM     71  C   UNL A   1      46.536  26.652  37.134  1.00  0.00     0.034 A 
BRANCH  58  72
ATOM     72  C   UNL A   1      51.469  23.415  35.205  1.00  0.00     0.023 A 
ATOM     73  C   UNL A   1      51.266  22.024  35.174  1.00  0.00     0.031 A 
ATOM     74  C   UNL A   1      52.739  23.883  35.588  1.00  0.00     0.131 A 
ATOM     75  C   UNL A   1      52.285  21.156  35.591  1.00  0.00     0.055 A 
ATOM     76  C   UNL A   1      53.778  23.010  35.921  1.00  0.00     0.041 A 
ATOM     77  F   UNL A   1      52.991  25.200  35.657  1.00  0.00    -0.206 F 
ATOM     78  C   UNL A   1      53.549  21.638  35.940  1.00  0.00     0.022 A 
BRANCH  75  79
ATOM     79  S   UNL A   1      51.889  19.400  35.812  1.00  0.00     0.124 S 
ATOM     80  O   UNL A   1      50.918  19.180  34.743  1.00  0.00    -0.237 OA
ATOM     81  O   UNL A   1      53.187  18.760  35.638  1.00  0.00    -0.237 OA
ATOM     82  O   UNL A   1      51.339  19.339  37.165  1.00  0.00    -0.744 OA
ENDBRANCH  75  79
ENDBRANCH  58  72
BRANCH  59  83
ATOM     83  C   UNL A   1      44.019  29.520  32.416  1.00  0.00     0.023 A 
ATOM     84  C   UNL A   1      42.836  28.944  31.928  1.00  0.00     0.031 A 
ATOM     85  C   UNL A   1      44.096  30.923  32.465  1.00  0.00     0.131 A 
ATOM     86  C   UNL A   1      41.795  29.766  31.467  1.00  0.00     0.055 A 
ATOM     87  C   UNL A   1      43.038  31.736  32.056  1.00  0.00     0.041 A 
ATOM     88  F   UNL A   1      45.202  31.528  32.929  1.00  0.00    -0.206 F 
ATOM     89  C   UNL A   1      41.884  31.158  31.541  1.00  0.00     0.022 A 
BRANCH  86  90
ATOM     90  S   UNL A   1      40.353  28.988  30.691  1.00  0.00     0.124 S 
ATOM     91  O   UNL A   1      39.945  28.031  31.714  1.00  0.00    -0.237 OA
ATOM     92  O   UNL A   1      39.466  30.129  30.488  1.00  0.00    -0.237 OA
ATOM     93  O   UNL A   1      40.900  28.401  29.470  1.00  0.00    -0.744 OA
ENDBRANCH  86  90
ENDBRANCH  59  83
BRANCH  71  94
ATOM     94  C   UNL A   1      45.973  26.782  38.528  1.00  0.00     0.023 A 
ATOM     95  C   UNL A   1      46.468  27.731  39.440  1.00  0.00     0.031 A 
ATOM     96  C   UNL A   1      44.932  25.937  38.951  1.00  0.00     0.131 A 
ATOM     97  C   UNL A   1      45.957  27.778  40.745  1.00  0.00     0.055 A 
ATOM     98  C   UNL A   1      44.385  26.030  40.231  1.00  0.00     0.041 A 
ATOM     99  F   UNL A   1      44.424  25.010  38.123  1.00  0.00    -0.206 F 
ATOM    100  C   UNL A   1      44.906  26.946  41.141  1.00  0.00     0.022 A 
BRANCH  97 101
ATOM    101  S   UNL A   1      46.743  28.882  41.950  1.00  0.00     0.124 S 
ATOM    102  O   UNL A   1      47.434  27.936  42.821  1.00  0.00    -0.237 OA
ATOM    103  O   UNL A   1      47.597  29.710  41.105  1.00  0.00    -0.237 OA
ATOM    104  O   UNL A   1      45.615  29.580  42.564  1.00  0.00    -0.744 OA
ENDBRANCH  97 101
ENDBRANCH  71  94
ENDBRANCH  45  46
ENDBRANCH  37  40
ENDBRANCH  35  36
ENDBRANCH  34  35
ENDBRANCH   1  34
TORSDOF 19
ENDMDL
MODEL 2
REMARK VINA RESULT:      -8.8      8.539     14.644
REMARK SMILES CC(C)Oc1ccc(-c2ccc(/C(=C\c3ccc(S(C)(=O)=O)cc3)C(=O)NCCCNC(=O)c3ccc(-c4c5nc(c(-c6cc(S(=O)(=O)[O-])ccc6F)c6ccc([nH]6)c(-c6cc(S(=O)(=O)[O-])ccc6F)c6nc(c(-c7cc(S(=O)(=O)[O-])ccc7F)c7ccc4[nH]7)C=C6)C=C5)cc3)cc2)cc1
REMARK SMILES IDX 28 1 27 2 25 3 26 4 13 6 14 7 12 8 9 9 10 10 98 11 11 12
REMARK SMILES IDX 97 13 8 14 5 15 6 16 100 17 7 18 99 19 4 20 2 21 1 22 3 23
REMARK SMILES IDX 15 24 16 25 24 26 17 27 23 28 18 29 19 30 20 31 21 32 22 33
REMARK SMILES IDX 29 34 30 35 31 36 32 37 33 39 34 40 35 41 96 42 36 43 95 44
REMARK SMILES IDX 37 45 38 46 39 47 89 48 40 49 94 50 88 51 90 52 41 53 93 54
REMARK SMILES IDX 87 55 86 56 42 58 74 59 54 60 73 61 55 62 58 63 72 64 91 65
REMARK SMILES IDX 56 66 57 67 71 69 92 70 59 71 43 72 44 73 52 74 45 75 51 76
REMARK SMILES IDX 53 77 50 78 46 79 47 80 48 81 49 82 75 83 76 84 84 85 77 86
REMARK SMILES IDX 83 87 85 88 82 89 78 90 79 91 80 92 81 93 60 94 61 95 69 96
REMARK SMILES IDX 62 97 68 98 70 99 67 100 63 101 64 102 65 103 66 104
REMARK H PARENT 27 5 31 38 90 57 58 68
REMARK Flexibility Score: inf
ROOT
ATOM      1  C   UNL A   1      43.264  42.316  30.954  1.00  0.00     0.118 C 
ENDROOT
BRANCH   1   2
ATOM      2  N   UNL A   1      41.888  41.977  30.636  1.00  0.00    -0.352 N 
ATOM      3  C   UNL A   1      41.269  41.072  29.836  1.00  0.00     0.251 C 
ATOM      4  O   UNL A   1      40.037  41.098  29.924  1.00  0.00    -0.269 OA
ATOM      5  H   UNL A   1      41.246  42.545  31.121  1.00  0.00     0.163 HD
BRANCH   3   6
ATOM      6  C   UNL A   1      41.979  40.054  28.951  1.00  0.00     0.047 C 
ATOM      7  C   UNL A   1      42.460  38.916  29.512  1.00  0.00     0.022 C 
BRANCH   6   8
ATOM      8  C   UNL A   1      42.308  40.420  27.521  1.00  0.00    -0.013 A 
ATOM      9  C   UNL A   1      42.663  41.538  24.884  1.00  0.00    -0.018 A 
ATOM     10  C   UNL A   1      43.670  41.606  25.855  1.00  0.00     0.009 A 
ATOM     11  C   UNL A   1      41.535  40.781  25.222  1.00  0.00     0.009 A 
ATOM     12  C   UNL A   1      43.514  41.014  27.125  1.00  0.00     0.009 A 
ATOM     13  C   UNL A   1      41.344  40.276  26.514  1.00  0.00     0.009 A 
BRANCH   9  14
ATOM     14  C   UNL A   1      42.736  42.272  23.595  1.00  0.00    -0.018 A 
ATOM     15  C   UNL A   1      42.775  43.719  21.150  1.00  0.00     0.119 A 
ATOM     16  C   UNL A   1      43.886  43.721  21.990  1.00  0.00     0.047 A 
ATOM     17  C   UNL A   1      41.665  42.966  21.495  1.00  0.00     0.047 A 
ATOM     18  C   UNL A   1      43.865  43.008  23.199  1.00  0.00     0.012 A 
ATOM     19  C   UNL A   1      41.638  42.278  22.711  1.00  0.00     0.012 A 
BRANCH  15  20
ATOM     20  O   UNL A   1      42.879  44.374  19.957  1.00  0.00    -0.491 OA
BRANCH  20  21
ATOM     21  C   UNL A   1      42.326  43.731  18.793  1.00  0.00     0.167 C 
ATOM     22  C   UNL A   1      41.004  44.337  18.329  1.00  0.00     0.052 C 
ATOM     23  C   UNL A   1      43.320  43.555  17.646  1.00  0.00     0.052 C 
ENDBRANCH  20  21
ENDBRANCH  15  20
ENDBRANCH   9  14
ENDBRANCH   6   8
BRANCH   7  24
ATOM     24  C   UNL A   1      43.052  37.750  28.840  1.00  0.00    -0.025 A 
ATOM     25  C   UNL A   1      42.229  36.632  28.618  1.00  0.00     0.009 A 
ATOM     26  C   UNL A   1      44.352  37.767  28.322  1.00  0.00     0.009 A 
ATOM     27  C   UNL A   1      42.667  35.581  27.813  1.00  0.00     0.021 A 
ATOM     28  C   UNL A   1      44.797  36.714  27.519  1.00  0.00     0.021 A 
ATOM     29  C   UNL A   1      43.945  35.638  27.251  1.00  0.00     0.067 A 
BRANCH  29  30
ATOM     30  S   UNL A   1      44.418  34.396  26.071  1.00  0.00     0.175 S 
ATOM     31  C   UNL A   1      46.006  34.927  25.497  1.00  0.00     0.163 C 
ATOM     32  O   UNL A   1      44.592  33.156  26.803  1.00  0.00    -0.224 OA
ATOM     33  O   UNL A   1      43.492  34.468  24.955  1.00  0.00    -0.224 OA
ENDBRANCH  29  30
ENDBRANCH   7  24
ENDBRANCH   3   6
ENDBRANCH   1   2
BRANCH   1  34
ATOM     34  C   UNL A   1      43.359  43.065  32.285  1.00  0.00     0.042 C 
BRANCH  34  35
ATOM     35  C   UNL A   1      44.200  42.346  33.341  1.00  0.00     0.118 C 
BRANCH  35  36
ATOM     36  N   UNL A   1      45.613  42.678  33.233  1.00  0.00    -0.352 N 
ATOM     37  C   UNL A   1      46.704  41.865  33.047  1.00  0.00     0.251 C 
ATOM     38  H   UNL A   1      45.819  43.638  33.302  1.00  0.00     0.163 HD
ATOM     39  O   UNL A   1      47.826  42.312  33.267  1.00  0.00    -0.269 OA
BRANCH  37  40
ATOM     40  C   UNL A   1      46.536  40.464  32.598  1.00  0.00     0.039 A 
ATOM     41  C   UNL A   1      46.703  39.431  33.526  1.00  0.00     0.014 A 
ATOM     42  C   UNL A   1      46.266  40.162  31.261  1.00  0.00     0.014 A 
ATOM     43  C   UNL A   1      46.533  38.103  33.127  1.00  0.00     0.010 A 
ATOM     44  C   UNL A   1      46.031  38.842  30.879  1.00  0.00     0.010 A 
ATOM     45  C   UNL A   1      46.158  37.799  31.809  1.00  0.00    -0.014 A 
BRANCH  45  46
ATOM     46  C   UNL A   1      45.874  36.401  31.388  1.00  0.00     0.031 A 
ATOM     47  C   UNL A   1      46.923  35.593  30.673  1.00  0.00     0.074 A 
ATOM     48  C   UNL A   1      44.642  35.889  31.586  1.00  0.00     0.049 A 
ATOM     49  N   UNL A   1      46.831  34.401  30.144  1.00  0.00    -0.248 NA
ATOM     50  C   UNL A   1      48.241  36.224  30.510  1.00  0.00     0.031 C 
ATOM     51  C   UNL A   1      43.533  36.591  32.235  1.00  0.00     0.029 A 
ATOM     52  N   UNL A   1      44.109  34.670  31.248  1.00  0.00    -0.354 N 
ATOM     53  C   UNL A   1      48.072  34.141  29.572  1.00  0.00     0.074 A 
ATOM     54  C   UNL A   1      48.879  35.327  29.773  1.00  0.00     0.031 C 
ATOM     55  C   UNL A   1      42.458  35.787  32.261  1.00  0.00     0.029 A 
ATOM     56  C   UNL A   1      42.782  34.534  31.588  1.00  0.00     0.049 A 
ATOM     57  H   UNL A   1      44.628  33.960  30.805  1.00  0.00     0.167 HD
ATOM     58  C   UNL A   1      48.502  33.013  28.952  1.00  0.00     0.034 A 
ATOM     59  C   UNL A   1      41.917  33.525  31.362  1.00  0.00     0.034 A 
ATOM     60  C   UNL A   1      47.683  31.839  28.768  1.00  0.00     0.049 A 
ATOM     61  C   UNL A   1      42.408  32.295  30.641  1.00  0.00     0.074 A 
ATOM     62  C   UNL A   1      48.034  30.621  28.212  1.00  0.00     0.029 A 
ATOM     63  N   UNL A   1      46.342  31.738  29.121  1.00  0.00    -0.354 N 
ATOM     64  N   UNL A   1      43.601  32.045  30.154  1.00  0.00    -0.248 NA
ATOM     65  C   UNL A   1      41.437  31.211  30.446  1.00  0.00     0.031 C 
ATOM     66  C   UNL A   1      46.893  29.814  28.162  1.00  0.00     0.029 A 
ATOM     67  C   UNL A   1      45.845  30.495  28.760  1.00  0.00     0.049 A 
ATOM     68  H   UNL A   1      45.821  32.447  29.564  1.00  0.00     0.167 HD
ATOM     69  C   UNL A   1      43.530  30.762  29.619  1.00  0.00     0.074 A 
ATOM     70  C   UNL A   1      42.183  30.287  29.858  1.00  0.00     0.031 C 
ATOM     71  C   UNL A   1      44.492  30.040  28.989  1.00  0.00     0.034 A 
BRANCH  58  72
ATOM     72  C   UNL A   1      49.911  33.011  28.405  1.00  0.00     0.023 A 
ATOM     73  C   UNL A   1      50.194  33.399  27.083  1.00  0.00     0.031 A 
ATOM     74  C   UNL A   1      50.987  32.595  29.210  1.00  0.00     0.131 A 
ATOM     75  C   UNL A   1      51.500  33.288  26.584  1.00  0.00     0.055 A 
ATOM     76  C   UNL A   1      52.299  32.567  28.732  1.00  0.00     0.041 A 
ATOM     77  F   UNL A   1      50.780  32.194  30.474  1.00  0.00    -0.206 F 
ATOM     78  C   UNL A   1      52.559  32.900  27.406  1.00  0.00     0.022 A 
BRANCH  75  79
ATOM     79  S   UNL A   1      51.767  33.518  24.804  1.00  0.00     0.124 S 
ATOM     80  O   UNL A   1      50.724  34.485  24.472  1.00  0.00    -0.237 OA
ATOM     81  O   UNL A   1      53.137  34.013  24.753  1.00  0.00    -0.237 OA
ATOM     82  O   UNL A   1      51.566  32.180  24.250  1.00  0.00    -0.744 OA
ENDBRANCH  75  79
ENDBRANCH  58  72
BRANCH  59  83
ATOM     83  C   UNL A   1      40.496  33.640  31.798  1.00  0.00     0.023 A 
ATOM     84  C   UNL A   1      40.077  33.139  33.041  1.00  0.00     0.031 A 
ATOM     85  C   UNL A   1      39.527  34.224  30.963  1.00  0.00     0.131 A 
ATOM     86  C   UNL A   1      38.719  33.190  33.394  1.00  0.00     0.055 A 
ATOM     87  C   UNL A   1      38.187  34.322  31.342  1.00  0.00     0.041 A 
ATOM     88  F   UNL A   1      39.874  34.726  29.766  1.00  0.00    -0.206 F 
ATOM     89  C   UNL A   1      37.774  33.791  32.559  1.00  0.00     0.022 A 
BRANCH  86  90
ATOM     90  S   UNL A   1      38.191  32.384  34.930  1.00  0.00     0.124 S 
ATOM     91  O   UNL A   1      38.531  30.991  34.667  1.00  0.00    -0.237 OA
ATOM     92  O   UNL A   1      39.008  33.068  35.927  1.00  0.00    -0.237 OA
ATOM     93  O   UNL A   1      36.760  32.677  34.992  1.00  0.00    -0.744 OA
ENDBRANCH  86  90
ENDBRANCH  59  83
BRANCH  71  94
ATOM     94  C   UNL A   1      44.124  28.645  28.548  1.00  0.00     0.023 A 
ATOM     95  C   UNL A   1      43.606  28.386  27.267  1.00  0.00     0.031 A 
ATOM     96  C   UNL A   1      44.286  27.560  29.428  1.00  0.00     0.131 A 
ATOM     97  C   UNL A   1      43.220  27.083  26.919  1.00  0.00     0.055 A 
ATOM     98  C   UNL A   1      43.959  26.256  29.055  1.00  0.00     0.041 A 
ATOM     99  F   UNL A   1      44.772  27.749  30.665  1.00  0.00    -0.206 F 
ATOM    100  C   UNL A   1      43.410  26.013  27.799  1.00  0.00     0.022 A 
BRANCH  97 101
ATOM    101  S   UNL A   1      42.384  26.816  25.332  1.00  0.00     0.124 S 
ATOM    102  O   UNL A   1      42.621  28.083  24.649  1.00  0.00    -0.237 OA
ATOM    103  O   UNL A   1      43.094  25.660  24.796  1.00  0.00    -0.237 OA
ATOM    104  O   UNL A   1      40.994  26.568  25.714  1.00  0.00    -0.744 OA
ENDBRANCH  97 101
ENDBRANCH  71  94
ENDBRANCH  45  46
ENDBRANCH  37  40
ENDBRANCH  35  36
ENDBRANCH  34  35
ENDBRANCH   1  34
TORSDOF 19
ENDMDL
MODEL 3
REMARK VINA RESULT:      -8.6      5.374     12.379
REMARK SMILES CC(C)Oc1ccc(-c2ccc(/C(=C\c3ccc(S(C)(=O)=O)cc3)C(=O)NCCCNC(=O)c3ccc(-c4c5nc(c(-c6cc(S(=O)(=O)[O-])ccc6F)c6ccc([nH]6)c(-c6cc(S(=O)(=O)[O-])ccc6F)c6nc(c(-c7cc(S(=O)(=O)[O-])ccc7F)c7ccc4[nH]7)C=C6)C=C5)cc3)cc2)cc1
REMARK SMILES IDX 28 1 27 2 25 3 26 4 13 6 14 7 12 8 9 9 10 10 98 11 11 12
REMARK SMILES IDX 97 13 8 14 5 15 6 16 100 17 7 18 99 19 4 20 2 21 1 22 3 23
REMARK SMILES IDX 15 24 16 25 24 26 17 27 23 28 18 29 19 30 20 31 21 32 22 33
REMARK SMILES IDX 29 34 30 35 31 36 32 37 33 39 34 40 35 41 96 42 36 43 95 44
REMARK SMILES IDX 37 45 38 46 39 47 89 48 40 49 94 50 88 51 90 52 41 53 93 54
REMARK SMILES IDX 87 55 86 56 42 58 74 59 54 60 73 61 55 62 58 63 72 64 91 65
REMARK SMILES IDX 56 66 57 67 71 69 92 70 59 71 43 72 44 73 52 74 45 75 51 76
REMARK SMILES IDX 53 77 50 78 46 79 47 80 48 81 49 82 75 83 76 84 84 85 77 86
REMARK SMILES IDX 83 87 85 88 82 89 78 90 79 91 80 92 81 93 60 94 61 95 69 96
REMARK SMILES IDX 62 97 68 98 70 99 67 100 63 101 64 102 65 103 66 104
REMARK H PARENT 27 5 31 38 90 57 58 68
REMARK Flexibility Score: inf
ROOT
ATOM      1  C   UNL A   1      35.224  33.094  33.662  1.00  0.00     0.118 C 
ENDROOT
BRANCH   1   2
ATOM      2  N   UNL A   1      36.382  33.970  33.666  1.00  0.00    -0.352 N 
ATOM      3  C   UNL A   1      37.483  34.123  34.446  1.00  0.00     0.251 C 
ATOM      4  O   UNL A   1      38.266  34.983  34.030  1.00  0.00    -0.269 OA
ATOM      5  H   UNL A   1      36.365  34.610  32.918  1.00  0.00     0.163 HD
BRANCH   3   6
ATOM      6  C   UNL A   1      37.803  33.293  35.685  1.00  0.00     0.047 C 
ATOM      7  C   UNL A   1      37.393  33.739  36.899  1.00  0.00     0.022 C 
BRANCH   6   8
ATOM      8  C   UNL A   1      38.736  32.109  35.560  1.00  0.00    -0.013 A 
ATOM      9  C   UNL A   1      40.673  30.077  34.895  1.00  0.00    -0.018 A 
ATOM     10  C   UNL A   1      40.929  31.048  35.872  1.00  0.00     0.009 A 
ATOM     11  C   UNL A   1      39.379  30.069  34.362  1.00  0.00     0.009 A 
ATOM     12  C   UNL A   1      39.962  32.007  36.232  1.00  0.00     0.009 A 
ATOM     13  C   UNL A   1      38.454  31.080  34.653  1.00  0.00     0.009 A 
BRANCH   9  14
ATOM     14  C   UNL A   1      41.715  29.147  34.391  1.00  0.00    -0.018 A 
ATOM     15  C   UNL A   1      43.719  27.326  33.528  1.00  0.00     0.119 A 
ATOM     16  C   UNL A   1      42.539  27.475  32.802  1.00  0.00     0.047 A 
ATOM     17  C   UNL A   1      43.928  28.109  34.652  1.00  0.00     0.047 A 
ATOM     18  C   UNL A   1      41.549  28.373  33.230  1.00  0.00     0.012 A 
ATOM     19  C   UNL A   1      42.929  28.983  35.089  1.00  0.00     0.012 A 
BRANCH  15  20
ATOM     20  O   UNL A   1      44.673  26.489  33.026  1.00  0.00    -0.491 OA
BRANCH  20  21
ATOM     21  C   UNL A   1      44.520  25.079  33.273  1.00  0.00     0.167 C 
ATOM     22  C   UNL A   1      43.509  24.756  34.369  1.00  0.00     0.052 C 
ATOM     23  C   UNL A   1      44.300  24.245  32.012  1.00  0.00     0.052 C 
ENDBRANCH  20  21
ENDBRANCH  15  20
ENDBRANCH   9  14
ENDBRANCH   6   8
BRANCH   7  24
ATOM     24  C   UNL A   1      37.471  33.048  38.195  1.00  0.00    -0.025 A 
ATOM     25  C   UNL A   1      38.407  33.516  39.133  1.00  0.00     0.009 A 
ATOM     26  C   UNL A   1      36.576  32.035  38.555  1.00  0.00     0.009 A 
ATOM     27  C   UNL A   1      38.392  33.039  40.444  1.00  0.00     0.021 A 
ATOM     28  C   UNL A   1      36.560  31.550  39.866  1.00  0.00     0.021 A 
ATOM     29  C   UNL A   1      37.454  32.070  40.808  1.00  0.00     0.067 A 
BRANCH  29  30
ATOM     30  S   UNL A   1      37.311  31.616  42.520  1.00  0.00     0.175 S 
ATOM     31  C   UNL A   1      35.566  31.585  42.816  1.00  0.00     0.163 C 
ATOM     32  O   UNL A   1      37.816  30.262  42.645  1.00  0.00    -0.224 OA
ATOM     33  O   UNL A   1      37.880  32.691  43.314  1.00  0.00    -0.224 OA
ENDBRANCH  29  30
ENDBRANCH   7  24
ENDBRANCH   3   6
ENDBRANCH   1   2
BRANCH   1  34
ATOM     34  C   UNL A   1      34.049  33.731  32.917  1.00  0.00     0.042 C 
BRANCH  34  35
ATOM     35  C   UNL A   1      34.456  34.490  31.653  1.00  0.00     0.118 C 
BRANCH  35  36
ATOM     36  N   UNL A   1      33.886  33.898  30.452  1.00  0.00    -0.352 N 
ATOM     37  C   UNL A   1      34.482  33.160  29.458  1.00  0.00     0.251 C 
ATOM     38  H   UNL A   1      32.921  34.049  30.333  1.00  0.00     0.163 HD
ATOM     39  O   UNL A   1      33.887  32.998  28.397  1.00  0.00    -0.269 OA
BRANCH  37  40
ATOM     40  C   UNL A   1      35.827  32.573  29.654  1.00  0.00     0.039 A 
ATOM     41  C   UNL A   1      36.908  33.108  28.947  1.00  0.00     0.014 A 
ATOM     42  C   UNL A   1      36.018  31.469  30.490  1.00  0.00     0.014 A 
ATOM     43  C   UNL A   1      38.189  32.579  29.130  1.00  0.00     0.010 A 
ATOM     44  C   UNL A   1      37.305  30.986  30.722  1.00  0.00     0.010 A 
ATOM     45  C   UNL A   1      38.405  31.539  30.047  1.00  0.00    -0.014 A 
BRANCH  45  46
ATOM     46  C   UNL A   1      39.773  31.029  30.332  1.00  0.00     0.031 A 
ATOM     47  C   UNL A   1      40.657  31.736  31.323  1.00  0.00     0.074 A 
ATOM     48  C   UNL A   1      40.242  29.972  29.638  1.00  0.00     0.049 A 
ATOM     49  N   UNL A   1      41.906  31.503  31.631  1.00  0.00    -0.248 NA
ATOM     50  C   UNL A   1      40.062  32.872  32.043  1.00  0.00     0.031 C 
ATOM     51  C   UNL A   1      39.489  29.229  28.626  1.00  0.00     0.029 A 
ATOM     52  N   UNL A   1      41.464  29.350  29.665  1.00  0.00    -0.354 N 
ATOM     53  C   UNL A   1      42.254  32.470  32.569  1.00  0.00     0.074 A 
ATOM     54  C   UNL A   1      41.097  33.324  32.734  1.00  0.00     0.031 C 
ATOM     55  C   UNL A   1      40.260  28.243  28.139  1.00  0.00     0.029 A 
ATOM     56  C   UNL A   1      41.577  28.314  28.764  1.00  0.00     0.049 A 
ATOM     57  H   UNL A   1      42.192  29.618  30.271  1.00  0.00     0.167 HD
ATOM     58  C   UNL A   1      43.425  32.620  33.239  1.00  0.00     0.034 A 
ATOM     59  C   UNL A   1      42.626  27.526  28.460  1.00  0.00     0.034 A 
ATOM     60  C   UNL A   1      44.565  31.752  33.064  1.00  0.00     0.049 A 
ATOM     61  C   UNL A   1      43.927  27.732  29.193  1.00  0.00     0.074 A 
ATOM     62  C   UNL A   1      45.776  31.772  33.735  1.00  0.00     0.029 A 
ATOM     63  N   UNL A   1      44.644  30.716  32.141  1.00  0.00    -0.354 N 
ATOM     64  N   UNL A   1      44.222  28.617  30.117  1.00  0.00    -0.248 NA
ATOM     65  C   UNL A   1      45.033  26.829  28.848  1.00  0.00     0.031 C 
ATOM     66  C   UNL A   1      46.609  30.801  33.170  1.00  0.00     0.029 A 
ATOM     67  C   UNL A   1      45.893  30.118  32.199  1.00  0.00     0.049 A 
ATOM     68  H   UNL A   1      43.917  30.445  31.534  1.00  0.00     0.167 HD
ATOM     69  C   UNL A   1      45.541  28.359  30.482  1.00  0.00     0.074 A 
ATOM     70  C   UNL A   1      45.975  27.226  29.691  1.00  0.00     0.031 C 
ATOM     71  C   UNL A   1      46.321  28.998  31.391  1.00  0.00     0.034 A 
BRANCH  58  72
ATOM     72  C   UNL A   1      43.534  33.780  34.201  1.00  0.00     0.023 A 
ATOM     73  C   UNL A   1      43.232  33.643  35.567  1.00  0.00     0.031 A 
ATOM     74  C   UNL A   1      43.926  35.051  33.742  1.00  0.00     0.131 A 
ATOM     75  C   UNL A   1      43.250  34.766  36.407  1.00  0.00     0.055 A 
ATOM     76  C   UNL A   1      44.024  36.149  34.601  1.00  0.00     0.041 A 
ATOM     77  F   UNL A   1      44.209  35.253  32.445  1.00  0.00    -0.206 F 
ATOM     78  C   UNL A   1      43.669  36.013  35.939  1.00  0.00     0.022 A 
BRANCH  75  79
ATOM     79  S   UNL A   1      42.578  34.603  38.083  1.00  0.00     0.124 S 
ATOM     80  O   UNL A   1      42.575  33.153  38.261  1.00  0.00    -0.237 OA
ATOM     81  O   UNL A   1      43.544  35.343  38.885  1.00  0.00    -0.237 OA
ATOM     82  O   UNL A   1      41.253  35.213  37.983  1.00  0.00    -0.744 OA
ENDBRANCH  75  79
ENDBRANCH  58  72
BRANCH  59  83
ATOM     83  C   UNL A   1      42.505  26.486  27.397  1.00  0.00     0.023 A 
ATOM     84  C   UNL A   1      42.067  25.188  27.701  1.00  0.00     0.031 A 
ATOM     85  C   UNL A   1      42.857  26.768  26.065  1.00  0.00     0.131 A 
ATOM     86  C   UNL A   1      42.035  24.208  26.697  1.00  0.00     0.055 A 
ATOM     87  C   UNL A   1      42.771  25.804  25.059  1.00  0.00     0.041 A 
ATOM     88  F   UNL A   1      43.275  27.996  25.717  1.00  0.00    -0.206 F 
ATOM     89  C   UNL A   1      42.371  24.511  25.376  1.00  0.00     0.022 A 
BRANCH  86  90
ATOM     90  S   UNL A   1      41.625  22.503  27.161  1.00  0.00     0.124 S 
ATOM     91  O   UNL A   1      40.246  22.643  27.617  1.00  0.00    -0.237 OA
ATOM     92  O   UNL A   1      41.815  21.792  25.901  1.00  0.00    -0.237 OA
ATOM     93  O   UNL A   1      42.599  22.191  28.204  1.00  0.00    -0.744 OA
ENDBRANCH  86  90
ENDBRANCH  59  83
BRANCH  71  94
ATOM     94  C   UNL A   1      47.714  28.457  31.599  1.00  0.00     0.023 A 
ATOM     95  C   UNL A   1      47.968  27.387  32.475  1.00  0.00     0.031 A 
ATOM     96  C   UNL A   1      48.803  29.027  30.916  1.00  0.00     0.131 A 
ATOM     97  C   UNL A   1      49.286  26.954  32.685  1.00  0.00     0.055 A 
ATOM     98  C   UNL A   1      50.104  28.552  31.082  1.00  0.00     0.041 A 
ATOM     99  F   UNL A   1      48.618  30.054  30.071  1.00  0.00    -0.206 F 
ATOM    100  C   UNL A   1      50.354  27.518  31.980  1.00  0.00     0.022 A 
BRANCH  97 101
ATOM    101  S   UNL A   1      49.600  25.702  33.959  1.00  0.00     0.124 S 
ATOM    102  O   UNL A   1      50.335  26.468  34.960  1.00  0.00    -0.237 OA
ATOM    103  O   UNL A   1      48.251  25.292  34.333  1.00  0.00    -0.237 OA
ATOM    104  O   UNL A   1      50.385  24.688  33.256  1.00  0.00    -0.744 OA
ENDBRANCH  97 101
ENDBRANCH  71  94
ENDBRANCH  45  46
ENDBRANCH  37  40
ENDBRANCH  35  36
ENDBRANCH  34  35
ENDBRANCH   1  34
TORSDOF 19
ENDMDL
