MODEL 1
REMARK VINA RESULT:     -11.7      0.000      0.000
REMARK SMILES CC(C)[C@H](C)CNC(=O)N1CC(n2cc(C(=O)NCCCNC(=O)c3ccc(-c4c5nc(c(-c6cc(S(=O)(=O)[O-])ccc6F)c6ccc([nH]6)c(-c6cc(S(=O)(=O)[O-])ccc6F)c6nc(c(-c7cc(S(=O)(=O)[O-])ccc7F)c7ccc4[nH]7)C=C6)C=C5)cc3)nn2)C1
REMARK SMILES IDX 19 1 18 2 16 3 17 4 15 6 13 7 14 8 89 9 88 10 12 11 7 12
REMARK SMILES IDX 8 13 9 15 10 16 11 17 90 18 6 19 4 20 5 21 2 22 1 23 3 24
REMARK SMILES IDX 20 25 21 26 22 27 23 28 24 30 25 31 26 32 87 33 27 34 86 35
REMARK SMILES IDX 28 36 29 37 30 38 80 39 31 40 85 41 79 42 81 43 32 44 84 45
REMARK SMILES IDX 78 46 77 47 33 49 65 50 45 51 64 52 46 53 49 54 63 55 82 56
REMARK SMILES IDX 47 57 48 58 62 60 83 61 50 62 34 63 35 64 43 65 36 66 42 67
REMARK SMILES IDX 44 68 41 69 37 70 38 71 39 72 40 73 66 74 67 75 75 76 68 77
REMARK SMILES IDX 74 78 76 79 73 80 69 81 70 82 71 83 72 84 51 85 52 86 60 87
REMARK SMILES IDX 53 88 59 89 61 90 58 91 54 92 55 93 56 94 57 95
REMARK H PARENT 18 5 7 14 22 29 81 48 49 59
REMARK Flexibility Score: inf
ROOT
ATOM      1  C   UNL A   1      46.038  32.327  26.750  1.00  0.00     0.118 C 
ENDROOT
BRANCH   1   2
ATOM      2  N   UNL A   1      47.047  31.552  27.456  1.00  0.00    -0.351 N 
ATOM      3  C   UNL A   1      47.397  30.224  27.332  1.00  0.00     0.273 C 
ATOM      4  O   UNL A   1      48.426  29.846  27.887  1.00  0.00    -0.267 OA
ATOM      5  H   UNL A   1      47.563  32.057  28.126  1.00  0.00     0.163 HD
BRANCH   3   6
ATOM      6  C   UNL A   1      46.575  29.320  26.536  1.00  0.00     0.170 A 
ATOM      7  N   UNL A   1      45.091  27.945  25.754  1.00  0.00    -0.245 N 
ATOM      8  C   UNL A   1      45.570  28.458  26.925  1.00  0.00     0.145 A 
ATOM      9  N   UNL A   1      45.791  28.390  24.704  1.00  0.00    -0.066 NA
ATOM     10  N   UNL A   1      46.729  29.204  25.170  1.00  0.00    -0.125 NA
BRANCH   7  11
ATOM     11  C   UNL A   1      43.902  27.159  25.682  1.00  0.00     0.148 C 
ATOM     12  N   UNL A   1      42.434  23.249  25.371  1.00  0.00    -0.338 N 
ATOM     13  C   UNL A   1      42.324  24.356  26.150  1.00  0.00     0.317 C 
ATOM     14  H   UNL A   1      41.582  22.808  25.152  1.00  0.00     0.165 HD
ATOM     15  O   UNL A   1      41.296  24.506  26.808  1.00  0.00    -0.249 OA
ATOM     16  N   UNL A   1      43.341  25.251  26.180  1.00  0.00    -0.320 N 
ATOM     17  C   UNL A   1      43.452  26.472  26.977  1.00  0.00     0.150 C 
ATOM     18  C   UNL A   1      44.229  25.749  25.146  1.00  0.00     0.150 C 
BRANCH  12  19
ATOM     19  C   UNL A   1      43.617  22.614  24.808  1.00  0.00     0.121 C 
BRANCH  19  20
ATOM     20  C   UNL A   1      43.963  21.295  25.528  1.00  0.00     0.008 C 
ATOM     21  C   UNL A   1      42.681  20.642  26.078  1.00  0.00     0.010 C 
BRANCH  20  22
ATOM     22  C   UNL A   1      44.733  20.242  24.664  1.00  0.00    -0.013 C 
ATOM     23  C   UNL A   1      46.247  20.180  24.880  1.00  0.00     0.008 C 
ATOM     24  C   UNL A   1      44.137  18.845  24.885  1.00  0.00     0.008 C 
ENDBRANCH  20  22
ENDBRANCH  19  20
ENDBRANCH  12  19
ENDBRANCH   7  11
ENDBRANCH   3   6
ENDBRANCH   1   2
BRANCH   1  25
ATOM     25  C   UNL A   1      46.573  33.669  26.237  1.00  0.00     0.042 C 
BRANCH  25  26
ATOM     26  C   UNL A   1      45.466  34.564  25.705  1.00  0.00     0.118 C 
BRANCH  26  27
ATOM     27  N   UNL A   1      45.502  35.914  26.281  1.00  0.00    -0.352 N 
ATOM     28  C   UNL A   1      44.604  36.500  27.168  1.00  0.00     0.251 C 
ATOM     29  H   UNL A   1      46.260  36.477  26.005  1.00  0.00     0.163 HD
ATOM     30  O   UNL A   1      44.552  37.710  27.283  1.00  0.00    -0.269 OA
BRANCH  28  31
ATOM     31  C   UNL A   1      43.717  35.611  27.944  1.00  0.00     0.039 A 
ATOM     32  C   UNL A   1      44.205  34.614  28.792  1.00  0.00     0.014 A 
ATOM     33  C   UNL A   1      42.356  35.865  27.862  1.00  0.00     0.014 A 
ATOM     34  C   UNL A   1      43.306  33.953  29.631  1.00  0.00     0.010 A 
ATOM     35  C   UNL A   1      41.530  35.394  28.842  1.00  0.00     0.010 A 
ATOM     36  C   UNL A   1      41.966  34.373  29.672  1.00  0.00    -0.014 A 
BRANCH  36  37
ATOM     37  C   UNL A   1      41.009  33.846  30.645  1.00  0.00     0.031 A 
ATOM     38  C   UNL A   1      41.491  33.879  32.047  1.00  0.00     0.074 A 
ATOM     39  C   UNL A   1      39.712  33.600  30.338  1.00  0.00     0.049 A 
ATOM     40  N   UNL A   1      41.899  32.885  32.764  1.00  0.00    -0.248 NA
ATOM     41  C   UNL A   1      41.728  35.189  32.676  1.00  0.00     0.031 C 
ATOM     42  C   UNL A   1      39.040  33.831  29.048  1.00  0.00     0.029 A 
ATOM     43  N   UNL A   1      38.679  33.205  31.136  1.00  0.00    -0.354 N 
ATOM     44  C   UNL A   1      42.126  33.413  34.031  1.00  0.00     0.074 A 
ATOM     45  C   UNL A   1      42.278  34.828  33.837  1.00  0.00     0.031 C 
ATOM     46  C   UNL A   1      37.702  33.825  29.214  1.00  0.00     0.029 A 
ATOM     47  C   UNL A   1      37.419  33.366  30.560  1.00  0.00     0.049 A 
ATOM     48  H   UNL A   1      38.810  32.838  32.040  1.00  0.00     0.167 HD
ATOM     49  C   UNL A   1      41.806  32.689  35.141  1.00  0.00     0.034 A 
ATOM     50  C   UNL A   1      36.208  33.095  31.110  1.00  0.00     0.034 A 
ATOM     51  C   UNL A   1      41.520  31.318  34.773  1.00  0.00     0.049 A 
ATOM     52  C   UNL A   1      36.441  32.065  32.145  1.00  0.00     0.074 A 
ATOM     53  C   UNL A   1      42.237  30.214  34.367  1.00  0.00     0.029 A 
ATOM     54  N   UNL A   1      40.208  31.097  34.438  1.00  0.00    -0.354 N 
ATOM     55  N   UNL A   1      36.918  30.882  31.863  1.00  0.00    -0.248 NA
ATOM     56  C   UNL A   1      36.535  32.453  33.546  1.00  0.00     0.031 C 
ATOM     57  C   UNL A   1      41.337  29.427  33.583  1.00  0.00     0.029 A 
ATOM     58  C   UNL A   1      40.086  30.039  33.575  1.00  0.00     0.049 A 
ATOM     59  H   UNL A   1      39.450  31.628  34.775  1.00  0.00     0.167 HD
ATOM     60  C   UNL A   1      37.752  30.586  32.923  1.00  0.00     0.074 A 
ATOM     61  C   UNL A   1      37.335  31.481  33.996  1.00  0.00     0.031 C 
ATOM     62  C   UNL A   1      38.908  29.885  32.736  1.00  0.00     0.034 A 
BRANCH  49  63
ATOM     63  C   UNL A   1      41.247  33.251  36.444  1.00  0.00     0.023 A 
ATOM     64  C   UNL A   1      41.942  32.922  37.630  1.00  0.00     0.031 A 
ATOM     65  C   UNL A   1      39.961  33.806  36.632  1.00  0.00     0.131 A 
ATOM     66  C   UNL A   1      41.334  33.048  38.892  1.00  0.00     0.055 A 
ATOM     67  C   UNL A   1      39.379  33.972  37.892  1.00  0.00     0.041 A 
ATOM     68  F   UNL A   1      39.156  34.142  35.619  1.00  0.00    -0.206 F 
ATOM     69  C   UNL A   1      40.050  33.564  39.029  1.00  0.00     0.022 A 
BRANCH  66  70
ATOM     70  S   UNL A   1      42.189  32.378  40.343  1.00  0.00     0.124 S 
ATOM     71  O   UNL A   1      42.706  33.587  40.974  1.00  0.00    -0.237 OA
ATOM     72  O   UNL A   1      41.102  31.698  41.041  1.00  0.00    -0.237 OA
ATOM     73  O   UNL A   1      43.200  31.497  39.761  1.00  0.00    -0.744 OA
ENDBRANCH  66  70
ENDBRANCH  49  63
BRANCH  50  74
ATOM     74  C   UNL A   1      34.960  33.891  30.979  1.00  0.00     0.023 A 
ATOM     75  C   UNL A   1      34.566  34.868  31.917  1.00  0.00     0.031 A 
ATOM     76  C   UNL A   1      34.255  33.860  29.755  1.00  0.00     0.131 A 
ATOM     77  C   UNL A   1      33.524  35.773  31.603  1.00  0.00     0.055 A 
ATOM     78  C   UNL A   1      33.231  34.759  29.450  1.00  0.00     0.041 A 
ATOM     79  F   UNL A   1      34.601  33.005  28.779  1.00  0.00    -0.206 F 
ATOM     80  C   UNL A   1      32.869  35.730  30.371  1.00  0.00     0.022 A 
BRANCH  77  81
ATOM     81  S   UNL A   1      33.058  37.087  32.780  1.00  0.00     0.124 S 
ATOM     82  O   UNL A   1      31.677  36.743  33.098  1.00  0.00    -0.237 OA
ATOM     83  O   UNL A   1      34.034  36.909  33.848  1.00  0.00    -0.237 OA
ATOM     84  O   UNL A   1      33.220  38.316  32.001  1.00  0.00    -0.744 OA
ENDBRANCH  77  81
ENDBRANCH  50  74
BRANCH  62  85
ATOM     85  C   UNL A   1      39.000  28.987  31.526  1.00  0.00     0.023 A 
ATOM     86  C   UNL A   1      39.498  29.363  30.259  1.00  0.00     0.031 A 
ATOM     87  C   UNL A   1      38.602  27.651  31.704  1.00  0.00     0.131 A 
ATOM     88  C   UNL A   1      39.580  28.406  29.227  1.00  0.00     0.055 A 
ATOM     89  C   UNL A   1      38.701  26.704  30.688  1.00  0.00     0.041 A 
ATOM     90  F   UNL A   1      38.132  27.236  32.892  1.00  0.00    -0.206 F 
ATOM     91  C   UNL A   1      39.187  27.079  29.442  1.00  0.00     0.022 A 
BRANCH  88  92
ATOM     92  S   UNL A   1      40.187  28.869  27.571  1.00  0.00     0.124 S 
ATOM     93  O   UNL A   1      41.428  29.581  27.850  1.00  0.00    -0.237 OA
ATOM     94  O   UNL A   1      40.327  27.575  26.909  1.00  0.00    -0.237 OA
ATOM     95  O   UNL A   1      39.113  29.709  27.035  1.00  0.00    -0.744 OA
ENDBRANCH  88  92
ENDBRANCH  62  85
ENDBRANCH  36  37
ENDBRANCH  28  31
ENDBRANCH  26  27
ENDBRANCH  25  26
ENDBRANCH   1  25
TORSDOF 17
ENDMDL
MODEL 2
REMARK VINA RESULT:     -11.6      5.291     12.738
REMARK SMILES CC(C)[C@H](C)CNC(=O)N1CC(n2cc(C(=O)NCCCNC(=O)c3ccc(-c4c5nc(c(-c6cc(S(=O)(=O)[O-])ccc6F)c6ccc([nH]6)c(-c6cc(S(=O)(=O)[O-])ccc6F)c6nc(c(-c7cc(S(=O)(=O)[O-])ccc7F)c7ccc4[nH]7)C=C6)C=C5)cc3)nn2)C1
REMARK SMILES IDX 19 1 18 2 16 3 17 4 15 6 13 7 14 8 89 9 88 10 12 11 7 12
REMARK SMILES IDX 8 13 9 15 10 16 11 17 90 18 6 19 4 20 5 21 2 22 1 23 3 24
REMARK SMILES IDX 20 25 21 26 22 27 23 28 24 30 25 31 26 32 87 33 27 34 86 35
REMARK SMILES IDX 28 36 29 37 30 38 80 39 31 40 85 41 79 42 81 43 32 44 84 45
REMARK SMILES IDX 78 46 77 47 33 49 65 50 45 51 64 52 46 53 49 54 63 55 82 56
REMARK SMILES IDX 47 57 48 58 62 60 83 61 50 62 34 63 35 64 43 65 36 66 42 67
REMARK SMILES IDX 44 68 41 69 37 70 38 71 39 72 40 73 66 74 67 75 75 76 68 77
REMARK SMILES IDX 74 78 76 79 73 80 69 81 70 82 71 83 72 84 51 85 52 86 60 87
REMARK SMILES IDX 53 88 59 89 61 90 58 91 54 92 55 93 56 94 57 95
REMARK H PARENT 18 5 7 14 22 29 81 48 49 59
REMARK Flexibility Score: inf
ROOT
ATOM      1  C   UNL A   1      34.944  33.497  30.906  1.00  0.00     0.118 C 
ENDROOT
BRANCH   1   2
ATOM      2  N   UNL A   1      34.830  34.748  30.171  1.00  0.00    -0.351 N 
ATOM      3  C   UNL A   1      34.085  35.058  29.052  1.00  0.00     0.273 C 
ATOM      4  O   UNL A   1      33.987  36.241  28.736  1.00  0.00    -0.267 OA
ATOM      5  H   UNL A   1      35.368  35.490  30.530  1.00  0.00     0.163 HD
BRANCH   3   6
ATOM      6  C   UNL A   1      33.417  34.002  28.300  1.00  0.00     0.170 A 
ATOM      7  N   UNL A   1      32.758  32.149  27.383  1.00  0.00    -0.245 N 
ATOM      8  C   UNL A   1      33.816  32.706  28.044  1.00  0.00     0.145 A 
ATOM      9  N   UNL A   1      31.790  33.049  27.169  1.00  0.00    -0.066 NA
ATOM     10  N   UNL A   1      32.195  34.199  27.691  1.00  0.00    -0.125 NA
BRANCH   7  11
ATOM     11  C   UNL A   1      32.666  30.752  27.107  1.00  0.00     0.148 C 
ATOM     12  N   UNL A   1      31.137  27.919  24.429  1.00  0.00    -0.338 N 
ATOM     13  C   UNL A   1      32.306  28.295  25.010  1.00  0.00     0.317 C 
ATOM     14  H   UNL A   1      30.976  26.948  24.413  1.00  0.00     0.165 HD
ATOM     15  O   UNL A   1      33.200  27.458  25.119  1.00  0.00    -0.249 OA
ATOM     16  N   UNL A   1      32.450  29.570  25.447  1.00  0.00    -0.320 N 
ATOM     17  C   UNL A   1      33.626  30.195  26.050  1.00  0.00     0.150 C 
ATOM     18  C   UNL A   1      31.530  30.485  26.096  1.00  0.00     0.150 C 
BRANCH  12  19
ATOM     19  C   UNL A   1      30.087  28.728  23.828  1.00  0.00     0.121 C 
BRANCH  19  20
ATOM     20  C   UNL A   1      29.048  27.865  23.083  1.00  0.00     0.008 C 
ATOM     21  C   UNL A   1      28.765  26.577  23.877  1.00  0.00     0.010 C 
BRANCH  20  22
ATOM     22  C   UNL A   1      27.689  28.575  22.771  1.00  0.00    -0.013 C 
ATOM     23  C   UNL A   1      26.517  28.199  23.681  1.00  0.00     0.008 C 
ATOM     24  C   UNL A   1      27.875  30.098  22.795  1.00  0.00     0.008 C 
ENDBRANCH  20  22
ENDBRANCH  19  20
ENDBRANCH  12  19
ENDBRANCH   7  11
ENDBRANCH   3   6
ENDBRANCH   1   2
BRANCH   1  25
ATOM     25  C   UNL A   1      36.371  32.935  30.901  1.00  0.00     0.042 C 
BRANCH  25  26
ATOM     26  C   UNL A   1      36.415  31.476  31.322  1.00  0.00     0.118 C 
BRANCH  26  27
ATOM     27  N   UNL A   1      35.721  30.592  30.379  1.00  0.00    -0.352 N 
ATOM     28  C   UNL A   1      36.271  29.737  29.429  1.00  0.00     0.251 C 
ATOM     29  H   UNL A   1      34.738  30.604  30.424  1.00  0.00     0.163 HD
ATOM     30  O   UNL A   1      35.602  29.341  28.493  1.00  0.00    -0.269 OA
BRANCH  28  31
ATOM     31  C   UNL A   1      37.685  29.343  29.588  1.00  0.00     0.039 A 
ATOM     32  C   UNL A   1      38.085  28.288  30.411  1.00  0.00     0.014 A 
ATOM     33  C   UNL A   1      38.611  30.020  28.808  1.00  0.00     0.014 A 
ATOM     34  C   UNL A   1      39.414  27.862  30.352  1.00  0.00     0.010 A 
ATOM     35  C   UNL A   1      39.831  29.454  28.578  1.00  0.00     0.010 A 
ATOM     36  C   UNL A   1      40.279  28.434  29.404  1.00  0.00    -0.014 A 
BRANCH  36  37
ATOM     37  C   UNL A   1      41.629  27.924  29.167  1.00  0.00     0.031 A 
ATOM     38  C   UNL A   1      41.678  26.715  28.309  1.00  0.00     0.074 A 
ATOM     39  C   UNL A   1      42.744  28.630  29.474  1.00  0.00     0.049 A 
ATOM     40  N   UNL A   1      41.897  25.496  28.677  1.00  0.00    -0.248 NA
ATOM     41  C   UNL A   1      41.250  26.835  26.905  1.00  0.00     0.031 C 
ATOM     42  C   UNL A   1      42.812  29.987  30.044  1.00  0.00     0.029 A 
ATOM     43  N   UNL A   1      44.057  28.350  29.236  1.00  0.00    -0.354 N 
ATOM     44  C   UNL A   1      41.958  24.761  27.496  1.00  0.00     0.074 A 
ATOM     45  C   UNL A   1      41.287  25.560  26.510  1.00  0.00     0.031 C 
ATOM     46  C   UNL A   1      44.047  30.502  29.869  1.00  0.00     0.029 A 
ATOM     47  C   UNL A   1      44.911  29.441  29.389  1.00  0.00     0.049 A 
ATOM     48  H   UNL A   1      44.375  27.455  28.978  1.00  0.00     0.167 HD
ATOM     49  C   UNL A   1      42.862  23.749  27.368  1.00  0.00     0.034 A 
ATOM     50  C   UNL A   1      46.254  29.485  29.195  1.00  0.00     0.034 A 
ATOM     51  C   UNL A   1      43.442  23.436  28.657  1.00  0.00     0.049 A 
ATOM     52  C   UNL A   1      46.748  28.105  29.385  1.00  0.00     0.074 A 
ATOM     53  C   UNL A   1      43.040  22.811  29.817  1.00  0.00     0.029 A 
ATOM     54  N   UNL A   1      44.553  24.183  28.960  1.00  0.00    -0.354 N 
ATOM     55  N   UNL A   1      46.626  27.465  30.518  1.00  0.00    -0.248 NA
ATOM     56  C   UNL A   1      47.019  27.265  28.226  1.00  0.00     0.031 C 
ATOM     57  C   UNL A   1      43.822  23.388  30.865  1.00  0.00     0.029 A 
ATOM     58  C   UNL A   1      44.714  24.306  30.316  1.00  0.00     0.049 A 
ATOM     59  H   UNL A   1      45.157  24.578  28.290  1.00  0.00     0.167 HD
ATOM     60  C   UNL A   1      46.357  26.162  30.149  1.00  0.00     0.074 A 
ATOM     61  C   UNL A   1      46.795  26.061  28.762  1.00  0.00     0.031 C 
ATOM     62  C   UNL A   1      45.512  25.382  30.883  1.00  0.00     0.034 A 
BRANCH  49  63
ATOM     63  C   UNL A   1      43.614  23.380  26.093  1.00  0.00     0.023 A 
ATOM     64  C   UNL A   1      43.639  22.011  25.742  1.00  0.00     0.031 A 
ATOM     65  C   UNL A   1      44.529  24.199  25.395  1.00  0.00     0.131 A 
ATOM     66  C   UNL A   1      44.591  21.507  24.837  1.00  0.00     0.055 A 
ATOM     67  C   UNL A   1      45.443  23.700  24.462  1.00  0.00     0.041 A 
ATOM     68  F   UNL A   1      44.660  25.509  25.627  1.00  0.00    -0.206 F 
ATOM     69  C   UNL A   1      45.500  22.344  24.200  1.00  0.00     0.022 A 
BRANCH  66  70
ATOM     70  S   UNL A   1      44.726  19.711  24.624  1.00  0.00     0.124 S 
ATOM     71  O   UNL A   1      44.521  19.562  23.188  1.00  0.00    -0.237 OA
ATOM     72  O   UNL A   1      46.076  19.454  25.115  1.00  0.00    -0.237 OA
ATOM     73  O   UNL A   1      43.649  19.191  25.464  1.00  0.00    -0.744 OA
ENDBRANCH  66  70
ENDBRANCH  49  63
BRANCH  50  74
ATOM     74  C   UNL A   1      47.040  30.584  28.576  1.00  0.00     0.023 A 
ATOM     75  C   UNL A   1      46.494  31.495  27.649  1.00  0.00     0.031 A 
ATOM     76  C   UNL A   1      48.311  30.899  29.107  1.00  0.00     0.131 A 
ATOM     77  C   UNL A   1      47.204  32.670  27.305  1.00  0.00     0.055 A 
ATOM     78  C   UNL A   1      49.005  32.062  28.769  1.00  0.00     0.041 A 
ATOM     79  F   UNL A   1      48.881  30.121  30.043  1.00  0.00    -0.206 F 
ATOM     80  C   UNL A   1      48.446  32.961  27.873  1.00  0.00     0.022 A 
BRANCH  77  81
ATOM     81  S   UNL A   1      46.473  33.890  26.163  1.00  0.00     0.124 S 
ATOM     82  O   UNL A   1      45.920  34.881  27.079  1.00  0.00    -0.237 OA
ATOM     83  O   UNL A   1      47.626  34.308  25.375  1.00  0.00    -0.237 OA
ATOM     84  O   UNL A   1      45.476  33.113  25.426  1.00  0.00    -0.744 OA
ENDBRANCH  77  81
ENDBRANCH  50  74
BRANCH  62  85
ATOM     85  C   UNL A   1      45.312  25.733  32.337  1.00  0.00     0.023 A 
ATOM     86  C   UNL A   1      44.160  26.338  32.888  1.00  0.00     0.031 A 
ATOM     87  C   UNL A   1      46.347  25.373  33.217  1.00  0.00     0.131 A 
ATOM     88  C   UNL A   1      44.084  26.562  34.278  1.00  0.00     0.055 A 
ATOM     89  C   UNL A   1      46.260  25.578  34.592  1.00  0.00     0.041 A 
ATOM     90  F   UNL A   1      47.460  24.783  32.750  1.00  0.00    -0.206 F 
ATOM     91  C   UNL A   1      45.129  26.179  35.127  1.00  0.00     0.022 A 
BRANCH  88  92
ATOM     92  S   UNL A   1      42.625  27.372  35.013  1.00  0.00     0.124 S 
ATOM     93  O   UNL A   1      41.711  27.515  33.886  1.00  0.00    -0.237 OA
ATOM     94  O   UNL A   1      42.221  26.424  36.047  1.00  0.00    -0.237 OA
ATOM     95  O   UNL A   1      43.158  28.636  35.526  1.00  0.00    -0.744 OA
ENDBRANCH  88  92
ENDBRANCH  62  85
ENDBRANCH  36  37
ENDBRANCH  28  31
ENDBRANCH  26  27
ENDBRANCH  25  26
ENDBRANCH   1  25
TORSDOF 17
ENDMDL
MODEL 3
REMARK VINA RESULT:     -11.2      2.876      8.920
REMARK SMILES CC(C)[C@H](C)CNC(=O)N1CC(n2cc(C(=O)NCCCNC(=O)c3ccc(-c4c5nc(c(-c6cc(S(=O)(=O)[O-])ccc6F)c6ccc([nH]6)c(-c6cc(S(=O)(=O)[O-])ccc6F)c6nc(c(-c7cc(S(=O)(=O)[O-])ccc7F)c7ccc4[nH]7)C=C6)C=C5)cc3)nn2)C1
REMARK SMILES IDX 19 1 18 2 16 3 17 4 15 6 13 7 14 8 89 9 88 10 12 11 7 12
REMARK SMILES IDX 8 13 9 15 10 16 11 17 90 18 6 19 4 20 5 21 2 22 1 23 3 24
REMARK SMILES IDX 20 25 21 26 22 27 23 28 24 30 25 31 26 32 87 33 27 34 86 35
REMARK SMILES IDX 28 36 29 37 30 38 80 39 31 40 85 41 79 42 81 43 32 44 84 45
REMARK SMILES IDX 78 46 77 47 33 49 65 50 45 51 64 52 46 53 49 54 63 55 82 56
REMARK SMILES IDX 47 57 48 58 62 60 83 61 50 62 34 63 35 64 43 65 36 66 42 67
REMARK SMILES IDX 44 68 41 69 37 70 38 71 39 72 40 73 66 74 67 75 75 76 68 77
REMARK SMILES IDX 74 78 76 79 73 80 69 81 70 82 71 83 72 84 51 85 52 86 60 87
REMARK SMILES IDX 53 88 59 89 61 90 58 91 54 92 55 93 56 94 57 95
REMARK H PARENT 18 5 7 14 22 29 81 48 49 59
REMARK Flexibility Score: inf
ROOT
ATOM      1  C   UNL A   1      42.843  22.224  28.639  1.00  0.00     0.118 C 
ENDROOT
BRANCH   1   2
ATOM      2  N   UNL A   1      41.950  21.228  28.068  1.00  0.00    -0.351 N 
ATOM      3  C   UNL A   1      42.007  20.571  26.857  1.00  0.00     0.273 C 
ATOM      4  O   UNL A   1      41.255  19.615  26.685  1.00  0.00    -0.267 OA
ATOM      5  H   UNL A   1      41.185  20.982  28.638  1.00  0.00     0.163 HD
BRANCH   3   6
ATOM      6  C   UNL A   1      42.960  20.995  25.838  1.00  0.00     0.170 A 
ATOM      7  N   UNL A   1      44.316  22.059  24.520  1.00  0.00    -0.245 N 
ATOM      8  C   UNL A   1      43.312  22.263  25.423  1.00  0.00     0.145 A 
ATOM      9  N   UNL A   1      44.533  20.754  24.320  1.00  0.00    -0.066 NA
ATOM     10  N   UNL A   1      43.683  20.087  25.091  1.00  0.00    -0.125 NA
BRANCH   7  11
ATOM     11  C   UNL A   1      45.111  23.120  23.992  1.00  0.00     0.148 C 
ATOM     12  N   UNL A   1      47.141  26.649  24.973  1.00  0.00    -0.338 N 
ATOM     13  C   UNL A   1      47.347  25.447  24.375  1.00  0.00     0.317 C 
ATOM     14  H   UNL A   1      47.527  27.420  24.500  1.00  0.00     0.165 HD
ATOM     15  O   UNL A   1      48.261  25.352  23.557  1.00  0.00    -0.249 OA
ATOM     16  N   UNL A   1      46.549  24.400  24.695  1.00  0.00    -0.320 N 
ATOM     17  C   UNL A   1      46.624  23.021  24.214  1.00  0.00     0.150 C 
ATOM     18  C   UNL A   1      45.128  24.311  24.975  1.00  0.00     0.150 C 
BRANCH  12  19
ATOM     19  C   UNL A   1      46.437  26.972  26.206  1.00  0.00     0.121 C 
BRANCH  19  20
ATOM     20  C   UNL A   1      47.399  27.105  27.403  1.00  0.00     0.008 C 
ATOM     21  C   UNL A   1      46.962  28.275  28.304  1.00  0.00     0.010 C 
BRANCH  20  22
ATOM     22  C   UNL A   1      47.553  25.821  28.284  1.00  0.00    -0.013 C 
ATOM     23  C   UNL A   1      46.289  24.978  28.461  1.00  0.00     0.008 C 
ATOM     24  C   UNL A   1      48.675  24.934  27.727  1.00  0.00     0.008 C 
ENDBRANCH  20  22
ENDBRANCH  19  20
ENDBRANCH  12  19
ENDBRANCH   7  11
ENDBRANCH   3   6
ENDBRANCH   1   2
BRANCH   1  25
ATOM     25  C   UNL A   1      42.141  23.559  28.919  1.00  0.00     0.042 C 
BRANCH  25  26
ATOM     26  C   UNL A   1      42.344  24.561  27.795  1.00  0.00     0.118 C 
BRANCH  26  27
ATOM     27  N   UNL A   1      41.315  24.460  26.752  1.00  0.00    -0.352 N 
ATOM     28  C   UNL A   1      40.038  25.011  26.740  1.00  0.00     0.251 C 
ATOM     29  H   UNL A   1      41.561  23.935  25.957  1.00  0.00     0.163 HD
ATOM     30  O   UNL A   1      39.180  24.566  26.002  1.00  0.00    -0.269 OA
BRANCH  28  31
ATOM     31  C   UNL A   1      39.759  26.134  27.658  1.00  0.00     0.039 A 
ATOM     32  C   UNL A   1      39.243  25.946  28.942  1.00  0.00     0.014 A 
ATOM     33  C   UNL A   1      40.117  27.400  27.219  1.00  0.00     0.014 A 
ATOM     34  C   UNL A   1      39.193  27.041  29.808  1.00  0.00     0.010 A 
ATOM     35  C   UNL A   1      40.290  28.399  28.132  1.00  0.00     0.010 A 
ATOM     36  C   UNL A   1      39.751  28.265  29.403  1.00  0.00    -0.014 A 
BRANCH  36  37
ATOM     37  C   UNL A   1      39.890  29.402  30.312  1.00  0.00     0.031 A 
ATOM     38  C   UNL A   1      38.641  30.178  30.507  1.00  0.00     0.074 A 
ATOM     39  C   UNL A   1      40.974  29.578  31.106  1.00  0.00     0.049 A 
ATOM     40  N   UNL A   1      38.348  31.336  30.016  1.00  0.00    -0.248 NA
ATOM     41  C   UNL A   1      37.503  29.518  31.170  1.00  0.00     0.031 C 
ATOM     42  C   UNL A   1      42.145  28.692  31.228  1.00  0.00     0.029 A 
ATOM     43  N   UNL A   1      41.219  30.515  32.066  1.00  0.00    -0.354 N 
ATOM     44  C   UNL A   1      37.125  31.679  30.586  1.00  0.00     0.074 A 
ATOM     45  C   UNL A   1      36.549  30.442  31.033  1.00  0.00     0.031 C 
ATOM     46  C   UNL A   1      42.828  28.979  32.355  1.00  0.00     0.029 A 
ATOM     47  C   UNL A   1      42.285  30.204  32.909  1.00  0.00     0.049 A 
ATOM     48  H   UNL A   1      40.689  31.340  32.157  1.00  0.00     0.167 HD
ATOM     49  C   UNL A   1      36.879  32.968  30.954  1.00  0.00     0.034 A 
ATOM     50  C   UNL A   1      42.749  30.917  33.967  1.00  0.00     0.034 A 
ATOM     51  C   UNL A   1      37.896  33.842  30.406  1.00  0.00     0.049 A 
ATOM     52  C   UNL A   1      42.360  32.322  33.727  1.00  0.00     0.074 A 
ATOM     53  C   UNL A   1      38.228  34.351  29.170  1.00  0.00     0.029 A 
ATOM     54  N   UNL A   1      38.997  33.983  31.214  1.00  0.00    -0.354 N 
ATOM     55  N   UNL A   1      42.784  33.001  32.694  1.00  0.00    -0.248 NA
ATOM     56  C   UNL A   1      41.187  32.874  34.391  1.00  0.00     0.031 C 
ATOM     57  C   UNL A   1      39.635  34.598  29.211  1.00  0.00     0.029 A 
ATOM     58  C   UNL A   1      40.115  34.286  30.481  1.00  0.00     0.049 A 
ATOM     59  H   UNL A   1      38.986  33.881  32.193  1.00  0.00     0.167 HD
ATOM     60  C   UNL A   1      41.702  33.773  32.322  1.00  0.00     0.074 A 
ATOM     61  C   UNL A   1      40.832  33.798  33.492  1.00  0.00     0.031 C 
ATOM     62  C   UNL A   1      41.449  34.047  31.009  1.00  0.00     0.034 A 
BRANCH  49  63
ATOM     63  C   UNL A   1      36.083  33.412  32.177  1.00  0.00     0.023 A 
ATOM     64  C   UNL A   1      34.938  34.204  31.939  1.00  0.00     0.031 A 
ATOM     65  C   UNL A   1      36.523  33.373  33.519  1.00  0.00     0.131 A 
ATOM     66  C   UNL A   1      34.358  34.976  32.962  1.00  0.00     0.055 A 
ATOM     67  C   UNL A   1      35.914  34.107  34.542  1.00  0.00     0.041 A 
ATOM     68  F   UNL A   1      37.608  32.700  33.913  1.00  0.00    -0.206 F 
ATOM     69  C   UNL A   1      34.846  34.939  34.263  1.00  0.00     0.022 A 
BRANCH  66  70
ATOM     70  S   UNL A   1      33.050  36.155  32.531  1.00  0.00     0.124 S 
ATOM     71  O   UNL A   1      33.488  36.626  31.221  1.00  0.00    -0.237 OA
ATOM     72  O   UNL A   1      31.865  35.305  32.551  1.00  0.00    -0.237 OA
ATOM     73  O   UNL A   1      33.123  37.145  33.604  1.00  0.00    -0.744 OA
ENDBRANCH  66  70
ENDBRANCH  49  63
BRANCH  50  74
ATOM     74  C   UNL A   1      43.231  30.387  35.269  1.00  0.00     0.023 A 
ATOM     75  C   UNL A   1      43.186  29.018  35.608  1.00  0.00     0.031 A 
ATOM     76  C   UNL A   1      43.992  31.228  36.112  1.00  0.00     0.131 A 
ATOM     77  C   UNL A   1      43.900  28.543  36.735  1.00  0.00     0.055 A 
ATOM     78  C   UNL A   1      44.698  30.753  37.218  1.00  0.00     0.041 A 
ATOM     79  F   UNL A   1      44.141  32.534  35.831  1.00  0.00    -0.206 F 
ATOM     80  C   UNL A   1      44.664  29.402  37.528  1.00  0.00     0.022 A 
BRANCH  77  81
ATOM     81  S   UNL A   1      43.908  26.764  37.139  1.00  0.00     0.124 S 
ATOM     82  O   UNL A   1      43.584  26.153  35.855  1.00  0.00    -0.237 OA
ATOM     83  O   UNL A   1      45.266  26.563  37.629  1.00  0.00    -0.237 OA
ATOM     84  O   UNL A   1      42.865  26.640  38.158  1.00  0.00    -0.744 OA
ENDBRANCH  77  81
ENDBRANCH  50  74
BRANCH  62  85
ATOM     85  C   UNL A   1      42.604  33.983  30.041  1.00  0.00     0.023 A 
ATOM     86  C   UNL A   1      42.983  32.851  29.285  1.00  0.00     0.031 A 
ATOM     87  C   UNL A   1      43.325  35.173  29.844  1.00  0.00     0.131 A 
ATOM     88  C   UNL A   1      44.054  32.945  28.372  1.00  0.00     0.055 A 
ATOM     89  C   UNL A   1      44.369  35.268  28.928  1.00  0.00     0.041 A 
ATOM     90  F   UNL A   1      42.999  36.284  30.527  1.00  0.00    -0.206 F 
ATOM     91  C   UNL A   1      44.742  34.151  28.191  1.00  0.00     0.022 A 
BRANCH  88  92
ATOM     92  S   UNL A   1      44.588  31.493  27.407  1.00  0.00     0.124 S 
ATOM     93  O   UNL A   1      44.060  30.366  28.168  1.00  0.00    -0.237 OA
ATOM     94  O   UNL A   1      43.971  31.730  26.105  1.00  0.00    -0.237 OA
ATOM     95  O   UNL A   1      46.049  31.597  27.413  1.00  0.00    -0.744 OA
ENDBRANCH  88  92
ENDBRANCH  62  85
ENDBRANCH  36  37
ENDBRANCH  28  31
ENDBRANCH  26  27
ENDBRANCH  25  26
ENDBRANCH   1  25
TORSDOF 17
ENDMDL
