MODEL 1
REMARK VINA RESULT:     -12.7      0.000      0.000
REMARK SMILES Cc1c(Cc2ccccc2)c(=O)oc2cc(OCC(=O)N[C@H](C)C(=O)NCCCNC(=O)c3ccc(-c4c5nc(c(-c6cc(S(=O)(=O)[O-])ccc6F)c6ccc([nH]6)c(-c6cc(S(=O)(=O)[O-])ccc6F)c6nc(c(-c7cc(S(=O)(=O)[O-])ccc7F)c7ccc4[nH]7)C=C6)C=C5)cc3)ccc12
REMARK SMILES IDX 24 1 25 2 26 3 22 5 23 6 21 7 19 8 20 9 18 11 17 12 16 13
REMARK SMILES IDX 1 14 2 15 3 16 98 17 11 18 14 19 97 20 12 21 13 22 15 23
REMARK SMILES IDX 96 24 4 25 5 26 6 27 10 28 7 29 9 30 8 31 27 32 28 33 29 34
REMARK SMILES IDX 30 35 31 36 32 38 33 39 34 40 95 41 35 42 94 43 36 44 37 45
REMARK SMILES IDX 38 46 88 47 39 48 93 49 87 50 89 51 40 52 92 53 86 54 85 55
REMARK SMILES IDX 41 57 73 58 53 59 72 60 54 61 57 62 71 63 90 64 55 65 56 66
REMARK SMILES IDX 70 68 91 69 58 70 42 71 43 72 51 73 44 74 50 75 52 76 49 77
REMARK SMILES IDX 45 78 46 79 47 80 48 81 74 82 75 83 83 84 76 85 82 86 84 87
REMARK SMILES IDX 81 88 77 89 78 90 79 91 80 92 59 93 60 94 68 95 61 96 67 97
REMARK SMILES IDX 69 98 66 99 62 100 63 101 64 102 65 103
REMARK H PARENT 26 4 21 10 30 37 89 56 57 67
REMARK Flexibility Score: inf
ROOT
ATOM      1  C   UNL A   1      30.766  23.512  26.902  1.00  0.00     0.242 C 
ATOM      2  O   UNL A   1      29.720  22.896  27.142  1.00  0.00    -0.273 OA
ATOM      3  N   UNL A   1      30.650  24.850  26.704  1.00  0.00    -0.354 N 
ATOM      4  H   UNL A   1      29.728  25.192  26.741  1.00  0.00     0.163 HD
ENDROOT
BRANCH   1   5
ATOM      5  C   UNL A   1      32.086  22.730  26.691  1.00  0.00     0.168 C 
ATOM      6  C   UNL A   1      32.813  22.563  28.013  1.00  0.00     0.041 C 
BRANCH   5   7
ATOM      7  N   UNL A   1      32.030  21.579  25.780  1.00  0.00    -0.342 N 
ATOM      8  C   UNL A   1      32.908  20.702  25.230  1.00  0.00     0.258 C 
ATOM      9  O   UNL A   1      32.421  19.769  24.583  1.00  0.00    -0.271 OA
ATOM     10  H   UNL A   1      31.108  21.393  25.490  1.00  0.00     0.164 HD
BRANCH   8  11
ATOM     11  C   UNL A   1      34.426  20.788  25.422  1.00  0.00     0.329 C 
BRANCH  11  12
ATOM     12  O   UNL A   1      35.169  21.494  24.458  1.00  0.00    -0.484 OA
BRANCH  12  13
ATOM     13  C   UNL A   1      34.736  22.744  24.145  1.00  0.00     0.123 A 
ATOM     14  C   UNL A   1      34.131  27.843  24.385  1.00  0.00     0.046 C 
ATOM     15  C   UNL A   1      33.565  26.792  23.466  1.00  0.00    -0.029 A 
ATOM     16  C   UNL A   1      32.744  27.026  22.420  1.00  0.00     0.046 A 
ATOM     17  C   UNL A   1      33.954  25.407  23.757  1.00  0.00     0.021 A 
ATOM     18  C   UNL A   1      32.387  25.943  21.457  1.00  0.00     0.340 A 
ATOM     19  C   UNL A   1      33.723  24.439  22.791  1.00  0.00     0.142 A 
ATOM     20  C   UNL A   1      34.547  25.007  24.961  1.00  0.00     0.016 A 
ATOM     21  O   UNL A   1      31.624  26.131  20.514  1.00  0.00    -0.246 OA
ATOM     22  O   UNL A   1      33.029  24.729  21.611  1.00  0.00    -0.422 OA
ATOM     23  C   UNL A   1      34.130  23.121  22.954  1.00  0.00     0.094 A 
ATOM     24  C   UNL A   1      34.932  23.683  25.154  1.00  0.00     0.047 A 
BRANCH  16  25
ATOM     25  C   UNL A   1      32.155  28.372  22.066  1.00  0.00     0.079 C 
BRANCH  25  26
ATOM     26  C   UNL A   1      30.678  28.489  22.399  1.00  0.00    -0.043 A 
ATOM     27  C   UNL A   1      29.942  29.608  21.987  1.00  0.00     0.004 A 
ATOM     28  C   UNL A   1      30.019  27.496  23.139  1.00  0.00     0.004 A 
ATOM     29  C   UNL A   1      28.592  29.734  22.330  1.00  0.00     0.000 A 
ATOM     30  C   UNL A   1      28.669  27.613  23.466  1.00  0.00     0.000 A 
ATOM     31  C   UNL A   1      27.957  28.738  23.070  1.00  0.00     0.000 A 
ENDBRANCH  25  26
ENDBRANCH  16  25
ENDBRANCH  12  13
ENDBRANCH  11  12
ENDBRANCH   8  11
ENDBRANCH   5   7
ENDBRANCH   1   5
BRANCH   3  32
ATOM     32  C   UNL A   1      31.653  25.854  26.450  1.00  0.00     0.117 C 
BRANCH  32  33
ATOM     33  C   UNL A   1      31.167  27.266  26.758  1.00  0.00     0.042 C 
BRANCH  33  34
ATOM     34  C   UNL A   1      32.282  28.169  27.251  1.00  0.00     0.118 C 
BRANCH  34  35
ATOM     35  N   UNL A   1      32.085  29.544  26.800  1.00  0.00    -0.352 N 
ATOM     36  C   UNL A   1      32.818  30.679  27.036  1.00  0.00     0.251 C 
ATOM     37  H   UNL A   1      31.292  29.678  26.231  1.00  0.00     0.163 HD
ATOM     38  O   UNL A   1      32.326  31.769  26.769  1.00  0.00    -0.269 OA
BRANCH  36  39
ATOM     39  C   UNL A   1      34.172  30.586  27.620  1.00  0.00     0.039 A 
ATOM     40  C   UNL A   1      34.923  31.754  27.780  1.00  0.00     0.014 A 
ATOM     41  C   UNL A   1      34.710  29.352  27.991  1.00  0.00     0.014 A 
ATOM     42  C   UNL A   1      36.186  31.685  28.366  1.00  0.00     0.010 A 
ATOM     43  C   UNL A   1      35.914  29.301  28.679  1.00  0.00     0.010 A 
ATOM     44  C   UNL A   1      36.675  30.464  28.857  1.00  0.00    -0.014 A 
BRANCH  44  45
ATOM     45  C   UNL A   1      37.991  30.369  29.535  1.00  0.00     0.031 A 
ATOM     46  C   UNL A   1      39.099  29.567  28.904  1.00  0.00     0.074 A 
ATOM     47  C   UNL A   1      38.158  30.940  30.743  1.00  0.00     0.049 A 
ATOM     48  N   UNL A   1      40.283  29.279  29.377  1.00  0.00    -0.248 NA
ATOM     49  C   UNL A   1      38.823  28.980  27.582  1.00  0.00     0.031 C 
ATOM     50  C   UNL A   1      37.136  31.700  31.469  1.00  0.00     0.029 A 
ATOM     51  N   UNL A   1      39.243  30.966  31.581  1.00  0.00    -0.354 N 
ATOM     52  C   UNL A   1      40.882  28.462  28.424  1.00  0.00     0.074 A 
ATOM     53  C   UNL A   1      39.904  28.245  27.380  1.00  0.00     0.031 C 
ATOM     54  C   UNL A   1      37.653  32.141  32.625  1.00  0.00     0.029 A 
ATOM     55  C   UNL A   1      39.020  31.651  32.754  1.00  0.00     0.049 A 
ATOM     56  H   UNL A   1      40.101  30.535  31.365  1.00  0.00     0.167 HD
ATOM     57  C   UNL A   1      42.141  27.961  28.411  1.00  0.00     0.034 A 
ATOM     58  C   UNL A   1      39.822  31.845  33.820  1.00  0.00     0.034 A 
ATOM     59  C   UNL A   1      43.105  28.210  29.454  1.00  0.00     0.049 A 
ATOM     60  C   UNL A   1      41.215  31.264  33.788  1.00  0.00     0.074 A 
ATOM     61  C   UNL A   1      44.428  27.813  29.515  1.00  0.00     0.029 A 
ATOM     62  N   UNL A   1      42.848  28.917  30.622  1.00  0.00    -0.354 N 
ATOM     63  N   UNL A   1      41.787  30.542  32.851  1.00  0.00    -0.248 NA
ATOM     64  C   UNL A   1      42.071  31.534  34.948  1.00  0.00     0.031 C 
ATOM     65  C   UNL A   1      44.946  28.206  30.752  1.00  0.00     0.029 A 
ATOM     66  C   UNL A   1      43.976  28.932  31.426  1.00  0.00     0.049 A 
ATOM     67  H   UNL A   1      41.989  29.344  30.846  1.00  0.00     0.167 HD
ATOM     68  C   UNL A   1      43.084  30.303  33.297  1.00  0.00     0.074 A 
ATOM     69  C   UNL A   1      43.211  30.970  34.576  1.00  0.00     0.031 C 
ATOM     70  C   UNL A   1      44.082  29.599  32.704  1.00  0.00     0.034 A 
BRANCH  57  71
ATOM     71  C   UNL A   1      42.532  27.076  27.250  1.00  0.00     0.023 A 
ATOM     72  C   UNL A   1      42.198  25.710  27.211  1.00  0.00     0.031 A 
ATOM     73  C   UNL A   1      43.263  27.603  26.171  1.00  0.00     0.131 A 
ATOM     74  C   UNL A   1      42.656  24.906  26.157  1.00  0.00     0.055 A 
ATOM     75  C   UNL A   1      43.642  26.816  25.082  1.00  0.00     0.041 A 
ATOM     76  F   UNL A   1      43.635  28.894  26.163  1.00  0.00    -0.206 F 
ATOM     77  C   UNL A   1      43.350  25.456  25.076  1.00  0.00     0.022 A 
BRANCH  74  78
ATOM     78  S   UNL A   1      42.455  23.109  26.287  1.00  0.00     0.124 S 
ATOM     79  O   UNL A   1      42.806  22.675  24.936  1.00  0.00    -0.237 OA
ATOM     80  O   UNL A   1      43.407  22.760  27.336  1.00  0.00    -0.237 OA
ATOM     81  O   UNL A   1      41.047  22.945  26.641  1.00  0.00    -0.744 OA
ENDBRANCH  74  78
ENDBRANCH  57  71
BRANCH  58  82
ATOM     82  C   UNL A   1      39.334  32.602  35.008  1.00  0.00     0.023 A 
ATOM     83  C   UNL A   1      38.780  31.939  36.114  1.00  0.00     0.031 A 
ATOM     84  C   UNL A   1      39.372  34.009  35.037  1.00  0.00     0.131 A 
ATOM     85  C   UNL A   1      38.236  32.680  37.175  1.00  0.00     0.055 A 
ATOM     86  C   UNL A   1      38.887  34.739  36.123  1.00  0.00     0.041 A 
ATOM     87  F   UNL A   1      39.895  34.696  34.008  1.00  0.00    -0.206 F 
ATOM     88  C   UNL A   1      38.300  34.074  37.194  1.00  0.00     0.022 A 
BRANCH  85  89
ATOM     89  S   UNL A   1      37.345  31.794  38.484  1.00  0.00     0.124 S 
ATOM     90  O   UNL A   1      37.219  30.461  37.907  1.00  0.00    -0.237 OA
ATOM     91  O   UNL A   1      38.260  31.923  39.613  1.00  0.00    -0.237 OA
ATOM     92  O   UNL A   1      36.095  32.542  38.609  1.00  0.00    -0.744 OA
ENDBRANCH  85  89
ENDBRANCH  58  82
BRANCH  70  93
ATOM     93  C   UNL A   1      45.413  29.562  33.414  1.00  0.00     0.023 A 
ATOM     94  C   UNL A   1      45.713  28.587  34.380  1.00  0.00     0.031 A 
ATOM     95  C   UNL A   1      46.395  30.524  33.118  1.00  0.00     0.131 A 
ATOM     96  C   UNL A   1      46.939  28.632  35.060  1.00  0.00     0.055 A 
ATOM     97  C   UNL A   1      47.640  30.522  33.747  1.00  0.00     0.041 A 
ATOM     98  F   UNL A   1      46.162  31.483  32.206  1.00  0.00    -0.206 F 
ATOM     99  C   UNL A   1      47.913  29.581  34.735  1.00  0.00     0.022 A 
BRANCH  96 100
ATOM    100  S   UNL A   1      47.205  27.498  36.449  1.00  0.00     0.124 S 
ATOM    101  O   UNL A   1      46.284  26.411  36.132  1.00  0.00    -0.237 OA
ATOM    102  O   UNL A   1      48.625  27.184  36.330  1.00  0.00    -0.237 OA
ATOM    103  O   UNL A   1      46.842  28.296  37.618  1.00  0.00    -0.744 OA
ENDBRANCH  96 100
ENDBRANCH  70  93
ENDBRANCH  44  45
ENDBRANCH  36  39
ENDBRANCH  34  35
ENDBRANCH  33  34
ENDBRANCH  32  33
ENDBRANCH   3  32
TORSDOF 19
ENDMDL
MODEL 2
REMARK VINA RESULT:     -12.5      1.793      2.494
REMARK SMILES Cc1c(Cc2ccccc2)c(=O)oc2cc(OCC(=O)N[C@H](C)C(=O)NCCCNC(=O)c3ccc(-c4c5nc(c(-c6cc(S(=O)(=O)[O-])ccc6F)c6ccc([nH]6)c(-c6cc(S(=O)(=O)[O-])ccc6F)c6nc(c(-c7cc(S(=O)(=O)[O-])ccc7F)c7ccc4[nH]7)C=C6)C=C5)cc3)ccc12
REMARK SMILES IDX 24 1 25 2 26 3 22 5 23 6 21 7 19 8 20 9 18 11 17 12 16 13
REMARK SMILES IDX 1 14 2 15 3 16 98 17 11 18 14 19 97 20 12 21 13 22 15 23
REMARK SMILES IDX 96 24 4 25 5 26 6 27 10 28 7 29 9 30 8 31 27 32 28 33 29 34
REMARK SMILES IDX 30 35 31 36 32 38 33 39 34 40 95 41 35 42 94 43 36 44 37 45
REMARK SMILES IDX 38 46 88 47 39 48 93 49 87 50 89 51 40 52 92 53 86 54 85 55
REMARK SMILES IDX 41 57 73 58 53 59 72 60 54 61 57 62 71 63 90 64 55 65 56 66
REMARK SMILES IDX 70 68 91 69 58 70 42 71 43 72 51 73 44 74 50 75 52 76 49 77
REMARK SMILES IDX 45 78 46 79 47 80 48 81 74 82 75 83 83 84 76 85 82 86 84 87
REMARK SMILES IDX 81 88 77 89 78 90 79 91 80 92 59 93 60 94 68 95 61 96 67 97
REMARK SMILES IDX 69 98 66 99 62 100 63 101 64 102 65 103
REMARK H PARENT 26 4 21 10 30 37 89 56 57 67
REMARK Flexibility Score: inf
ROOT
ATOM      1  C   UNL A   1      31.708  24.194  26.817  1.00  0.00     0.242 C 
ATOM      2  O   UNL A   1      30.708  23.609  27.251  1.00  0.00    -0.273 OA
ATOM      3  N   UNL A   1      31.590  25.533  26.621  1.00  0.00    -0.354 N 
ATOM      4  H   UNL A   1      30.697  25.898  26.816  1.00  0.00     0.163 HD
ENDROOT
BRANCH   1   5
ATOM      5  C   UNL A   1      32.951  23.376  26.386  1.00  0.00     0.168 C 
ATOM      6  C   UNL A   1      33.719  22.907  27.608  1.00  0.00     0.041 C 
BRANCH   5   7
ATOM      7  N   UNL A   1      32.763  22.429  25.278  1.00  0.00    -0.342 N 
ATOM      8  C   UNL A   1      33.276  22.237  24.037  1.00  0.00     0.258 C 
ATOM      9  O   UNL A   1      32.919  21.211  23.448  1.00  0.00    -0.271 OA
ATOM     10  H   UNL A   1      32.082  21.753  25.495  1.00  0.00     0.164 HD
BRANCH   8  11
ATOM     11  C   UNL A   1      34.292  23.180  23.382  1.00  0.00     0.329 C 
BRANCH  11  12
ATOM     12  O   UNL A   1      33.884  23.888  22.237  1.00  0.00    -0.484 OA
BRANCH  12  13
ATOM     13  C   UNL A   1      32.993  24.896  22.426  1.00  0.00     0.123 A 
ATOM     14  C   UNL A   1      30.977  29.625  22.394  1.00  0.00     0.046 C 
ATOM     15  C   UNL A   1      30.457  28.299  22.884  1.00  0.00    -0.029 A 
ATOM     16  C   UNL A   1      29.237  28.088  23.425  1.00  0.00     0.046 A 
ATOM     17  C   UNL A   1      31.372  27.160  22.751  1.00  0.00     0.021 A 
ATOM     18  C   UNL A   1      28.743  26.708  23.708  1.00  0.00     0.340 A 
ATOM     19  C   UNL A   1      30.861  25.880  22.896  1.00  0.00     0.142 A 
ATOM     20  C   UNL A   1      32.741  27.296  22.486  1.00  0.00     0.016 A 
ATOM     21  O   UNL A   1      27.649  26.497  24.221  1.00  0.00    -0.246 OA
ATOM     22  O   UNL A   1      29.533  25.658  23.278  1.00  0.00    -0.422 OA
ATOM     23  C   UNL A   1      31.641  24.747  22.709  1.00  0.00     0.094 A 
ATOM     24  C   UNL A   1      33.545  26.170  22.328  1.00  0.00     0.047 A 
BRANCH  16  25
ATOM     25  C   UNL A   1      28.232  29.170  23.744  1.00  0.00     0.079 C 
BRANCH  25  26
ATOM     26  C   UNL A   1      28.226  30.303  22.733  1.00  0.00    -0.043 A 
ATOM     27  C   UNL A   1      28.450  31.624  23.142  1.00  0.00     0.004 A 
ATOM     28  C   UNL A   1      27.978  30.061  21.374  1.00  0.00     0.004 A 
ATOM     29  C   UNL A   1      28.403  32.670  22.216  1.00  0.00     0.000 A 
ATOM     30  C   UNL A   1      27.947  31.102  20.447  1.00  0.00     0.000 A 
ATOM     31  C   UNL A   1      28.150  32.410  20.870  1.00  0.00     0.000 A 
ENDBRANCH  25  26
ENDBRANCH  16  25
ENDBRANCH  12  13
ENDBRANCH  11  12
ENDBRANCH   8  11
ENDBRANCH   5   7
ENDBRANCH   1   5
BRANCH   3  32
ATOM     32  C   UNL A   1      32.553  26.508  26.174  1.00  0.00     0.117 C 
BRANCH  32  33
ATOM     33  C   UNL A   1      32.052  27.941  26.316  1.00  0.00     0.042 C 
BRANCH  33  34
ATOM     34  C   UNL A   1      32.984  28.947  25.667  1.00  0.00     0.118 C 
BRANCH  34  35
ATOM     35  N   UNL A   1      32.592  30.315  25.996  1.00  0.00    -0.352 N 
ATOM     36  C   UNL A   1      33.085  31.189  26.932  1.00  0.00     0.251 C 
ATOM     37  H   UNL A   1      31.849  30.670  25.456  1.00  0.00     0.163 HD
ATOM     38  O   UNL A   1      32.436  32.192  27.206  1.00  0.00    -0.269 OA
BRANCH  36  39
ATOM     39  C   UNL A   1      34.369  30.913  27.609  1.00  0.00     0.039 A 
ATOM     40  C   UNL A   1      35.285  31.955  27.775  1.00  0.00     0.014 A 
ATOM     41  C   UNL A   1      34.680  29.629  28.061  1.00  0.00     0.014 A 
ATOM     42  C   UNL A   1      36.484  31.717  28.447  1.00  0.00     0.010 A 
ATOM     43  C   UNL A   1      35.816  29.423  28.830  1.00  0.00     0.010 A 
ATOM     44  C   UNL A   1      36.740  30.459  29.015  1.00  0.00    -0.014 A 
BRANCH  44  45
ATOM     45  C   UNL A   1      37.981  30.192  29.783  1.00  0.00     0.031 A 
ATOM     46  C   UNL A   1      39.003  29.230  29.238  1.00  0.00     0.074 A 
ATOM     47  C   UNL A   1      38.146  30.756  30.995  1.00  0.00     0.049 A 
ATOM     48  N   UNL A   1      40.100  28.786  29.793  1.00  0.00    -0.248 NA
ATOM     49  C   UNL A   1      38.736  28.663  27.905  1.00  0.00     0.031 C 
ATOM     50  C   UNL A   1      37.196  31.665  31.642  1.00  0.00     0.029 A 
ATOM     51  N   UNL A   1      39.165  30.643  31.906  1.00  0.00    -0.354 N 
ATOM     52  C   UNL A   1      40.639  27.875  28.891  1.00  0.00     0.074 A 
ATOM     53  C   UNL A   1      39.713  27.779  27.784  1.00  0.00     0.031 C 
ATOM     54  C   UNL A   1      37.691  32.050  32.828  1.00  0.00     0.029 A 
ATOM     55  C   UNL A   1      38.963  31.374  33.055  1.00  0.00     0.049 A 
ATOM     56  H   UNL A   1      39.966  30.091  31.753  1.00  0.00     0.167 HD
ATOM     57  C   UNL A   1      41.812  27.201  28.970  1.00  0.00     0.034 A 
ATOM     58  C   UNL A   1      39.711  31.472  34.172  1.00  0.00     0.034 A 
ATOM     59  C   UNL A   1      42.730  27.330  30.075  1.00  0.00     0.049 A 
ATOM     60  C   UNL A   1      41.006  30.700  34.241  1.00  0.00     0.074 A 
ATOM     61  C   UNL A   1      43.976  26.751  30.230  1.00  0.00     0.029 A 
ATOM     62  N   UNL A   1      42.497  28.088  31.216  1.00  0.00    -0.354 N 
ATOM     63  N   UNL A   1      41.531  29.887  33.353  1.00  0.00    -0.248 NA
ATOM     64  C   UNL A   1      41.812  30.867  35.455  1.00  0.00     0.031 C 
ATOM     65  C   UNL A   1      44.460  27.090  31.497  1.00  0.00     0.029 A 
ATOM     66  C   UNL A   1      43.560  27.958  32.096  1.00  0.00     0.049 A 
ATOM     67  H   UNL A   1      41.695  28.636  31.377  1.00  0.00     0.167 HD
ATOM     68  C   UNL A   1      42.748  29.475  33.889  1.00  0.00     0.074 A 
ATOM     69  C   UNL A   1      42.882  30.141  35.168  1.00  0.00     0.031 C 
ATOM     70  C   UNL A   1      43.673  28.626  33.372  1.00  0.00     0.034 A 
BRANCH  57  71
ATOM     71  C   UNL A   1      42.151  26.248  27.846  1.00  0.00     0.023 A 
ATOM     72  C   UNL A   1      41.683  24.922  27.830  1.00  0.00     0.031 A 
ATOM     73  C   UNL A   1      42.966  26.669  26.781  1.00  0.00     0.131 A 
ATOM     74  C   UNL A   1      42.092  24.047  26.813  1.00  0.00     0.055 A 
ATOM     75  C   UNL A   1      43.300  25.817  25.726  1.00  0.00     0.041 A 
ATOM     76  F   UNL A   1      43.466  27.915  26.754  1.00  0.00    -0.206 F 
ATOM     77  C   UNL A   1      42.873  24.493  25.745  1.00  0.00     0.022 A 
BRANCH  74  78
ATOM     78  S   UNL A   1      41.708  22.283  26.981  1.00  0.00     0.124 S 
ATOM     79  O   UNL A   1      41.817  21.824  25.598  1.00  0.00    -0.237 OA
ATOM     80  O   UNL A   1      42.749  21.818  27.892  1.00  0.00    -0.237 OA
ATOM     81  O   UNL A   1      40.353  22.277  27.527  1.00  0.00    -0.744 OA
ENDBRANCH  74  78
ENDBRANCH  57  71
BRANCH  58  82
ATOM     82  C   UNL A   1      39.257  32.313  35.317  1.00  0.00     0.023 A 
ATOM     83  C   UNL A   1      39.691  33.640  35.459  1.00  0.00     0.031 A 
ATOM     84  C   UNL A   1      38.416  31.786  36.315  1.00  0.00     0.131 A 
ATOM     85  C   UNL A   1      39.331  34.376  36.598  1.00  0.00     0.055 A 
ATOM     86  C   UNL A   1      38.009  32.544  37.414  1.00  0.00     0.041 A 
ATOM     87  F   UNL A   1      37.967  30.524  36.228  1.00  0.00    -0.206 F 
ATOM     88  C   UNL A   1      38.481  33.843  37.568  1.00  0.00     0.022 A 
BRANCH  85  89
ATOM     89  S   UNL A   1      40.081  36.010  36.847  1.00  0.00     0.124 S 
ATOM     90  O   UNL A   1      41.488  35.668  37.009  1.00  0.00    -0.237 OA
ATOM     91  O   UNL A   1      39.724  36.697  35.610  1.00  0.00    -0.237 OA
ATOM     92  O   UNL A   1      39.415  36.509  38.049  1.00  0.00    -0.744 OA
ENDBRANCH  85  89
ENDBRANCH  58  82
BRANCH  70  93
ATOM     93  C   UNL A   1      44.935  28.414  34.173  1.00  0.00     0.023 A 
ATOM     94  C   UNL A   1      45.054  27.375  35.111  1.00  0.00     0.031 A 
ATOM     95  C   UNL A   1      46.035  29.273  33.994  1.00  0.00     0.131 A 
ATOM     96  C   UNL A   1      46.222  27.259  35.879  1.00  0.00     0.055 A 
ATOM     97  C   UNL A   1      47.220  29.108  34.709  1.00  0.00     0.041 A 
ATOM     98  F   UNL A   1      45.976  30.286  33.114  1.00  0.00    -0.206 F 
ATOM     99  C   UNL A   1      47.314  28.105  35.669  1.00  0.00     0.022 A 
BRANCH  96 100
ATOM    100  S   UNL A   1      46.258  26.048  37.229  1.00  0.00     0.124 S 
ATOM    101  O   UNL A   1      47.172  26.679  38.176  1.00  0.00    -0.237 OA
ATOM    102  O   UNL A   1      44.858  25.991  37.636  1.00  0.00    -0.237 OA
ATOM    103  O   UNL A   1      46.768  24.837  36.588  1.00  0.00    -0.744 OA
ENDBRANCH  96 100
ENDBRANCH  70  93
ENDBRANCH  44  45
ENDBRANCH  36  39
ENDBRANCH  34  35
ENDBRANCH  33  34
ENDBRANCH  32  33
ENDBRANCH   3  32
TORSDOF 19
ENDMDL
MODEL 3
REMARK VINA RESULT:     -12.3      1.555      2.305
REMARK SMILES Cc1c(Cc2ccccc2)c(=O)oc2cc(OCC(=O)N[C@H](C)C(=O)NCCCNC(=O)c3ccc(-c4c5nc(c(-c6cc(S(=O)(=O)[O-])ccc6F)c6ccc([nH]6)c(-c6cc(S(=O)(=O)[O-])ccc6F)c6nc(c(-c7cc(S(=O)(=O)[O-])ccc7F)c7ccc4[nH]7)C=C6)C=C5)cc3)ccc12
REMARK SMILES IDX 24 1 25 2 26 3 22 5 23 6 21 7 19 8 20 9 18 11 17 12 16 13
REMARK SMILES IDX 1 14 2 15 3 16 98 17 11 18 14 19 97 20 12 21 13 22 15 23
REMARK SMILES IDX 96 24 4 25 5 26 6 27 10 28 7 29 9 30 8 31 27 32 28 33 29 34
REMARK SMILES IDX 30 35 31 36 32 38 33 39 34 40 95 41 35 42 94 43 36 44 37 45
REMARK SMILES IDX 38 46 88 47 39 48 93 49 87 50 89 51 40 52 92 53 86 54 85 55
REMARK SMILES IDX 41 57 73 58 53 59 72 60 54 61 57 62 71 63 90 64 55 65 56 66
REMARK SMILES IDX 70 68 91 69 58 70 42 71 43 72 51 73 44 74 50 75 52 76 49 77
REMARK SMILES IDX 45 78 46 79 47 80 48 81 74 82 75 83 83 84 76 85 82 86 84 87
REMARK SMILES IDX 81 88 77 89 78 90 79 91 80 92 59 93 60 94 68 95 61 96 67 97
REMARK SMILES IDX 69 98 66 99 62 100 63 101 64 102 65 103
REMARK H PARENT 26 4 21 10 30 37 89 56 57 67
REMARK Flexibility Score: inf
ROOT
ATOM      1  C   UNL A   1      31.473  24.209  26.702  1.00  0.00     0.242 C 
ATOM      2  O   UNL A   1      30.438  23.625  27.044  1.00  0.00    -0.273 OA
ATOM      3  N   UNL A   1      31.396  25.560  26.583  1.00  0.00    -0.354 N 
ATOM      4  H   UNL A   1      30.502  25.936  26.751  1.00  0.00     0.163 HD
ENDROOT
BRANCH   1   5
ATOM      5  C   UNL A   1      32.719  23.387  26.290  1.00  0.00     0.168 C 
ATOM      6  C   UNL A   1      33.467  22.915  27.524  1.00  0.00     0.041 C 
BRANCH   5   7
ATOM      7  N   UNL A   1      32.545  22.441  25.180  1.00  0.00    -0.342 N 
ATOM      8  C   UNL A   1      33.091  22.234  23.955  1.00  0.00     0.258 C 
ATOM      9  O   UNL A   1      32.730  21.214  23.358  1.00  0.00    -0.271 OA
ATOM     10  H   UNL A   1      31.845  21.778  25.379  1.00  0.00     0.164 HD
BRANCH   8  11
ATOM     11  C   UNL A   1      34.144  23.155  23.328  1.00  0.00     0.329 C 
BRANCH  11  12
ATOM     12  O   UNL A   1      33.770  23.901  22.196  1.00  0.00    -0.484 OA
BRANCH  12  13
ATOM     13  C   UNL A   1      32.893  24.920  22.396  1.00  0.00     0.123 A 
ATOM     14  C   UNL A   1      30.940  29.675  22.401  1.00  0.00     0.046 C 
ATOM     15  C   UNL A   1      30.406  28.354  22.888  1.00  0.00    -0.029 A 
ATOM     16  C   UNL A   1      29.188  28.156  23.438  1.00  0.00     0.046 A 
ATOM     17  C   UNL A   1      31.306  27.204  22.744  1.00  0.00     0.021 A 
ATOM     18  C   UNL A   1      28.678  26.781  23.718  1.00  0.00     0.340 A 
ATOM     19  C   UNL A   1      30.778  25.929  22.886  1.00  0.00     0.142 A 
ATOM     20  C   UNL A   1      32.674  27.323  22.469  1.00  0.00     0.016 A 
ATOM     21  O   UNL A   1      27.584  26.582  24.238  1.00  0.00    -0.246 OA
ATOM     22  O   UNL A   1      29.451  25.723  23.277  1.00  0.00    -0.422 OA
ATOM     23  C   UNL A   1      31.542  24.787  22.688  1.00  0.00     0.094 A 
ATOM     24  C   UNL A   1      33.462  26.187  22.299  1.00  0.00     0.047 A 
BRANCH  16  25
ATOM     25  C   UNL A   1      28.199  29.250  23.769  1.00  0.00     0.079 C 
BRANCH  25  26
ATOM     26  C   UNL A   1      28.170  30.366  22.741  1.00  0.00    -0.043 A 
ATOM     27  C   UNL A   1      27.938  30.084  21.389  1.00  0.00     0.004 A 
ATOM     28  C   UNL A   1      28.393  31.701  23.112  1.00  0.00     0.004 A 
ATOM     29  C   UNL A   1      27.953  31.109  20.438  1.00  0.00     0.000 A 
ATOM     30  C   UNL A   1      28.390  32.726  22.166  1.00  0.00     0.000 A 
ATOM     31  C   UNL A   1      28.180  32.428  20.826  1.00  0.00     0.000 A 
ENDBRANCH  25  26
ENDBRANCH  16  25
ENDBRANCH  12  13
ENDBRANCH  11  12
ENDBRANCH   8  11
ENDBRANCH   5   7
ENDBRANCH   1   5
BRANCH   3  32
ATOM     32  C   UNL A   1      32.405  26.534  26.250  1.00  0.00     0.117 C 
BRANCH  32  33
ATOM     33  C   UNL A   1      31.886  27.966  26.313  1.00  0.00     0.042 C 
BRANCH  33  34
ATOM     34  C   UNL A   1      32.845  28.959  25.681  1.00  0.00     0.118 C 
BRANCH  34  35
ATOM     35  N   UNL A   1      32.447  30.334  25.975  1.00  0.00    -0.352 N 
ATOM     36  C   UNL A   1      32.946  31.237  26.878  1.00  0.00     0.251 C 
ATOM     37  H   UNL A   1      31.696  30.667  25.432  1.00  0.00     0.163 HD
ATOM     38  O   UNL A   1      32.294  32.244  27.130  1.00  0.00    -0.269 OA
BRANCH  36  39
ATOM     39  C   UNL A   1      34.239  30.989  27.548  1.00  0.00     0.039 A 
ATOM     40  C   UNL A   1      35.137  32.049  27.702  1.00  0.00     0.014 A 
ATOM     41  C   UNL A   1      34.577  29.714  28.004  1.00  0.00     0.014 A 
ATOM     42  C   UNL A   1      36.344  31.838  28.367  1.00  0.00     0.010 A 
ATOM     43  C   UNL A   1      35.723  29.533  28.767  1.00  0.00     0.010 A 
ATOM     44  C   UNL A   1      36.628  30.588  28.940  1.00  0.00    -0.014 A 
BRANCH  44  45
ATOM     45  C   UNL A   1      37.879  30.348  29.701  1.00  0.00     0.031 A 
ATOM     46  C   UNL A   1      38.964  29.493  29.102  1.00  0.00     0.074 A 
ATOM     47  C   UNL A   1      38.001  30.837  30.950  1.00  0.00     0.049 A 
ATOM     48  N   UNL A   1      40.084  29.083  29.638  1.00  0.00    -0.248 NA
ATOM     49  C   UNL A   1      38.743  29.003  27.731  1.00  0.00     0.031 C 
ATOM     50  C   UNL A   1      36.989  31.638  31.647  1.00  0.00     0.029 A 
ATOM     51  N   UNL A   1      39.019  30.727  31.862  1.00  0.00    -0.354 N 
ATOM     52  C   UNL A   1      40.686  28.272  28.681  1.00  0.00     0.074 A 
ATOM     53  C   UNL A   1      39.775  28.194  27.560  1.00  0.00     0.031 C 
ATOM     54  C   UNL A   1      37.452  31.971  32.862  1.00  0.00     0.029 A 
ATOM     55  C   UNL A   1      38.763  31.363  33.055  1.00  0.00     0.049 A 
ATOM     56  H   UNL A   1      39.854  30.239  31.680  1.00  0.00     0.167 HD
ATOM     57  C   UNL A   1      41.900  27.670  28.726  1.00  0.00     0.034 A 
ATOM     58  C   UNL A   1      39.497  31.432  34.184  1.00  0.00     0.034 A 
ATOM     59  C   UNL A   1      42.800  27.782  29.847  1.00  0.00     0.049 A 
ATOM     60  C   UNL A   1      40.838  30.741  34.214  1.00  0.00     0.074 A 
ATOM     61  C   UNL A   1      44.080  27.275  29.975  1.00  0.00     0.029 A 
ATOM     62  N   UNL A   1      42.513  28.443  31.035  1.00  0.00    -0.354 N 
ATOM     63  N   UNL A   1      41.420  30.026  33.278  1.00  0.00    -0.248 NA
ATOM     64  C   UNL A   1      41.625  30.876  35.446  1.00  0.00     0.031 C 
ATOM     65  C   UNL A   1      44.533  27.556  31.268  1.00  0.00     0.029 A 
ATOM     66  C   UNL A   1      43.576  28.321  31.915  1.00  0.00     0.049 A 
ATOM     67  H   UNL A   1      41.676  28.926  31.224  1.00  0.00     0.167 HD
ATOM     68  C   UNL A   1      42.657  29.657  33.798  1.00  0.00     0.074 A 
ATOM     69  C   UNL A   1      42.741  30.241  35.121  1.00  0.00     0.031 C 
ATOM     70  C   UNL A   1      43.638  28.906  33.234  1.00  0.00     0.034 A 
BRANCH  57  71
ATOM     71  C   UNL A   1      42.306  26.821  27.544  1.00  0.00     0.023 A 
ATOM     72  C   UNL A   1      42.177  25.420  27.556  1.00  0.00     0.031 A 
ATOM     73  C   UNL A   1      42.843  27.420  26.391  1.00  0.00     0.131 A 
ATOM     74  C   UNL A   1      42.646  24.664  26.472  1.00  0.00     0.055 A 
ATOM     75  C   UNL A   1      43.228  26.667  25.280  1.00  0.00     0.041 A 
ATOM     76  F   UNL A   1      43.015  28.750  26.329  1.00  0.00    -0.206 F 
ATOM     77  C   UNL A   1      43.143  25.279  25.321  1.00  0.00     0.022 A 
BRANCH  74  78
ATOM     78  S   UNL A   1      42.730  22.860  26.646  1.00  0.00     0.124 S 
ATOM     79  O   UNL A   1      44.118  22.668  27.060  1.00  0.00    -0.237 OA
ATOM     80  O   UNL A   1      41.718  22.593  27.662  1.00  0.00    -0.237 OA
ATOM     81  O   UNL A   1      42.413  22.372  25.306  1.00  0.00    -0.744 OA
ENDBRANCH  74  78
ENDBRANCH  57  71
BRANCH  58  82
ATOM     82  C   UNL A   1      38.983  32.162  35.379  1.00  0.00     0.023 A 
ATOM     83  C   UNL A   1      38.452  31.470  36.479  1.00  0.00     0.031 A 
ATOM     84  C   UNL A   1      38.972  33.568  35.421  1.00  0.00     0.131 A 
ATOM     85  C   UNL A   1      37.883  32.181  37.546  1.00  0.00     0.055 A 
ATOM     86  C   UNL A   1      38.461  34.272  36.513  1.00  0.00     0.041 A 
ATOM     87  F   UNL A   1      39.470  34.282  34.398  1.00  0.00    -0.206 F 
ATOM     88  C   UNL A   1      37.898  33.577  37.577  1.00  0.00     0.022 A 
BRANCH  85  89
ATOM     89  S   UNL A   1      37.023  31.253  38.847  1.00  0.00     0.124 S 
ATOM     90  O   UNL A   1      36.906  29.933  38.240  1.00  0.00    -0.237 OA
ATOM     91  O   UNL A   1      37.954  31.367  39.965  1.00  0.00    -0.237 OA
ATOM     92  O   UNL A   1      35.766  31.982  39.009  1.00  0.00    -0.744 OA
ENDBRANCH  85  89
ENDBRANCH  58  82
BRANCH  70  93
ATOM     93  C   UNL A   1      44.906  28.721  34.032  1.00  0.00     0.023 A 
ATOM     94  C   UNL A   1      45.991  29.607  33.919  1.00  0.00     0.031 A 
ATOM     95  C   UNL A   1      45.029  27.634  34.916  1.00  0.00     0.131 A 
ATOM     96  C   UNL A   1      47.173  29.357  34.631  1.00  0.00     0.055 A 
ATOM     97  C   UNL A   1      46.181  27.430  35.675  1.00  0.00     0.041 A 
ATOM     98  F   UNL A   1      44.026  26.753  35.060  1.00  0.00    -0.206 F 
ATOM     99  C   UNL A   1      47.268  28.286  35.524  1.00  0.00     0.022 A 
BRANCH  96 100
ATOM    100  S   UNL A   1      48.625  30.391  34.297  1.00  0.00     0.124 S 
ATOM    101  O   UNL A   1      49.680  29.668  35.000  1.00  0.00    -0.237 OA
ATOM    102  O   UNL A   1      48.698  30.368  32.840  1.00  0.00    -0.237 OA
ATOM    103  O   UNL A   1      48.265  31.683  34.879  1.00  0.00    -0.744 OA
ENDBRANCH  96 100
ENDBRANCH  70  93
ENDBRANCH  44  45
ENDBRANCH  36  39
ENDBRANCH  34  35
ENDBRANCH  33  34
ENDBRANCH  32  33
ENDBRANCH   3  32
TORSDOF 19
ENDMDL
