MODEL 1
REMARK VINA RESULT:     -11.0      0.000      0.000
REMARK SMILES C=CCN(CC(=O)NCCCNC(=O)c1ccc(-c2c3nc(c(-c4cc(S(=O)(=O)[O-])ccc4F)c4ccc([nH]4)c(-c4cc(S(=O)(=O)[O-])ccc4F)c4nc(c(-c5cc(S(=O)(=O)[O-])ccc5F)c5ccc2[nH]5)C=C4)C=C3)cc1)C(=O)N1CC[C@@H]([NH+]2CCCCC2)C1
REMARK SMILES IDX 9 1 8 2 6 3 7 4 5 6 4 7 3 8 2 9 1 10 78 11 79 12 80 13 81 14
REMARK SMILES IDX 90 15 82 16 83 17 84 18 85 19 89 20 86 22 88 23 87 24 10 25
REMARK SMILES IDX 11 26 12 27 13 28 14 30 15 31 16 32 77 33 17 34 76 35 18 36
REMARK SMILES IDX 19 37 20 38 70 39 21 40 75 41 69 42 71 43 22 44 74 45 68 46
REMARK SMILES IDX 67 47 23 49 55 50 35 51 54 52 36 53 39 54 53 55 72 56 37 57
REMARK SMILES IDX 38 58 52 60 73 61 40 62 24 63 25 64 33 65 26 66 32 67 34 68
REMARK SMILES IDX 31 69 27 70 28 71 29 72 30 73 56 74 57 75 65 76 58 77 64 78
REMARK SMILES IDX 66 79 63 80 59 81 60 82 61 83 62 84 41 85 42 86 50 87 43 88
REMARK SMILES IDX 49 89 51 90 48 91 44 92 45 93 46 94 47 95
REMARK H PARENT 8 5 84 21 12 29 71 48 39 59
REMARK Flexibility Score: inf
ROOT
ATOM      1  C   UNL A   1      31.295  28.039  23.775  1.00  0.00     0.117 C 
ENDROOT
BRANCH   1   2
ATOM      2  N   UNL A   1      30.760  27.694  25.073  1.00  0.00    -0.354 N 
ATOM      3  C   UNL A   1      30.695  26.490  25.709  1.00  0.00     0.239 C 
ATOM      4  O   UNL A   1      30.656  26.531  26.946  1.00  0.00    -0.273 OA
ATOM      5  H   UNL A   1      30.382  28.449  25.578  1.00  0.00     0.163 HD
BRANCH   3   6
ATOM      6  C   UNL A   1      30.706  25.115  24.994  1.00  0.00     0.221 C 
BRANCH   6   7
ATOM      7  N   UNL A   1      31.905  24.256  24.932  1.00  0.00    -0.312 N 
BRANCH   7   8
ATOM      8  C   UNL A   1      32.939  24.663  23.986  1.00  0.00     0.149 C 
BRANCH   8   9
ATOM      9  C   UNL A   1      32.626  24.236  22.584  1.00  0.00    -0.013 C 
ATOM     10  C   UNL A   1      33.309  23.264  21.961  1.00  0.00     0.006 C 
ENDBRANCH   8   9
ENDBRANCH   7   8
BRANCH   7  11
ATOM     11  C   UNL A   1      32.259  23.298  25.887  1.00  0.00     0.320 C 
ATOM     12  O   UNL A   1      31.799  23.317  27.029  1.00  0.00    -0.248 OA
BRANCH  11  13
ATOM     13  N   UNL A   1      33.117  22.294  25.527  1.00  0.00    -0.318 N 
ATOM     14  C   UNL A   1      34.430  22.079  26.044  1.00  0.00     0.128 C 
ATOM     15  C   UNL A   1      32.677  21.026  24.928  1.00  0.00     0.186 C 
ATOM     16  C   UNL A   1      35.077  21.276  24.950  1.00  0.00     0.088 C 
ATOM     17  C   UNL A   1      34.006  20.231  24.620  1.00  0.00     0.205 C 
BRANCH  17  18
ATOM     18  N   UNL A   1      34.166  18.910  25.265  1.00  0.00    -0.331 N 
ATOM     19  C   UNL A   1      35.041  17.919  24.633  1.00  0.00     0.262 C 
ATOM     20  C   UNL A   1      32.909  18.284  25.700  1.00  0.00     0.262 C 
ATOM     21  H   UNL A   1      34.693  19.210  26.084  1.00  0.00     0.348 HD
ATOM     22  C   UNL A   1      34.405  17.098  23.504  1.00  0.00     0.062 C 
ATOM     23  C   UNL A   1      32.151  17.496  24.629  1.00  0.00     0.062 C 
ATOM     24  C   UNL A   1      33.042  16.522  23.864  1.00  0.00     0.012 C 
ENDBRANCH  17  18
ENDBRANCH  11  13
ENDBRANCH   7  11
ENDBRANCH   6   7
ENDBRANCH   3   6
ENDBRANCH   1   2
BRANCH   1  25
ATOM     25  C   UNL A   1      32.477  29.004  23.789  1.00  0.00     0.042 C 
BRANCH  25  26
ATOM     26  C   UNL A   1      33.104  29.269  25.159  1.00  0.00     0.118 C 
BRANCH  26  27
ATOM     27  N   UNL A   1      32.669  30.520  25.765  1.00  0.00    -0.352 N 
ATOM     28  C   UNL A   1      33.125  31.228  26.850  1.00  0.00     0.251 C 
ATOM     29  H   UNL A   1      31.902  30.937  25.312  1.00  0.00     0.163 HD
ATOM     30  O   UNL A   1      32.440  32.166  27.258  1.00  0.00    -0.269 OA
BRANCH  28  31
ATOM     31  C   UNL A   1      34.390  30.890  27.546  1.00  0.00     0.039 A 
ATOM     32  C   UNL A   1      35.353  31.895  27.705  1.00  0.00     0.014 A 
ATOM     33  C   UNL A   1      34.680  29.592  27.973  1.00  0.00     0.014 A 
ATOM     34  C   UNL A   1      36.563  31.618  28.353  1.00  0.00     0.010 A 
ATOM     35  C   UNL A   1      35.858  29.333  28.679  1.00  0.00     0.010 A 
ATOM     36  C   UNL A   1      36.812  30.343  28.883  1.00  0.00    -0.014 A 
BRANCH  36  37
ATOM     37  C   UNL A   1      38.046  30.054  29.665  1.00  0.00     0.031 A 
ATOM     38  C   UNL A   1      39.071  29.080  29.146  1.00  0.00     0.074 A 
ATOM     39  C   UNL A   1      38.211  30.618  30.879  1.00  0.00     0.049 A 
ATOM     40  N   UNL A   1      40.149  28.621  29.730  1.00  0.00    -0.248 NA
ATOM     41  C   UNL A   1      38.836  28.531  27.803  1.00  0.00     0.031 C 
ATOM     42  C   UNL A   1      37.278  31.555  31.508  1.00  0.00     0.029 A 
ATOM     43  N   UNL A   1      39.210  30.472  31.812  1.00  0.00    -0.354 N 
ATOM     44  C   UNL A   1      40.713  27.717  28.836  1.00  0.00     0.074 A 
ATOM     45  C   UNL A   1      39.827  27.659  27.691  1.00  0.00     0.031 C 
ATOM     46  C   UNL A   1      37.754  31.909  32.712  1.00  0.00     0.029 A 
ATOM     47  C   UNL A   1      38.997  31.189  32.967  1.00  0.00     0.049 A 
ATOM     48  H   UNL A   1      40.005  29.909  31.666  1.00  0.00     0.167 HD
ATOM     49  C   UNL A   1      41.869  27.013  28.951  1.00  0.00     0.034 A 
ATOM     50  C   UNL A   1      39.706  31.244  34.112  1.00  0.00     0.034 A 
ATOM     51  C   UNL A   1      42.748  27.091  30.094  1.00  0.00     0.049 A 
ATOM     52  C   UNL A   1      40.970  30.429  34.230  1.00  0.00     0.074 A 
ATOM     53  C   UNL A   1      43.969  26.466  30.286  1.00  0.00     0.029 A 
ATOM     54  N   UNL A   1      42.499  27.829  31.244  1.00  0.00    -0.354 N 
ATOM     55  N   UNL A   1      41.511  29.614  33.355  1.00  0.00    -0.248 NA
ATOM     56  C   UNL A   1      41.722  30.552  35.486  1.00  0.00     0.031 C 
ATOM     57  C   UNL A   1      44.422  26.769  31.574  1.00  0.00     0.029 A 
ATOM     58  C   UNL A   1      43.526  27.648  32.160  1.00  0.00     0.049 A 
ATOM     59  H   UNL A   1      41.709  28.398  31.389  1.00  0.00     0.167 HD
ATOM     60  C   UNL A   1      42.684  29.151  33.946  1.00  0.00     0.074 A 
ATOM     61  C   UNL A   1      42.778  29.789  35.242  1.00  0.00     0.031 C 
ATOM     62  C   UNL A   1      43.605  28.280  33.457  1.00  0.00     0.034 A 
BRANCH  49  63
ATOM     63  C   UNL A   1      42.230  26.076  27.822  1.00  0.00     0.023 A 
ATOM     64  C   UNL A   1      41.765  24.750  27.782  1.00  0.00     0.031 A 
ATOM     65  C   UNL A   1      43.066  26.509  26.777  1.00  0.00     0.131 A 
ATOM     66  C   UNL A   1      42.197  23.884  26.767  1.00  0.00     0.055 A 
ATOM     67  C   UNL A   1      43.427  25.666  25.723  1.00  0.00     0.041 A 
ATOM     68  F   UNL A   1      43.557  27.758  26.767  1.00  0.00    -0.206 F 
ATOM     69  C   UNL A   1      43.005  24.340  25.722  1.00  0.00     0.022 A 
BRANCH  66  70
ATOM     70  S   UNL A   1      41.813  22.117  26.907  1.00  0.00     0.124 S 
ATOM     71  O   UNL A   1      42.283  21.612  25.616  1.00  0.00    -0.237 OA
ATOM     72  O   UNL A   1      42.603  21.716  28.070  1.00  0.00    -0.237 OA
ATOM     73  O   UNL A   1      40.371  22.089  27.092  1.00  0.00    -0.744 OA
ENDBRANCH  66  70
ENDBRANCH  49  63
BRANCH  50  74
ATOM     74  C   UNL A   1      39.234  32.081  35.253  1.00  0.00     0.023 A 
ATOM     75  C   UNL A   1      39.665  33.407  35.405  1.00  0.00     0.031 A 
ATOM     76  C   UNL A   1      38.377  31.550  36.234  1.00  0.00     0.131 A 
ATOM     77  C   UNL A   1      39.277  34.146  36.534  1.00  0.00     0.055 A 
ATOM     78  C   UNL A   1      37.949  32.306  37.328  1.00  0.00     0.041 A 
ATOM     79  F   UNL A   1      37.930  30.287  36.135  1.00  0.00    -0.206 F 
ATOM     80  C   UNL A   1      38.411  33.608  37.489  1.00  0.00     0.022 A 
BRANCH  77  81
ATOM     81  S   UNL A   1      39.992  35.793  36.781  1.00  0.00     0.124 S 
ATOM     82  O   UNL A   1      39.645  36.459  35.532  1.00  0.00    -0.237 OA
ATOM     83  O   UNL A   1      39.285  36.253  37.972  1.00  0.00    -0.237 OA
ATOM     84  O   UNL A   1      41.416  35.522  36.971  1.00  0.00    -0.744 OA
ENDBRANCH  77  81
ENDBRANCH  50  74
BRANCH  62  85
ATOM     85  C   UNL A   1      44.818  28.010  34.312  1.00  0.00     0.023 A 
ATOM     86  C   UNL A   1      44.848  26.965  35.253  1.00  0.00     0.031 A 
ATOM     87  C   UNL A   1      45.962  28.821  34.190  1.00  0.00     0.131 A 
ATOM     88  C   UNL A   1      45.975  26.791  36.070  1.00  0.00     0.055 A 
ATOM     89  C   UNL A   1      47.103  28.606  34.963  1.00  0.00     0.041 A 
ATOM     90  F   UNL A   1      45.989  29.835  33.310  1.00  0.00    -0.206 F 
ATOM     91  C   UNL A   1      47.109  27.594  35.919  1.00  0.00     0.022 A 
BRANCH  88  92
ATOM     92  S   UNL A   1      45.910  25.555  37.395  1.00  0.00     0.124 S 
ATOM     93  O   UNL A   1      47.277  25.584  37.905  1.00  0.00    -0.237 OA
ATOM     94  O   UNL A   1      44.887  26.100  38.282  1.00  0.00    -0.237 OA
ATOM     95  O   UNL A   1      45.534  24.325  36.699  1.00  0.00    -0.744 OA
ENDBRANCH  88  92
ENDBRANCH  62  85
ENDBRANCH  36  37
ENDBRANCH  28  31
ENDBRANCH  26  27
ENDBRANCH  25  26
ENDBRANCH   1  25
TORSDOF 19
ENDMDL
MODEL 2
REMARK VINA RESULT:     -10.8      5.473     10.537
REMARK SMILES C=CCN(CC(=O)NCCCNC(=O)c1ccc(-c2c3nc(c(-c4cc(S(=O)(=O)[O-])ccc4F)c4ccc([nH]4)c(-c4cc(S(=O)(=O)[O-])ccc4F)c4nc(c(-c5cc(S(=O)(=O)[O-])ccc5F)c5ccc2[nH]5)C=C4)C=C3)cc1)C(=O)N1CC[C@@H]([NH+]2CCCCC2)C1
REMARK SMILES IDX 9 1 8 2 6 3 7 4 5 6 4 7 3 8 2 9 1 10 78 11 79 12 80 13 81 14
REMARK SMILES IDX 90 15 82 16 83 17 84 18 85 19 89 20 86 22 88 23 87 24 10 25
REMARK SMILES IDX 11 26 12 27 13 28 14 30 15 31 16 32 77 33 17 34 76 35 18 36
REMARK SMILES IDX 19 37 20 38 70 39 21 40 75 41 69 42 71 43 22 44 74 45 68 46
REMARK SMILES IDX 67 47 23 49 55 50 35 51 54 52 36 53 39 54 53 55 72 56 37 57
REMARK SMILES IDX 38 58 52 60 73 61 40 62 24 63 25 64 33 65 26 66 32 67 34 68
REMARK SMILES IDX 31 69 27 70 28 71 29 72 30 73 56 74 57 75 65 76 58 77 64 78
REMARK SMILES IDX 66 79 63 80 59 81 60 82 61 83 62 84 41 85 42 86 50 87 43 88
REMARK SMILES IDX 49 89 51 90 48 91 44 92 45 93 46 94 47 95
REMARK H PARENT 8 5 84 21 12 29 71 48 39 59
REMARK Flexibility Score: inf
ROOT
ATOM      1  C   UNL A   1      36.661  20.708  24.855  1.00  0.00     0.117 C 
ENDROOT
BRANCH   1   2
ATOM      2  N   UNL A   1      35.411  20.198  25.372  1.00  0.00    -0.354 N 
ATOM      3  C   UNL A   1      34.129  20.446  24.983  1.00  0.00     0.239 C 
ATOM      4  O   UNL A   1      33.304  19.554  25.228  1.00  0.00    -0.273 OA
ATOM      5  H   UNL A   1      35.500  19.571  26.125  1.00  0.00     0.163 HD
BRANCH   3   6
ATOM      6  C   UNL A   1      33.666  21.723  24.237  1.00  0.00     0.221 C 
BRANCH   6   7
ATOM      7  N   UNL A   1      33.601  23.048  24.884  1.00  0.00    -0.312 N 
BRANCH   7   8
ATOM      8  C   UNL A   1      32.731  23.152  26.050  1.00  0.00     0.149 C 
BRANCH   8   9
ATOM      9  C   UNL A   1      31.290  22.921  25.707  1.00  0.00    -0.013 C 
ATOM     10  C   UNL A   1      30.323  22.918  26.636  1.00  0.00     0.006 C 
ENDBRANCH   8   9
ENDBRANCH   7   8
BRANCH   7  11
ATOM     11  C   UNL A   1      34.507  24.093  24.672  1.00  0.00     0.320 C 
ATOM     12  O   UNL A   1      35.713  23.961  24.884  1.00  0.00    -0.248 OA
BRANCH  11  13
ATOM     13  N   UNL A   1      34.038  25.283  24.185  1.00  0.00    -0.318 N 
ATOM     14  C   UNL A   1      33.184  25.456  23.055  1.00  0.00     0.128 C 
ATOM     15  C   UNL A   1      33.937  26.507  24.993  1.00  0.00     0.186 C 
ATOM     16  C   UNL A   1      33.465  26.878  22.656  1.00  0.00     0.088 C 
ATOM     17  C   UNL A   1      33.424  27.618  23.996  1.00  0.00     0.205 C 
BRANCH  17  18
ATOM     18  N   UNL A   1      32.148  28.288  24.331  1.00  0.00    -0.331 N 
ATOM     19  C   UNL A   1      31.290  27.695  25.360  1.00  0.00     0.262 C 
ATOM     20  C   UNL A   1      31.349  28.699  23.168  1.00  0.00     0.262 C 
ATOM     21  H   UNL A   1      32.533  29.116  24.783  1.00  0.00     0.348 HD
ATOM     22  C   UNL A   1      30.371  26.563  24.885  1.00  0.00     0.062 C 
ATOM     23  C   UNL A   1      30.445  27.621  22.565  1.00  0.00     0.062 C 
ATOM     24  C   UNL A   1      29.604  26.896  23.612  1.00  0.00     0.012 C 
ENDBRANCH  17  18
ENDBRANCH  11  13
ENDBRANCH   7  11
ENDBRANCH   6   7
ENDBRANCH   3   6
ENDBRANCH   1   2
BRANCH   1  25
ATOM     25  C   UNL A   1      37.863  19.782  25.015  1.00  0.00     0.042 C 
BRANCH  25  26
ATOM     26  C   UNL A   1      39.063  20.371  25.758  1.00  0.00     0.118 C 
BRANCH  26  27
ATOM     27  N   UNL A   1      40.163  19.432  25.925  1.00  0.00    -0.352 N 
ATOM     28  C   UNL A   1      41.507  19.612  26.145  1.00  0.00     0.251 C 
ATOM     29  H   UNL A   1      39.893  18.488  25.869  1.00  0.00     0.163 HD
ATOM     30  O   UNL A   1      42.245  18.631  26.053  1.00  0.00    -0.269 OA
BRANCH  28  31
ATOM     31  C   UNL A   1      42.090  20.937  26.468  1.00  0.00     0.039 A 
ATOM     32  C   UNL A   1      42.293  21.848  25.424  1.00  0.00     0.014 A 
ATOM     33  C   UNL A   1      42.512  21.269  27.757  1.00  0.00     0.014 A 
ATOM     34  C   UNL A   1      42.845  23.109  25.684  1.00  0.00     0.010 A 
ATOM     35  C   UNL A   1      43.000  22.550  28.027  1.00  0.00     0.010 A 
ATOM     36  C   UNL A   1      43.167  23.489  26.996  1.00  0.00    -0.014 A 
BRANCH  36  37
ATOM     37  C   UNL A   1      43.658  24.860  27.309  1.00  0.00     0.031 A 
ATOM     38  C   UNL A   1      42.716  25.906  27.843  1.00  0.00     0.074 A 
ATOM     39  C   UNL A   1      44.940  25.184  27.044  1.00  0.00     0.049 A 
ATOM     40  N   UNL A   1      42.931  27.177  28.071  1.00  0.00    -0.248 NA
ATOM     41  C   UNL A   1      41.343  25.469  28.133  1.00  0.00     0.031 C 
ATOM     42  C   UNL A   1      45.945  24.270  26.498  1.00  0.00     0.029 A 
ATOM     43  N   UNL A   1      45.615  26.373  27.179  1.00  0.00    -0.354 N 
ATOM     44  C   UNL A   1      41.720  27.697  28.515  1.00  0.00     0.074 A 
ATOM     45  C   UNL A   1      40.763  26.610  28.476  1.00  0.00     0.031 C 
ATOM     46  C   UNL A   1      47.108  24.928  26.358  1.00  0.00     0.029 A 
ATOM     47  C   UNL A   1      46.922  26.319  26.754  1.00  0.00     0.049 A 
ATOM     48  H   UNL A   1      45.201  27.188  27.548  1.00  0.00     0.167 HD
ATOM     49  C   UNL A   1      41.436  28.958  28.932  1.00  0.00     0.034 A 
ATOM     50  C   UNL A   1      47.860  27.284  26.667  1.00  0.00     0.034 A 
ATOM     51  C   UNL A   1      42.404  30.028  28.978  1.00  0.00     0.049 A 
ATOM     52  C   UNL A   1      47.513  28.684  27.106  1.00  0.00     0.074 A 
ATOM     53  C   UNL A   1      42.235  31.324  29.437  1.00  0.00     0.029 A 
ATOM     54  N   UNL A   1      43.719  29.934  28.539  1.00  0.00    -0.354 N 
ATOM     55  N   UNL A   1      46.374  29.146  27.566  1.00  0.00    -0.248 NA
ATOM     56  C   UNL A   1      48.582  29.688  27.022  1.00  0.00     0.031 C 
ATOM     57  C   UNL A   1      43.422  32.030  29.212  1.00  0.00     0.029 A 
ATOM     58  C   UNL A   1      44.360  31.157  28.686  1.00  0.00     0.049 A 
ATOM     59  H   UNL A   1      44.135  29.120  28.176  1.00  0.00     0.167 HD
ATOM     60  C   UNL A   1      46.601  30.490  27.855  1.00  0.00     0.074 A 
ATOM     61  C   UNL A   1      47.986  30.757  27.532  1.00  0.00     0.031 C 
ATOM     62  C   UNL A   1      45.741  31.417  28.350  1.00  0.00     0.034 A 
BRANCH  49  63
ATOM     63  C   UNL A   1      40.012  29.252  29.344  1.00  0.00     0.023 A 
ATOM     64  C   UNL A   1      39.629  29.317  30.695  1.00  0.00     0.031 A 
ATOM     65  C   UNL A   1      39.016  29.455  28.370  1.00  0.00     0.131 A 
ATOM     66  C   UNL A   1      38.282  29.501  31.036  1.00  0.00     0.055 A 
ATOM     67  C   UNL A   1      37.689  29.720  28.717  1.00  0.00     0.041 A 
ATOM     68  F   UNL A   1      39.314  29.389  27.064  1.00  0.00    -0.206 F 
ATOM     69  C   UNL A   1      37.311  29.729  30.056  1.00  0.00     0.022 A 
BRANCH  66  70
ATOM     70  S   UNL A   1      37.784  29.292  32.768  1.00  0.00     0.124 S 
ATOM     71  O   UNL A   1      36.514  30.018  32.798  1.00  0.00    -0.237 OA
ATOM     72  O   UNL A   1      37.686  27.838  32.891  1.00  0.00    -0.237 OA
ATOM     73  O   UNL A   1      38.866  29.909  33.517  1.00  0.00    -0.744 OA
ENDBRANCH  66  70
ENDBRANCH  49  63
BRANCH  50  74
ATOM     74  C   UNL A   1      49.215  26.973  26.125  1.00  0.00     0.023 A 
ATOM     75  C   UNL A   1      50.297  26.720  26.980  1.00  0.00     0.031 A 
ATOM     76  C   UNL A   1      49.455  26.967  24.738  1.00  0.00     0.131 A 
ATOM     77  C   UNL A   1      51.580  26.518  26.447  1.00  0.00     0.055 A 
ATOM     78  C   UNL A   1      50.721  26.711  24.210  1.00  0.00     0.041 A 
ATOM     79  F   UNL A   1      48.453  27.198  23.874  1.00  0.00    -0.206 F 
ATOM     80  C   UNL A   1      51.796  26.498  25.067  1.00  0.00     0.022 A 
BRANCH  77  81
ATOM     81  S   UNL A   1      52.980  26.366  27.589  1.00  0.00     0.124 S 
ATOM     82  O   UNL A   1      53.625  27.665  27.442  1.00  0.00    -0.237 OA
ATOM     83  O   UNL A   1      52.308  26.122  28.861  1.00  0.00    -0.237 OA
ATOM     84  O   UNL A   1      53.732  25.231  27.056  1.00  0.00    -0.744 OA
ENDBRANCH  77  81
ENDBRANCH  50  74
BRANCH  62  85
ATOM     85  C   UNL A   1      46.296  32.795  28.618  1.00  0.00     0.023 A 
ATOM     86  C   UNL A   1      46.250  33.816  27.653  1.00  0.00     0.031 A 
ATOM     87  C   UNL A   1      46.889  33.087  29.860  1.00  0.00     0.131 A 
ATOM     88  C   UNL A   1      46.835  35.062  27.924  1.00  0.00     0.055 A 
ATOM     89  C   UNL A   1      47.415  34.346  30.147  1.00  0.00     0.041 A 
ATOM     90  F   UNL A   1      46.963  32.149  30.819  1.00  0.00    -0.206 F 
ATOM     91  C   UNL A   1      47.401  35.339  29.172  1.00  0.00     0.022 A 
BRANCH  88  92
ATOM     92  S   UNL A   1      46.922  36.294  26.596  1.00  0.00     0.124 S 
ATOM     93  O   UNL A   1      48.362  36.453  26.423  1.00  0.00    -0.237 OA
ATOM     94  O   UNL A   1      46.219  35.627  25.504  1.00  0.00    -0.237 OA
ATOM     95  O   UNL A   1      46.233  37.454  27.158  1.00  0.00    -0.744 OA
ENDBRANCH  88  92
ENDBRANCH  62  85
ENDBRANCH  36  37
ENDBRANCH  28  31
ENDBRANCH  26  27
ENDBRANCH  25  26
ENDBRANCH   1  25
TORSDOF 19
ENDMDL
MODEL 3
REMARK VINA RESULT:     -10.8      5.298     10.689
REMARK SMILES C=CCN(CC(=O)NCCCNC(=O)c1ccc(-c2c3nc(c(-c4cc(S(=O)(=O)[O-])ccc4F)c4ccc([nH]4)c(-c4cc(S(=O)(=O)[O-])ccc4F)c4nc(c(-c5cc(S(=O)(=O)[O-])ccc5F)c5ccc2[nH]5)C=C4)C=C3)cc1)C(=O)N1CC[C@@H]([NH+]2CCCCC2)C1
REMARK SMILES IDX 9 1 8 2 6 3 7 4 5 6 4 7 3 8 2 9 1 10 78 11 79 12 80 13 81 14
REMARK SMILES IDX 90 15 82 16 83 17 84 18 85 19 89 20 86 22 88 23 87 24 10 25
REMARK SMILES IDX 11 26 12 27 13 28 14 30 15 31 16 32 77 33 17 34 76 35 18 36
REMARK SMILES IDX 19 37 20 38 70 39 21 40 75 41 69 42 71 43 22 44 74 45 68 46
REMARK SMILES IDX 67 47 23 49 55 50 35 51 54 52 36 53 39 54 53 55 72 56 37 57
REMARK SMILES IDX 38 58 52 60 73 61 40 62 24 63 25 64 33 65 26 66 32 67 34 68
REMARK SMILES IDX 31 69 27 70 28 71 29 72 30 73 56 74 57 75 65 76 58 77 64 78
REMARK SMILES IDX 66 79 63 80 59 81 60 82 61 83 62 84 41 85 42 86 50 87 43 88
REMARK SMILES IDX 49 89 51 90 48 91 44 92 45 93 46 94 47 95
REMARK H PARENT 8 5 84 21 12 29 71 48 39 59
REMARK Flexibility Score: inf
ROOT
ATOM      1  C   UNL A   1      37.389  20.984  24.598  1.00  0.00     0.117 C 
ENDROOT
BRANCH   1   2
ATOM      2  N   UNL A   1      37.945  22.243  25.040  1.00  0.00    -0.354 N 
ATOM      3  C   UNL A   1      37.387  23.241  25.781  1.00  0.00     0.239 C 
ATOM      4  O   UNL A   1      38.177  23.949  26.422  1.00  0.00    -0.273 OA
ATOM      5  H   UNL A   1      38.874  22.405  24.761  1.00  0.00     0.163 HD
BRANCH   3   6
ATOM      6  C   UNL A   1      35.865  23.508  25.896  1.00  0.00     0.221 C 
BRANCH   6   7
ATOM      7  N   UNL A   1      34.909  23.160  24.827  1.00  0.00    -0.312 N 
BRANCH   7   8
ATOM      8  C   UNL A   1      33.694  22.472  25.250  1.00  0.00     0.149 C 
BRANCH   8   9
ATOM      9  C   UNL A   1      33.372  21.298  24.375  1.00  0.00    -0.013 C 
ATOM     10  C   UNL A   1      33.730  20.046  24.697  1.00  0.00     0.006 C 
ENDBRANCH   8   9
ENDBRANCH   7   8
BRANCH   7  11
ATOM     11  C   UNL A   1      34.922  23.689  23.532  1.00  0.00     0.320 C 
ATOM     12  O   UNL A   1      35.724  23.304  22.680  1.00  0.00    -0.248 OA
BRANCH  11  13
ATOM     13  N   UNL A   1      33.995  24.639  23.199  1.00  0.00    -0.318 N 
ATOM     14  C   UNL A   1      32.891  24.467  22.311  1.00  0.00     0.128 C 
ATOM     15  C   UNL A   1      33.697  25.811  24.034  1.00  0.00     0.186 C 
ATOM     16  C   UNL A   1      32.598  25.880  21.887  1.00  0.00     0.088 C 
ATOM     17  C   UNL A   1      32.635  26.643  23.215  1.00  0.00     0.205 C 
BRANCH  17  18
ATOM     18  N   UNL A   1      31.327  26.891  23.861  1.00  0.00    -0.331 N 
ATOM     19  C   UNL A   1      30.167  27.182  23.014  1.00  0.00     0.262 C 
ATOM     20  C   UNL A   1      31.374  27.811  25.006  1.00  0.00     0.262 C 
ATOM     21  H   UNL A   1      31.150  25.945  24.198  1.00  0.00     0.348 HD
ATOM     22  C   UNL A   1      30.025  28.641  22.564  1.00  0.00     0.062 C 
ATOM     23  C   UNL A   1      31.312  29.303  24.665  1.00  0.00     0.062 C 
ATOM     24  C   UNL A   1      30.183  29.646  23.698  1.00  0.00     0.012 C 
ENDBRANCH  17  18
ENDBRANCH  11  13
ENDBRANCH   7  11
ENDBRANCH   6   7
ENDBRANCH   3   6
ENDBRANCH   1   2
BRANCH   1  25
ATOM     25  C   UNL A   1      38.219  19.748  24.931  1.00  0.00     0.042 C 
BRANCH  25  26
ATOM     26  C   UNL A   1      39.204  19.901  26.092  1.00  0.00     0.118 C 
BRANCH  26  27
ATOM     27  N   UNL A   1      40.390  19.067  25.962  1.00  0.00    -0.352 N 
ATOM     28  C   UNL A   1      41.732  19.360  25.977  1.00  0.00     0.251 C 
ATOM     29  H   UNL A   1      40.194  18.111  25.839  1.00  0.00     0.163 HD
ATOM     30  O   UNL A   1      42.522  18.474  25.648  1.00  0.00    -0.269 OA
BRANCH  28  31
ATOM     31  C   UNL A   1      42.250  20.698  26.353  1.00  0.00     0.039 A 
ATOM     32  C   UNL A   1      42.688  21.554  25.336  1.00  0.00     0.014 A 
ATOM     33  C   UNL A   1      42.389  21.093  27.686  1.00  0.00     0.014 A 
ATOM     34  C   UNL A   1      43.188  22.825  25.647  1.00  0.00     0.010 A 
ATOM     35  C   UNL A   1      42.824  22.384  27.993  1.00  0.00     0.010 A 
ATOM     36  C   UNL A   1      43.224  23.269  26.978  1.00  0.00    -0.014 A 
BRANCH  36  37
ATOM     37  C   UNL A   1      43.655  24.653  27.323  1.00  0.00     0.031 A 
ATOM     38  C   UNL A   1      42.686  25.624  27.942  1.00  0.00     0.074 A 
ATOM     39  C   UNL A   1      44.903  25.057  27.012  1.00  0.00     0.049 A 
ATOM     40  N   UNL A   1      42.843  26.895  28.212  1.00  0.00    -0.248 NA
ATOM     41  C   UNL A   1      41.354  25.100  28.279  1.00  0.00     0.031 C 
ATOM     42  C   UNL A   1      45.929  24.222  26.383  1.00  0.00     0.029 A 
ATOM     43  N   UNL A   1      45.519  26.276  27.164  1.00  0.00    -0.354 N 
ATOM     44  C   UNL A   1      41.628  27.329  28.732  1.00  0.00     0.074 A 
ATOM     45  C   UNL A   1      40.731  26.193  28.693  1.00  0.00     0.031 C 
ATOM     46  C   UNL A   1      47.047  24.948  26.216  1.00  0.00     0.029 A 
ATOM     47  C   UNL A   1      46.806  26.311  26.676  1.00  0.00     0.049 A 
ATOM     48  H   UNL A   1      45.081  27.052  27.584  1.00  0.00     0.167 HD
ATOM     49  C   UNL A   1      41.297  28.556  29.213  1.00  0.00     0.034 A 
ATOM     50  C   UNL A   1      47.685  27.329  26.585  1.00  0.00     0.034 A 
ATOM     51  C   UNL A   1      42.208  29.676  29.256  1.00  0.00     0.049 A 
ATOM     52  C   UNL A   1      47.284  28.690  27.096  1.00  0.00     0.074 A 
ATOM     53  C   UNL A   1      41.992  30.942  29.775  1.00  0.00     0.029 A 
ATOM     54  N   UNL A   1      43.503  29.672  28.753  1.00  0.00    -0.354 N 
ATOM     55  N   UNL A   1      46.146  29.071  27.627  1.00  0.00    -0.248 NA
ATOM     56  C   UNL A   1      48.293  29.755  27.003  1.00  0.00     0.031 C 
ATOM     57  C   UNL A   1      43.127  31.721  29.523  1.00  0.00     0.029 A 
ATOM     58  C   UNL A   1      44.084  30.922  28.920  1.00  0.00     0.049 A 
ATOM     59  H   UNL A   1      43.945  28.896  28.339  1.00  0.00     0.167 HD
ATOM     60  C   UNL A   1      46.314  30.413  27.959  1.00  0.00     0.074 A 
ATOM     61  C   UNL A   1      47.666  30.769  27.583  1.00  0.00     0.031 C 
ATOM     62  C   UNL A   1      45.430  31.271  28.531  1.00  0.00     0.034 A 
BRANCH  49  63
ATOM     63  C   UNL A   1      39.881  28.755  29.702  1.00  0.00     0.023 A 
ATOM     64  C   UNL A   1      38.859  29.205  28.848  1.00  0.00     0.031 A 
ATOM     65  C   UNL A   1      39.551  28.506  31.047  1.00  0.00     0.131 A 
ATOM     66  C   UNL A   1      37.580  29.465  29.361  1.00  0.00     0.055 A 
ATOM     67  C   UNL A   1      38.254  28.688  31.533  1.00  0.00     0.041 A 
ATOM     68  F   UNL A   1      40.486  28.092  31.915  1.00  0.00    -0.206 F 
ATOM     69  C   UNL A   1      37.262  29.185  30.693  1.00  0.00     0.022 A 
BRANCH  66  70
ATOM     70  S   UNL A   1      36.373  30.312  28.304  1.00  0.00     0.124 S 
ATOM     71  O   UNL A   1      36.464  31.686  28.799  1.00  0.00    -0.237 OA
ATOM     72  O   UNL A   1      36.915  30.083  26.965  1.00  0.00    -0.237 OA
ATOM     73  O   UNL A   1      35.121  29.633  28.594  1.00  0.00    -0.744 OA
ENDBRANCH  66  70
ENDBRANCH  49  63
BRANCH  50  74
ATOM     74  C   UNL A   1      49.026  27.115  25.968  1.00  0.00     0.023 A 
ATOM     75  C   UNL A   1      49.279  27.486  24.639  1.00  0.00     0.031 A 
ATOM     76  C   UNL A   1      50.064  26.496  26.688  1.00  0.00     0.131 A 
ATOM     77  C   UNL A   1      50.521  27.194  24.054  1.00  0.00     0.055 A 
ATOM     78  C   UNL A   1      51.316  26.256  26.120  1.00  0.00     0.041 A 
ATOM     79  F   UNL A   1      49.877  26.124  27.965  1.00  0.00    -0.206 F 
ATOM     80  C   UNL A   1      51.546  26.594  24.790  1.00  0.00     0.022 A 
BRANCH  77  81
ATOM     81  S   UNL A   1      50.750  27.532  22.287  1.00  0.00     0.124 S 
ATOM     82  O   UNL A   1      52.182  27.313  22.125  1.00  0.00    -0.237 OA
ATOM     83  O   UNL A   1      49.875  26.538  21.674  1.00  0.00    -0.237 OA
ATOM     84  O   UNL A   1      50.310  28.919  22.146  1.00  0.00    -0.744 OA
ENDBRANCH  77  81
ENDBRANCH  50  74
BRANCH  62  85
ATOM     85  C   UNL A   1      45.923  32.666  28.828  1.00  0.00     0.023 A 
ATOM     86  C   UNL A   1      45.860  33.697  27.873  1.00  0.00     0.031 A 
ATOM     87  C   UNL A   1      46.473  32.967  30.088  1.00  0.00     0.131 A 
ATOM     88  C   UNL A   1      46.388  34.962  28.174  1.00  0.00     0.055 A 
ATOM     89  C   UNL A   1      46.940  34.243  30.402  1.00  0.00     0.041 A 
ATOM     90  F   UNL A   1      46.560  32.021  31.038  1.00  0.00    -0.206 F 
ATOM     91  C   UNL A   1      46.911  35.246  29.438  1.00  0.00     0.022 A 
BRANCH  88  92
ATOM     92  S   UNL A   1      46.459  36.212  26.862  1.00  0.00     0.124 S 
ATOM     93  O   UNL A   1      45.442  37.165  27.295  1.00  0.00    -0.237 OA
ATOM     94  O   UNL A   1      47.841  36.673  26.943  1.00  0.00    -0.237 OA
ATOM     95  O   UNL A   1      46.128  35.460  25.653  1.00  0.00    -0.744 OA
ENDBRANCH  88  92
ENDBRANCH  62  85
ENDBRANCH  36  37
ENDBRANCH  28  31
ENDBRANCH  26  27
ENDBRANCH  25  26
ENDBRANCH   1  25
TORSDOF 19
ENDMDL
