MODEL 1
REMARK VINA RESULT:     -12.3      0.000      0.000
REMARK SMILES O=C(NCCCNC(=O)[C@H](c1ccccc1)C(c1ccccc1)c1ccccc1)c1ccc(-c2c3nc(c(-c4cc(S(=O)(=O)[O-])ccc4F)c4ccc([nH]4)c(-c4cc(S(=O)(=O)[O-])ccc4F)c4nc(c(-c5cc(S(=O)(=O)[O-])ccc5F)c5ccc2[nH]5)C=C4)C=C3)cc1
REMARK SMILES IDX 4 1 3 2 1 3 2 4 30 6 31 7 92 8 32 9 91 10 33 11 34 12 35 13
REMARK SMILES IDX 85 14 36 15 90 16 84 17 86 18 37 19 89 20 83 21 82 22 38 24
REMARK SMILES IDX 70 25 50 26 69 27 51 28 54 29 68 30 87 31 52 32 53 33 67 35
REMARK SMILES IDX 88 36 55 37 39 38 40 39 48 40 41 41 47 42 49 43 46 44 42 45
REMARK SMILES IDX 43 46 44 47 45 48 71 49 72 50 80 51 73 52 79 53 81 54 78 55
REMARK SMILES IDX 74 56 75 57 76 58 77 59 56 60 57 61 65 62 58 63 64 64 66 65
REMARK SMILES IDX 63 66 59 67 60 68 61 69 62 70 5 71 6 72 7 73 8 74 9 76 10 77
REMARK SMILES IDX 17 78 18 79 19 80 23 81 20 82 22 83 21 84 24 85 25 86 29 87
REMARK SMILES IDX 26 88 28 89 27 90 11 91 12 92 16 93 13 94 15 95 14 96
REMARK H PARENT 3 5 86 23 54 34 7 75
REMARK Flexibility Score: inf
ROOT
ATOM      1  C   UNL A   1      36.058  22.210  25.118  1.00  0.00     0.118 C 
ENDROOT
BRANCH   1   2
ATOM      2  N   UNL A   1      36.970  21.094  25.304  1.00  0.00    -0.352 N 
ATOM      3  O   UNL A   1      38.893  19.990  25.581  1.00  0.00    -0.269 OA
ATOM      4  C   UNL A   1      38.293  21.062  25.674  1.00  0.00     0.251 C 
ATOM      5  H   UNL A   1      36.571  20.210  25.134  1.00  0.00     0.163 HD
BRANCH   4   6
ATOM      6  C   UNL A   1      39.023  22.262  26.165  1.00  0.00     0.039 A 
ATOM      7  C   UNL A   1      40.214  22.180  26.892  1.00  0.00     0.014 A 
ATOM      8  C   UNL A   1      38.545  23.525  25.794  1.00  0.00     0.014 A 
ATOM      9  C   UNL A   1      40.851  23.342  27.342  1.00  0.00     0.010 A 
ATOM     10  C   UNL A   1      39.229  24.688  26.175  1.00  0.00     0.010 A 
ATOM     11  C   UNL A   1      40.379  24.611  26.974  1.00  0.00    -0.014 A 
BRANCH  11  12
ATOM     12  C   UNL A   1      41.116  25.842  27.378  1.00  0.00     0.031 A 
ATOM     13  C   UNL A   1      40.453  26.899  28.221  1.00  0.00     0.074 A 
ATOM     14  C   UNL A   1      42.386  26.025  26.964  1.00  0.00     0.049 A 
ATOM     15  N   UNL A   1      40.917  28.059  28.615  1.00  0.00    -0.248 NA
ATOM     16  C   UNL A   1      39.082  26.618  28.668  1.00  0.00     0.031 C 
ATOM     17  C   UNL A   1      43.143  25.088  26.133  1.00  0.00     0.029 A 
ATOM     18  N   UNL A   1      43.264  27.060  27.177  1.00  0.00    -0.354 N 
ATOM     19  C   UNL A   1      39.892  28.656  29.343  1.00  0.00     0.074 A 
ATOM     20  C   UNL A   1      38.768  27.742  29.298  1.00  0.00     0.031 C 
ATOM     21  C   UNL A   1      44.375  25.578  25.926  1.00  0.00     0.029 A 
ATOM     22  C   UNL A   1      44.479  26.891  26.553  1.00  0.00     0.049 A 
ATOM     23  H   UNL A   1      43.045  27.848  27.725  1.00  0.00     0.167 HD
ATOM     24  C   UNL A   1      39.891  29.847  29.997  1.00  0.00     0.034 A 
ATOM     25  C   UNL A   1      45.547  27.707  26.466  1.00  0.00     0.034 A 
ATOM     26  C   UNL A   1      41.017  30.752  30.033  1.00  0.00     0.049 A 
ATOM     27  C   UNL A   1      45.510  29.044  27.156  1.00  0.00     0.074 A 
ATOM     28  C   UNL A   1      41.131  31.964  30.693  1.00  0.00     0.029 A 
ATOM     29  N   UNL A   1      42.223  30.553  29.369  1.00  0.00    -0.354 N 
ATOM     30  N   UNL A   1      44.539  29.584  27.856  1.00  0.00    -0.248 NA
ATOM     31  C   UNL A   1      46.712  29.880  27.047  1.00  0.00     0.031 C 
ATOM     32  C   UNL A   1      42.372  32.528  30.374  1.00  0.00     0.029 A 
ATOM     33  C   UNL A   1      43.069  31.633  29.578  1.00  0.00     0.049 A 
ATOM     34  H   UNL A   1      42.443  29.761  28.828  1.00  0.00     0.167 HD
ATOM     35  C   UNL A   1      45.026  30.813  28.293  1.00  0.00     0.074 A 
ATOM     36  C   UNL A   1      46.377  30.930  27.785  1.00  0.00     0.031 C 
ATOM     37  C   UNL A   1      44.411  31.753  29.056  1.00  0.00     0.034 A 
BRANCH  24  38
ATOM     38  C   UNL A   1      38.610  30.254  30.689  1.00  0.00     0.023 A 
ATOM     39  C   UNL A   1      37.601  30.968  30.018  1.00  0.00     0.031 A 
ATOM     40  C   UNL A   1      38.407  29.956  32.048  1.00  0.00     0.131 A 
ATOM     41  C   UNL A   1      36.484  31.438  30.727  1.00  0.00     0.055 A 
ATOM     42  C   UNL A   1      37.252  30.350  32.727  1.00  0.00     0.041 A 
ATOM     43  F   UNL A   1      39.339  29.290  32.748  1.00  0.00    -0.206 F 
ATOM     44  C   UNL A   1      36.291  31.113  32.070  1.00  0.00     0.022 A 
BRANCH  41  45
ATOM     45  S   UNL A   1      35.378  32.617  29.905  1.00  0.00     0.124 S 
ATOM     46  O   UNL A   1      34.827  31.800  28.822  1.00  0.00    -0.237 OA
ATOM     47  O   UNL A   1      34.456  32.980  30.965  1.00  0.00    -0.237 OA
ATOM     48  O   UNL A   1      36.283  33.683  29.463  1.00  0.00    -0.744 OA
ENDBRANCH  41  45
ENDBRANCH  24  38
BRANCH  25  49
ATOM     49  C   UNL A   1      46.733  27.294  25.664  1.00  0.00     0.023 A 
ATOM     50  C   UNL A   1      46.915  27.743  24.348  1.00  0.00     0.031 A 
ATOM     51  C   UNL A   1      47.702  26.431  26.210  1.00  0.00     0.131 A 
ATOM     52  C   UNL A   1      48.025  27.305  23.609  1.00  0.00     0.055 A 
ATOM     53  C   UNL A   1      48.828  26.037  25.488  1.00  0.00     0.041 A 
ATOM     54  F   UNL A   1      47.576  25.977  27.468  1.00  0.00    -0.206 F 
ATOM     55  C   UNL A   1      48.991  26.468  24.174  1.00  0.00     0.022 A 
BRANCH  52  56
ATOM     56  S   UNL A   1      48.166  27.805  21.871  1.00  0.00     0.124 S 
ATOM     57  O   UNL A   1      46.869  28.430  21.637  1.00  0.00    -0.237 OA
ATOM     58  O   UNL A   1      49.314  28.705  21.907  1.00  0.00    -0.237 OA
ATOM     59  O   UNL A   1      48.388  26.543  21.170  1.00  0.00    -0.744 OA
ENDBRANCH  52  56
ENDBRANCH  25  49
BRANCH  37  60
ATOM     60  C   UNL A   1      45.220  32.971  29.429  1.00  0.00     0.023 A 
ATOM     61  C   UNL A   1      45.204  34.142  28.652  1.00  0.00     0.031 A 
ATOM     62  C   UNL A   1      46.026  32.952  30.581  1.00  0.00     0.131 A 
ATOM     63  C   UNL A   1      46.016  35.230  29.011  1.00  0.00     0.055 A 
ATOM     64  C   UNL A   1      46.790  34.055  30.963  1.00  0.00     0.041 A 
ATOM     65  F   UNL A   1      46.082  31.858  31.357  1.00  0.00    -0.206 F 
ATOM     66  C   UNL A   1      46.795  35.200  30.170  1.00  0.00     0.022 A 
BRANCH  63  67
ATOM     67  S   UNL A   1      46.099  36.664  27.902  1.00  0.00     0.124 S 
ATOM     68  O   UNL A   1      47.168  37.452  28.507  1.00  0.00    -0.237 OA
ATOM     69  O   UNL A   1      46.407  36.049  26.617  1.00  0.00    -0.237 OA
ATOM     70  O   UNL A   1      44.763  37.253  28.002  1.00  0.00    -0.744 OA
ENDBRANCH  63  67
ENDBRANCH  37  60
ENDBRANCH  11  12
ENDBRANCH   4   6
ENDBRANCH   1   2
BRANCH   1  71
ATOM     71  C   UNL A   1      34.967  22.271  26.183  1.00  0.00     0.042 C 
BRANCH  71  72
ATOM     72  C   UNL A   1      34.310  23.637  26.392  1.00  0.00     0.117 C 
BRANCH  72  73
ATOM     73  N   UNL A   1      32.935  23.504  26.825  1.00  0.00    -0.355 N 
ATOM     74  C   UNL A   1      31.765  24.059  26.449  1.00  0.00     0.228 C 
ATOM     75  H   UNL A   1      32.831  22.862  27.564  1.00  0.00     0.163 HD
ATOM     76  O   UNL A   1      30.860  23.911  27.291  1.00  0.00    -0.274 OA
BRANCH  74  77
ATOM     77  C   UNL A   1      31.395  24.706  25.096  1.00  0.00     0.120 C 
BRANCH  77  78
ATOM     78  C   UNL A   1      31.679  26.190  24.695  1.00  0.00     0.066 C 
BRANCH  78  79
ATOM     79  C   UNL A   1      30.405  26.900  24.165  1.00  0.00    -0.039 A 
ATOM     80  C   UNL A   1      29.147  26.295  24.318  1.00  0.00     0.004 A 
ATOM     81  C   UNL A   1      30.473  28.117  23.460  1.00  0.00     0.004 A 
ATOM     82  C   UNL A   1      27.999  26.896  23.793  1.00  0.00     0.000 A 
ATOM     83  C   UNL A   1      29.324  28.719  22.944  1.00  0.00     0.000 A 
ATOM     84  C   UNL A   1      28.087  28.107  23.109  1.00  0.00     0.000 A 
ENDBRANCH  78  79
BRANCH  78  85
ATOM     85  C   UNL A   1      32.302  27.114  25.738  1.00  0.00    -0.039 A 
ATOM     86  C   UNL A   1      31.562  27.672  26.791  1.00  0.00     0.004 A 
ATOM     87  C   UNL A   1      33.642  27.524  25.574  1.00  0.00     0.004 A 
ATOM     88  C   UNL A   1      32.149  28.598  27.659  1.00  0.00     0.000 A 
ATOM     89  C   UNL A   1      34.232  28.428  26.459  1.00  0.00     0.000 A 
ATOM     90  C   UNL A   1      33.482  28.968  27.499  1.00  0.00     0.000 A 
ENDBRANCH  78  85
ENDBRANCH  77  78
BRANCH  77  91
ATOM     91  C   UNL A   1      31.871  23.756  23.975  1.00  0.00    -0.035 A 
ATOM     92  C   UNL A   1      31.480  22.408  23.940  1.00  0.00     0.004 A 
ATOM     93  C   UNL A   1      32.745  24.229  22.982  1.00  0.00     0.004 A 
ATOM     94  C   UNL A   1      31.986  21.550  22.961  1.00  0.00     0.000 A 
ATOM     95  C   UNL A   1      33.249  23.368  22.007  1.00  0.00     0.000 A 
ATOM     96  C   UNL A   1      32.877  22.028  22.001  1.00  0.00     0.000 A 
ENDBRANCH  77  91
ENDBRANCH  74  77
ENDBRANCH  72  73
ENDBRANCH  71  72
ENDBRANCH   1  71
TORSDOF 17
ENDMDL
MODEL 2
REMARK VINA RESULT:     -12.3      4.908      9.878
REMARK SMILES O=C(NCCCNC(=O)[C@H](c1ccccc1)C(c1ccccc1)c1ccccc1)c1ccc(-c2c3nc(c(-c4cc(S(=O)(=O)[O-])ccc4F)c4ccc([nH]4)c(-c4cc(S(=O)(=O)[O-])ccc4F)c4nc(c(-c5cc(S(=O)(=O)[O-])ccc5F)c5ccc2[nH]5)C=C4)C=C3)cc1
REMARK SMILES IDX 4 1 3 2 1 3 2 4 30 6 31 7 92 8 32 9 91 10 33 11 34 12 35 13
REMARK SMILES IDX 85 14 36 15 90 16 84 17 86 18 37 19 89 20 83 21 82 22 38 24
REMARK SMILES IDX 70 25 50 26 69 27 51 28 54 29 68 30 87 31 52 32 53 33 67 35
REMARK SMILES IDX 88 36 55 37 39 38 40 39 48 40 41 41 47 42 49 43 46 44 42 45
REMARK SMILES IDX 43 46 44 47 45 48 71 49 72 50 80 51 73 52 79 53 81 54 78 55
REMARK SMILES IDX 74 56 75 57 76 58 77 59 56 60 57 61 65 62 58 63 64 64 66 65
REMARK SMILES IDX 63 66 59 67 60 68 61 69 62 70 5 71 6 72 7 73 8 74 9 76 10 77
REMARK SMILES IDX 17 78 18 79 19 80 23 81 20 82 22 83 21 84 24 85 25 86 29 87
REMARK SMILES IDX 26 88 28 89 27 90 11 91 12 92 16 93 13 94 15 95 14 96
REMARK H PARENT 3 5 86 23 54 34 7 75
REMARK Flexibility Score: inf
ROOT
ATOM      1  C   UNL A   1      33.569  29.317  24.520  1.00  0.00     0.118 C 
ENDROOT
BRANCH   1   2
ATOM      2  N   UNL A   1      32.785  30.233  25.329  1.00  0.00    -0.352 N 
ATOM      3  O   UNL A   1      32.087  31.358  27.130  1.00  0.00    -0.269 OA
ATOM      4  C   UNL A   1      33.003  30.736  26.591  1.00  0.00     0.251 C 
ATOM      5  H   UNL A   1      31.956  30.548  24.902  1.00  0.00     0.163 HD
BRANCH   4   6
ATOM      6  C   UNL A   1      34.283  30.546  27.325  1.00  0.00     0.039 A 
ATOM      7  C   UNL A   1      35.148  31.601  27.626  1.00  0.00     0.014 A 
ATOM      8  C   UNL A   1      34.578  29.269  27.820  1.00  0.00     0.014 A 
ATOM      9  C   UNL A   1      36.347  31.363  28.307  1.00  0.00     0.010 A 
ATOM     10  C   UNL A   1      35.739  29.047  28.573  1.00  0.00     0.010 A 
ATOM     11  C   UNL A   1      36.650  30.087  28.807  1.00  0.00    -0.014 A 
BRANCH  11  12
ATOM     12  C   UNL A   1      37.883  29.861  29.613  1.00  0.00     0.031 A 
ATOM     13  C   UNL A   1      38.989  28.975  29.103  1.00  0.00     0.074 A 
ATOM     14  C   UNL A   1      38.003  30.437  30.826  1.00  0.00     0.049 A 
ATOM     15  N   UNL A   1      40.103  28.614  29.691  1.00  0.00    -0.248 NA
ATOM     16  C   UNL A   1      38.810  28.409  27.759  1.00  0.00     0.031 C 
ATOM     17  C   UNL A   1      37.002  31.308  31.446  1.00  0.00     0.029 A 
ATOM     18  N   UNL A   1      39.009  30.376  31.758  1.00  0.00    -0.354 N 
ATOM     19  C   UNL A   1      40.753  27.767  28.798  1.00  0.00     0.074 A 
ATOM     20  C   UNL A   1      39.883  27.639  27.646  1.00  0.00     0.031 C 
ATOM     21  C   UNL A   1      37.453  31.715  32.642  1.00  0.00     0.029 A 
ATOM     22  C   UNL A   1      38.744  31.089  32.906  1.00  0.00     0.049 A 
ATOM     23  H   UNL A   1      39.843  29.871  31.619  1.00  0.00     0.167 HD
ATOM     24  C   UNL A   1      41.964  27.164  28.921  1.00  0.00     0.034 A 
ATOM     25  C   UNL A   1      39.440  31.206  34.053  1.00  0.00     0.034 A 
ATOM     26  C   UNL A   1      42.821  27.298  30.077  1.00  0.00     0.049 A 
ATOM     27  C   UNL A   1      40.757  30.490  34.190  1.00  0.00     0.074 A 
ATOM     28  C   UNL A   1      44.079  26.757  30.287  1.00  0.00     0.029 A 
ATOM     29  N   UNL A   1      42.505  28.012  31.227  1.00  0.00    -0.354 N 
ATOM     30  N   UNL A   1      41.365  29.709  33.328  1.00  0.00    -0.248 NA
ATOM     31  C   UNL A   1      41.483  30.674  35.454  1.00  0.00     0.031 C 
ATOM     32  C   UNL A   1      44.491  27.085  31.584  1.00  0.00     0.029 A 
ATOM     33  C   UNL A   1      43.528  27.898  32.158  1.00  0.00     0.049 A 
ATOM     34  H   UNL A   1      41.675  28.524  31.362  1.00  0.00     0.167 HD
ATOM     35  C   UNL A   1      42.559  29.331  33.937  1.00  0.00     0.074 A 
ATOM     36  C   UNL A   1      42.587  29.975  35.233  1.00  0.00     0.031 C 
ATOM     37  C   UNL A   1      43.545  28.530  33.457  1.00  0.00     0.034 A 
BRANCH  24  38
ATOM     38  C   UNL A   1      42.407  26.267  27.787  1.00  0.00     0.023 A 
ATOM     39  C   UNL A   1      42.026  24.915  27.722  1.00  0.00     0.031 A 
ATOM     40  C   UNL A   1      43.251  26.759  26.776  1.00  0.00     0.131 A 
ATOM     41  C   UNL A   1      42.560  24.083  26.725  1.00  0.00     0.055 A 
ATOM     42  C   UNL A   1      43.709  25.948  25.736  1.00  0.00     0.041 A 
ATOM     43  F   UNL A   1      43.662  28.037  26.791  1.00  0.00    -0.206 F 
ATOM     44  C   UNL A   1      43.379  24.596  25.717  1.00  0.00     0.022 A 
BRANCH  41  45
ATOM     45  S   UNL A   1      42.299  22.294  26.867  1.00  0.00     0.124 S 
ATOM     46  O   UNL A   1      41.008  22.129  26.194  1.00  0.00    -0.237 OA
ATOM     47  O   UNL A   1      43.453  21.748  26.178  1.00  0.00    -0.237 OA
ATOM     48  O   UNL A   1      42.264  22.068  28.315  1.00  0.00    -0.744 OA
ENDBRANCH  41  45
ENDBRANCH  24  38
BRANCH  25  49
ATOM     49  C   UNL A   1      38.886  32.009  35.178  1.00  0.00     0.023 A 
ATOM     50  C   UNL A   1      38.359  31.393  36.323  1.00  0.00     0.031 A 
ATOM     51  C   UNL A   1      38.871  33.415  35.116  1.00  0.00     0.131 A 
ATOM     52  C   UNL A   1      37.812  32.179  37.349  1.00  0.00     0.055 A 
ATOM     53  C   UNL A   1      38.370  34.194  36.159  1.00  0.00     0.041 A 
ATOM     54  F   UNL A   1      39.368  34.053  34.044  1.00  0.00    -0.206 F 
ATOM     55  C   UNL A   1      37.827  33.575  37.282  1.00  0.00     0.022 A 
BRANCH  52  56
ATOM     56  S   UNL A   1      37.028  31.349  38.758  1.00  0.00     0.124 S 
ATOM     57  O   UNL A   1      38.003  31.580  39.818  1.00  0.00    -0.237 OA
ATOM     58  O   UNL A   1      35.769  32.077  38.876  1.00  0.00    -0.237 OA
ATOM     59  O   UNL A   1      36.904  29.964  38.313  1.00  0.00    -0.744 OA
ENDBRANCH  52  56
ENDBRANCH  25  49
BRANCH  37  60
ATOM     60  C   UNL A   1      44.766  28.350  34.326  1.00  0.00     0.023 A 
ATOM     61  C   UNL A   1      44.875  27.293  35.247  1.00  0.00     0.031 A 
ATOM     62  C   UNL A   1      45.834  29.260  34.234  1.00  0.00     0.131 A 
ATOM     63  C   UNL A   1      46.008  27.199  36.071  1.00  0.00     0.055 A 
ATOM     64  C   UNL A   1      46.981  29.132  35.018  1.00  0.00     0.041 A 
ATOM     65  F   UNL A   1      45.780  30.290  33.375  1.00  0.00    -0.206 F 
ATOM     66  C   UNL A   1      47.068  28.101  35.951  1.00  0.00     0.022 A 
BRANCH  63  67
ATOM     67  S   UNL A   1      46.049  25.922  37.360  1.00  0.00     0.124 S 
ATOM     68  O   UNL A   1      46.936  24.924  36.769  1.00  0.00    -0.237 OA
ATOM     69  O   UNL A   1      46.582  26.650  38.506  1.00  0.00    -0.237 OA
ATOM     70  O   UNL A   1      44.651  25.513  37.483  1.00  0.00    -0.744 OA
ENDBRANCH  63  67
ENDBRANCH  37  60
ENDBRANCH  11  12
ENDBRANCH   4   6
ENDBRANCH   1   2
BRANCH   1  71
ATOM     71  C   UNL A   1      33.017  27.894  24.527  1.00  0.00     0.042 C 
BRANCH  71  72
ATOM     72  C   UNL A   1      34.001  26.793  24.129  1.00  0.00     0.117 C 
BRANCH  72  73
ATOM     73  N   UNL A   1      33.625  26.172  22.877  1.00  0.00    -0.355 N 
ATOM     74  C   UNL A   1      33.178  24.950  22.521  1.00  0.00     0.228 C 
ATOM     75  H   UNL A   1      33.717  26.781  22.109  1.00  0.00     0.163 HD
ATOM     76  O   UNL A   1      33.279  24.727  21.300  1.00  0.00    -0.274 OA
BRANCH  74  77
ATOM     77  C   UNL A   1      32.460  23.894  23.391  1.00  0.00     0.120 C 
BRANCH  77  78
ATOM     78  C   UNL A   1      33.160  22.918  24.391  1.00  0.00     0.066 C 
BRANCH  78  79
ATOM     79  C   UNL A   1      32.903  21.432  24.023  1.00  0.00    -0.039 A 
ATOM     80  C   UNL A   1      33.311  20.411  24.897  1.00  0.00     0.004 A 
ATOM     81  C   UNL A   1      32.331  21.060  22.791  1.00  0.00     0.004 A 
ATOM     82  C   UNL A   1      33.139  19.067  24.552  1.00  0.00     0.000 A 
ATOM     83  C   UNL A   1      32.152  19.718  22.452  1.00  0.00     0.000 A 
ATOM     84  C   UNL A   1      32.559  18.721  23.332  1.00  0.00     0.000 A 
ENDBRANCH  78  79
BRANCH  78  85
ATOM     85  C   UNL A   1      34.662  23.068  24.616  1.00  0.00    -0.039 A 
ATOM     86  C   UNL A   1      35.614  22.573  23.714  1.00  0.00     0.004 A 
ATOM     87  C   UNL A   1      35.118  23.616  25.834  1.00  0.00     0.004 A 
ATOM     88  C   UNL A   1      36.978  22.637  24.015  1.00  0.00     0.000 A 
ATOM     89  C   UNL A   1      36.482  23.703  26.118  1.00  0.00     0.000 A 
ATOM     90  C   UNL A   1      37.411  23.209  25.209  1.00  0.00     0.000 A 
ENDBRANCH  78  85
ENDBRANCH  77  78
BRANCH  77  91
ATOM     91  C   UNL A   1      31.264  24.588  24.080  1.00  0.00    -0.035 A 
ATOM     92  C   UNL A   1      30.333  25.344  23.349  1.00  0.00     0.004 A 
ATOM     93  C   UNL A   1      31.113  24.500  25.474  1.00  0.00     0.004 A 
ATOM     94  C   UNL A   1      29.306  26.026  24.004  1.00  0.00     0.000 A 
ATOM     95  C   UNL A   1      30.087  25.185  26.125  1.00  0.00     0.000 A 
ATOM     96  C   UNL A   1      29.188  25.954  25.392  1.00  0.00     0.000 A 
ENDBRANCH  77  91
ENDBRANCH  74  77
ENDBRANCH  72  73
ENDBRANCH  71  72
ENDBRANCH   1  71
TORSDOF 17
ENDMDL
MODEL 3
REMARK VINA RESULT:     -12.2      1.498      1.760
REMARK SMILES O=C(NCCCNC(=O)[C@H](c1ccccc1)C(c1ccccc1)c1ccccc1)c1ccc(-c2c3nc(c(-c4cc(S(=O)(=O)[O-])ccc4F)c4ccc([nH]4)c(-c4cc(S(=O)(=O)[O-])ccc4F)c4nc(c(-c5cc(S(=O)(=O)[O-])ccc5F)c5ccc2[nH]5)C=C4)C=C3)cc1
REMARK SMILES IDX 4 1 3 2 1 3 2 4 30 6 31 7 92 8 32 9 91 10 33 11 34 12 35 13
REMARK SMILES IDX 85 14 36 15 90 16 84 17 86 18 37 19 89 20 83 21 82 22 38 24
REMARK SMILES IDX 70 25 50 26 69 27 51 28 54 29 68 30 87 31 52 32 53 33 67 35
REMARK SMILES IDX 88 36 55 37 39 38 40 39 48 40 41 41 47 42 49 43 46 44 42 45
REMARK SMILES IDX 43 46 44 47 45 48 71 49 72 50 80 51 73 52 79 53 81 54 78 55
REMARK SMILES IDX 74 56 75 57 76 58 77 59 56 60 57 61 65 62 58 63 64 64 66 65
REMARK SMILES IDX 63 66 59 67 60 68 61 69 62 70 5 71 6 72 7 73 8 74 9 76 10 77
REMARK SMILES IDX 17 78 18 79 19 80 23 81 20 82 22 83 21 84 24 85 25 86 29 87
REMARK SMILES IDX 26 88 28 89 27 90 11 91 12 92 16 93 13 94 15 95 14 96
REMARK H PARENT 3 5 86 23 54 34 7 75
REMARK Flexibility Score: inf
ROOT
ATOM      1  C   UNL A   1      35.938  22.315  25.053  1.00  0.00     0.118 C 
ENDROOT
BRANCH   1   2
ATOM      2  N   UNL A   1      36.832  21.182  25.218  1.00  0.00    -0.352 N 
ATOM      3  O   UNL A   1      38.736  20.044  25.487  1.00  0.00    -0.269 OA
ATOM      4  C   UNL A   1      38.150  21.122  25.602  1.00  0.00     0.251 C 
ATOM      5  H   UNL A   1      36.423  20.309  25.022  1.00  0.00     0.163 HD
BRANCH   4   6
ATOM      6  C   UNL A   1      38.891  22.298  26.133  1.00  0.00     0.039 A 
ATOM      7  C   UNL A   1      40.042  22.178  26.916  1.00  0.00     0.014 A 
ATOM      8  C   UNL A   1      38.470  23.576  25.744  1.00  0.00     0.014 A 
ATOM      9  C   UNL A   1      40.692  23.319  27.401  1.00  0.00     0.010 A 
ATOM     10  C   UNL A   1      39.168  24.716  26.162  1.00  0.00     0.010 A 
ATOM     11  C   UNL A   1      40.276  24.603  27.016  1.00  0.00    -0.014 A 
BRANCH  11  12
ATOM     12  C   UNL A   1      41.030  25.810  27.459  1.00  0.00     0.031 A 
ATOM     13  C   UNL A   1      40.342  26.915  28.218  1.00  0.00     0.074 A 
ATOM     14  C   UNL A   1      42.338  25.928  27.158  1.00  0.00     0.049 A 
ATOM     15  N   UNL A   1      40.821  28.063  28.629  1.00  0.00    -0.248 NA
ATOM     16  C   UNL A   1      38.926  26.705  28.545  1.00  0.00     0.031 C 
ATOM     17  C   UNL A   1      43.123  24.939  26.417  1.00  0.00     0.029 A 
ATOM     18  N   UNL A   1      43.239  26.928  27.428  1.00  0.00    -0.354 N 
ATOM     19  C   UNL A   1      39.764  28.721  29.249  1.00  0.00     0.074 A 
ATOM     20  C   UNL A   1      38.608  27.856  29.121  1.00  0.00     0.031 C 
ATOM     21  C   UNL A   1      44.389  25.370  26.312  1.00  0.00     0.029 A 
ATOM     22  C   UNL A   1      44.496  26.692  26.920  1.00  0.00     0.049 A 
ATOM     23  H   UNL A   1      43.008  27.738  27.939  1.00  0.00     0.167 HD
ATOM     24  C   UNL A   1      39.758  29.927  29.876  1.00  0.00     0.034 A 
ATOM     25  C   UNL A   1      45.604  27.459  26.913  1.00  0.00     0.034 A 
ATOM     26  C   UNL A   1      40.917  30.783  29.995  1.00  0.00     0.049 A 
ATOM     27  C   UNL A   1      45.566  28.813  27.570  1.00  0.00     0.074 A 
ATOM     28  C   UNL A   1      41.026  32.004  30.638  1.00  0.00     0.029 A 
ATOM     29  N   UNL A   1      42.167  30.515  29.446  1.00  0.00    -0.354 N 
ATOM     30  N   UNL A   1      44.562  29.411  28.169  1.00  0.00    -0.248 NA
ATOM     31  C   UNL A   1      46.810  29.593  27.553  1.00  0.00     0.031 C 
ATOM     32  C   UNL A   1      42.315  32.505  30.421  1.00  0.00     0.029 A 
ATOM     33  C   UNL A   1      43.039  31.563  29.710  1.00  0.00     0.049 A 
ATOM     34  H   UNL A   1      42.398  29.702  28.944  1.00  0.00     0.167 HD
ATOM     35  C   UNL A   1      45.063  30.627  28.623  1.00  0.00     0.074 A 
ATOM     36  C   UNL A   1      46.458  30.674  28.236  1.00  0.00     0.031 C 
ATOM     37  C   UNL A   1      44.426  31.611  29.309  1.00  0.00     0.034 A 
BRANCH  24  38
ATOM     38  C   UNL A   1      38.440  30.405  30.442  1.00  0.00     0.023 A 
ATOM     39  C   UNL A   1      37.518  31.124  29.661  1.00  0.00     0.031 A 
ATOM     40  C   UNL A   1      38.115  30.172  31.790  1.00  0.00     0.131 A 
ATOM     41  C   UNL A   1      36.364  31.660  30.254  1.00  0.00     0.055 A 
ATOM     42  C   UNL A   1      36.924  30.633  32.353  1.00  0.00     0.041 A 
ATOM     43  F   UNL A   1      38.962  29.505  32.591  1.00  0.00    -0.206 F 
ATOM     44  C   UNL A   1      36.049  31.399  31.589  1.00  0.00     0.022 A 
BRANCH  41  45
ATOM     45  S   UNL A   1      35.374  32.840  29.296  1.00  0.00     0.124 S 
ATOM     46  O   UNL A   1      34.125  32.868  30.061  1.00  0.00    -0.237 OA
ATOM     47  O   UNL A   1      36.180  34.045  29.345  1.00  0.00    -0.237 OA
ATOM     48  O   UNL A   1      35.267  32.204  27.979  1.00  0.00    -0.744 OA
ENDBRANCH  41  45
ENDBRANCH  24  38
BRANCH  25  49
ATOM     49  C   UNL A   1      46.837  26.976  26.230  1.00  0.00     0.023 A 
ATOM     50  C   UNL A   1      47.875  26.363  26.947  1.00  0.00     0.031 A 
ATOM     51  C   UNL A   1      46.993  27.130  24.840  1.00  0.00     0.131 A 
ATOM     52  C   UNL A   1      49.037  25.952  26.277  1.00  0.00     0.055 A 
ATOM     53  C   UNL A   1      48.130  26.677  24.171  1.00  0.00     0.041 A 
ATOM     54  F   UNL A   1      46.026  27.706  24.108  1.00  0.00    -0.206 F 
ATOM     55  C   UNL A   1      49.166  26.091  24.892  1.00  0.00     0.022 A 
BRANCH  52  56
ATOM     56  S   UNL A   1      50.411  25.276  27.251  1.00  0.00     0.124 S 
ATOM     57  O   UNL A   1      50.734  26.397  28.125  1.00  0.00    -0.237 OA
ATOM     58  O   UNL A   1      49.789  24.122  27.891  1.00  0.00    -0.237 OA
ATOM     59  O   UNL A   1      51.419  24.959  26.243  1.00  0.00    -0.744 OA
ENDBRANCH  52  56
ENDBRANCH  25  49
BRANCH  37  60
ATOM     60  C   UNL A   1      45.253  32.802  29.728  1.00  0.00     0.023 A 
ATOM     61  C   UNL A   1      45.357  33.954  28.931  1.00  0.00     0.031 A 
ATOM     62  C   UNL A   1      45.954  32.774  30.947  1.00  0.00     0.131 A 
ATOM     63  C   UNL A   1      46.182  35.015  29.339  1.00  0.00     0.055 A 
ATOM     64  C   UNL A   1      46.730  33.852  31.374  1.00  0.00     0.041 A 
ATOM     65  F   UNL A   1      45.893  31.697  31.745  1.00  0.00    -0.206 F 
ATOM     66  C   UNL A   1      46.855  34.978  30.563  1.00  0.00     0.022 A 
BRANCH  63  67
ATOM     67  S   UNL A   1      46.425  36.419  28.216  1.00  0.00     0.124 S 
ATOM     68  O   UNL A   1      47.500  37.152  28.876  1.00  0.00    -0.237 OA
ATOM     69  O   UNL A   1      46.777  35.760  26.963  1.00  0.00    -0.237 OA
ATOM     70  O   UNL A   1      45.125  37.089  28.217  1.00  0.00    -0.744 OA
ENDBRANCH  63  67
ENDBRANCH  37  60
ENDBRANCH  11  12
ENDBRANCH   4   6
ENDBRANCH   1   2
BRANCH   1  71
ATOM     71  C   UNL A   1      34.737  22.269  25.994  1.00  0.00     0.042 C 
BRANCH  71  72
ATOM     72  C   UNL A   1      34.230  23.621  26.499  1.00  0.00     0.117 C 
BRANCH  72  73
ATOM     73  N   UNL A   1      32.836  23.555  26.883  1.00  0.00    -0.355 N 
ATOM     74  C   UNL A   1      31.703  24.144  26.448  1.00  0.00     0.228 C 
ATOM     75  H   UNL A   1      32.679  22.939  27.635  1.00  0.00     0.163 HD
ATOM     76  O   UNL A   1      30.762  24.057  27.258  1.00  0.00    -0.274 OA
BRANCH  74  77
ATOM     77  C   UNL A   1      31.409  24.766  25.065  1.00  0.00     0.120 C 
BRANCH  77  78
ATOM     78  C   UNL A   1      31.685  26.252  24.664  1.00  0.00     0.066 C 
BRANCH  78  79
ATOM     79  C   UNL A   1      30.403  26.959  24.149  1.00  0.00    -0.039 A 
ATOM     80  C   UNL A   1      29.150  26.344  24.302  1.00  0.00     0.004 A 
ATOM     81  C   UNL A   1      30.459  28.185  23.457  1.00  0.00     0.004 A 
ATOM     82  C   UNL A   1      27.995  26.943  23.791  1.00  0.00     0.000 A 
ATOM     83  C   UNL A   1      29.304  28.785  22.955  1.00  0.00     0.000 A 
ATOM     84  C   UNL A   1      28.072  28.163  23.120  1.00  0.00     0.000 A 
ENDBRANCH  78  79
BRANCH  78  85
ATOM     85  C   UNL A   1      32.316  27.175  25.702  1.00  0.00    -0.039 A 
ATOM     86  C   UNL A   1      31.582  27.747  26.750  1.00  0.00     0.004 A 
ATOM     87  C   UNL A   1      33.661  27.571  25.536  1.00  0.00     0.004 A 
ATOM     88  C   UNL A   1      32.178  28.672  27.613  1.00  0.00     0.000 A 
ATOM     89  C   UNL A   1      34.260  28.474  26.416  1.00  0.00     0.000 A 
ATOM     90  C   UNL A   1      33.515  29.027  27.453  1.00  0.00     0.000 A 
ENDBRANCH  78  85
ENDBRANCH  77  78
BRANCH  77  91
ATOM     91  C   UNL A   1      31.981  23.815  23.991  1.00  0.00    -0.035 A 
ATOM     92  C   UNL A   1      32.878  24.268  23.010  1.00  0.00     0.004 A 
ATOM     93  C   UNL A   1      31.575  22.470  23.961  1.00  0.00     0.004 A 
ATOM     94  C   UNL A   1      33.320  23.407  22.003  1.00  0.00     0.000 A 
ATOM     95  C   UNL A   1      32.017  21.613  22.952  1.00  0.00     0.000 A 
ATOM     96  C   UNL A   1      32.883  22.083  21.969  1.00  0.00     0.000 A 
ENDBRANCH  77  91
ENDBRANCH  74  77
ENDBRANCH  72  73
ENDBRANCH  71  72
ENDBRANCH   1  71
TORSDOF 17
ENDMDL
