MODEL 1
REMARK VINA RESULT:     -12.5      0.000      0.000
REMARK SMILES O=C(NCCCNC(=O)C1(Cc2ccncc2)Cc2ccccc2C1)c1ccc(-c2c3nc(c(-c4cc(S(=O)(=O)[O-])ccc4F)c4ccc([nH]4)c(-c4cc(S(=O)(=O)[O-])ccc4F)c4nc(c(-c5cc(S(=O)(=O)[O-])ccc5F)c5ccc2[nH]5)C=C4)C=C3)cc1
REMARK SMILES IDX 4 1 3 2 1 3 2 4 26 6 27 7 88 8 28 9 87 10 29 11 30 12 31 13
REMARK SMILES IDX 81 14 32 15 86 16 80 17 82 18 33 19 85 20 79 21 78 22 34 24
REMARK SMILES IDX 66 25 46 26 65 27 47 28 50 29 64 30 83 31 48 32 49 33 63 35
REMARK SMILES IDX 84 36 51 37 35 38 36 39 44 40 37 41 43 42 45 43 42 44 38 45
REMARK SMILES IDX 39 46 40 47 41 48 67 49 68 50 76 51 69 52 75 53 77 54 74 55
REMARK SMILES IDX 70 56 71 57 72 58 73 59 52 60 53 61 61 62 54 63 60 64 62 65
REMARK SMILES IDX 59 66 55 67 56 68 57 69 58 70 5 71 6 72 7 73 8 74 9 76 10 77
REMARK SMILES IDX 18 78 25 79 19 80 24 81 20 82 23 83 21 84 22 85 11 86 12 87
REMARK SMILES IDX 13 88 17 89 14 90 16 91 15 92
REMARK H PARENT 3 5 82 23 50 34 7 75
REMARK Flexibility Score: inf
ROOT
ATOM      1  C   UNL A   1      32.846  29.118  25.322  1.00  0.00     0.118 C 
ENDROOT
BRANCH   1   2
ATOM      2  N   UNL A   1      32.421  30.450  25.744  1.00  0.00    -0.352 N 
ATOM      3  O   UNL A   1      32.205  32.249  27.076  1.00  0.00    -0.269 OA
ATOM      4  C   UNL A   1      32.859  31.250  26.774  1.00  0.00     0.251 C 
ATOM      5  H   UNL A   1      31.699  30.840  25.202  1.00  0.00     0.163 HD
BRANCH   4   6
ATOM      6  C   UNL A   1      34.088  30.914  27.524  1.00  0.00     0.039 A 
ATOM      7  C   UNL A   1      34.361  29.595  27.877  1.00  0.00     0.014 A 
ATOM      8  C   UNL A   1      35.001  31.921  27.853  1.00  0.00     0.014 A 
ATOM      9  C   UNL A   1      35.421  29.308  28.723  1.00  0.00     0.010 A 
ATOM     10  C   UNL A   1      36.150  31.607  28.589  1.00  0.00     0.010 A 
ATOM     11  C   UNL A   1      36.351  30.300  29.060  1.00  0.00    -0.014 A 
BRANCH  11  12
ATOM     12  C   UNL A   1      37.557  29.910  29.835  1.00  0.00     0.031 A 
ATOM     13  C   UNL A   1      38.639  29.065  29.224  1.00  0.00     0.074 A 
ATOM     14  C   UNL A   1      37.687  30.378  31.093  1.00  0.00     0.049 A 
ATOM     15  N   UNL A   1      39.764  28.655  29.756  1.00  0.00    -0.248 NA
ATOM     16  C   UNL A   1      38.427  28.609  27.844  1.00  0.00     0.031 C 
ATOM     17  C   UNL A   1      36.695  31.209  31.785  1.00  0.00     0.029 A 
ATOM     18  N   UNL A   1      38.706  30.259  32.002  1.00  0.00    -0.354 N 
ATOM     19  C   UNL A   1      40.385  27.878  28.785  1.00  0.00     0.074 A 
ATOM     20  C   UNL A   1      39.491  27.844  27.646  1.00  0.00     0.031 C 
ATOM     21  C   UNL A   1      37.185  31.582  32.974  1.00  0.00     0.029 A 
ATOM     22  C   UNL A   1      38.478  30.943  33.173  1.00  0.00     0.049 A 
ATOM     23  H   UNL A   1      39.521  29.736  31.832  1.00  0.00     0.167 HD
ATOM     24  C   UNL A   1      41.592  27.258  28.842  1.00  0.00     0.034 A 
ATOM     25  C   UNL A   1      39.211  31.026  34.299  1.00  0.00     0.034 A 
ATOM     26  C   UNL A   1      42.463  27.307  29.995  1.00  0.00     0.049 A 
ATOM     27  C   UNL A   1      40.518  30.286  34.356  1.00  0.00     0.074 A 
ATOM     28  C   UNL A   1      43.716  26.739  30.155  1.00  0.00     0.029 A 
ATOM     29  N   UNL A   1      42.169  27.952  31.191  1.00  0.00    -0.354 N 
ATOM     30  N   UNL A   1      41.093  29.558  33.428  1.00  0.00    -0.248 NA
ATOM     31  C   UNL A   1      41.269  30.376  35.612  1.00  0.00     0.031 C 
ATOM     32  C   UNL A   1      44.143  26.976  31.467  1.00  0.00     0.029 A 
ATOM     33  C   UNL A   1      43.198  27.765  32.104  1.00  0.00     0.049 A 
ATOM     34  H   UNL A   1      41.349  28.470  31.365  1.00  0.00     0.167 HD
ATOM     35  C   UNL A   1      42.286  29.112  33.984  1.00  0.00     0.074 A 
ATOM     36  C   UNL A   1      42.355  29.675  35.320  1.00  0.00     0.031 C 
ATOM     37  C   UNL A   1      43.239  28.311  33.442  1.00  0.00     0.034 A 
BRANCH  24  38
ATOM     38  C   UNL A   1      42.004  26.428  27.646  1.00  0.00     0.023 A 
ATOM     39  C   UNL A   1      41.658  25.069  27.528  1.00  0.00     0.031 A 
ATOM     40  C   UNL A   1      42.791  26.992  26.626  1.00  0.00     0.131 A 
ATOM     41  C   UNL A   1      42.167  24.304  26.466  1.00  0.00     0.055 A 
ATOM     42  C   UNL A   1      43.221  26.248  25.525  1.00  0.00     0.041 A 
ATOM     43  F   UNL A   1      43.172  28.279  26.690  1.00  0.00    -0.206 F 
ATOM     44  C   UNL A   1      42.924  24.890  25.450  1.00  0.00     0.022 A 
BRANCH  41  45
ATOM     45  S   UNL A   1      41.963  22.502  26.521  1.00  0.00     0.124 S 
ATOM     46  O   UNL A   1      42.639  22.165  27.772  1.00  0.00    -0.237 OA
ATOM     47  O   UNL A   1      40.514  22.348  26.518  1.00  0.00    -0.237 OA
ATOM     48  O   UNL A   1      42.643  22.042  25.313  1.00  0.00    -0.744 OA
ENDBRANCH  41  45
ENDBRANCH  24  38
BRANCH  25  49
ATOM     49  C   UNL A   1      38.705  31.803  35.464  1.00  0.00     0.023 A 
ATOM     50  C   UNL A   1      38.148  31.160  36.579  1.00  0.00     0.031 A 
ATOM     51  C   UNL A   1      38.773  33.209  35.477  1.00  0.00     0.131 A 
ATOM     52  C   UNL A   1      37.656  31.922  37.649  1.00  0.00     0.055 A 
ATOM     53  C   UNL A   1      38.331  33.960  36.566  1.00  0.00     0.041 A 
ATOM     54  F   UNL A   1      39.302  33.873  34.436  1.00  0.00    -0.206 F 
ATOM     55  C   UNL A   1      37.758  33.317  37.658  1.00  0.00     0.022 A 
BRANCH  52  56
ATOM     56  S   UNL A   1      36.815  31.068  39.009  1.00  0.00     0.124 S 
ATOM     57  O   UNL A   1      37.781  31.211  40.092  1.00  0.00    -0.237 OA
ATOM     58  O   UNL A   1      35.586  31.843  39.139  1.00  0.00    -0.237 OA
ATOM     59  O   UNL A   1      36.640  29.709  38.502  1.00  0.00    -0.744 OA
ENDBRANCH  52  56
ENDBRANCH  25  49
BRANCH  37  60
ATOM     60  C   UNL A   1      44.451  28.031  34.296  1.00  0.00     0.023 A 
ATOM     61  C   UNL A   1      44.508  26.920  35.155  1.00  0.00     0.031 A 
ATOM     62  C   UNL A   1      45.550  28.907  34.272  1.00  0.00     0.131 A 
ATOM     63  C   UNL A   1      45.613  26.747  36.001  1.00  0.00     0.055 A 
ATOM     64  C   UNL A   1      46.676  28.694  35.069  1.00  0.00     0.041 A 
ATOM     65  F   UNL A   1      45.547  29.988  33.475  1.00  0.00    -0.206 F 
ATOM     66  C   UNL A   1      46.705  27.617  35.951  1.00  0.00     0.022 A 
BRANCH  63  67
ATOM     67  S   UNL A   1      45.561  25.427  37.244  1.00  0.00     0.124 S 
ATOM     68  O   UNL A   1      45.193  26.161  38.450  1.00  0.00    -0.237 OA
ATOM     69  O   UNL A   1      44.542  24.532  36.706  1.00  0.00    -0.237 OA
ATOM     70  O   UNL A   1      46.922  24.894  37.234  1.00  0.00    -0.744 OA
ENDBRANCH  63  67
ENDBRANCH  37  60
ENDBRANCH  11  12
ENDBRANCH   4   6
ENDBRANCH   1   2
BRANCH   1  71
ATOM     71  C   UNL A   1      33.049  29.016  23.823  1.00  0.00     0.042 C 
BRANCH  71  72
ATOM     72  C   UNL A   1      32.134  28.011  23.155  1.00  0.00     0.117 C 
BRANCH  72  73
ATOM     73  N   UNL A   1      32.735  27.334  22.015  1.00  0.00    -0.356 N 
ATOM     74  C   UNL A   1      32.962  26.021  21.733  1.00  0.00     0.227 C 
ATOM     75  H   UNL A   1      33.038  27.948  21.307  1.00  0.00     0.163 HD
ATOM     76  O   UNL A   1      33.278  25.778  20.563  1.00  0.00    -0.274 OA
BRANCH  74  77
ATOM     77  C   UNL A   1      32.957  24.918  22.802  1.00  0.00     0.061 C 
ATOM     78  C   UNL A   1      33.875  23.729  22.405  1.00  0.00     0.053 C 
ATOM     79  C   UNL A   1      33.598  25.465  24.125  1.00  0.00     0.053 C 
ATOM     80  C   UNL A   1      34.557  23.335  23.665  1.00  0.00    -0.044 A 
ATOM     81  C   UNL A   1      34.399  24.308  24.643  1.00  0.00    -0.044 A 
ATOM     82  C   UNL A   1      35.323  22.200  23.872  1.00  0.00     0.004 A 
ATOM     83  C   UNL A   1      35.018  24.165  25.873  1.00  0.00     0.004 A 
ATOM     84  C   UNL A   1      35.943  22.044  25.106  1.00  0.00     0.000 A 
ATOM     85  C   UNL A   1      35.791  23.021  26.102  1.00  0.00     0.000 A 
BRANCH  77  86
ATOM     86  C   UNL A   1      31.494  24.418  23.007  1.00  0.00     0.053 C 
BRANCH  86  87
ATOM     87  C   UNL A   1      30.999  24.278  24.435  1.00  0.00    -0.044 A 
ATOM     88  C   UNL A   1      30.414  25.347  25.120  1.00  0.00     0.024 A 
ATOM     89  C   UNL A   1      31.105  23.055  25.107  1.00  0.00     0.024 A 
ATOM     90  C   UNL A   1      29.997  25.159  26.431  1.00  0.00     0.111 A 
ATOM     91  C   UNL A   1      30.653  22.964  26.417  1.00  0.00     0.111 A 
ATOM     92  N   UNL A   1      30.107  23.991  27.099  1.00  0.00    -0.265 NA
ENDBRANCH  86  87
ENDBRANCH  77  86
ENDBRANCH  74  77
ENDBRANCH  72  73
ENDBRANCH  71  72
ENDBRANCH   1  71
TORSDOF 15
ENDMDL
MODEL 2
REMARK VINA RESULT:     -12.5      5.159      7.640
REMARK SMILES O=C(NCCCNC(=O)C1(Cc2ccncc2)Cc2ccccc2C1)c1ccc(-c2c3nc(c(-c4cc(S(=O)(=O)[O-])ccc4F)c4ccc([nH]4)c(-c4cc(S(=O)(=O)[O-])ccc4F)c4nc(c(-c5cc(S(=O)(=O)[O-])ccc5F)c5ccc2[nH]5)C=C4)C=C3)cc1
REMARK SMILES IDX 4 1 3 2 1 3 2 4 26 6 27 7 88 8 28 9 87 10 29 11 30 12 31 13
REMARK SMILES IDX 81 14 32 15 86 16 80 17 82 18 33 19 85 20 79 21 78 22 34 24
REMARK SMILES IDX 66 25 46 26 65 27 47 28 50 29 64 30 83 31 48 32 49 33 63 35
REMARK SMILES IDX 84 36 51 37 35 38 36 39 44 40 37 41 43 42 45 43 42 44 38 45
REMARK SMILES IDX 39 46 40 47 41 48 67 49 68 50 76 51 69 52 75 53 77 54 74 55
REMARK SMILES IDX 70 56 71 57 72 58 73 59 52 60 53 61 61 62 54 63 60 64 62 65
REMARK SMILES IDX 59 66 55 67 56 68 57 69 58 70 5 71 6 72 7 73 8 74 9 76 10 77
REMARK SMILES IDX 18 78 25 79 19 80 24 81 20 82 23 83 21 84 22 85 11 86 12 87
REMARK SMILES IDX 13 88 17 89 14 90 16 91 15 92
REMARK H PARENT 3 5 82 23 50 34 7 75
REMARK Flexibility Score: inf
ROOT
ATOM      1  C   UNL A   1      36.474  23.650  25.793  1.00  0.00     0.118 C 
ENDROOT
BRANCH   1   2
ATOM      2  N   UNL A   1      37.506  22.638  25.999  1.00  0.00    -0.352 N 
ATOM      3  O   UNL A   1      39.567  21.785  26.282  1.00  0.00    -0.269 OA
ATOM      4  C   UNL A   1      38.822  22.759  26.382  1.00  0.00     0.251 C 
ATOM      5  H   UNL A   1      37.211  21.714  25.836  1.00  0.00     0.163 HD
BRANCH   4   6
ATOM      6  C   UNL A   1      39.346  24.044  26.892  1.00  0.00     0.039 A 
ATOM      7  C   UNL A   1      39.275  24.347  28.250  1.00  0.00     0.014 A 
ATOM      8  C   UNL A   1      39.949  24.950  26.014  1.00  0.00     0.014 A 
ATOM      9  C   UNL A   1      39.609  25.615  28.697  1.00  0.00     0.010 A 
ATOM     10  C   UNL A   1      40.419  26.179  26.492  1.00  0.00     0.010 A 
ATOM     11  C   UNL A   1      40.221  26.536  27.835  1.00  0.00    -0.014 A 
BRANCH  11  12
ATOM     12  C   UNL A   1      40.708  27.821  28.398  1.00  0.00     0.031 A 
ATOM     13  C   UNL A   1      42.176  28.132  28.479  1.00  0.00     0.074 A 
ATOM     14  C   UNL A   1      39.796  28.734  28.789  1.00  0.00     0.049 A 
ATOM     15  N   UNL A   1      42.765  29.215  28.922  1.00  0.00    -0.248 NA
ATOM     16  C   UNL A   1      43.103  27.091  28.018  1.00  0.00     0.031 C 
ATOM     17  C   UNL A   1      38.342  28.536  28.753  1.00  0.00     0.029 A 
ATOM     18  N   UNL A   1      39.940  30.013  29.259  1.00  0.00    -0.354 N 
ATOM     19  C   UNL A   1      44.131  28.980  28.812  1.00  0.00     0.074 A 
ATOM     20  C   UNL A   1      44.279  27.634  28.296  1.00  0.00     0.031 C 
ATOM     21  C   UNL A   1      37.732  29.672  29.111  1.00  0.00     0.029 A 
ATOM     22  C   UNL A   1      38.743  30.649  29.494  1.00  0.00     0.049 A 
ATOM     23  H   UNL A   1      40.814  30.436  29.412  1.00  0.00     0.167 HD
ATOM     24  C   UNL A   1      45.160  29.813  29.109  1.00  0.00     0.034 A 
ATOM     25  C   UNL A   1      38.480  31.871  29.993  1.00  0.00     0.034 A 
ATOM     26  C   UNL A   1      44.982  31.151  29.626  1.00  0.00     0.049 A 
ATOM     27  C   UNL A   1      39.637  32.754  30.365  1.00  0.00     0.074 A 
ATOM     28  C   UNL A   1      45.949  32.093  29.939  1.00  0.00     0.029 A 
ATOM     29  N   UNL A   1      43.756  31.738  29.918  1.00  0.00    -0.354 N 
ATOM     30  N   UNL A   1      40.924  32.517  30.252  1.00  0.00    -0.248 NA
ATOM     31  C   UNL A   1      39.307  34.063  30.936  1.00  0.00     0.031 C 
ATOM     32  C   UNL A   1      45.314  33.212  30.488  1.00  0.00     0.029 A 
ATOM     33  C   UNL A   1      43.944  33.010  30.441  1.00  0.00     0.049 A 
ATOM     34  H   UNL A   1      42.879  31.313  29.773  1.00  0.00     0.167 HD
ATOM     35  C   UNL A   1      41.560  33.659  30.725  1.00  0.00     0.074 A 
ATOM     36  C   UNL A   1      40.512  34.589  31.101  1.00  0.00     0.031 C 
ATOM     37  C   UNL A   1      42.888  33.916  30.837  1.00  0.00     0.034 A 
BRANCH  24  38
ATOM     38  C   UNL A   1      46.564  29.274  28.938  1.00  0.00     0.023 A 
ATOM     39  C   UNL A   1      47.171  29.168  27.673  1.00  0.00     0.031 A 
ATOM     40  C   UNL A   1      47.292  28.820  30.052  1.00  0.00     0.131 A 
ATOM     41  C   UNL A   1      48.423  28.546  27.544  1.00  0.00     0.055 A 
ATOM     42  C   UNL A   1      48.575  28.282  29.928  1.00  0.00     0.041 A 
ATOM     43  F   UNL A   1      46.761  28.874  31.284  1.00  0.00    -0.206 F 
ATOM     44  C   UNL A   1      49.141  28.126  28.666  1.00  0.00     0.022 A 
BRANCH  41  45
ATOM     45  S   UNL A   1      49.024  28.144  25.880  1.00  0.00     0.124 S 
ATOM     46  O   UNL A   1      49.398  26.740  26.030  1.00  0.00    -0.237 OA
ATOM     47  O   UNL A   1      47.854  28.407  25.050  1.00  0.00    -0.237 OA
ATOM     48  O   UNL A   1      50.145  29.062  25.688  1.00  0.00    -0.744 OA
ENDBRANCH  41  45
ENDBRANCH  24  38
BRANCH  25  49
ATOM     49  C   UNL A   1      37.071  32.304  30.203  1.00  0.00     0.023 A 
ATOM     50  C   UNL A   1      36.384  33.039  29.226  1.00  0.00     0.031 A 
ATOM     51  C   UNL A   1      36.389  31.986  31.392  1.00  0.00     0.131 A 
ATOM     52  C   UNL A   1      35.066  33.455  29.466  1.00  0.00     0.055 A 
ATOM     53  C   UNL A   1      35.061  32.356  31.604  1.00  0.00     0.041 A 
ATOM     54  F   UNL A   1      37.000  31.280  32.358  1.00  0.00    -0.206 F 
ATOM     55  C   UNL A   1      34.394  33.105  30.641  1.00  0.00     0.022 A 
BRANCH  52  56
ATOM     56  S   UNL A   1      34.256  34.522  28.245  1.00  0.00     0.124 S 
ATOM     57  O   UNL A   1      32.913  33.955  28.198  1.00  0.00    -0.237 OA
ATOM     58  O   UNL A   1      34.376  35.838  28.865  1.00  0.00    -0.237 OA
ATOM     59  O   UNL A   1      35.058  34.330  27.038  1.00  0.00    -0.744 OA
ENDBRANCH  52  56
ENDBRANCH  25  49
BRANCH  37  60
ATOM     60  C   UNL A   1      43.270  35.278  31.363  1.00  0.00     0.023 A 
ATOM     61  C   UNL A   1      43.519  36.359  30.499  1.00  0.00     0.031 A 
ATOM     62  C   UNL A   1      43.417  35.487  32.745  1.00  0.00     0.131 A 
ATOM     63  C   UNL A   1      43.964  37.582  31.022  1.00  0.00     0.055 A 
ATOM     64  C   UNL A   1      43.796  36.725  33.263  1.00  0.00     0.041 A 
ATOM     65  F   UNL A   1      43.198  34.488  33.615  1.00  0.00    -0.206 F 
ATOM     66  C   UNL A   1      44.086  37.778  32.399  1.00  0.00     0.022 A 
BRANCH  63  67
ATOM     67  S   UNL A   1      44.478  38.886  29.870  1.00  0.00     0.124 S 
ATOM     68  O   UNL A   1      43.224  39.205  29.195  1.00  0.00    -0.237 OA
ATOM     69  O   UNL A   1      44.996  39.911  30.771  1.00  0.00    -0.237 OA
ATOM     70  O   UNL A   1      45.482  38.229  29.035  1.00  0.00    -0.744 OA
ENDBRANCH  63  67
ENDBRANCH  37  60
ENDBRANCH  11  12
ENDBRANCH   4   6
ENDBRANCH   1   2
BRANCH   1  71
ATOM     71  C   UNL A   1      35.122  23.227  26.335  1.00  0.00     0.042 C 
BRANCH  71  72
ATOM     72  C   UNL A   1      33.957  23.698  25.490  1.00  0.00     0.117 C 
BRANCH  72  73
ATOM     73  N   UNL A   1      32.744  23.958  26.252  1.00  0.00    -0.356 N 
ATOM     74  C   UNL A   1      31.900  25.026  26.310  1.00  0.00     0.227 C 
ATOM     75  H   UNL A   1      32.483  23.216  26.843  1.00  0.00     0.163 HD
ATOM     76  O   UNL A   1      30.827  24.821  26.888  1.00  0.00    -0.274 OA
BRANCH  74  77
ATOM     77  C   UNL A   1      32.280  26.428  25.813  1.00  0.00     0.061 C 
ATOM     78  C   UNL A   1      31.470  27.536  26.541  1.00  0.00     0.053 C 
ATOM     79  C   UNL A   1      33.770  26.735  26.198  1.00  0.00     0.053 C 
ATOM     80  C   UNL A   1      32.449  28.625  26.789  1.00  0.00    -0.044 A 
ATOM     81  C   UNL A   1      33.750  28.183  26.591  1.00  0.00    -0.044 A 
ATOM     82  C   UNL A   1      32.165  29.907  27.232  1.00  0.00     0.004 A 
ATOM     83  C   UNL A   1      34.817  29.028  26.839  1.00  0.00     0.004 A 
ATOM     84  C   UNL A   1      33.231  30.765  27.478  1.00  0.00     0.000 A 
ATOM     85  C   UNL A   1      34.550  30.329  27.281  1.00  0.00     0.000 A 
BRANCH  77  86
ATOM     86  C   UNL A   1      32.031  26.506  24.275  1.00  0.00     0.053 C 
BRANCH  86  87
ATOM     87  C   UNL A   1      30.819  27.290  23.805  1.00  0.00    -0.044 A 
ATOM     88  C   UNL A   1      30.929  28.599  23.327  1.00  0.00     0.024 A 
ATOM     89  C   UNL A   1      29.546  26.709  23.825  1.00  0.00     0.024 A 
ATOM     90  C   UNL A   1      29.780  29.268  22.927  1.00  0.00     0.111 A 
ATOM     91  C   UNL A   1      28.457  27.458  23.398  1.00  0.00     0.111 A 
ATOM     92  N   UNL A   1      28.542  28.728  22.956  1.00  0.00    -0.265 NA
ENDBRANCH  86  87
ENDBRANCH  77  86
ENDBRANCH  74  77
ENDBRANCH  72  73
ENDBRANCH  71  72
ENDBRANCH   1  71
TORSDOF 15
ENDMDL
MODEL 3
REMARK VINA RESULT:     -12.5      1.492      7.698
REMARK SMILES O=C(NCCCNC(=O)C1(Cc2ccncc2)Cc2ccccc2C1)c1ccc(-c2c3nc(c(-c4cc(S(=O)(=O)[O-])ccc4F)c4ccc([nH]4)c(-c4cc(S(=O)(=O)[O-])ccc4F)c4nc(c(-c5cc(S(=O)(=O)[O-])ccc5F)c5ccc2[nH]5)C=C4)C=C3)cc1
REMARK SMILES IDX 4 1 3 2 1 3 2 4 26 6 27 7 88 8 28 9 87 10 29 11 30 12 31 13
REMARK SMILES IDX 81 14 32 15 86 16 80 17 82 18 33 19 85 20 79 21 78 22 34 24
REMARK SMILES IDX 66 25 46 26 65 27 47 28 50 29 64 30 83 31 48 32 49 33 63 35
REMARK SMILES IDX 84 36 51 37 35 38 36 39 44 40 37 41 43 42 45 43 42 44 38 45
REMARK SMILES IDX 39 46 40 47 41 48 67 49 68 50 76 51 69 52 75 53 77 54 74 55
REMARK SMILES IDX 70 56 71 57 72 58 73 59 52 60 53 61 61 62 54 63 60 64 62 65
REMARK SMILES IDX 59 66 55 67 56 68 57 69 58 70 5 71 6 72 7 73 8 74 9 76 10 77
REMARK SMILES IDX 18 78 25 79 19 80 24 81 20 82 23 83 21 84 22 85 11 86 12 87
REMARK SMILES IDX 13 88 17 89 14 90 16 91 15 92
REMARK H PARENT 3 5 82 23 50 34 7 75
REMARK Flexibility Score: inf
ROOT
ATOM      1  C   UNL A   1      33.214  29.150  25.264  1.00  0.00     0.118 C 
ENDROOT
BRANCH   1   2
ATOM      2  N   UNL A   1      32.705  30.419  25.776  1.00  0.00    -0.352 N 
ATOM      3  O   UNL A   1      32.382  32.106  27.228  1.00  0.00    -0.269 OA
ATOM      4  C   UNL A   1      33.097  31.175  26.857  1.00  0.00     0.251 C 
ATOM      5  H   UNL A   1      31.956  30.797  25.263  1.00  0.00     0.163 HD
BRANCH   4   6
ATOM      6  C   UNL A   1      34.350  30.871  27.579  1.00  0.00     0.039 A 
ATOM      7  C   UNL A   1      34.585  29.592  28.079  1.00  0.00     0.014 A 
ATOM      8  C   UNL A   1      35.325  31.862  27.733  1.00  0.00     0.014 A 
ATOM      9  C   UNL A   1      35.677  29.356  28.899  1.00  0.00     0.010 A 
ATOM     10  C   UNL A   1      36.499  31.582  28.443  1.00  0.00     0.010 A 
ATOM     11  C   UNL A   1      36.668  30.334  29.062  1.00  0.00    -0.014 A 
BRANCH  11  12
ATOM     12  C   UNL A   1      37.898  29.979  29.817  1.00  0.00     0.031 A 
ATOM     13  C   UNL A   1      38.132  30.488  31.212  1.00  0.00     0.074 A 
ATOM     14  C   UNL A   1      38.782  29.140  29.241  1.00  0.00     0.049 A 
ATOM     15  N   UNL A   1      39.140  30.255  32.015  1.00  0.00    -0.248 NA
ATOM     16  C   UNL A   1      37.113  31.385  31.772  1.00  0.00     0.031 C 
ATOM     17  C   UNL A   1      38.651  28.584  27.889  1.00  0.00     0.029 A 
ATOM     18  N   UNL A   1      39.938  28.579  29.715  1.00  0.00    -0.354 N 
ATOM     19  C   UNL A   1      38.889  30.990  33.168  1.00  0.00     0.074 A 
ATOM     20  C   UNL A   1      37.650  31.707  32.940  1.00  0.00     0.031 C 
ATOM     21  C   UNL A   1      39.643  27.711  27.673  1.00  0.00     0.029 A 
ATOM     22  C   UNL A   1      40.533  27.714  28.826  1.00  0.00     0.049 A 
ATOM     23  H   UNL A   1      40.308  28.776  30.606  1.00  0.00     0.167 HD
ATOM     24  C   UNL A   1      39.622  31.053  34.308  1.00  0.00     0.034 A 
ATOM     25  C   UNL A   1      41.683  27.021  28.911  1.00  0.00     0.034 A 
ATOM     26  C   UNL A   1      40.857  30.328  34.506  1.00  0.00     0.049 A 
ATOM     27  C   UNL A   1      42.504  27.150  30.163  1.00  0.00     0.074 A 
ATOM     28  C   UNL A   1      41.670  30.296  35.627  1.00  0.00     0.029 A 
ATOM     29  N   UNL A   1      41.466  29.515  33.557  1.00  0.00    -0.354 N 
ATOM     30  N   UNL A   1      42.250  27.847  31.246  1.00  0.00    -0.248 NA
ATOM     31  C   UNL A   1      43.766  26.404  30.201  1.00  0.00     0.031 C 
ATOM     32  C   UNL A   1      42.802  29.529  35.330  1.00  0.00     0.029 A 
ATOM     33  C   UNL A   1      42.660  29.009  34.053  1.00  0.00     0.049 A 
ATOM     34  H   UNL A   1      41.102  29.324  32.662  1.00  0.00     0.167 HD
ATOM     35  C   UNL A   1      43.318  27.612  32.105  1.00  0.00     0.074 A 
ATOM     36  C   UNL A   1      44.203  26.689  31.418  1.00  0.00     0.031 C 
ATOM     37  C   UNL A   1      43.546  28.111  33.346  1.00  0.00     0.034 A 
BRANCH  24  38
ATOM     38  C   UNL A   1      39.134  31.983  35.399  1.00  0.00     0.023 A 
ATOM     39  C   UNL A   1      39.555  33.322  35.478  1.00  0.00     0.031 A 
ATOM     40  C   UNL A   1      38.266  31.511  36.399  1.00  0.00     0.131 A 
ATOM     41  C   UNL A   1      39.179  34.113  36.575  1.00  0.00     0.055 A 
ATOM     42  C   UNL A   1      37.824  32.328  37.441  1.00  0.00     0.041 A 
ATOM     43  F   UNL A   1      37.843  30.235  36.392  1.00  0.00    -0.206 F 
ATOM     44  C   UNL A   1      38.295  33.634  37.544  1.00  0.00     0.022 A 
BRANCH  41  45
ATOM     45  S   UNL A   1      39.993  35.719  36.805  1.00  0.00     0.124 S 
ATOM     46  O   UNL A   1      39.341  36.211  38.016  1.00  0.00    -0.237 OA
ATOM     47  O   UNL A   1      41.395  35.345  36.942  1.00  0.00    -0.237 OA
ATOM     48  O   UNL A   1      39.658  36.452  35.586  1.00  0.00    -0.744 OA
ENDBRANCH  41  45
ENDBRANCH  24  38
BRANCH  25  49
ATOM     49  C   UNL A   1      42.136  26.183  27.766  1.00  0.00     0.023 A 
ATOM     50  C   UNL A   1      41.752  24.840  27.652  1.00  0.00     0.031 A 
ATOM     51  C   UNL A   1      42.965  26.721  26.763  1.00  0.00     0.131 A 
ATOM     52  C   UNL A   1      42.218  24.070  26.575  1.00  0.00     0.055 A 
ATOM     53  C   UNL A   1      43.382  25.968  25.666  1.00  0.00     0.041 A 
ATOM     54  F   UNL A   1      43.357  28.005  26.823  1.00  0.00    -0.206 F 
ATOM     55  C   UNL A   1      43.016  24.630  25.573  1.00  0.00     0.022 A 
BRANCH  52  56
ATOM     56  S   UNL A   1      41.819  22.302  26.533  1.00  0.00     0.124 S 
ATOM     57  O   UNL A   1      40.369  22.328  26.384  1.00  0.00    -0.237 OA
ATOM     58  O   UNL A   1      42.577  21.849  25.372  1.00  0.00    -0.237 OA
ATOM     59  O   UNL A   1      42.307  21.813  27.821  1.00  0.00    -0.744 OA
ENDBRANCH  52  56
ENDBRANCH  25  49
BRANCH  37  60
ATOM     60  C   UNL A   1      44.794  27.634  34.046  1.00  0.00     0.023 A 
ATOM     61  C   UNL A   1      44.802  26.462  34.823  1.00  0.00     0.031 A 
ATOM     62  C   UNL A   1      45.982  28.380  33.961  1.00  0.00     0.131 A 
ATOM     63  C   UNL A   1      45.957  26.104  35.535  1.00  0.00     0.055 A 
ATOM     64  C   UNL A   1      47.147  27.983  34.619  1.00  0.00     0.041 A 
ATOM     65  F   UNL A   1      46.029  29.511  33.239  1.00  0.00    -0.206 F 
ATOM     66  C   UNL A   1      47.135  26.847  35.423  1.00  0.00     0.022 A 
BRANCH  63  67
ATOM     67  S   UNL A   1      45.870  24.708  36.691  1.00  0.00     0.124 S 
ATOM     68  O   UNL A   1      46.500  23.639  35.921  1.00  0.00    -0.237 OA
ATOM     69  O   UNL A   1      46.629  25.203  37.835  1.00  0.00    -0.237 OA
ATOM     70  O   UNL A   1      44.436  24.544  36.921  1.00  0.00    -0.744 OA
ENDBRANCH  63  67
ENDBRANCH  37  60
ENDBRANCH  11  12
ENDBRANCH   4   6
ENDBRANCH   1   2
BRANCH   1  71
ATOM     71  C   UNL A   1      33.146  29.060  23.751  1.00  0.00     0.042 C 
BRANCH  71  72
ATOM     72  C   UNL A   1      32.282  27.921  23.251  1.00  0.00     0.117 C 
BRANCH  72  73
ATOM     73  N   UNL A   1      32.818  27.248  22.076  1.00  0.00    -0.356 N 
ATOM     74  C   UNL A   1      33.020  25.936  21.775  1.00  0.00     0.227 C 
ATOM     75  H   UNL A   1      33.087  27.865  21.357  1.00  0.00     0.163 HD
ATOM     76  O   UNL A   1      33.272  25.698  20.588  1.00  0.00    -0.274 OA
BRANCH  74  77
ATOM     77  C   UNL A   1      33.064  24.825  22.836  1.00  0.00     0.061 C 
ATOM     78  C   UNL A   1      34.028  23.678  22.427  1.00  0.00     0.053 C 
ATOM     79  C   UNL A   1      33.688  25.389  24.160  1.00  0.00     0.053 C 
ATOM     80  C   UNL A   1      34.730  23.303  23.681  1.00  0.00    -0.044 A 
ATOM     81  C   UNL A   1      34.538  24.261  24.667  1.00  0.00    -0.044 A 
ATOM     82  C   UNL A   1      35.542  22.198  23.876  1.00  0.00     0.004 A 
ATOM     83  C   UNL A   1      35.166  24.135  25.893  1.00  0.00     0.004 A 
ATOM     84  C   UNL A   1      36.174  22.059  25.108  1.00  0.00     0.000 A 
ATOM     85  C   UNL A   1      35.986  23.021  26.111  1.00  0.00     0.000 A 
BRANCH  77  86
ATOM     86  C   UNL A   1      31.623  24.265  23.043  1.00  0.00     0.053 C 
BRANCH  86  87
ATOM     87  C   UNL A   1      31.153  24.064  24.472  1.00  0.00    -0.044 A 
ATOM     88  C   UNL A   1      31.272  22.831  25.119  1.00  0.00     0.024 A 
ATOM     89  C   UNL A   1      30.594  25.125  25.192  1.00  0.00     0.024 A 
ATOM     90  C   UNL A   1      30.808  22.706  26.422  1.00  0.00     0.111 A 
ATOM     91  C   UNL A   1      30.164  24.904  26.494  1.00  0.00     0.111 A 
ATOM     92  N   UNL A   1      30.251  23.716  27.125  1.00  0.00    -0.265 NA
ENDBRANCH  86  87
ENDBRANCH  77  86
ENDBRANCH  74  77
ENDBRANCH  72  73
ENDBRANCH  71  72
ENDBRANCH   1  71
TORSDOF 15
ENDMDL
