MODEL 1
REMARK VINA RESULT:     -12.6      0.000      0.000
REMARK SMILES CC(C)n1cncc1C[NH2+][C@@H]1CCC[C@H](C(=O)NCCCNC(=O)c2ccc(-c3c4nc(c(-c5cc(S(=O)(=O)[O-])ccc5F)c5ccc([nH]5)c(-c5cc(S(=O)(=O)[O-])ccc5F)c5nc(c(-c6cc(S(=O)(=O)[O-])ccc6F)c6ccc3[nH]6)C=C5)C=C4)cc2)C1
REMARK SMILES IDX 19 1 18 2 16 3 17 4 15 6 11 7 12 8 88 9 13 10 14 11 10 12
REMARK SMILES IDX 9 15 8 16 4 17 5 18 6 19 7 20 2 21 1 22 3 23 20 24 21 25
REMARK SMILES IDX 22 26 23 27 24 29 25 30 26 31 87 32 27 33 86 34 28 35 29 36
REMARK SMILES IDX 30 37 80 38 31 39 85 40 79 41 81 42 32 43 84 44 78 45 77 46
REMARK SMILES IDX 33 48 65 49 45 50 64 51 46 52 49 53 63 54 82 55 47 56 48 57
REMARK SMILES IDX 62 59 83 60 50 61 34 62 35 63 43 64 36 65 42 66 44 67 41 68
REMARK SMILES IDX 37 69 38 70 39 71 40 72 66 73 67 74 75 75 68 76 74 77 76 78
REMARK SMILES IDX 73 79 69 80 70 81 71 82 72 83 51 84 52 85 60 86 53 87 59 88
REMARK SMILES IDX 61 89 58 90 54 91 55 92 56 93 57 94
REMARK H PARENT 18 5 10 13 10 14 22 28 81 47 49 58
REMARK Flexibility Score: inf
ROOT
ATOM      1  C   UNL A   1      33.195  29.895  26.208  1.00  0.00     0.117 C 
ENDROOT
BRANCH   1   2
ATOM      2  N   UNL A   1      33.328  29.562  24.792  1.00  0.00    -0.356 N 
ATOM      3  C   UNL A   1      32.445  29.003  23.914  1.00  0.00     0.223 C 
ATOM      4  O   UNL A   1      32.756  28.956  22.722  1.00  0.00    -0.275 OA
ATOM      5  H   UNL A   1      34.207  29.776  24.405  1.00  0.00     0.163 HD
BRANCH   3   6
ATOM      6  C   UNL A   1      31.115  28.413  24.380  1.00  0.00     0.084 C 
ATOM      7  C   UNL A   1      30.021  26.070  24.761  1.00  0.00     0.183 C 
ATOM      8  C   UNL A   1      29.168  26.390  23.526  1.00  0.00     0.065 C 
ATOM      9  C   UNL A   1      31.273  26.961  24.866  1.00  0.00     0.078 C 
ATOM     10  C   UNL A   1      28.800  27.862  23.487  1.00  0.00     0.007 C 
ATOM     11  C   UNL A   1      30.047  28.700  23.319  1.00  0.00     0.014 C 
BRANCH   7  12
ATOM     12  N   UNL A   1      30.474  24.675  24.873  1.00  0.00    -0.339 N 
ATOM     13  H   UNL A   1      31.363  24.680  25.373  1.00  0.00     0.346 HD
ATOM     14  H   UNL A   1      29.717  24.186  25.350  1.00  0.00     0.346 HD
BRANCH  12  15
ATOM     15  C   UNL A   1      30.671  23.948  23.630  1.00  0.00     0.317 C 
BRANCH  15  16
ATOM     16  C   UNL A   1      32.121  23.835  23.325  1.00  0.00     0.093 A 
ATOM     17  N   UNL A   1      32.976  22.859  23.803  1.00  0.00    -0.327 N 
ATOM     18  C   UNL A   1      34.187  23.075  23.194  1.00  0.00     0.200 A 
ATOM     19  N   UNL A   1      34.177  24.133  22.420  1.00  0.00    -0.245 NA
ATOM     20  C   UNL A   1      32.905  24.620  22.501  1.00  0.00     0.140 A 
BRANCH  17  21
ATOM     21  C   UNL A   1      32.647  21.751  24.703  1.00  0.00     0.082 C 
ATOM     22  C   UNL A   1      32.341  20.429  23.983  1.00  0.00     0.031 C 
ATOM     23  C   UNL A   1      33.743  21.480  25.742  1.00  0.00     0.031 C 
ENDBRANCH  17  21
ENDBRANCH  15  16
ENDBRANCH  12  15
ENDBRANCH   7  12
ENDBRANCH   3   6
ENDBRANCH   1   2
BRANCH   1  24
ATOM     24  C   UNL A   1      33.924  28.950  27.162  1.00  0.00     0.042 C 
BRANCH  24  25
ATOM     25  C   UNL A   1      35.326  29.408  27.509  1.00  0.00     0.118 C 
BRANCH  25  26
ATOM     26  N   UNL A   1      35.462  29.883  28.888  1.00  0.00    -0.352 N 
ATOM     27  C   UNL A   1      36.454  29.557  29.796  1.00  0.00     0.251 C 
ATOM     28  H   UNL A   1      34.768  30.506  29.205  1.00  0.00     0.163 HD
ATOM     29  O   UNL A   1      36.281  29.738  30.999  1.00  0.00    -0.269 OA
BRANCH  27  30
ATOM     30  C   UNL A   1      37.705  28.966  29.286  1.00  0.00     0.039 A 
ATOM     31  C   UNL A   1      38.313  29.425  28.115  1.00  0.00     0.014 A 
ATOM     32  C   UNL A   1      38.314  27.989  30.063  1.00  0.00     0.014 A 
ATOM     33  C   UNL A   1      39.591  28.961  27.799  1.00  0.00     0.010 A 
ATOM     34  C   UNL A   1      39.636  27.691  29.859  1.00  0.00     0.010 A 
ATOM     35  C   UNL A   1      40.265  28.115  28.696  1.00  0.00    -0.014 A 
BRANCH  35  36
ATOM     36  C   UNL A   1      41.664  27.744  28.491  1.00  0.00     0.031 A 
ATOM     37  C   UNL A   1      41.878  26.468  27.761  1.00  0.00     0.074 A 
ATOM     38  C   UNL A   1      42.698  28.586  28.723  1.00  0.00     0.049 A 
ATOM     39  N   UNL A   1      42.350  25.361  28.229  1.00  0.00    -0.248 NA
ATOM     40  C   UNL A   1      41.376  26.358  26.382  1.00  0.00     0.031 C 
ATOM     41  C   UNL A   1      42.649  29.991  29.149  1.00  0.00     0.029 A 
ATOM     42  N   UNL A   1      44.027  28.393  28.502  1.00  0.00    -0.354 N 
ATOM     43  C   UNL A   1      42.445  24.491  27.146  1.00  0.00     0.074 A 
ATOM     44  C   UNL A   1      41.637  25.076  26.110  1.00  0.00     0.031 C 
ATOM     45  C   UNL A   1      43.839  30.581  28.912  1.00  0.00     0.029 A 
ATOM     46  C   UNL A   1      44.786  29.560  28.504  1.00  0.00     0.049 A 
ATOM     47  H   UNL A   1      44.419  27.502  28.351  1.00  0.00     0.167 HD
ATOM     48  C   UNL A   1      43.376  23.496  27.121  1.00  0.00     0.034 A 
ATOM     49  C   UNL A   1      46.099  29.695  28.186  1.00  0.00     0.034 A 
ATOM     50  C   UNL A   1      43.932  23.280  28.443  1.00  0.00     0.049 A 
ATOM     51  C   UNL A   1      46.715  28.358  28.364  1.00  0.00     0.074 A 
ATOM     52  C   UNL A   1      43.394  22.972  29.678  1.00  0.00     0.029 A 
ATOM     53  N   UNL A   1      45.190  23.776  28.710  1.00  0.00    -0.354 N 
ATOM     54  N   UNL A   1      46.802  27.761  29.521  1.00  0.00    -0.248 NA
ATOM     55  C   UNL A   1      46.790  27.477  27.208  1.00  0.00     0.031 C 
ATOM     56  C   UNL A   1      44.120  23.780  30.604  1.00  0.00     0.029 A 
ATOM     57  C   UNL A   1      45.117  24.458  29.900  1.00  0.00     0.049 A 
ATOM     58  H   UNL A   1      45.992  23.662  28.150  1.00  0.00     0.167 HD
ATOM     59  C   UNL A   1      46.490  26.435  29.263  1.00  0.00     0.074 A 
ATOM     60  C   UNL A   1      46.604  26.299  27.812  1.00  0.00     0.031 C 
ATOM     61  C   UNL A   1      45.892  25.649  30.209  1.00  0.00     0.034 A 
BRANCH  48  62
ATOM     62  C   UNL A   1      44.063  22.968  25.874  1.00  0.00     0.023 A 
ATOM     63  C   UNL A   1      44.049  21.573  25.679  1.00  0.00     0.031 A 
ATOM     64  C   UNL A   1      44.949  23.689  25.043  1.00  0.00     0.131 A 
ATOM     65  C   UNL A   1      44.959  20.951  24.805  1.00  0.00     0.055 A 
ATOM     66  C   UNL A   1      45.803  23.071  24.122  1.00  0.00     0.041 A 
ATOM     67  F   UNL A   1      45.114  25.013  25.125  1.00  0.00    -0.206 F 
ATOM     68  C   UNL A   1      45.840  21.692  24.026  1.00  0.00     0.022 A 
BRANCH  65  69
ATOM     69  S   UNL A   1      45.101  19.147  24.859  1.00  0.00     0.124 S 
ATOM     70  O   UNL A   1      46.433  18.977  25.433  1.00  0.00    -0.237 OA
ATOM     71  O   UNL A   1      43.978  18.784  25.716  1.00  0.00    -0.237 OA
ATOM     72  O   UNL A   1      44.971  18.756  23.458  1.00  0.00    -0.744 OA
ENDBRANCH  65  69
ENDBRANCH  48  62
BRANCH  49  73
ATOM     73  C   UNL A   1      46.744  30.830  27.471  1.00  0.00     0.023 A 
ATOM     74  C   UNL A   1      46.014  31.902  26.919  1.00  0.00     0.031 A 
ATOM     75  C   UNL A   1      48.148  30.986  27.537  1.00  0.00     0.131 A 
ATOM     76  C   UNL A   1      46.687  33.063  26.465  1.00  0.00     0.055 A 
ATOM     77  C   UNL A   1      48.806  32.131  27.083  1.00  0.00     0.041 A 
ATOM     78  F   UNL A   1      48.924  30.062  28.127  1.00  0.00    -0.206 F 
ATOM     79  C   UNL A   1      48.075  33.181  26.554  1.00  0.00     0.022 A 
BRANCH  76  80
ATOM     80  S   UNL A   1      45.744  34.491  25.838  1.00  0.00     0.124 S 
ATOM     81  O   UNL A   1      45.160  33.966  24.610  1.00  0.00    -0.237 OA
ATOM     82  O   UNL A   1      44.818  34.761  26.933  1.00  0.00    -0.237 OA
ATOM     83  O   UNL A   1      46.769  35.518  25.641  1.00  0.00    -0.744 OA
ENDBRANCH  76  80
ENDBRANCH  49  73
BRANCH  61  84
ATOM     84  C   UNL A   1      45.841  26.145  31.643  1.00  0.00     0.023 A 
ATOM     85  C   UNL A   1      44.728  26.774  32.249  1.00  0.00     0.031 A 
ATOM     86  C   UNL A   1      46.943  25.848  32.465  1.00  0.00     0.131 A 
ATOM     87  C   UNL A   1      44.754  27.088  33.624  1.00  0.00     0.055 A 
ATOM     88  C   UNL A   1      46.958  26.139  33.828  1.00  0.00     0.041 A 
ATOM     89  F   UNL A   1      48.023  25.228  31.959  1.00  0.00    -0.206 F 
ATOM     90  C   UNL A   1      45.865  26.767  34.412  1.00  0.00     0.022 A 
BRANCH  87  91
ATOM     91  S   UNL A   1      43.349  27.939  34.416  1.00  0.00     0.124 S 
ATOM     92  O   UNL A   1      42.454  26.850  34.786  1.00  0.00    -0.237 OA
ATOM     93  O   UNL A   1      43.991  28.646  35.522  1.00  0.00    -0.237 OA
ATOM     94  O   UNL A   1      42.840  28.812  33.356  1.00  0.00    -0.744 OA
ENDBRANCH  87  91
ENDBRANCH  61  84
ENDBRANCH  35  36
ENDBRANCH  27  30
ENDBRANCH  25  26
ENDBRANCH  24  25
ENDBRANCH   1  24
TORSDOF 17
ENDMDL
MODEL 2
REMARK VINA RESULT:     -12.3      1.282      1.525
REMARK SMILES CC(C)n1cncc1C[NH2+][C@@H]1CCC[C@H](C(=O)NCCCNC(=O)c2ccc(-c3c4nc(c(-c5cc(S(=O)(=O)[O-])ccc5F)c5ccc([nH]5)c(-c5cc(S(=O)(=O)[O-])ccc5F)c5nc(c(-c6cc(S(=O)(=O)[O-])ccc6F)c6ccc3[nH]6)C=C5)C=C4)cc2)C1
REMARK SMILES IDX 19 1 18 2 16 3 17 4 15 6 11 7 12 8 88 9 13 10 14 11 10 12
REMARK SMILES IDX 9 15 8 16 4 17 5 18 6 19 7 20 2 21 1 22 3 23 20 24 21 25
REMARK SMILES IDX 22 26 23 27 24 29 25 30 26 31 87 32 27 33 86 34 28 35 29 36
REMARK SMILES IDX 30 37 80 38 31 39 85 40 79 41 81 42 32 43 84 44 78 45 77 46
REMARK SMILES IDX 33 48 65 49 45 50 64 51 46 52 49 53 63 54 82 55 47 56 48 57
REMARK SMILES IDX 62 59 83 60 50 61 34 62 35 63 43 64 36 65 42 66 44 67 41 68
REMARK SMILES IDX 37 69 38 70 39 71 40 72 66 73 67 74 75 75 68 76 74 77 76 78
REMARK SMILES IDX 73 79 69 80 70 81 71 82 72 83 51 84 52 85 60 86 53 87 59 88
REMARK SMILES IDX 61 89 58 90 54 91 55 92 56 93 57 94
REMARK H PARENT 18 5 10 13 10 14 22 28 81 47 49 58
REMARK Flexibility Score: inf
ROOT
ATOM      1  C   UNL A   1      33.055  29.796  26.332  1.00  0.00     0.117 C 
ENDROOT
BRANCH   1   2
ATOM      2  N   UNL A   1      33.189  29.550  24.899  1.00  0.00    -0.356 N 
ATOM      3  C   UNL A   1      32.322  29.005  23.996  1.00  0.00     0.223 C 
ATOM      4  O   UNL A   1      32.624  29.039  22.801  1.00  0.00    -0.275 OA
ATOM      5  H   UNL A   1      34.055  29.822  24.518  1.00  0.00     0.163 HD
BRANCH   3   6
ATOM      6  C   UNL A   1      31.021  28.336  24.436  1.00  0.00     0.084 C 
ATOM      7  C   UNL A   1      30.086  25.934  24.870  1.00  0.00     0.183 C 
ATOM      8  C   UNL A   1      29.262  26.144  23.593  1.00  0.00     0.065 C 
ATOM      9  C   UNL A   1      31.265  26.918  24.985  1.00  0.00     0.078 C 
ATOM     10  C   UNL A   1      28.789  27.582  23.483  1.00  0.00     0.007 C 
ATOM     11  C   UNL A   1      29.978  28.503  23.327  1.00  0.00     0.014 C 
BRANCH   7  12
ATOM     12  N   UNL A   1      30.636  24.582  25.053  1.00  0.00    -0.339 N 
ATOM     13  H   UNL A   1      31.562  24.679  25.469  1.00  0.00     0.346 HD
ATOM     14  H   UNL A   1      29.954  24.093  25.634  1.00  0.00     0.346 HD
BRANCH  12  15
ATOM     15  C   UNL A   1      30.773  23.762  23.861  1.00  0.00     0.317 C 
BRANCH  15  16
ATOM     16  C   UNL A   1      32.193  23.715  23.429  1.00  0.00     0.093 A 
ATOM     17  N   UNL A   1      33.146  22.816  23.874  1.00  0.00    -0.327 N 
ATOM     18  C   UNL A   1      34.283  23.066  23.147  1.00  0.00     0.200 A 
ATOM     19  N   UNL A   1      34.139  24.079  22.327  1.00  0.00    -0.245 NA
ATOM     20  C   UNL A   1      32.852  24.497  22.500  1.00  0.00     0.140 A 
BRANCH  17  21
ATOM     21  C   UNL A   1      32.965  21.742  24.854  1.00  0.00     0.082 C 
ATOM     22  C   UNL A   1      32.333  20.466  24.276  1.00  0.00     0.031 C 
ATOM     23  C   UNL A   1      34.274  21.345  25.552  1.00  0.00     0.031 C 
ENDBRANCH  17  21
ENDBRANCH  15  16
ENDBRANCH  12  15
ENDBRANCH   7  12
ENDBRANCH   3   6
ENDBRANCH   1   2
BRANCH   1  24
ATOM     24  C   UNL A   1      33.840  28.836  27.226  1.00  0.00     0.042 C 
BRANCH  24  25
ATOM     25  C   UNL A   1      35.266  29.279  27.480  1.00  0.00     0.118 C 
BRANCH  25  26
ATOM     26  N   UNL A   1      35.460  29.907  28.789  1.00  0.00    -0.352 N 
ATOM     27  C   UNL A   1      36.494  29.687  29.682  1.00  0.00     0.251 C 
ATOM     28  H   UNL A   1      34.775  30.559  29.065  1.00  0.00     0.163 HD
ATOM     29  O   UNL A   1      36.374  30.002  30.863  1.00  0.00    -0.269 OA
BRANCH  27  30
ATOM     30  C   UNL A   1      37.726  29.047  29.185  1.00  0.00     0.039 A 
ATOM     31  C   UNL A   1      38.398  29.518  28.055  1.00  0.00     0.014 A 
ATOM     32  C   UNL A   1      38.252  28.004  29.937  1.00  0.00     0.014 A 
ATOM     33  C   UNL A   1      39.656  28.994  27.757  1.00  0.00     0.010 A 
ATOM     34  C   UNL A   1      39.561  27.638  29.760  1.00  0.00     0.010 A 
ATOM     35  C   UNL A   1      40.251  28.074  28.636  1.00  0.00    -0.014 A 
BRANCH  35  36
ATOM     36  C   UNL A   1      41.633  27.630  28.459  1.00  0.00     0.031 A 
ATOM     37  C   UNL A   1      41.798  26.371  27.687  1.00  0.00     0.074 A 
ATOM     38  C   UNL A   1      42.705  28.402  28.752  1.00  0.00     0.049 A 
ATOM     39  N   UNL A   1      42.192  25.223  28.127  1.00  0.00    -0.248 NA
ATOM     40  C   UNL A   1      41.333  26.339  26.292  1.00  0.00     0.031 C 
ATOM     41  C   UNL A   1      42.721  29.792  29.228  1.00  0.00     0.029 A 
ATOM     42  N   UNL A   1      44.027  28.142  28.561  1.00  0.00    -0.354 N 
ATOM     43  C   UNL A   1      42.271  24.388  27.016  1.00  0.00     0.074 A 
ATOM     44  C   UNL A   1      41.530  25.055  25.980  1.00  0.00     0.031 C 
ATOM     45  C   UNL A   1      43.950  30.321  29.047  1.00  0.00     0.029 A 
ATOM     46  C   UNL A   1      44.851  29.263  28.630  1.00  0.00     0.049 A 
ATOM     47  H   UNL A   1      44.373  27.236  28.389  1.00  0.00     0.167 HD
ATOM     48  C   UNL A   1      43.146  23.343  26.980  1.00  0.00     0.034 A 
ATOM     49  C   UNL A   1      46.178  29.333  28.355  1.00  0.00     0.034 A 
ATOM     50  C   UNL A   1      43.647  23.049  28.309  1.00  0.00     0.049 A 
ATOM     51  C   UNL A   1      46.712  27.958  28.500  1.00  0.00     0.074 A 
ATOM     52  C   UNL A   1      43.054  22.727  29.516  1.00  0.00     0.029 A 
ATOM     53  N   UNL A   1      44.922  23.462  28.630  1.00  0.00    -0.354 N 
ATOM     54  N   UNL A   1      46.730  27.316  29.636  1.00  0.00    -0.248 NA
ATOM     55  C   UNL A   1      46.774  27.116  27.315  1.00  0.00     0.031 C 
ATOM     56  C   UNL A   1      43.796  23.459  30.491  1.00  0.00     0.029 A 
ATOM     57  C   UNL A   1      44.851  24.104  29.842  1.00  0.00     0.049 A 
ATOM     58  H   UNL A   1      45.734  23.322  28.091  1.00  0.00     0.167 HD
ATOM     59  C   UNL A   1      46.351  26.020  29.321  1.00  0.00     0.074 A 
ATOM     60  C   UNL A   1      46.503  25.930  27.869  1.00  0.00     0.031 C 
ATOM     61  C   UNL A   1      45.681  25.236  30.218  1.00  0.00     0.034 A 
BRANCH  48  62
ATOM     62  C   UNL A   1      43.840  22.821  25.735  1.00  0.00     0.023 A 
ATOM     63  C   UNL A   1      43.939  21.423  25.596  1.00  0.00     0.031 A 
ATOM     64  C   UNL A   1      44.638  23.577  24.849  1.00  0.00     0.131 A 
ATOM     65  C   UNL A   1      44.874  20.843  24.721  1.00  0.00     0.055 A 
ATOM     66  C   UNL A   1      45.515  22.995  23.927  1.00  0.00     0.041 A 
ATOM     67  F   UNL A   1      44.692  24.913  24.872  1.00  0.00    -0.206 F 
ATOM     68  C   UNL A   1      45.667  21.621  23.885  1.00  0.00     0.022 A 
BRANCH  65  69
ATOM     69  S   UNL A   1      45.170  19.060  24.843  1.00  0.00     0.124 S 
ATOM     70  O   UNL A   1      45.631  18.749  23.494  1.00  0.00    -0.237 OA
ATOM     71  O   UNL A   1      46.174  18.995  25.899  1.00  0.00    -0.237 OA
ATOM     72  O   UNL A   1      43.858  18.523  25.194  1.00  0.00    -0.744 OA
ENDBRANCH  65  69
ENDBRANCH  48  62
BRANCH  49  73
ATOM     73  C   UNL A   1      46.908  30.455  27.702  1.00  0.00     0.023 A 
ATOM     74  C   UNL A   1      46.254  31.572  27.141  1.00  0.00     0.031 A 
ATOM     75  C   UNL A   1      48.312  30.545  27.841  1.00  0.00     0.131 A 
ATOM     76  C   UNL A   1      46.999  32.711  26.751  1.00  0.00     0.055 A 
ATOM     77  C   UNL A   1      49.042  31.670  27.449  1.00  0.00     0.041 A 
ATOM     78  F   UNL A   1      49.016  29.574  28.445  1.00  0.00    -0.206 F 
ATOM     79  C   UNL A   1      48.385  32.764  26.911  1.00  0.00     0.022 A 
BRANCH  76  80
ATOM     80  S   UNL A   1      46.153  34.195  26.115  1.00  0.00     0.124 S 
ATOM     81  O   UNL A   1      46.935  34.515  24.927  1.00  0.00    -0.237 OA
ATOM     82  O   UNL A   1      44.796  33.710  25.888  1.00  0.00    -0.237 OA
ATOM     83  O   UNL A   1      46.280  35.157  27.212  1.00  0.00    -0.744 OA
ENDBRANCH  76  80
ENDBRANCH  49  73
BRANCH  61  84
ATOM     84  C   UNL A   1      45.614  25.683  31.668  1.00  0.00     0.023 A 
ATOM     85  C   UNL A   1      46.643  25.504  32.623  1.00  0.00     0.031 A 
ATOM     86  C   UNL A   1      44.494  26.439  32.057  1.00  0.00     0.131 A 
ATOM     87  C   UNL A   1      46.516  26.066  33.911  1.00  0.00     0.055 A 
ATOM     88  C   UNL A   1      44.382  27.011  33.323  1.00  0.00     0.041 A 
ATOM     89  F   UNL A   1      43.493  26.669  31.189  1.00  0.00    -0.206 F 
ATOM     90  C   UNL A   1      45.391  26.821  34.259  1.00  0.00     0.022 A 
BRANCH  87  91
ATOM     91  S   UNL A   1      47.808  25.810  35.173  1.00  0.00     0.124 S 
ATOM     92  O   UNL A   1      48.463  24.579  34.750  1.00  0.00    -0.237 OA
ATOM     93  O   UNL A   1      48.604  27.031  35.063  1.00  0.00    -0.237 OA
ATOM     94  O   UNL A   1      47.046  25.696  36.420  1.00  0.00    -0.744 OA
ENDBRANCH  87  91
ENDBRANCH  61  84
ENDBRANCH  35  36
ENDBRANCH  27  30
ENDBRANCH  25  26
ENDBRANCH  24  25
ENDBRANCH   1  24
TORSDOF 17
ENDMDL
MODEL 3
REMARK VINA RESULT:     -12.3      2.779      7.044
REMARK SMILES CC(C)n1cncc1C[NH2+][C@@H]1CCC[C@H](C(=O)NCCCNC(=O)c2ccc(-c3c4nc(c(-c5cc(S(=O)(=O)[O-])ccc5F)c5ccc([nH]5)c(-c5cc(S(=O)(=O)[O-])ccc5F)c5nc(c(-c6cc(S(=O)(=O)[O-])ccc6F)c6ccc3[nH]6)C=C5)C=C4)cc2)C1
REMARK SMILES IDX 19 1 18 2 16 3 17 4 15 6 11 7 12 8 88 9 13 10 14 11 10 12
REMARK SMILES IDX 9 15 8 16 4 17 5 18 6 19 7 20 2 21 1 22 3 23 20 24 21 25
REMARK SMILES IDX 22 26 23 27 24 29 25 30 26 31 87 32 27 33 86 34 28 35 29 36
REMARK SMILES IDX 30 37 80 38 31 39 85 40 79 41 81 42 32 43 84 44 78 45 77 46
REMARK SMILES IDX 33 48 65 49 45 50 64 51 46 52 49 53 63 54 82 55 47 56 48 57
REMARK SMILES IDX 62 59 83 60 50 61 34 62 35 63 43 64 36 65 42 66 44 67 41 68
REMARK SMILES IDX 37 69 38 70 39 71 40 72 66 73 67 74 75 75 68 76 74 77 76 78
REMARK SMILES IDX 73 79 69 80 70 81 71 82 72 83 51 84 52 85 60 86 53 87 59 88
REMARK SMILES IDX 61 89 58 90 54 91 55 92 56 93 57 94
REMARK H PARENT 18 5 10 13 10 14 22 28 81 47 49 58
REMARK Flexibility Score: inf
ROOT
ATOM      1  C   UNL A   1      31.856  30.527  26.136  1.00  0.00     0.117 C 
ENDROOT
BRANCH   1   2
ATOM      2  N   UNL A   1      32.227  30.053  24.806  1.00  0.00    -0.356 N 
ATOM      3  C   UNL A   1      31.706  29.057  24.030  1.00  0.00     0.223 C 
ATOM      4  O   UNL A   1      32.111  28.948  22.870  1.00  0.00    -0.275 OA
ATOM      5  H   UNL A   1      32.983  30.533  24.398  1.00  0.00     0.163 HD
BRANCH   3   6
ATOM      6  C   UNL A   1      30.675  28.071  24.574  1.00  0.00     0.084 C 
ATOM      7  C   UNL A   1      30.604  25.828  25.914  1.00  0.00     0.183 C 
ATOM      8  C   UNL A   1      30.166  25.181  24.593  1.00  0.00     0.065 C 
ATOM      9  C   UNL A   1      31.252  27.210  25.713  1.00  0.00     0.078 C 
ATOM     10  C   UNL A   1      29.253  26.108  23.812  1.00  0.00     0.007 C 
ATOM     11  C   UNL A   1      30.011  27.349  23.398  1.00  0.00     0.014 C 
BRANCH   7  12
ATOM     12  N   UNL A   1      31.533  25.032  26.731  1.00  0.00    -0.339 N 
ATOM     13  H   UNL A   1      32.479  25.231  26.404  1.00  0.00     0.346 HD
ATOM     14  H   UNL A   1      31.346  25.310  27.695  1.00  0.00     0.346 HD
BRANCH  12  15
ATOM     15  C   UNL A   1      31.354  23.590  26.711  1.00  0.00     0.317 C 
BRANCH  15  16
ATOM     16  C   UNL A   1      32.673  22.908  26.676  1.00  0.00     0.093 A 
ATOM     17  N   UNL A   1      33.603  22.994  25.655  1.00  0.00    -0.327 N 
ATOM     18  C   UNL A   1      34.707  22.296  26.077  1.00  0.00     0.200 A 
ATOM     19  N   UNL A   1      34.526  21.736  27.249  1.00  0.00    -0.245 NA
ATOM     20  C   UNL A   1      33.266  22.099  27.626  1.00  0.00     0.140 A 
BRANCH  17  21
ATOM     21  C   UNL A   1      33.487  23.754  24.408  1.00  0.00     0.082 C 
ATOM     22  C   UNL A   1      34.248  25.088  24.415  1.00  0.00     0.031 C 
ATOM     23  C   UNL A   1      33.942  22.957  23.178  1.00  0.00     0.031 C 
ENDBRANCH  17  21
ENDBRANCH  15  16
ENDBRANCH  12  15
ENDBRANCH   7  12
ENDBRANCH   3   6
ENDBRANCH   1   2
BRANCH   1  24
ATOM     24  C   UNL A   1      32.768  30.050  27.266  1.00  0.00     0.042 C 
BRANCH  24  25
ATOM     25  C   UNL A   1      34.044  30.856  27.391  1.00  0.00     0.118 C 
BRANCH  25  26
ATOM     26  N   UNL A   1      34.059  31.755  28.547  1.00  0.00    -0.352 N 
ATOM     27  C   UNL A   1      34.979  31.781  29.581  1.00  0.00     0.251 C 
ATOM     28  H   UNL A   1      33.330  32.415  28.595  1.00  0.00     0.163 HD
ATOM     29  O   UNL A   1      34.705  32.331  30.644  1.00  0.00    -0.269 OA
BRANCH  27  30
ATOM     30  C   UNL A   1      36.278  31.113  29.380  1.00  0.00     0.039 A 
ATOM     31  C   UNL A   1      37.474  31.831  29.309  1.00  0.00     0.014 A 
ATOM     32  C   UNL A   1      36.285  29.724  29.353  1.00  0.00     0.014 A 
ATOM     33  C   UNL A   1      38.679  31.128  29.319  1.00  0.00     0.010 A 
ATOM     34  C   UNL A   1      37.460  29.051  29.563  1.00  0.00     0.010 A 
ATOM     35  C   UNL A   1      38.668  29.733  29.480  1.00  0.00    -0.014 A 
BRANCH  35  36
ATOM     36  C   UNL A   1      39.904  28.975  29.669  1.00  0.00     0.031 A 
ATOM     37  C   UNL A   1      40.245  28.666  31.083  1.00  0.00     0.074 A 
ATOM     38  C   UNL A   1      40.576  28.384  28.655  1.00  0.00     0.049 A 
ATOM     39  N   UNL A   1      41.221  29.143  31.781  1.00  0.00    -0.248 NA
ATOM     40  C   UNL A   1      39.311  27.839  31.863  1.00  0.00     0.031 C 
ATOM     41  C   UNL A   1      40.208  28.324  27.233  1.00  0.00     0.029 A 
ATOM     42  N   UNL A   1      41.682  27.593  28.704  1.00  0.00    -0.354 N 
ATOM     43  C   UNL A   1      41.177  28.486  33.007  1.00  0.00     0.074 A 
ATOM     44  C   UNL A   1      39.875  27.879  33.073  1.00  0.00     0.031 C 
ATOM     45  C   UNL A   1      40.916  27.351  26.621  1.00  0.00     0.029 A 
ATOM     46  C   UNL A   1      41.916  26.856  27.547  1.00  0.00     0.049 A 
ATOM     47  H   UNL A   1      42.269  27.545  29.494  1.00  0.00     0.167 HD
ATOM     48  C   UNL A   1      42.307  28.299  33.746  1.00  0.00     0.034 A 
ATOM     49  C   UNL A   1      42.855  25.895  27.352  1.00  0.00     0.034 A 
ATOM     50  C   UNL A   1      43.378  29.152  33.270  1.00  0.00     0.049 A 
ATOM     51  C   UNL A   1      43.919  26.135  28.356  1.00  0.00     0.074 A 
ATOM     52  C   UNL A   1      43.521  30.516  33.092  1.00  0.00     0.029 A 
ATOM     53  N   UNL A   1      44.376  28.582  32.509  1.00  0.00    -0.354 N 
ATOM     54  N   UNL A   1      44.662  27.208  28.366  1.00  0.00    -0.248 NA
ATOM     55  C   UNL A   1      43.834  25.433  29.628  1.00  0.00     0.031 C 
ATOM     56  C   UNL A   1      44.219  30.650  31.855  1.00  0.00     0.029 A 
ATOM     57  C   UNL A   1      44.546  29.372  31.398  1.00  0.00     0.049 A 
ATOM     58  H   UNL A   1      44.875  27.760  32.723  1.00  0.00     0.167 HD
ATOM     59  C   UNL A   1      44.762  27.562  29.703  1.00  0.00     0.074 A 
ATOM     60  C   UNL A   1      44.331  26.374  30.437  1.00  0.00     0.031 C 
ATOM     61  C   UNL A   1      44.907  28.868  30.084  1.00  0.00     0.034 A 
BRANCH  48  62
ATOM     62  C   UNL A   1      42.580  27.107  34.645  1.00  0.00     0.023 A 
ATOM     63  C   UNL A   1      43.419  26.098  34.132  1.00  0.00     0.031 A 
ATOM     64  C   UNL A   1      41.867  26.766  35.816  1.00  0.00     0.131 A 
ATOM     65  C   UNL A   1      43.428  24.806  34.687  1.00  0.00     0.055 A 
ATOM     66  C   UNL A   1      41.935  25.500  36.408  1.00  0.00     0.041 A 
ATOM     67  F   UNL A   1      41.000  27.593  36.410  1.00  0.00    -0.206 F 
ATOM     68  C   UNL A   1      42.687  24.498  35.823  1.00  0.00     0.022 A 
BRANCH  65  69
ATOM     69  S   UNL A   1      44.271  23.488  33.776  1.00  0.00     0.124 S 
ATOM     70  O   UNL A   1      45.618  24.037  33.650  1.00  0.00    -0.237 OA
ATOM     71  O   UNL A   1      44.119  22.354  34.681  1.00  0.00    -0.237 OA
ATOM     72  O   UNL A   1      43.514  23.400  32.531  1.00  0.00    -0.744 OA
ENDBRANCH  65  69
ENDBRANCH  48  62
BRANCH  49  73
ATOM     73  C   UNL A   1      42.719  24.646  26.553  1.00  0.00     0.023 A 
ATOM     74  C   UNL A   1      43.674  24.239  25.598  1.00  0.00     0.031 A 
ATOM     75  C   UNL A   1      41.732  23.698  26.908  1.00  0.00     0.131 A 
ATOM     76  C   UNL A   1      43.616  22.937  25.045  1.00  0.00     0.055 A 
ATOM     77  C   UNL A   1      41.678  22.416  26.355  1.00  0.00     0.041 A 
ATOM     78  F   UNL A   1      40.834  23.956  27.872  1.00  0.00    -0.206 F 
ATOM     79  C   UNL A   1      42.629  22.026  25.427  1.00  0.00     0.022 A 
BRANCH  76  80
ATOM     80  S   UNL A   1      44.901  22.370  23.883  1.00  0.00     0.124 S 
ATOM     81  O   UNL A   1      45.378  21.147  24.518  1.00  0.00    -0.237 OA
ATOM     82  O   UNL A   1      44.153  22.207  22.641  1.00  0.00    -0.237 OA
ATOM     83  O   UNL A   1      45.865  23.472  23.874  1.00  0.00    -0.744 OA
ENDBRANCH  76  80
ENDBRANCH  49  73
BRANCH  61  84
ATOM     84  C   UNL A   1      45.258  29.900  29.027  1.00  0.00     0.023 A 
ATOM     85  C   UNL A   1      46.573  30.256  28.642  1.00  0.00     0.031 A 
ATOM     86  C   UNL A   1      44.196  30.455  28.292  1.00  0.00     0.131 A 
ATOM     87  C   UNL A   1      46.778  31.144  27.565  1.00  0.00     0.055 A 
ATOM     88  C   UNL A   1      44.402  31.315  27.215  1.00  0.00     0.041 A 
ATOM     89  F   UNL A   1      42.924  30.139  28.590  1.00  0.00    -0.206 F 
ATOM     90  C   UNL A   1      45.695  31.668  26.850  1.00  0.00     0.022 A 
BRANCH  87  91
ATOM     91  S   UNL A   1      48.460  31.652  27.079  1.00  0.00     0.124 S 
ATOM     92  O   UNL A   1      49.040  30.434  26.527  1.00  0.00    -0.237 OA
ATOM     93  O   UNL A   1      48.203  32.729  26.126  1.00  0.00    -0.237 OA
ATOM     94  O   UNL A   1      49.059  32.092  28.342  1.00  0.00    -0.744 OA
ENDBRANCH  87  91
ENDBRANCH  61  84
ENDBRANCH  35  36
ENDBRANCH  27  30
ENDBRANCH  25  26
ENDBRANCH  24  25
ENDBRANCH   1  24
TORSDOF 17
ENDMDL
