MODEL 1
REMARK VINA RESULT:      -9.8      0.000      0.000
REMARK SMILES CC(C)Cc1ccc([C@@H](C)C(=O)NCCCNC(=O)c2ccc(-c3c4nc(c(-c5cc(S(=O)(=O)[O-])ccc5F)c5ccc([nH]5)c(-c5cc(S(=O)(=O)[O-])ccc5F)c5nc(c(-c6cc(S(=O)(=O)[O-])ccc6F)c6ccc3[nH]6)C=C5)C=C4)cc2)cc1
REMARK SMILES IDX 15 1 14 2 13 3 11 4 12 5 9 7 10 8 8 9 5 10 6 11 84 12 7 13
REMARK SMILES IDX 83 14 4 15 2 16 1 17 3 18 16 19 17 20 18 21 19 23 20 24
REMARK SMILES IDX 21 25 82 26 22 27 81 28 23 29 24 30 25 31 75 32 26 33 80 34
REMARK SMILES IDX 74 35 76 36 27 37 79 38 73 39 72 40 28 42 60 43 40 44 59 45
REMARK SMILES IDX 41 46 44 47 58 48 77 49 42 50 43 51 57 53 78 54 45 55 29 56
REMARK SMILES IDX 30 57 38 58 31 59 37 60 39 61 36 62 32 63 33 64 34 65 35 66
REMARK SMILES IDX 61 67 62 68 70 69 63 70 69 71 71 72 68 73 64 74 65 75 66 76
REMARK SMILES IDX 67 77 46 78 47 79 55 80 48 81 54 82 56 83 53 84 49 85 50 86
REMARK SMILES IDX 51 87 52 88
REMARK H PARENT 13 6 17 22 76 41 44 52
REMARK Flexibility Score: inf
ROOT
ATOM      1  C   UNL A   1      42.152  19.990  27.194  1.00  0.00     0.042 C 
ENDROOT
BRANCH   1   2
ATOM      2  C   UNL A   1      42.602  20.145  25.744  1.00  0.00     0.117 C 
BRANCH   2   3
ATOM      3  N   UNL A   1      44.033  20.352  25.617  1.00  0.00    -0.356 N 
ATOM      4  C   UNL A   1      44.785  21.486  25.614  1.00  0.00     0.227 C 
ATOM      5  O   UNL A   1      46.003  21.339  25.459  1.00  0.00    -0.274 OA
ATOM      6  H   UNL A   1      44.552  19.522  25.514  1.00  0.00     0.163 HD
BRANCH   4   7
ATOM      7  C   UNL A   1      44.203  22.897  25.801  1.00  0.00     0.105 C 
ATOM      8  C   UNL A   1      44.621  23.888  24.715  1.00  0.00     0.023 C 
BRANCH   7   9
ATOM      9  C   UNL A   1      44.279  23.381  27.240  1.00  0.00    -0.036 A 
ATOM     10  C   UNL A   1      44.466  24.558  29.806  1.00  0.00    -0.048 A 
ATOM     11  C   UNL A   1      43.258  24.018  29.354  1.00  0.00     0.004 A 
ATOM     12  C   UNL A   1      45.598  24.451  28.994  1.00  0.00     0.004 A 
ATOM     13  C   UNL A   1      43.170  23.420  28.094  1.00  0.00     0.005 A 
ATOM     14  C   UNL A   1      45.502  23.878  27.723  1.00  0.00     0.005 A 
BRANCH  10  15
ATOM     15  C   UNL A   1      44.526  25.301  31.119  1.00  0.00     0.038 C 
BRANCH  15  16
ATOM     16  C   UNL A   1      44.293  26.820  30.979  1.00  0.00    -0.013 C 
ATOM     17  C   UNL A   1      43.092  27.312  31.795  1.00  0.00     0.008 C 
ATOM     18  C   UNL A   1      45.550  27.578  31.414  1.00  0.00     0.008 C 
ENDBRANCH  15  16
ENDBRANCH  10  15
ENDBRANCH   7   9
ENDBRANCH   4   7
ENDBRANCH   2   3
ENDBRANCH   1   2
BRANCH   1  19
ATOM     19  C   UNL A   1      41.120  21.021  27.639  1.00  0.00     0.118 C 
BRANCH  19  20
ATOM     20  N   UNL A   1      40.032  21.163  26.682  1.00  0.00    -0.352 N 
ATOM     21  C   UNL A   1      39.300  22.264  26.306  1.00  0.00     0.251 C 
ATOM     22  H   UNL A   1      39.777  20.328  26.226  1.00  0.00     0.163 HD
ATOM     23  O   UNL A   1      38.280  22.089  25.643  1.00  0.00    -0.269 OA
BRANCH  21  24
ATOM     24  C   UNL A   1      39.706  23.637  26.690  1.00  0.00     0.039 A 
ATOM     25  C   UNL A   1      39.559  24.029  28.026  1.00  0.00     0.014 A 
ATOM     26  C   UNL A   1      40.164  24.564  25.750  1.00  0.00     0.014 A 
ATOM     27  C   UNL A   1      39.918  25.321  28.423  1.00  0.00     0.010 A 
ATOM     28  C   UNL A   1      40.595  25.825  26.160  1.00  0.00     0.010 A 
ATOM     29  C   UNL A   1      40.468  26.222  27.498  1.00  0.00    -0.014 A 
BRANCH  29  30
ATOM     30  C   UNL A   1      40.897  27.586  27.913  1.00  0.00     0.031 A 
ATOM     31  C   UNL A   1      42.346  27.988  27.820  1.00  0.00     0.074 A 
ATOM     32  C   UNL A   1      39.989  28.444  28.422  1.00  0.00     0.049 A 
ATOM     33  N   UNL A   1      42.923  29.101  28.196  1.00  0.00    -0.248 NA
ATOM     34  C   UNL A   1      43.270  26.993  27.257  1.00  0.00     0.031 C 
ATOM     35  C   UNL A   1      38.563  28.156  28.600  1.00  0.00     0.029 A 
ATOM     36  N   UNL A   1      40.128  29.726  28.892  1.00  0.00    -0.354 N 
ATOM     37  C   UNL A   1      44.279  28.934  27.931  1.00  0.00     0.074 A 
ATOM     38  C   UNL A   1      44.441  27.591  27.416  1.00  0.00     0.031 C 
ATOM     39  C   UNL A   1      37.957  29.238  29.116  1.00  0.00     0.029 A 
ATOM     40  C   UNL A   1      38.954  30.279  29.349  1.00  0.00     0.049 A 
ATOM     41  H   UNL A   1      40.988  30.206  28.900  1.00  0.00     0.167 HD
ATOM     42  C   UNL A   1      45.291  29.825  28.082  1.00  0.00     0.034 A 
ATOM     43  C   UNL A   1      38.708  31.482  29.906  1.00  0.00     0.034 A 
ATOM     44  C   UNL A   1      45.109  31.167  28.580  1.00  0.00     0.049 A 
ATOM     45  C   UNL A   1      39.851  32.453  30.071  1.00  0.00     0.074 A 
ATOM     46  C   UNL A   1      46.053  32.171  28.721  1.00  0.00     0.029 A 
ATOM     47  N   UNL A   1      43.904  31.696  29.025  1.00  0.00    -0.354 N 
ATOM     48  N   UNL A   1      41.119  32.297  29.769  1.00  0.00    -0.248 NA
ATOM     49  C   UNL A   1      39.524  33.766  30.641  1.00  0.00     0.031 C 
ATOM     50  C   UNL A   1      45.433  33.280  29.309  1.00  0.00     0.029 A 
ATOM     51  C   UNL A   1      44.085  32.998  29.466  1.00  0.00     0.049 A 
ATOM     52  H   UNL A   1      43.044  31.214  29.028  1.00  0.00     0.167 HD
ATOM     53  C   UNL A   1      41.735  33.504  30.085  1.00  0.00     0.074 A 
ATOM     54  C   UNL A   1      40.696  34.381  30.582  1.00  0.00     0.031 C 
ATOM     55  C   UNL A   1      43.041  33.858  29.972  1.00  0.00     0.034 A 
BRANCH  42  56
ATOM     56  C   UNL A   1      46.685  29.364  27.729  1.00  0.00     0.023 A 
ATOM     57  C   UNL A   1      47.023  28.961  26.424  1.00  0.00     0.031 A 
ATOM     58  C   UNL A   1      47.689  29.306  28.714  1.00  0.00     0.131 A 
ATOM     59  C   UNL A   1      48.302  28.450  26.157  1.00  0.00     0.055 A 
ATOM     60  C   UNL A   1      48.984  28.872  28.422  1.00  0.00     0.041 A 
ATOM     61  F   UNL A   1      47.424  29.658  29.981  1.00  0.00    -0.206 F 
ATOM     62  C   UNL A   1      49.294  28.426  27.141  1.00  0.00     0.022 A 
BRANCH  59  63
ATOM     63  S   UNL A   1      48.610  27.686  24.540  1.00  0.00     0.124 S 
ATOM     64  O   UNL A   1      48.547  26.263  24.871  1.00  0.00    -0.237 OA
ATOM     65  O   UNL A   1      47.511  28.202  23.733  1.00  0.00    -0.237 OA
ATOM     66  O   UNL A   1      49.938  28.175  24.175  1.00  0.00    -0.744 OA
ENDBRANCH  59  63
ENDBRANCH  42  56
BRANCH  43  67
ATOM     67  C   UNL A   1      37.333  31.840  30.356  1.00  0.00     0.023 A 
ATOM     68  C   UNL A   1      36.452  32.534  29.511  1.00  0.00     0.031 A 
ATOM     69  C   UNL A   1      36.894  31.534  31.657  1.00  0.00     0.131 A 
ATOM     70  C   UNL A   1      35.197  32.941  29.990  1.00  0.00     0.055 A 
ATOM     71  C   UNL A   1      35.624  31.893  32.110  1.00  0.00     0.041 A 
ATOM     72  F   UNL A   1      37.693  30.866  32.504  1.00  0.00    -0.206 F 
ATOM     73  C   UNL A   1      34.772  32.614  31.280  1.00  0.00     0.022 A 
BRANCH  70  74
ATOM     74  S   UNL A   1      34.159  33.983  28.928  1.00  0.00     0.124 S 
ATOM     75  O   UNL A   1      33.603  33.004  28.001  1.00  0.00    -0.237 OA
ATOM     76  O   UNL A   1      33.225  34.558  29.891  1.00  0.00    -0.237 OA
ATOM     77  O   UNL A   1      35.110  34.927  28.345  1.00  0.00    -0.744 OA
ENDBRANCH  70  74
ENDBRANCH  43  67
BRANCH  55  78
ATOM     78  C   UNL A   1      43.401  35.272  30.356  1.00  0.00     0.023 A 
ATOM     79  C   UNL A   1      43.359  36.325  29.426  1.00  0.00     0.031 A 
ATOM     80  C   UNL A   1      43.811  35.565  31.669  1.00  0.00     0.131 A 
ATOM     81  C   UNL A   1      43.779  37.609  29.805  1.00  0.00     0.055 A 
ATOM     82  C   UNL A   1      44.168  36.858  32.057  1.00  0.00     0.041 A 
ATOM     83  F   UNL A   1      43.872  34.597  32.599  1.00  0.00    -0.206 F 
ATOM     84  C   UNL A   1      44.167  37.886  31.119  1.00  0.00     0.022 A 
BRANCH  81  85
ATOM     85  S   UNL A   1      43.905  38.895  28.532  1.00  0.00     0.124 S 
ATOM     86  O   UNL A   1      44.947  39.760  29.076  1.00  0.00    -0.237 OA
ATOM     87  O   UNL A   1      44.270  38.126  27.346  1.00  0.00    -0.237 OA
ATOM     88  O   UNL A   1      42.565  39.480  28.502  1.00  0.00    -0.744 OA
ENDBRANCH  81  85
ENDBRANCH  55  78
ENDBRANCH  29  30
ENDBRANCH  21  24
ENDBRANCH  19  20
ENDBRANCH   1  19
TORSDOF 16
ENDMDL
MODEL 2
REMARK VINA RESULT:      -9.8      6.092     12.146
REMARK SMILES CC(C)Cc1ccc([C@@H](C)C(=O)NCCCNC(=O)c2ccc(-c3c4nc(c(-c5cc(S(=O)(=O)[O-])ccc5F)c5ccc([nH]5)c(-c5cc(S(=O)(=O)[O-])ccc5F)c5nc(c(-c6cc(S(=O)(=O)[O-])ccc6F)c6ccc3[nH]6)C=C5)C=C4)cc2)cc1
REMARK SMILES IDX 15 1 14 2 13 3 11 4 12 5 9 7 10 8 8 9 5 10 6 11 84 12 7 13
REMARK SMILES IDX 83 14 4 15 2 16 1 17 3 18 16 19 17 20 18 21 19 23 20 24
REMARK SMILES IDX 21 25 82 26 22 27 81 28 23 29 24 30 25 31 75 32 26 33 80 34
REMARK SMILES IDX 74 35 76 36 27 37 79 38 73 39 72 40 28 42 60 43 40 44 59 45
REMARK SMILES IDX 41 46 44 47 58 48 77 49 42 50 43 51 57 53 78 54 45 55 29 56
REMARK SMILES IDX 30 57 38 58 31 59 37 60 39 61 36 62 32 63 33 64 34 65 35 66
REMARK SMILES IDX 61 67 62 68 70 69 63 70 69 71 71 72 68 73 64 74 65 75 66 76
REMARK SMILES IDX 67 77 46 78 47 79 55 80 48 81 54 82 56 83 53 84 49 85 50 86
REMARK SMILES IDX 51 87 52 88
REMARK H PARENT 13 6 17 22 76 41 44 52
REMARK Flexibility Score: inf
ROOT
ATOM      1  C   UNL A   1      33.208  28.065  26.841  1.00  0.00     0.042 C 
ENDROOT
BRANCH   1   2
ATOM      2  C   UNL A   1      31.688  28.193  26.883  1.00  0.00     0.117 C 
BRANCH   2   3
ATOM      3  N   UNL A   1      31.015  26.910  26.967  1.00  0.00    -0.356 N 
ATOM      4  C   UNL A   1      30.642  26.021  26.007  1.00  0.00     0.227 C 
ATOM      5  O   UNL A   1      30.051  25.006  26.395  1.00  0.00    -0.274 OA
ATOM      6  H   UNL A   1      30.788  26.634  27.884  1.00  0.00     0.163 HD
BRANCH   4   7
ATOM      7  C   UNL A   1      30.925  26.213  24.508  1.00  0.00     0.105 C 
ATOM      8  C   UNL A   1      32.395  26.045  24.128  1.00  0.00     0.023 C 
BRANCH   7   9
ATOM      9  C   UNL A   1      30.195  27.410  23.919  1.00  0.00    -0.036 A 
ATOM     10  C   UNL A   1      28.672  29.640  23.075  1.00  0.00    -0.048 A 
ATOM     11  C   UNL A   1      30.037  29.770  23.352  1.00  0.00     0.004 A 
ATOM     12  C   UNL A   1      28.085  28.376  23.161  1.00  0.00     0.004 A 
ATOM     13  C   UNL A   1      30.793  28.664  23.751  1.00  0.00     0.005 A 
ATOM     14  C   UNL A   1      28.836  27.277  23.587  1.00  0.00     0.005 A 
BRANCH  10  15
ATOM     15  C   UNL A   1      27.839  30.858  22.754  1.00  0.00     0.038 C 
BRANCH  15  16
ATOM     16  C   UNL A   1      28.619  31.956  21.998  1.00  0.00    -0.013 C 
ATOM     17  C   UNL A   1      27.952  32.351  20.677  1.00  0.00     0.008 C 
ATOM     18  C   UNL A   1      28.762  33.194  22.888  1.00  0.00     0.008 C 
ENDBRANCH  15  16
ENDBRANCH  10  15
ENDBRANCH   7   9
ENDBRANCH   4   7
ENDBRANCH   2   3
ENDBRANCH   1   2
BRANCH   1  19
ATOM     19  C   UNL A   1      33.905  29.166  26.050  1.00  0.00     0.118 C 
BRANCH  19  20
ATOM     20  N   UNL A   1      33.726  30.478  26.656  1.00  0.00    -0.352 N 
ATOM     21  C   UNL A   1      34.407  31.102  27.674  1.00  0.00     0.251 C 
ATOM     22  H   UNL A   1      32.992  31.010  26.270  1.00  0.00     0.163 HD
ATOM     23  O   UNL A   1      33.924  32.122  28.161  1.00  0.00    -0.269 OA
BRANCH  21  24
ATOM     24  C   UNL A   1      35.688  30.568  28.196  1.00  0.00     0.039 A 
ATOM     25  C   UNL A   1      35.654  29.719  29.309  1.00  0.00     0.014 A 
ATOM     26  C   UNL A   1      36.920  30.938  27.652  1.00  0.00     0.014 A 
ATOM     27  C   UNL A   1      36.843  29.207  29.838  1.00  0.00     0.010 A 
ATOM     28  C   UNL A   1      38.099  30.365  28.130  1.00  0.00     0.010 A 
ATOM     29  C   UNL A   1      38.076  29.501  29.234  1.00  0.00    -0.014 A 
BRANCH  29  30
ATOM     30  C   UNL A   1      39.346  28.929  29.758  1.00  0.00     0.031 A 
ATOM     31  C   UNL A   1      40.032  29.560  30.941  1.00  0.00     0.074 A 
ATOM     32  C   UNL A   1      39.909  27.875  29.134  1.00  0.00     0.049 A 
ATOM     33  N   UNL A   1      41.176  29.253  31.498  1.00  0.00    -0.248 NA
ATOM     34  C   UNL A   1      39.353  30.708  31.561  1.00  0.00     0.031 C 
ATOM     35  C   UNL A   1      39.362  27.202  27.954  1.00  0.00     0.029 A 
ATOM     36  N   UNL A   1      41.068  27.188  29.397  1.00  0.00    -0.354 N 
ATOM     37  C   UNL A   1      41.362  30.178  32.520  1.00  0.00     0.074 A 
ATOM     38  C   UNL A   1      40.240  31.090  32.468  1.00  0.00     0.031 C 
ATOM     39  C   UNL A   1      40.171  26.186  27.611  1.00  0.00     0.029 A 
ATOM     40  C   UNL A   1      41.317  26.162  28.515  1.00  0.00     0.049 A 
ATOM     41  H   UNL A   1      41.667  27.410  30.147  1.00  0.00     0.167 HD
ATOM     42  C   UNL A   1      42.365  30.246  33.433  1.00  0.00     0.034 A 
ATOM     43  C   UNL A   1      42.355  25.306  28.433  1.00  0.00     0.034 A 
ATOM     44  C   UNL A   1      43.468  29.317  33.483  1.00  0.00     0.049 A 
ATOM     45  C   UNL A   1      43.462  25.407  29.453  1.00  0.00     0.074 A 
ATOM     46  C   UNL A   1      44.507  29.259  34.398  1.00  0.00     0.029 A 
ATOM     47  N   UNL A   1      43.681  28.284  32.579  1.00  0.00    -0.354 N 
ATOM     48  N   UNL A   1      43.597  26.257  30.445  1.00  0.00    -0.248 NA
ATOM     49  C   UNL A   1      44.548  24.424  29.350  1.00  0.00     0.031 C 
ATOM     50  C   UNL A   1      45.379  28.235  34.009  1.00  0.00     0.029 A 
ATOM     51  C   UNL A   1      44.847  27.603  32.896  1.00  0.00     0.049 A 
ATOM     52  H   UNL A   1      43.090  28.067  31.821  1.00  0.00     0.167 HD
ATOM     53  C   UNL A   1      44.769  25.890  31.101  1.00  0.00     0.074 A 
ATOM     54  C   UNL A   1      45.289  24.733  30.403  1.00  0.00     0.031 C 
ATOM     55  C   UNL A   1      45.361  26.458  32.184  1.00  0.00     0.034 A 
BRANCH  42  56
ATOM     56  C   UNL A   1      42.323  31.380  34.430  1.00  0.00     0.023 A 
ATOM     57  C   UNL A   1      41.377  31.417  35.470  1.00  0.00     0.031 A 
ATOM     58  C   UNL A   1      43.230  32.451  34.331  1.00  0.00     0.131 A 
ATOM     59  C   UNL A   1      41.310  32.533  36.319  1.00  0.00     0.055 A 
ATOM     60  C   UNL A   1      43.210  33.521  35.229  1.00  0.00     0.041 A 
ATOM     61  F   UNL A   1      44.144  32.484  33.349  1.00  0.00    -0.206 F 
ATOM     62  C   UNL A   1      42.236  33.573  36.222  1.00  0.00     0.022 A 
BRANCH  59  63
ATOM     63  S   UNL A   1      39.907  32.670  37.461  1.00  0.00     0.124 S 
ATOM     64  O   UNL A   1      39.338  33.959  37.074  1.00  0.00    -0.237 OA
ATOM     65  O   UNL A   1      39.111  31.495  37.126  1.00  0.00    -0.237 OA
ATOM     66  O   UNL A   1      40.534  32.644  38.781  1.00  0.00    -0.744 OA
ENDBRANCH  59  63
ENDBRANCH  42  56
BRANCH  43  67
ATOM     67  C   UNL A   1      42.411  24.284  27.349  1.00  0.00     0.023 A 
ATOM     68  C   UNL A   1      41.680  23.089  27.442  1.00  0.00     0.031 A 
ATOM     69  C   UNL A   1      43.231  24.469  26.221  1.00  0.00     0.131 A 
ATOM     70  C   UNL A   1      41.820  22.103  26.453  1.00  0.00     0.055 A 
ATOM     71  C   UNL A   1      43.325  23.508  25.213  1.00  0.00     0.041 A 
ATOM     72  F   UNL A   1      43.946  25.596  26.078  1.00  0.00    -0.206 F 
ATOM     73  C   UNL A   1      42.628  22.310  25.332  1.00  0.00     0.022 A 
BRANCH  70  74
ATOM     74  S   UNL A   1      40.997  20.505  26.696  1.00  0.00     0.124 S 
ATOM     75  O   UNL A   1      39.730  20.715  26.006  1.00  0.00    -0.237 OA
ATOM     76  O   UNL A   1      41.932  19.585  26.057  1.00  0.00    -0.237 OA
ATOM     77  O   UNL A   1      40.905  20.388  28.150  1.00  0.00    -0.744 OA
ENDBRANCH  70  74
ENDBRANCH  43  67
BRANCH  55  78
ATOM     78  C   UNL A   1      46.616  25.797  32.699  1.00  0.00     0.023 A 
ATOM     79  C   UNL A   1      46.574  24.788  33.676  1.00  0.00     0.031 A 
ATOM     80  C   UNL A   1      47.875  26.200  32.217  1.00  0.00     0.131 A 
ATOM     81  C   UNL A   1      47.770  24.258  34.185  1.00  0.00     0.055 A 
ATOM     82  C   UNL A   1      49.059  25.624  32.683  1.00  0.00     0.041 A 
ATOM     83  F   UNL A   1      47.975  27.162  31.285  1.00  0.00    -0.206 F 
ATOM     84  C   UNL A   1      49.011  24.657  33.683  1.00  0.00     0.022 A 
BRANCH  81  85
ATOM     85  S   UNL A   1      47.685  23.106  35.584  1.00  0.00     0.124 S 
ATOM     86  O   UNL A   1      46.280  22.714  35.569  1.00  0.00    -0.237 OA
ATOM     87  O   UNL A   1      48.639  22.072  35.196  1.00  0.00    -0.237 OA
ATOM     88  O   UNL A   1      48.090  23.923  36.726  1.00  0.00    -0.744 OA
ENDBRANCH  81  85
ENDBRANCH  55  78
ENDBRANCH  29  30
ENDBRANCH  21  24
ENDBRANCH  19  20
ENDBRANCH   1  19
TORSDOF 16
ENDMDL
MODEL 3
REMARK VINA RESULT:      -9.6      5.352     11.171
REMARK SMILES CC(C)Cc1ccc([C@@H](C)C(=O)NCCCNC(=O)c2ccc(-c3c4nc(c(-c5cc(S(=O)(=O)[O-])ccc5F)c5ccc([nH]5)c(-c5cc(S(=O)(=O)[O-])ccc5F)c5nc(c(-c6cc(S(=O)(=O)[O-])ccc6F)c6ccc3[nH]6)C=C5)C=C4)cc2)cc1
REMARK SMILES IDX 15 1 14 2 13 3 11 4 12 5 9 7 10 8 8 9 5 10 6 11 84 12 7 13
REMARK SMILES IDX 83 14 4 15 2 16 1 17 3 18 16 19 17 20 18 21 19 23 20 24
REMARK SMILES IDX 21 25 82 26 22 27 81 28 23 29 24 30 25 31 75 32 26 33 80 34
REMARK SMILES IDX 74 35 76 36 27 37 79 38 73 39 72 40 28 42 60 43 40 44 59 45
REMARK SMILES IDX 41 46 44 47 58 48 77 49 42 50 43 51 57 53 78 54 45 55 29 56
REMARK SMILES IDX 30 57 38 58 31 59 37 60 39 61 36 62 32 63 33 64 34 65 35 66
REMARK SMILES IDX 61 67 62 68 70 69 63 70 69 71 71 72 68 73 64 74 65 75 66 76
REMARK SMILES IDX 67 77 46 78 47 79 55 80 48 81 54 82 56 83 53 84 49 85 50 86
REMARK SMILES IDX 51 87 52 88
REMARK H PARENT 13 6 17 22 76 41 44 52
REMARK Flexibility Score: inf
ROOT
ATOM      1  C   UNL A   1      32.986  28.048  27.036  1.00  0.00     0.042 C 
ENDROOT
BRANCH   1   2
ATOM      2  C   UNL A   1      31.568  27.878  26.498  1.00  0.00     0.117 C 
BRANCH   2   3
ATOM      3  N   UNL A   1      31.008  26.571  26.788  1.00  0.00    -0.356 N 
ATOM      4  C   UNL A   1      30.943  25.432  26.047  1.00  0.00     0.227 C 
ATOM      5  O   UNL A   1      30.368  24.467  26.568  1.00  0.00    -0.274 OA
ATOM      6  H   UNL A   1      30.602  26.497  27.681  1.00  0.00     0.163 HD
BRANCH   4   7
ATOM      7  C   UNL A   1      31.543  25.293  24.639  1.00  0.00     0.105 C 
ATOM      8  C   UNL A   1      30.522  24.929  23.561  1.00  0.00     0.023 C 
BRANCH   7   9
ATOM      9  C   UNL A   1      32.854  24.524  24.630  1.00  0.00    -0.036 A 
ATOM     10  C   UNL A   1      35.279  23.100  24.311  1.00  0.00    -0.048 A 
ATOM     11  C   UNL A   1      35.273  24.387  24.856  1.00  0.00     0.004 A 
ATOM     12  C   UNL A   1      34.060  22.501  23.984  1.00  0.00     0.004 A 
ATOM     13  C   UNL A   1      34.073  25.083  25.030  1.00  0.00     0.005 A 
ATOM     14  C   UNL A   1      32.864  23.209  24.132  1.00  0.00     0.005 A 
BRANCH  10  15
ATOM     15  C   UNL A   1      36.585  22.399  24.022  1.00  0.00     0.038 C 
BRANCH  15  16
ATOM     16  C   UNL A   1      37.112  21.565  25.209  1.00  0.00    -0.013 C 
ATOM     17  C   UNL A   1      37.519  20.145  24.800  1.00  0.00     0.008 C 
ATOM     18  C   UNL A   1      38.308  22.275  25.848  1.00  0.00     0.008 C 
ENDBRANCH  15  16
ENDBRANCH  10  15
ENDBRANCH   7   9
ENDBRANCH   4   7
ENDBRANCH   2   3
ENDBRANCH   1   2
BRANCH   1  19
ATOM     19  C   UNL A   1      33.852  29.002  26.220  1.00  0.00     0.118 C 
BRANCH  19  20
ATOM     20  N   UNL A   1      33.799  30.366  26.727  1.00  0.00    -0.352 N 
ATOM     21  C   UNL A   1      34.566  31.009  27.669  1.00  0.00     0.251 C 
ATOM     22  H   UNL A   1      33.092  30.924  26.326  1.00  0.00     0.163 HD
ATOM     23  O   UNL A   1      34.183  32.098  28.091  1.00  0.00    -0.269 OA
BRANCH  21  24
ATOM     24  C   UNL A   1      35.822  30.416  28.187  1.00  0.00     0.039 A 
ATOM     25  C   UNL A   1      36.992  30.564  27.431  1.00  0.00     0.014 A 
ATOM     26  C   UNL A   1      35.856  29.666  29.364  1.00  0.00     0.014 A 
ATOM     27  C   UNL A   1      38.194  30.008  27.882  1.00  0.00     0.010 A 
ATOM     28  C   UNL A   1      37.069  29.179  29.852  1.00  0.00     0.010 A 
ATOM     29  C   UNL A   1      38.249  29.335  29.112  1.00  0.00    -0.014 A 
BRANCH  29  30
ATOM     30  C   UNL A   1      39.529  28.774  29.627  1.00  0.00     0.031 A 
ATOM     31  C   UNL A   1      40.257  29.457  30.755  1.00  0.00     0.074 A 
ATOM     32  C   UNL A   1      40.061  27.682  29.042  1.00  0.00     0.049 A 
ATOM     33  N   UNL A   1      41.414  29.164  31.293  1.00  0.00    -0.248 NA
ATOM     34  C   UNL A   1      39.610  30.644  31.334  1.00  0.00     0.031 C 
ATOM     35  C   UNL A   1      39.470  26.956  27.915  1.00  0.00     0.029 A 
ATOM     36  N   UNL A   1      41.219  26.995  29.306  1.00  0.00    -0.354 N 
ATOM     37  C   UNL A   1      41.641  30.138  32.260  1.00  0.00     0.074 A 
ATOM     38  C   UNL A   1      40.528  31.061  32.193  1.00  0.00     0.031 C 
ATOM     39  C   UNL A   1      40.258  25.913  27.602  1.00  0.00     0.029 A 
ATOM     40  C   UNL A   1      41.430  25.922  28.472  1.00  0.00     0.049 A 
ATOM     41  H   UNL A   1      41.842  27.247  30.026  1.00  0.00     0.167 HD
ATOM     42  C   UNL A   1      42.671  30.240  33.138  1.00  0.00     0.034 A 
ATOM     43  C   UNL A   1      42.455  25.049  28.405  1.00  0.00     0.034 A 
ATOM     44  C   UNL A   1      43.764  29.301  33.204  1.00  0.00     0.049 A 
ATOM     45  C   UNL A   1      43.593  25.188  29.385  1.00  0.00     0.074 A 
ATOM     46  C   UNL A   1      44.830  29.277  34.090  1.00  0.00     0.029 A 
ATOM     47  N   UNL A   1      43.939  28.220  32.349  1.00  0.00    -0.354 N 
ATOM     48  N   UNL A   1      43.768  26.087  30.327  1.00  0.00    -0.248 NA
ATOM     49  C   UNL A   1      44.664  24.187  29.301  1.00  0.00     0.031 C 
ATOM     50  C   UNL A   1      45.678  28.223  33.729  1.00  0.00     0.029 A 
ATOM     51  C   UNL A   1      45.106  27.541  32.667  1.00  0.00     0.049 A 
ATOM     52  H   UNL A   1      43.323  27.972  31.621  1.00  0.00     0.167 HD
ATOM     53  C   UNL A   1      44.955  25.739  30.966  1.00  0.00     0.074 A 
ATOM     54  C   UNL A   1      45.440  24.541  30.314  1.00  0.00     0.031 C 
ATOM     55  C   UNL A   1      45.585  26.354  32.000  1.00  0.00     0.034 A 
BRANCH  42  56
ATOM     56  C   UNL A   1      42.673  31.425  34.076  1.00  0.00     0.023 A 
ATOM     57  C   UNL A   1      42.042  31.375  35.333  1.00  0.00     0.031 A 
ATOM     58  C   UNL A   1      43.296  32.629  33.702  1.00  0.00     0.131 A 
ATOM     59  C   UNL A   1      41.984  32.524  36.135  1.00  0.00     0.055 A 
ATOM     60  C   UNL A   1      43.304  33.747  34.541  1.00  0.00     0.041 A 
ATOM     61  F   UNL A   1      43.897  32.747  32.508  1.00  0.00    -0.206 F 
ATOM     62  C   UNL A   1      42.633  33.703  35.760  1.00  0.00     0.022 A 
BRANCH  59  63
ATOM     63  S   UNL A   1      40.930  32.499  37.611  1.00  0.00     0.124 S 
ATOM     64  O   UNL A   1      40.704  33.925  37.835  1.00  0.00    -0.237 OA
ATOM     65  O   UNL A   1      39.774  31.733  37.160  1.00  0.00    -0.237 OA
ATOM     66  O   UNL A   1      41.762  31.841  38.617  1.00  0.00    -0.744 OA
ENDBRANCH  59  63
ENDBRANCH  42  56
BRANCH  43  67
ATOM     67  C   UNL A   1      42.466  23.972  27.374  1.00  0.00     0.023 A 
ATOM     68  C   UNL A   1      41.913  22.709  27.640  1.00  0.00     0.031 A 
ATOM     69  C   UNL A   1      43.071  24.176  26.120  1.00  0.00     0.131 A 
ATOM     70  C   UNL A   1      42.018  21.684  26.687  1.00  0.00     0.055 A 
ATOM     71  C   UNL A   1      43.125  23.169  25.155  1.00  0.00     0.041 A 
ATOM     72  F   UNL A   1      43.609  25.366  25.811  1.00  0.00    -0.206 F 
ATOM     73  C   UNL A   1      42.609  21.909  25.441  1.00  0.00     0.022 A 
BRANCH  70  74
ATOM     74  S   UNL A   1      41.448  20.021  27.134  1.00  0.00     0.124 S 
ATOM     75  O   UNL A   1      42.707  19.291  27.229  1.00  0.00    -0.237 OA
ATOM     76  O   UNL A   1      40.753  20.269  28.393  1.00  0.00    -0.237 OA
ATOM     77  O   UNL A   1      40.590  19.643  26.013  1.00  0.00    -0.744 OA
ENDBRANCH  70  74
ENDBRANCH  43  67
BRANCH  55  78
ATOM     78  C   UNL A   1      46.848  25.705  32.512  1.00  0.00     0.023 A 
ATOM     79  C   UNL A   1      46.828  24.776  33.566  1.00  0.00     0.031 A 
ATOM     80  C   UNL A   1      48.092  26.038  31.947  1.00  0.00     0.131 A 
ATOM     81  C   UNL A   1      48.033  24.258  34.064  1.00  0.00     0.055 A 
ATOM     82  C   UNL A   1      49.283  25.471  32.405  1.00  0.00     0.041 A 
ATOM     83  F   UNL A   1      48.171  26.921  30.938  1.00  0.00    -0.206 F 
ATOM     84  C   UNL A   1      49.259  24.587  33.479  1.00  0.00     0.022 A 
BRANCH  81  85
ATOM     85  S   UNL A   1      47.987  23.221  35.552  1.00  0.00     0.124 S 
ATOM     86  O   UNL A   1      48.722  22.037  35.120  1.00  0.00    -0.237 OA
ATOM     87  O   UNL A   1      48.656  24.062  36.540  1.00  0.00    -0.237 OA
ATOM     88  O   UNL A   1      46.558  23.015  35.781  1.00  0.00    -0.744 OA
ENDBRANCH  81  85
ENDBRANCH  55  78
ENDBRANCH  29  30
ENDBRANCH  21  24
ENDBRANCH  19  20
ENDBRANCH   1  19
TORSDOF 16
ENDMDL
