MODEL 1
REMARK VINA RESULT:     -12.7      0.000      0.000
REMARK SMILES CC[C@H]([NH2+]C1c2ccccc2-c2ccccc21)C(=O)NCCCNC(=O)c1ccc(-c2c3nc(c(-c4cc(S(=O)(=O)[O-])ccc4F)c4ccc([nH]4)c(-c4cc(S(=O)(=O)[O-])ccc4F)c4nc(c(-c5cc(S(=O)(=O)[O-])ccc5F)c5ccc2[nH]5)C=C4)C=C3)cc1
REMARK SMILES IDX 22 1 21 2 20 3 18 4 19 5 3 7 2 8 1 9 4 10 5 13 6 14 17 15
REMARK SMILES IDX 7 16 11 17 12 18 16 19 8 20 10 21 13 22 15 23 9 24 14 25
REMARK SMILES IDX 23 26 24 27 25 28 26 30 27 31 28 32 89 33 29 34 88 35 30 36
REMARK SMILES IDX 31 37 32 38 82 39 33 40 87 41 81 42 83 43 34 44 86 45 80 46
REMARK SMILES IDX 79 47 35 49 67 50 47 51 66 52 48 53 51 54 65 55 84 56 49 57
REMARK SMILES IDX 50 58 64 60 85 61 52 62 36 63 37 64 45 65 38 66 44 67 46 68
REMARK SMILES IDX 43 69 39 70 40 71 41 72 42 73 68 74 69 75 77 76 70 77 76 78
REMARK SMILES IDX 78 79 75 80 71 81 72 82 73 83 74 84 53 85 54 86 62 87 55 88
REMARK SMILES IDX 61 89 63 90 60 91 56 92 57 93 58 94 59 95
REMARK H PARENT 20 6 4 11 4 12 24 29 83 48 51 59
REMARK Flexibility Score: inf
ROOT
ATOM      1  C   UNL A   1      31.784  28.299  26.217  1.00  0.00     0.042 C 
ENDROOT
BRANCH   1   2
ATOM      2  C   UNL A   1      32.509  26.957  26.133  1.00  0.00     0.118 C 
BRANCH   2   3
ATOM      3  N   UNL A   1      31.794  25.918  26.858  1.00  0.00    -0.351 N 
ATOM      4  C   UNL A   1      31.441  24.655  26.467  1.00  0.00     0.278 C 
ATOM      5  O   UNL A   1      30.768  23.980  27.253  1.00  0.00    -0.268 OA
ATOM      6  H   UNL A   1      31.522  26.161  27.774  1.00  0.00     0.163 HD
BRANCH   4   7
ATOM      7  C   UNL A   1      31.929  24.057  25.117  1.00  0.00     0.273 C 
BRANCH   7   8
ATOM      8  C   UNL A   1      30.769  24.215  24.111  1.00  0.00     0.072 C 
ATOM      9  C   UNL A   1      31.082  25.231  23.017  1.00  0.00     0.011 C 
ENDBRANCH   7   8
BRANCH   7  10
ATOM     10  N   UNL A   1      32.539  22.743  25.396  1.00  0.00    -0.326 N 
ATOM     11  H   UNL A   1      31.762  22.088  25.499  1.00  0.00     0.347 HD
ATOM     12  H   UNL A   1      33.129  22.956  26.199  1.00  0.00     0.347 HD
BRANCH  10  13
ATOM     13  C   UNL A   1      33.487  22.105  24.491  1.00  0.00     0.246 C 
ATOM     14  C   UNL A   1      34.948  22.408  24.775  1.00  0.00     0.022 A 
ATOM     15  C   UNL A   1      33.471  20.589  24.441  1.00  0.00     0.022 A 
ATOM     16  C   UNL A   1      35.583  23.639  24.859  1.00  0.00     0.011 A 
ATOM     17  C   UNL A   1      35.665  21.205  24.946  1.00  0.00    -0.008 A 
ATOM     18  C   UNL A   1      34.774  20.092  24.686  1.00  0.00    -0.008 A 
ATOM     19  C   UNL A   1      32.420  19.740  24.131  1.00  0.00     0.011 A 
ATOM     20  C   UNL A   1      36.924  23.671  25.236  1.00  0.00     0.001 A 
ATOM     21  C   UNL A   1      36.997  21.235  25.325  1.00  0.00     0.009 A 
ATOM     22  C   UNL A   1      35.029  18.733  24.624  1.00  0.00     0.009 A 
ATOM     23  C   UNL A   1      32.681  18.369  24.070  1.00  0.00     0.001 A 
ATOM     24  C   UNL A   1      37.619  22.479  25.489  1.00  0.00     0.001 A 
ATOM     25  C   UNL A   1      33.973  17.872  24.312  1.00  0.00     0.001 A 
ENDBRANCH  10  13
ENDBRANCH   7  10
ENDBRANCH   4   7
ENDBRANCH   2   3
ENDBRANCH   1   2
BRANCH   1  26
ATOM     26  C   UNL A   1      32.575  29.482  25.682  1.00  0.00     0.118 C 
BRANCH  26  27
ATOM     27  N   UNL A   1      32.187  30.780  26.207  1.00  0.00    -0.352 N 
ATOM     28  C   UNL A   1      32.876  31.621  27.057  1.00  0.00     0.251 C 
ATOM     29  H   UNL A   1      31.306  31.107  25.914  1.00  0.00     0.163 HD
ATOM     30  O   UNL A   1      32.350  32.682  27.387  1.00  0.00    -0.269 OA
BRANCH  28  31
ATOM     31  C   UNL A   1      34.197  31.235  27.625  1.00  0.00     0.039 A 
ATOM     32  C   UNL A   1      35.140  32.240  27.869  1.00  0.00     0.014 A 
ATOM     33  C   UNL A   1      34.516  29.915  27.943  1.00  0.00     0.014 A 
ATOM     34  C   UNL A   1      36.344  31.935  28.516  1.00  0.00     0.010 A 
ATOM     35  C   UNL A   1      35.664  29.628  28.678  1.00  0.00     0.010 A 
ATOM     36  C   UNL A   1      36.592  30.634  28.980  1.00  0.00    -0.014 A 
BRANCH  36  37
ATOM     37  C   UNL A   1      37.802  30.296  29.781  1.00  0.00     0.031 A 
ATOM     38  C   UNL A   1      38.845  29.367  29.217  1.00  0.00     0.074 A 
ATOM     39  C   UNL A   1      37.913  30.744  31.049  1.00  0.00     0.049 A 
ATOM     40  N   UNL A   1      39.888  28.835  29.801  1.00  0.00    -0.248 NA
ATOM     41  C   UNL A   1      38.663  28.947  27.819  1.00  0.00     0.031 C 
ATOM     42  C   UNL A   1      36.947  31.608  31.731  1.00  0.00     0.029 A 
ATOM     43  N   UNL A   1      38.882  30.524  31.997  1.00  0.00    -0.354 N 
ATOM     44  C   UNL A   1      40.468  27.996  28.855  1.00  0.00     0.074 A 
ATOM     45  C   UNL A   1      39.622  28.045  27.680  1.00  0.00     0.031 C 
ATOM     46  C   UNL A   1      37.384  31.865  32.974  1.00  0.00     0.029 A 
ATOM     47  C   UNL A   1      38.633  31.145  33.200  1.00  0.00     0.049 A 
ATOM     48  H   UNL A   1      39.680  29.971  31.832  1.00  0.00     0.167 HD
ATOM     49  C   UNL A   1      41.611  27.271  28.945  1.00  0.00     0.034 A 
ATOM     50  C   UNL A   1      39.323  31.128  34.357  1.00  0.00     0.034 A 
ATOM     51  C   UNL A   1      42.462  27.259  30.111  1.00  0.00     0.049 A 
ATOM     52  C   UNL A   1      40.594  30.321  34.434  1.00  0.00     0.074 A 
ATOM     53  C   UNL A   1      43.673  26.615  30.290  1.00  0.00     0.029 A 
ATOM     54  N   UNL A   1      42.189  27.926  31.300  1.00  0.00    -0.354 N 
ATOM     55  N   UNL A   1      41.151  29.566  33.515  1.00  0.00    -0.248 NA
ATOM     56  C   UNL A   1      41.336  30.373  35.701  1.00  0.00     0.031 C 
ATOM     57  C   UNL A   1      44.105  26.845  31.602  1.00  0.00     0.029 A 
ATOM     58  C   UNL A   1      43.197  27.690  32.221  1.00  0.00     0.049 A 
ATOM     59  H   UNL A   1      41.395  28.484  31.464  1.00  0.00     0.167 HD
ATOM     60  C   UNL A   1      42.322  29.078  34.084  1.00  0.00     0.074 A 
ATOM     61  C   UNL A   1      42.399  29.635  35.420  1.00  0.00     0.031 C 
ATOM     62  C   UNL A   1      43.254  28.247  33.552  1.00  0.00     0.034 A 
BRANCH  49  63
ATOM     63  C   UNL A   1      41.991  26.420  27.755  1.00  0.00     0.023 A 
ATOM     64  C   UNL A   1      41.682  25.050  27.700  1.00  0.00     0.031 A 
ATOM     65  C   UNL A   1      42.701  26.976  26.676  1.00  0.00     0.131 A 
ATOM     66  C   UNL A   1      42.160  24.265  26.639  1.00  0.00     0.055 A 
ATOM     67  C   UNL A   1      43.096  26.206  25.580  1.00  0.00     0.041 A 
ATOM     68  F   UNL A   1      43.040  28.275  26.678  1.00  0.00    -0.206 F 
ATOM     69  C   UNL A   1      42.842  24.838  25.565  1.00  0.00     0.022 A 
BRANCH  66  70
ATOM     70  S   UNL A   1      42.008  22.462  26.764  1.00  0.00     0.124 S 
ATOM     71  O   UNL A   1      43.035  22.148  27.754  1.00  0.00    -0.237 OA
ATOM     72  O   UNL A   1      40.627  22.289  27.198  1.00  0.00    -0.237 OA
ATOM     73  O   UNL A   1      42.300  21.999  25.407  1.00  0.00    -0.744 OA
ENDBRANCH  66  70
ENDBRANCH  49  63
BRANCH  50  74
ATOM     74  C   UNL A   1      38.834  31.889  35.542  1.00  0.00     0.023 A 
ATOM     75  C   UNL A   1      38.250  31.226  36.633  1.00  0.00     0.031 A 
ATOM     76  C   UNL A   1      38.910  33.292  35.588  1.00  0.00     0.131 A 
ATOM     77  C   UNL A   1      37.721  31.966  37.702  1.00  0.00     0.055 A 
ATOM     78  C   UNL A   1      38.428  34.022  36.676  1.00  0.00     0.041 A 
ATOM     79  F   UNL A   1      39.466  33.976  34.575  1.00  0.00    -0.206 F 
ATOM     80  C   UNL A   1      37.818  33.360  37.737  1.00  0.00     0.022 A 
BRANCH  77  81
ATOM     81  S   UNL A   1      36.832  31.084  39.014  1.00  0.00     0.124 S 
ATOM     82  O   UNL A   1      37.778  31.165  40.120  1.00  0.00    -0.237 OA
ATOM     83  O   UNL A   1      35.618  31.884  39.146  1.00  0.00    -0.237 OA
ATOM     84  O   UNL A   1      36.637  29.748  38.454  1.00  0.00    -0.744 OA
ENDBRANCH  77  81
ENDBRANCH  50  74
BRANCH  62  85
ATOM     85  C   UNL A   1      44.460  27.937  34.403  1.00  0.00     0.023 A 
ATOM     86  C   UNL A   1      44.518  26.789  35.212  1.00  0.00     0.031 A 
ATOM     87  C   UNL A   1      45.560  28.812  34.414  1.00  0.00     0.131 A 
ATOM     88  C   UNL A   1      45.632  26.573  36.037  1.00  0.00     0.055 A 
ATOM     89  C   UNL A   1      46.689  28.564  35.194  1.00  0.00     0.041 A 
ATOM     90  F   UNL A   1      45.556  29.924  33.661  1.00  0.00    -0.206 F 
ATOM     91  C   UNL A   1      46.725  27.445  36.022  1.00  0.00     0.022 A 
BRANCH  88  92
ATOM     92  S   UNL A   1      45.599  25.180  37.199  1.00  0.00     0.124 S 
ATOM     93  O   UNL A   1      44.240  25.255  37.725  1.00  0.00    -0.237 OA
ATOM     94  O   UNL A   1      45.883  24.042  36.329  1.00  0.00    -0.237 OA
ATOM     95  O   UNL A   1      46.655  25.506  38.156  1.00  0.00    -0.744 OA
ENDBRANCH  88  92
ENDBRANCH  62  85
ENDBRANCH  36  37
ENDBRANCH  28  31
ENDBRANCH  26  27
ENDBRANCH   1  26
TORSDOF 16
ENDMDL
MODEL 2
REMARK VINA RESULT:     -12.6      1.366      2.331
REMARK SMILES CC[C@H]([NH2+]C1c2ccccc2-c2ccccc21)C(=O)NCCCNC(=O)c1ccc(-c2c3nc(c(-c4cc(S(=O)(=O)[O-])ccc4F)c4ccc([nH]4)c(-c4cc(S(=O)(=O)[O-])ccc4F)c4nc(c(-c5cc(S(=O)(=O)[O-])ccc5F)c5ccc2[nH]5)C=C4)C=C3)cc1
REMARK SMILES IDX 22 1 21 2 20 3 18 4 19 5 3 7 2 8 1 9 4 10 5 13 6 14 17 15
REMARK SMILES IDX 7 16 11 17 12 18 16 19 8 20 10 21 13 22 15 23 9 24 14 25
REMARK SMILES IDX 23 26 24 27 25 28 26 30 27 31 28 32 89 33 29 34 88 35 30 36
REMARK SMILES IDX 31 37 32 38 82 39 33 40 87 41 81 42 83 43 34 44 86 45 80 46
REMARK SMILES IDX 79 47 35 49 67 50 47 51 66 52 48 53 51 54 65 55 84 56 49 57
REMARK SMILES IDX 50 58 64 60 85 61 52 62 36 63 37 64 45 65 38 66 44 67 46 68
REMARK SMILES IDX 43 69 39 70 40 71 41 72 42 73 68 74 69 75 77 76 70 77 76 78
REMARK SMILES IDX 78 79 75 80 71 81 72 82 73 83 74 84 53 85 54 86 62 87 55 88
REMARK SMILES IDX 61 89 63 90 60 91 56 92 57 93 58 94 59 95
REMARK H PARENT 20 6 4 11 4 12 24 29 83 48 51 59
REMARK Flexibility Score: inf
ROOT
ATOM      1  C   UNL A   1      31.494  29.589  24.981  1.00  0.00     0.042 C 
ENDROOT
BRANCH   1   2
ATOM      2  C   UNL A   1      31.932  28.202  24.517  1.00  0.00     0.118 C 
BRANCH   2   3
ATOM      3  N   UNL A   1      32.657  28.263  23.258  1.00  0.00    -0.351 N 
ATOM      4  C   UNL A   1      33.498  27.351  22.680  1.00  0.00     0.278 C 
ATOM      5  O   UNL A   1      34.051  27.672  21.623  1.00  0.00    -0.268 OA
ATOM      6  H   UNL A   1      32.522  29.090  22.740  1.00  0.00     0.163 HD
BRANCH   4   7
ATOM      7  C   UNL A   1      33.695  25.931  23.286  1.00  0.00     0.273 C 
BRANCH   7   8
ATOM      8  C   UNL A   1      32.520  25.065  22.785  1.00  0.00     0.072 C 
ATOM      9  C   UNL A   1      32.991  23.832  22.021  1.00  0.00     0.011 C 
ENDBRANCH   7   8
BRANCH   7  10
ATOM     10  N   UNL A   1      33.985  26.088  24.724  1.00  0.00    -0.326 N 
ATOM     11  H   UNL A   1      33.237  26.671  25.101  1.00  0.00     0.347 HD
ATOM     12  H   UNL A   1      34.941  26.442  24.704  1.00  0.00     0.347 HD
BRANCH  10  13
ATOM     13  C   UNL A   1      34.108  24.953  25.631  1.00  0.00     0.246 C 
ATOM     14  C   UNL A   1      32.810  24.217  25.917  1.00  0.00     0.022 A 
ATOM     15  C   UNL A   1      35.032  23.830  25.199  1.00  0.00     0.022 A 
ATOM     16  C   UNL A   1      31.617  24.717  26.418  1.00  0.00     0.011 A 
ATOM     17  C   UNL A   1      32.954  22.848  25.608  1.00  0.00    -0.008 A 
ATOM     18  C   UNL A   1      34.329  22.600  25.223  1.00  0.00    -0.008 A 
ATOM     19  C   UNL A   1      36.382  23.884  24.892  1.00  0.00     0.011 A 
ATOM     20  C   UNL A   1      30.520  23.862  26.501  1.00  0.00     0.001 A 
ATOM     21  C   UNL A   1      31.863  21.998  25.685  1.00  0.00     0.009 A 
ATOM     22  C   UNL A   1      34.981  21.414  24.934  1.00  0.00     0.009 A 
ATOM     23  C   UNL A   1      37.037  22.684  24.600  1.00  0.00     0.001 A 
ATOM     24  C   UNL A   1      30.636  22.518  26.115  1.00  0.00     0.001 A 
ATOM     25  C   UNL A   1      36.343  21.463  24.624  1.00  0.00     0.001 A 
ENDBRANCH  10  13
ENDBRANCH   7  10
ENDBRANCH   4   7
ENDBRANCH   2   3
ENDBRANCH   1   2
BRANCH   1  26
ATOM     26  C   UNL A   1      32.097  30.038  26.302  1.00  0.00     0.118 C 
BRANCH  26  27
ATOM     27  N   UNL A   1      31.900  31.439  26.634  1.00  0.00    -0.352 N 
ATOM     28  C   UNL A   1      32.752  32.314  27.275  1.00  0.00     0.251 C 
ATOM     29  H   UNL A   1      31.033  31.818  26.360  1.00  0.00     0.163 HD
ATOM     30  O   UNL A   1      32.375  33.469  27.464  1.00  0.00    -0.269 OA
BRANCH  28  31
ATOM     31  C   UNL A   1      34.074  31.867  27.793  1.00  0.00     0.039 A 
ATOM     32  C   UNL A   1      35.073  32.828  27.997  1.00  0.00     0.014 A 
ATOM     33  C   UNL A   1      34.344  30.534  28.101  1.00  0.00     0.014 A 
ATOM     34  C   UNL A   1      36.285  32.466  28.599  1.00  0.00     0.010 A 
ATOM     35  C   UNL A   1      35.505  30.194  28.793  1.00  0.00     0.010 A 
ATOM     36  C   UNL A   1      36.489  31.156  29.056  1.00  0.00    -0.014 A 
BRANCH  36  37
ATOM     37  C   UNL A   1      37.712  30.762  29.811  1.00  0.00     0.031 A 
ATOM     38  C   UNL A   1      38.717  29.830  29.187  1.00  0.00     0.074 A 
ATOM     39  C   UNL A   1      37.869  31.164  31.090  1.00  0.00     0.049 A 
ATOM     40  N   UNL A   1      39.762  29.254  29.724  1.00  0.00    -0.248 NA
ATOM     41  C   UNL A   1      38.487  29.462  27.781  1.00  0.00     0.031 C 
ATOM     42  C   UNL A   1      36.943  32.026  31.827  1.00  0.00     0.029 A 
ATOM     43  N   UNL A   1      38.858  30.888  32.003  1.00  0.00    -0.354 N 
ATOM     44  C   UNL A   1      40.295  28.434  28.734  1.00  0.00     0.074 A 
ATOM     45  C   UNL A   1      39.419  28.543  27.586  1.00  0.00     0.031 C 
ATOM     46  C   UNL A   1      37.419  32.229  33.066  1.00  0.00     0.029 A 
ATOM     47  C   UNL A   1      38.656  31.473  33.233  1.00  0.00     0.049 A 
ATOM     48  H   UNL A   1      39.637  30.322  31.797  1.00  0.00     0.167 HD
ATOM     49  C   UNL A   1      41.422  27.680  28.767  1.00  0.00     0.034 A 
ATOM     50  C   UNL A   1      39.377  31.400  34.369  1.00  0.00     0.034 A 
ATOM     51  C   UNL A   1      42.304  27.608  29.908  1.00  0.00     0.049 A 
ATOM     52  C   UNL A   1      40.630  30.561  34.383  1.00  0.00     0.074 A 
ATOM     53  C   UNL A   1      43.504  26.929  30.031  1.00  0.00     0.029 A 
ATOM     54  N   UNL A   1      42.080  28.240  31.126  1.00  0.00    -0.354 N 
ATOM     55  N   UNL A   1      41.142  29.826  33.424  1.00  0.00    -0.248 NA
ATOM     56  C   UNL A   1      41.406  30.552  35.629  1.00  0.00     0.031 C 
ATOM     57  C   UNL A   1      43.976  27.104  31.337  1.00  0.00     0.029 A 
ATOM     58  C   UNL A   1      43.107  27.948  32.010  1.00  0.00     0.049 A 
ATOM     59  H   UNL A   1      41.304  28.810  31.331  1.00  0.00     0.167 HD
ATOM     60  C   UNL A   1      42.316  29.291  33.943  1.00  0.00     0.074 A 
ATOM     61  C   UNL A   1      42.443  29.799  35.294  1.00  0.00     0.031 C 
ATOM     62  C   UNL A   1      43.213  28.458  33.357  1.00  0.00     0.034 A 
BRANCH  49  63
ATOM     63  C   UNL A   1      41.749  26.862  27.539  1.00  0.00     0.023 A 
ATOM     64  C   UNL A   1      41.439  25.492  27.462  1.00  0.00     0.031 A 
ATOM     65  C   UNL A   1      42.409  27.448  26.445  1.00  0.00     0.131 A 
ATOM     66  C   UNL A   1      41.869  24.737  26.359  1.00  0.00     0.055 A 
ATOM     67  C   UNL A   1      42.755  26.708  25.311  1.00  0.00     0.041 A 
ATOM     68  F   UNL A   1      42.747  28.747  26.466  1.00  0.00    -0.206 F 
ATOM     69  C   UNL A   1      42.502  25.340  25.272  1.00  0.00     0.022 A 
BRANCH  66  70
ATOM     70  S   UNL A   1      41.724  22.931  26.442  1.00  0.00     0.124 S 
ATOM     71  O   UNL A   1      40.275  22.756  26.512  1.00  0.00    -0.237 OA
ATOM     72  O   UNL A   1      42.360  22.505  25.202  1.00  0.00    -0.237 OA
ATOM     73  O   UNL A   1      42.445  22.585  27.666  1.00  0.00    -0.744 OA
ENDBRANCH  66  70
ENDBRANCH  49  63
BRANCH  50  74
ATOM     74  C   UNL A   1      38.939  32.131  35.592  1.00  0.00     0.023 A 
ATOM     75  C   UNL A   1      38.307  31.455  36.648  1.00  0.00     0.031 A 
ATOM     76  C   UNL A   1      39.112  33.521  35.710  1.00  0.00     0.131 A 
ATOM     77  C   UNL A   1      37.828  32.174  37.754  1.00  0.00     0.055 A 
ATOM     78  C   UNL A   1      38.680  34.226  36.836  1.00  0.00     0.041 A 
ATOM     79  F   UNL A   1      39.718  34.216  34.734  1.00  0.00    -0.206 F 
ATOM     80  C   UNL A   1      38.021  33.553  37.861  1.00  0.00     0.022 A 
BRANCH  77  81
ATOM     81  S   UNL A   1      36.876  31.289  39.019  1.00  0.00     0.124 S 
ATOM     82  O   UNL A   1      37.759  31.382  40.175  1.00  0.00    -0.237 OA
ATOM     83  O   UNL A   1      35.650  32.079  39.082  1.00  0.00    -0.237 OA
ATOM     84  O   UNL A   1      36.723  29.949  38.455  1.00  0.00    -0.744 OA
ENDBRANCH  77  81
ENDBRANCH  50  74
BRANCH  62  85
ATOM     85  C   UNL A   1      44.434  28.090  34.163  1.00  0.00     0.023 A 
ATOM     86  C   UNL A   1      44.469  26.937  34.967  1.00  0.00     0.031 A 
ATOM     87  C   UNL A   1      45.572  28.914  34.135  1.00  0.00     0.131 A 
ATOM     88  C   UNL A   1      45.601  26.668  35.751  1.00  0.00     0.055 A 
ATOM     89  C   UNL A   1      46.716  28.612  34.874  1.00  0.00     0.041 A 
ATOM     90  F   UNL A   1      45.591  30.028  33.385  1.00  0.00    -0.206 F 
ATOM     91  C   UNL A   1      46.731  27.490  35.697  1.00  0.00     0.022 A 
BRANCH  88  92
ATOM     92  S   UNL A   1      45.548  25.274  36.910  1.00  0.00     0.124 S 
ATOM     93  O   UNL A   1      46.581  25.640  37.873  1.00  0.00    -0.237 OA
ATOM     94  O   UNL A   1      44.174  25.327  37.399  1.00  0.00    -0.237 OA
ATOM     95  O   UNL A   1      45.862  24.118  36.071  1.00  0.00    -0.744 OA
ENDBRANCH  88  92
ENDBRANCH  62  85
ENDBRANCH  36  37
ENDBRANCH  28  31
ENDBRANCH  26  27
ENDBRANCH   1  26
TORSDOF 16
ENDMDL
MODEL 3
REMARK VINA RESULT:     -12.4      4.484     10.699
REMARK SMILES CC[C@H]([NH2+]C1c2ccccc2-c2ccccc21)C(=O)NCCCNC(=O)c1ccc(-c2c3nc(c(-c4cc(S(=O)(=O)[O-])ccc4F)c4ccc([nH]4)c(-c4cc(S(=O)(=O)[O-])ccc4F)c4nc(c(-c5cc(S(=O)(=O)[O-])ccc5F)c5ccc2[nH]5)C=C4)C=C3)cc1
REMARK SMILES IDX 22 1 21 2 20 3 18 4 19 5 3 7 2 8 1 9 4 10 5 13 6 14 17 15
REMARK SMILES IDX 7 16 11 17 12 18 16 19 8 20 10 21 13 22 15 23 9 24 14 25
REMARK SMILES IDX 23 26 24 27 25 28 26 30 27 31 28 32 89 33 29 34 88 35 30 36
REMARK SMILES IDX 31 37 32 38 82 39 33 40 87 41 81 42 83 43 34 44 86 45 80 46
REMARK SMILES IDX 79 47 35 49 67 50 47 51 66 52 48 53 51 54 65 55 84 56 49 57
REMARK SMILES IDX 50 58 64 60 85 61 52 62 36 63 37 64 45 65 38 66 44 67 46 68
REMARK SMILES IDX 43 69 39 70 40 71 41 72 42 73 68 74 69 75 77 76 70 77 76 78
REMARK SMILES IDX 78 79 75 80 71 81 72 82 73 83 74 84 53 85 54 86 62 87 55 88
REMARK SMILES IDX 61 89 63 90 60 91 56 92 57 93 58 94 59 95
REMARK H PARENT 20 6 4 11 4 12 24 29 83 48 51 59
REMARK Flexibility Score: inf
ROOT
ATOM      1  C   UNL A   1      33.506  34.100  28.092  1.00  0.00     0.042 C 
ENDROOT
BRANCH   1   2
ATOM      2  C   UNL A   1      34.408  35.296  28.392  1.00  0.00     0.118 C 
BRANCH   2   3
ATOM      3  N   UNL A   1      33.707  36.316  29.156  1.00  0.00    -0.351 N 
ATOM      4  C   UNL A   1      33.385  36.354  30.485  1.00  0.00     0.278 C 
ATOM      5  O   UNL A   1      32.718  37.313  30.885  1.00  0.00    -0.268 OA
ATOM      6  H   UNL A   1      33.421  37.102  28.636  1.00  0.00     0.163 HD
BRANCH   4   7
ATOM      7  C   UNL A   1      33.901  35.271  31.477  1.00  0.00     0.273 C 
BRANCH   7   8
ATOM      8  C   UNL A   1      33.050  35.396  32.758  1.00  0.00     0.072 C 
ATOM      9  C   UNL A   1      33.566  36.483  33.695  1.00  0.00     0.011 C 
ENDBRANCH   7   8
BRANCH   7  10
ATOM     10  N   UNL A   1      35.373  35.354  31.514  1.00  0.00    -0.326 N 
ATOM     11  H   UNL A   1      35.599  36.067  32.208  1.00  0.00     0.347 HD
ATOM     12  H   UNL A   1      35.595  35.517  30.532  1.00  0.00     0.347 HD
BRANCH  10  13
ATOM     13  C   UNL A   1      36.220  34.208  31.823  1.00  0.00     0.246 C 
ATOM     14  C   UNL A   1      37.516  34.135  31.033  1.00  0.00     0.022 A 
ATOM     15  C   UNL A   1      36.702  34.082  33.256  1.00  0.00     0.022 A 
ATOM     16  C   UNL A   1      37.699  34.125  29.658  1.00  0.00     0.011 A 
ATOM     17  C   UNL A   1      38.613  34.058  31.916  1.00  0.00    -0.008 A 
ATOM     18  C   UNL A   1      38.114  33.968  33.274  1.00  0.00    -0.008 A 
ATOM     19  C   UNL A   1      35.956  33.998  34.421  1.00  0.00     0.011 A 
ATOM     20  C   UNL A   1      39.000  34.157  29.161  1.00  0.00     0.001 A 
ATOM     21  C   UNL A   1      39.908  34.094  31.423  1.00  0.00     0.009 A 
ATOM     22  C   UNL A   1      38.787  33.771  34.467  1.00  0.00     0.009 A 
ATOM     23  C   UNL A   1      36.639  33.800  35.624  1.00  0.00     0.001 A 
ATOM     24  C   UNL A   1      40.095  34.165  30.037  1.00  0.00     0.001 A 
ATOM     25  C   UNL A   1      38.039  33.686  35.645  1.00  0.00     0.001 A 
ENDBRANCH  10  13
ENDBRANCH   7  10
ENDBRANCH   4   7
ENDBRANCH   2   3
ENDBRANCH   1   2
BRANCH   1  26
ATOM     26  C   UNL A   1      34.086  32.751  28.488  1.00  0.00     0.118 C 
BRANCH  26  27
ATOM     27  N   UNL A   1      33.678  31.630  27.659  1.00  0.00    -0.352 N 
ATOM     28  C   UNL A   1      34.309  30.422  27.450  1.00  0.00     0.251 C 
ATOM     29  H   UNL A   1      32.827  31.750  27.178  1.00  0.00     0.163 HD
ATOM     30  O   UNL A   1      33.785  29.608  26.691  1.00  0.00    -0.269 OA
BRANCH  28  31
ATOM     31  C   UNL A   1      35.629  30.121  28.069  1.00  0.00     0.039 A 
ATOM     32  C   UNL A   1      35.661  29.683  29.399  1.00  0.00     0.014 A 
ATOM     33  C   UNL A   1      36.828  30.237  27.366  1.00  0.00     0.014 A 
ATOM     34  C   UNL A   1      36.869  29.271  29.977  1.00  0.00     0.010 A 
ATOM     35  C   UNL A   1      38.010  29.731  27.904  1.00  0.00     0.010 A 
ATOM     36  C   UNL A   1      38.046  29.236  29.214  1.00  0.00    -0.014 A 
BRANCH  36  37
ATOM     37  C   UNL A   1      39.323  28.689  29.754  1.00  0.00     0.031 A 
ATOM     38  C   UNL A   1      39.946  29.298  30.982  1.00  0.00     0.074 A 
ATOM     39  C   UNL A   1      39.969  27.712  29.084  1.00  0.00     0.049 A 
ATOM     40  N   UNL A   1      41.115  29.068  31.522  1.00  0.00    -0.248 NA
ATOM     41  C   UNL A   1      39.163  30.338  31.668  1.00  0.00     0.031 C 
ATOM     42  C   UNL A   1      39.498  27.072  27.854  1.00  0.00     0.029 A 
ATOM     43  N   UNL A   1      41.170  27.094  29.335  1.00  0.00    -0.354 N 
ATOM     44  C   UNL A   1      41.222  29.954  32.590  1.00  0.00     0.074 A 
ATOM     45  C   UNL A   1      40.022  30.765  32.580  1.00  0.00     0.031 C 
ATOM     46  C   UNL A   1      40.384  26.138  27.474  1.00  0.00     0.029 A 
ATOM     47  C   UNL A   1      41.511  26.143  28.400  1.00  0.00     0.049 A 
ATOM     48  H   UNL A   1      41.735  27.313  30.111  1.00  0.00     0.167 HD
ATOM     49  C   UNL A   1      42.213  30.065  33.509  1.00  0.00     0.034 A 
ATOM     50  C   UNL A   1      42.612  25.373  28.291  1.00  0.00     0.034 A 
ATOM     51  C   UNL A   1      43.388  29.225  33.526  1.00  0.00     0.049 A 
ATOM     52  C   UNL A   1      43.699  25.508  29.327  1.00  0.00     0.074 A 
ATOM     53  C   UNL A   1      44.422  29.206  34.445  1.00  0.00     0.029 A 
ATOM     54  N   UNL A   1      43.682  28.253  32.577  1.00  0.00    -0.354 N 
ATOM     55  N   UNL A   1      43.764  26.322  30.355  1.00  0.00    -0.248 NA
ATOM     56  C   UNL A   1      44.856  24.613  29.193  1.00  0.00     0.031 C 
ATOM     57  C   UNL A   1      45.368  28.264  34.023  1.00  0.00     0.029 A 
ATOM     58  C   UNL A   1      44.891  27.646  32.877  1.00  0.00     0.049 A 
ATOM     59  H   UNL A   1      43.115  28.030  31.805  1.00  0.00     0.167 HD
ATOM     60  C   UNL A   1      44.955  26.015  31.006  1.00  0.00     0.074 A 
ATOM     61  C   UNL A   1      45.567  24.933  30.263  1.00  0.00     0.031 C 
ATOM     62  C   UNL A   1      45.492  26.573  32.121  1.00  0.00     0.034 A 
BRANCH  49  63
ATOM     63  C   UNL A   1      42.073  31.146  34.556  1.00  0.00     0.023 A 
ATOM     64  C   UNL A   1      42.461  32.473  34.303  1.00  0.00     0.031 A 
ATOM     65  C   UNL A   1      41.578  30.841  35.837  1.00  0.00     0.131 A 
ATOM     66  C   UNL A   1      42.435  33.422  35.337  1.00  0.00     0.055 A 
ATOM     67  C   UNL A   1      41.471  31.812  36.835  1.00  0.00     0.041 A 
ATOM     68  F   UNL A   1      41.207  29.588  36.146  1.00  0.00    -0.206 F 
ATOM     69  C   UNL A   1      41.918  33.107  36.594  1.00  0.00     0.022 A 
BRANCH  66  70
ATOM     70  S   UNL A   1      43.230  35.028  35.055  1.00  0.00     0.124 S 
ATOM     71  O   UNL A   1      42.127  35.807  34.495  1.00  0.00    -0.237 OA
ATOM     72  O   UNL A   1      43.664  35.405  36.393  1.00  0.00    -0.237 OA
ATOM     73  O   UNL A   1      44.304  34.717  34.112  1.00  0.00    -0.744 OA
ENDBRANCH  66  70
ENDBRANCH  49  63
BRANCH  50  74
ATOM     74  C   UNL A   1      42.753  24.408  27.163  1.00  0.00     0.023 A 
ATOM     75  C   UNL A   1      42.188  23.126  27.238  1.00  0.00     0.031 A 
ATOM     76  C   UNL A   1      43.485  24.739  26.010  1.00  0.00     0.131 A 
ATOM     77  C   UNL A   1      42.402  22.203  26.202  1.00  0.00     0.055 A 
ATOM     78  C   UNL A   1      43.653  23.837  24.958  1.00  0.00     0.041 A 
ATOM     79  F   UNL A   1      44.040  25.955  25.883  1.00  0.00    -0.206 F 
ATOM     80  C   UNL A   1      43.121  22.555  25.056  1.00  0.00     0.022 A 
BRANCH  77  81
ATOM     81  S   UNL A   1      41.792  20.507  26.408  1.00  0.00     0.124 S 
ATOM     82  O   UNL A   1      42.509  19.804  25.351  1.00  0.00    -0.237 OA
ATOM     83  O   UNL A   1      42.203  20.203  27.775  1.00  0.00    -0.237 OA
ATOM     84  O   UNL A   1      40.351  20.637  26.207  1.00  0.00    -0.744 OA
ENDBRANCH  77  81
ENDBRANCH  50  74
BRANCH  62  85
ATOM     85  C   UNL A   1      46.785  25.982  32.625  1.00  0.00     0.023 A 
ATOM     86  C   UNL A   1      46.803  24.930  33.558  1.00  0.00     0.031 A 
ATOM     87  C   UNL A   1      48.016  26.490  32.175  1.00  0.00     0.131 A 
ATOM     88  C   UNL A   1      48.028  24.455  34.049  1.00  0.00     0.055 A 
ATOM     89  C   UNL A   1      49.232  25.976  32.625  1.00  0.00     0.041 A 
ATOM     90  F   UNL A   1      48.056  27.496  31.286  1.00  0.00    -0.206 F 
ATOM     91  C   UNL A   1      49.243  24.961  33.577  1.00  0.00     0.022 A 
BRANCH  88  92
ATOM     92  S   UNL A   1      48.015  23.223  35.380  1.00  0.00     0.124 S 
ATOM     93  O   UNL A   1      48.074  21.970  34.634  1.00  0.00    -0.237 OA
ATOM     94  O   UNL A   1      49.212  23.570  36.139  1.00  0.00    -0.237 OA
ATOM     95  O   UNL A   1      46.751  23.476  36.070  1.00  0.00    -0.744 OA
ENDBRANCH  88  92
ENDBRANCH  62  85
ENDBRANCH  36  37
ENDBRANCH  28  31
ENDBRANCH  26  27
ENDBRANCH   1  26
TORSDOF 16
ENDMDL
