MODEL 1
REMARK VINA RESULT:     -11.0      0.000      0.000
REMARK SMILES C[C@H](C(=O)NCCCNC(=O)c1ccc(-c2c3nc(c(-c4cc(S(=O)(=O)[O-])ccc4F)c4ccc([nH]4)c(-c4cc(S(=O)(=O)[O-])ccc4F)c4nc(c(-c5cc(S(=O)(=O)[O-])ccc5F)c5ccc2[nH]5)C=C4)C=C3)cc1)[C@H](C)[NH+]1CC[NH+](CCO)CC1
REMARK SMILES IDX 6 1 5 2 3 3 4 4 2 6 1 7 75 8 76 9 77 10 78 11 85 12 79 14
REMARK SMILES IDX 84 15 80 16 81 18 82 19 83 20 7 22 8 23 9 24 10 25 11 27
REMARK SMILES IDX 12 28 13 29 74 30 14 31 73 32 15 33 16 34 17 35 67 36 18 37
REMARK SMILES IDX 72 38 66 39 68 40 19 41 71 42 65 43 64 44 20 46 52 47 32 48
REMARK SMILES IDX 51 49 33 50 36 51 50 52 69 53 34 54 35 55 49 57 70 58 37 59
REMARK SMILES IDX 21 60 22 61 30 62 23 63 29 64 31 65 28 66 24 67 25 68 26 69
REMARK SMILES IDX 27 70 53 71 54 72 62 73 55 74 61 75 63 76 60 77 56 78 57 79
REMARK SMILES IDX 58 80 59 81 38 82 39 83 47 84 40 85 46 86 48 87 45 88 41 89
REMARK SMILES IDX 42 90 43 91 44 92
REMARK H PARENT 5 5 77 13 80 17 83 21 9 26 68 45 36 56
REMARK Flexibility Score: inf
ROOT
ATOM      1  C   UNL A   1      32.322  27.764  27.177  1.00  0.00     0.117 C 
ENDROOT
BRANCH   1   2
ATOM      2  N   UNL A   1      31.470  26.626  26.822  1.00  0.00    -0.356 N 
ATOM      3  C   UNL A   1      31.722  25.344  26.426  1.00  0.00     0.228 C 
ATOM      4  O   UNL A   1      30.783  24.551  26.588  1.00  0.00    -0.275 OA
ATOM      5  H   UNL A   1      30.509  26.829  26.883  1.00  0.00     0.163 HD
BRANCH   3   6
ATOM      6  C   UNL A   1      32.990  24.856  25.707  1.00  0.00     0.133 C 
ATOM      7  C   UNL A   1      33.858  23.826  26.420  1.00  0.00     0.024 C 
BRANCH   6   8
ATOM      8  C   UNL A   1      32.941  24.671  24.132  1.00  0.00     0.193 C 
ATOM      9  C   UNL A   1      33.402  23.250  23.743  1.00  0.00     0.076 C 
BRANCH   8  10
ATOM     10  N   UNL A   1      33.355  25.663  23.113  1.00  0.00    -0.323 N 
ATOM     11  C   UNL A   1      32.705  25.623  21.804  1.00  0.00     0.324 C 
ATOM     12  C   UNL A   1      33.540  27.068  23.512  1.00  0.00     0.324 C 
ATOM     13  H   UNL A   1      34.287  25.262  23.014  1.00  0.00     0.348 HD
ATOM     14  C   UNL A   1      31.430  26.480  21.758  1.00  0.00     0.324 C 
ATOM     15  C   UNL A   1      32.259  27.917  23.484  1.00  0.00     0.324 C 
ATOM     16  N   UNL A   1      31.608  27.899  22.150  1.00  0.00    -0.324 N 
ATOM     17  H   UNL A   1      32.168  28.372  21.441  1.00  0.00     0.348 HD
BRANCH  16  18
ATOM     18  C   UNL A   1      30.306  28.602  22.258  1.00  0.00     0.291 C 
BRANCH  18  19
ATOM     19  C   UNL A   1      30.122  29.412  23.549  1.00  0.00     0.217 C 
BRANCH  19  20
ATOM     20  O   UNL A   1      29.068  30.358  23.447  1.00  0.00    -0.391 OA
ATOM     21  H   UNL A   1      29.319  31.172  23.911  1.00  0.00     0.210 HD
ENDBRANCH  19  20
ENDBRANCH  18  19
ENDBRANCH  16  18
ENDBRANCH   8  10
ENDBRANCH   6   8
ENDBRANCH   3   6
ENDBRANCH   1   2
BRANCH   1  22
ATOM     22  C   UNL A   1      31.661  29.131  27.070  1.00  0.00     0.042 C 
BRANCH  22  23
ATOM     23  C   UNL A   1      32.452  30.175  26.287  1.00  0.00     0.118 C 
BRANCH  23  24
ATOM     24  N   UNL A   1      32.460  31.527  26.842  1.00  0.00    -0.352 N 
ATOM     25  C   UNL A   1      33.421  32.270  27.498  1.00  0.00     0.251 C 
ATOM     26  H   UNL A   1      31.606  32.005  26.724  1.00  0.00     0.163 HD
ATOM     27  O   UNL A   1      33.184  33.430  27.806  1.00  0.00    -0.269 OA
BRANCH  25  28
ATOM     28  C   UNL A   1      34.711  31.662  27.881  1.00  0.00     0.039 A 
ATOM     29  C   UNL A   1      35.817  32.487  28.107  1.00  0.00     0.014 A 
ATOM     30  C   UNL A   1      34.821  30.292  28.070  1.00  0.00     0.014 A 
ATOM     31  C   UNL A   1      36.977  31.947  28.668  1.00  0.00     0.010 A 
ATOM     32  C   UNL A   1      35.903  29.787  28.772  1.00  0.00     0.010 A 
ATOM     33  C   UNL A   1      36.993  30.609  29.092  1.00  0.00    -0.014 A 
BRANCH  33  34
ATOM     34  C   UNL A   1      38.113  30.032  29.884  1.00  0.00     0.031 A 
ATOM     35  C   UNL A   1      38.320  30.477  31.308  1.00  0.00     0.074 A 
ATOM     36  C   UNL A   1      39.011  29.226  29.280  1.00  0.00     0.049 A 
ATOM     37  N   UNL A   1      39.345  30.283  32.097  1.00  0.00    -0.248 NA
ATOM     38  C   UNL A   1      37.262  31.313  31.899  1.00  0.00     0.031 C 
ATOM     39  C   UNL A   1      38.956  28.783  27.883  1.00  0.00     0.029 A 
ATOM     40  N   UNL A   1      40.160  28.645  29.757  1.00  0.00    -0.354 N 
ATOM     41  C   UNL A   1      39.078  31.016  33.249  1.00  0.00     0.074 A 
ATOM     42  C   UNL A   1      37.831  31.713  33.025  1.00  0.00     0.031 C 
ATOM     43  C   UNL A   1      39.995  27.971  27.632  1.00  0.00     0.029 A 
ATOM     44  C   UNL A   1      40.827  27.883  28.824  1.00  0.00     0.049 A 
ATOM     45  H   UNL A   1      40.479  28.763  30.681  1.00  0.00     0.167 HD
ATOM     46  C   UNL A   1      39.792  31.076  34.401  1.00  0.00     0.034 A 
ATOM     47  C   UNL A   1      41.986  27.200  28.918  1.00  0.00     0.034 A 
ATOM     48  C   UNL A   1      40.995  30.315  34.624  1.00  0.00     0.049 A 
ATOM     49  C   UNL A   1      42.731  27.237  30.228  1.00  0.00     0.074 A 
ATOM     50  C   UNL A   1      41.757  30.222  35.775  1.00  0.00     0.029 A 
ATOM     51  N   UNL A   1      41.602  29.500  33.677  1.00  0.00    -0.354 N 
ATOM     52  N   UNL A   1      42.439  27.896  31.326  1.00  0.00    -0.248 NA
ATOM     53  C   UNL A   1      43.955  26.431  30.317  1.00  0.00     0.031 C 
ATOM     54  C   UNL A   1      42.850  29.392  35.509  1.00  0.00     0.029 A 
ATOM     55  C   UNL A   1      42.736  28.913  34.212  1.00  0.00     0.049 A 
ATOM     56  H   UNL A   1      41.274  29.360  32.759  1.00  0.00     0.167 HD
ATOM     57  C   UNL A   1      43.427  27.558  32.246  1.00  0.00     0.074 A 
ATOM     58  C   UNL A   1      44.309  26.621  31.579  1.00  0.00     0.031 C 
ATOM     59  C   UNL A   1      43.595  27.980  33.525  1.00  0.00     0.034 A 
BRANCH  46  60
ATOM     60  C   UNL A   1      39.289  31.994  35.491  1.00  0.00     0.023 A 
ATOM     61  C   UNL A   1      39.685  33.341  35.565  1.00  0.00     0.031 A 
ATOM     62  C   UNL A   1      38.426  31.509  36.489  1.00  0.00     0.131 A 
ATOM     63  C   UNL A   1      39.293  34.130  36.657  1.00  0.00     0.055 A 
ATOM     64  C   UNL A   1      37.966  32.325  37.526  1.00  0.00     0.041 A 
ATOM     65  F   UNL A   1      38.025  30.227  36.485  1.00  0.00    -0.206 F 
ATOM     66  C   UNL A   1      38.413  33.639  37.624  1.00  0.00     0.022 A 
BRANCH  63  67
ATOM     67  S   UNL A   1      40.065  35.757  36.868  1.00  0.00     0.124 S 
ATOM     68  O   UNL A   1      39.483  36.194  38.135  1.00  0.00    -0.237 OA
ATOM     69  O   UNL A   1      41.485  35.431  36.898  1.00  0.00    -0.237 OA
ATOM     70  O   UNL A   1      39.619  36.503  35.693  1.00  0.00    -0.744 OA
ENDBRANCH  63  67
ENDBRANCH  46  60
BRANCH  47  71
ATOM     71  C   UNL A   1      42.514  26.423  27.759  1.00  0.00     0.023 A 
ATOM     72  C   UNL A   1      42.078  25.109  27.518  1.00  0.00     0.031 A 
ATOM     73  C   UNL A   1      43.496  26.954  26.904  1.00  0.00     0.131 A 
ATOM     74  C   UNL A   1      42.662  24.352  26.490  1.00  0.00     0.055 A 
ATOM     75  C   UNL A   1      44.033  26.217  25.847  1.00  0.00     0.041 A 
ATOM     76  F   UNL A   1      43.945  28.207  27.082  1.00  0.00    -0.206 F 
ATOM     77  C   UNL A   1      43.627  24.901  25.645  1.00  0.00     0.022 A 
BRANCH  74  78
ATOM     78  S   UNL A   1      42.213  22.600  26.342  1.00  0.00     0.124 S 
ATOM     79  O   UNL A   1      42.827  22.034  27.537  1.00  0.00    -0.237 OA
ATOM     80  O   UNL A   1      40.755  22.663  26.336  1.00  0.00    -0.237 OA
ATOM     81  O   UNL A   1      42.824  22.199  25.076  1.00  0.00    -0.744 OA
ENDBRANCH  74  78
ENDBRANCH  47  71
BRANCH  59  82
ATOM     82  C   UNL A   1      44.750  27.387  34.288  1.00  0.00     0.023 A 
ATOM     83  C   UNL A   1      44.616  26.193  35.017  1.00  0.00     0.031 A 
ATOM     84  C   UNL A   1      45.999  28.034  34.293  1.00  0.00     0.131 A 
ATOM     85  C   UNL A   1      45.698  25.711  35.766  1.00  0.00     0.055 A 
ATOM     86  C   UNL A   1      47.089  27.517  34.992  1.00  0.00     0.041 A 
ATOM     87  F   UNL A   1      46.178  29.177  33.613  1.00  0.00    -0.206 F 
ATOM     88  C   UNL A   1      46.938  26.355  35.745  1.00  0.00     0.022 A 
BRANCH  85  89
ATOM     89  S   UNL A   1      45.436  24.276  36.842  1.00  0.00     0.124 S 
ATOM     90  O   UNL A   1      44.900  24.896  38.050  1.00  0.00    -0.237 OA
ATOM     91  O   UNL A   1      44.494  23.473  36.068  1.00  0.00    -0.237 OA
ATOM     92  O   UNL A   1      46.772  23.701  36.981  1.00  0.00    -0.744 OA
ENDBRANCH  85  89
ENDBRANCH  59  82
ENDBRANCH  33  34
ENDBRANCH  25  28
ENDBRANCH  23  24
ENDBRANCH  22  23
ENDBRANCH   1  22
TORSDOF 18
ENDMDL
MODEL 2
REMARK VINA RESULT:     -11.0      1.196      8.298
REMARK SMILES C[C@H](C(=O)NCCCNC(=O)c1ccc(-c2c3nc(c(-c4cc(S(=O)(=O)[O-])ccc4F)c4ccc([nH]4)c(-c4cc(S(=O)(=O)[O-])ccc4F)c4nc(c(-c5cc(S(=O)(=O)[O-])ccc5F)c5ccc2[nH]5)C=C4)C=C3)cc1)[C@H](C)[NH+]1CC[NH+](CCO)CC1
REMARK SMILES IDX 6 1 5 2 3 3 4 4 2 6 1 7 75 8 76 9 77 10 78 11 85 12 79 14
REMARK SMILES IDX 84 15 80 16 81 18 82 19 83 20 7 22 8 23 9 24 10 25 11 27
REMARK SMILES IDX 12 28 13 29 74 30 14 31 73 32 15 33 16 34 17 35 67 36 18 37
REMARK SMILES IDX 72 38 66 39 68 40 19 41 71 42 65 43 64 44 20 46 52 47 32 48
REMARK SMILES IDX 51 49 33 50 36 51 50 52 69 53 34 54 35 55 49 57 70 58 37 59
REMARK SMILES IDX 21 60 22 61 30 62 23 63 29 64 31 65 28 66 24 67 25 68 26 69
REMARK SMILES IDX 27 70 53 71 54 72 62 73 55 74 61 75 63 76 60 77 56 78 57 79
REMARK SMILES IDX 58 80 59 81 38 82 39 83 47 84 40 85 46 86 48 87 45 88 41 89
REMARK SMILES IDX 42 90 43 91 44 92
REMARK H PARENT 5 5 77 13 80 17 83 21 9 26 68 45 36 56
REMARK Flexibility Score: inf
ROOT
ATOM      1  C   UNL A   1      32.195  27.849  26.798  1.00  0.00     0.117 C 
ENDROOT
BRANCH   1   2
ATOM      2  N   UNL A   1      31.173  26.802  26.879  1.00  0.00    -0.356 N 
ATOM      3  C   UNL A   1      30.648  25.922  25.976  1.00  0.00     0.228 C 
ATOM      4  O   UNL A   1      30.093  24.931  26.472  1.00  0.00    -0.275 OA
ATOM      5  H   UNL A   1      30.781  26.712  27.778  1.00  0.00     0.163 HD
BRANCH   3   6
ATOM      6  C   UNL A   1      30.587  26.124  24.454  1.00  0.00     0.133 C 
ATOM      7  C   UNL A   1      29.466  26.995  23.897  1.00  0.00     0.024 C 
BRANCH   6   8
ATOM      8  C   UNL A   1      31.952  26.249  23.654  1.00  0.00     0.193 C 
ATOM      9  C   UNL A   1      31.734  27.027  22.338  1.00  0.00     0.076 C 
BRANCH   8  10
ATOM     10  N   UNL A   1      32.977  25.193  23.486  1.00  0.00    -0.323 N 
ATOM     11  C   UNL A   1      34.076  25.137  24.448  1.00  0.00     0.324 C 
ATOM     12  C   UNL A   1      32.550  23.822  23.166  1.00  0.00     0.324 C 
ATOM     13  H   UNL A   1      33.337  25.596  22.621  1.00  0.00     0.348 HD
ATOM     14  C   UNL A   1      33.739  24.265  25.669  1.00  0.00     0.324 C 
ATOM     15  C   UNL A   1      32.194  22.960  24.389  1.00  0.00     0.324 C 
ATOM     16  N   UNL A   1      33.316  22.879  25.358  1.00  0.00    -0.324 N 
ATOM     17  H   UNL A   1      34.112  22.364  24.984  1.00  0.00     0.348 HD
BRANCH  16  18
ATOM     18  C   UNL A   1      32.833  22.172  26.570  1.00  0.00     0.291 C 
BRANCH  18  19
ATOM     19  C   UNL A   1      33.937  21.765  27.555  1.00  0.00     0.217 C 
BRANCH  19  20
ATOM     20  O   UNL A   1      35.127  21.355  26.896  1.00  0.00    -0.391 OA
ATOM     21  H   UNL A   1      35.466  22.087  26.357  1.00  0.00     0.210 HD
ENDBRANCH  19  20
ENDBRANCH  18  19
ENDBRANCH  16  18
ENDBRANCH   8  10
ENDBRANCH   6   8
ENDBRANCH   3   6
ENDBRANCH   1   2
BRANCH   1  22
ATOM     22  C   UNL A   1      31.732  29.243  27.196  1.00  0.00     0.042 C 
BRANCH  22  23
ATOM     23  C   UNL A   1      32.227  30.373  26.297  1.00  0.00     0.118 C 
BRANCH  23  24
ATOM     24  N   UNL A   1      32.100  31.726  26.834  1.00  0.00    -0.352 N 
ATOM     25  C   UNL A   1      32.990  32.580  27.455  1.00  0.00     0.251 C 
ATOM     26  H   UNL A   1      31.197  32.106  26.732  1.00  0.00     0.163 HD
ATOM     27  O   UNL A   1      32.635  33.712  27.754  1.00  0.00    -0.269 OA
BRANCH  25  28
ATOM     28  C   UNL A   1      34.347  32.123  27.814  1.00  0.00     0.039 A 
ATOM     29  C   UNL A   1      35.378  33.061  27.930  1.00  0.00     0.014 A 
ATOM     30  C   UNL A   1      34.597  30.785  28.087  1.00  0.00     0.014 A 
ATOM     31  C   UNL A   1      36.607  32.671  28.467  1.00  0.00     0.010 A 
ATOM     32  C   UNL A   1      35.751  30.434  28.766  1.00  0.00     0.010 A 
ATOM     33  C   UNL A   1      36.770  31.374  28.977  1.00  0.00    -0.014 A 
BRANCH  33  34
ATOM     34  C   UNL A   1      37.973  30.960  29.748  1.00  0.00     0.031 A 
ATOM     35  C   UNL A   1      38.925  29.954  29.156  1.00  0.00     0.074 A 
ATOM     36  C   UNL A   1      38.126  31.380  31.022  1.00  0.00     0.049 A 
ATOM     37  N   UNL A   1      39.895  29.290  29.730  1.00  0.00    -0.248 NA
ATOM     38  C   UNL A   1      38.710  29.594  27.745  1.00  0.00     0.031 C 
ATOM     39  C   UNL A   1      37.229  32.299  31.730  1.00  0.00     0.029 A 
ATOM     40  N   UNL A   1      39.084  31.079  31.958  1.00  0.00    -0.354 N 
ATOM     41  C   UNL A   1      40.364  28.401  28.768  1.00  0.00     0.074 A 
ATOM     42  C   UNL A   1      39.525  28.561  27.602  1.00  0.00     0.031 C 
ATOM     43  C   UNL A   1      37.701  32.517  32.968  1.00  0.00     0.029 A 
ATOM     44  C   UNL A   1      38.896  31.709  33.169  1.00  0.00     0.049 A 
ATOM     45  H   UNL A   1      39.835  30.468  31.781  1.00  0.00     0.167 HD
ATOM     46  C   UNL A   1      41.418  27.551  28.841  1.00  0.00     0.034 A 
ATOM     47  C   UNL A   1      39.603  31.632  34.314  1.00  0.00     0.034 A 
ATOM     48  C   UNL A   1      42.282  27.463  29.992  1.00  0.00     0.049 A 
ATOM     49  C   UNL A   1      40.805  30.723  34.351  1.00  0.00     0.074 A 
ATOM     50  C   UNL A   1      43.431  26.709  30.153  1.00  0.00     0.029 A 
ATOM     51  N   UNL A   1      42.099  28.169  31.175  1.00  0.00    -0.354 N 
ATOM     52  N   UNL A   1      41.265  29.924  33.415  1.00  0.00    -0.248 NA
ATOM     53  C   UNL A   1      41.589  30.711  35.593  1.00  0.00     0.031 C 
ATOM     54  C   UNL A   1      43.912  26.920  31.449  1.00  0.00     0.029 A 
ATOM     55  C   UNL A   1      43.103  27.856  32.075  1.00  0.00     0.049 A 
ATOM     56  H   UNL A   1      41.362  28.799  31.348  1.00  0.00     0.167 HD
ATOM     57  C   UNL A   1      42.411  29.340  33.946  1.00  0.00     0.074 A 
ATOM     58  C   UNL A   1      42.581  29.895  35.274  1.00  0.00     0.031 C 
ATOM     59  C   UNL A   1      43.249  28.427  33.391  1.00  0.00     0.034 A 
BRANCH  46  60
ATOM     60  C   UNL A   1      41.684  26.659  27.651  1.00  0.00     0.023 A 
ATOM     61  C   UNL A   1      41.237  25.326  27.612  1.00  0.00     0.031 A 
ATOM     62  C   UNL A   1      42.422  27.135  26.554  1.00  0.00     0.131 A 
ATOM     63  C   UNL A   1      41.604  24.493  26.545  1.00  0.00     0.055 A 
ATOM     64  C   UNL A   1      42.708  26.326  25.451  1.00  0.00     0.041 A 
ATOM     65  F   UNL A   1      42.893  28.392  26.539  1.00  0.00    -0.206 F 
ATOM     66  C   UNL A   1      42.313  24.991  25.450  1.00  0.00     0.022 A 
BRANCH  63  67
ATOM     67  S   UNL A   1      41.263  22.717  26.679  1.00  0.00     0.124 S 
ATOM     68  O   UNL A   1      41.985  22.193  25.521  1.00  0.00    -0.237 OA
ATOM     69  O   UNL A   1      41.823  22.386  27.983  1.00  0.00    -0.237 OA
ATOM     70  O   UNL A   1      39.807  22.640  26.586  1.00  0.00    -0.744 OA
ENDBRANCH  63  67
ENDBRANCH  46  60
BRANCH  47  71
ATOM     71  C   UNL A   1      39.210  32.430  35.513  1.00  0.00     0.023 A 
ATOM     72  C   UNL A   1      39.652  33.755  35.668  1.00  0.00     0.031 A 
ATOM     73  C   UNL A   1      38.433  31.873  36.544  1.00  0.00     0.131 A 
ATOM     74  C   UNL A   1      39.366  34.458  36.849  1.00  0.00     0.055 A 
ATOM     75  C   UNL A   1      38.101  32.596  37.692  1.00  0.00     0.041 A 
ATOM     76  F   UNL A   1      37.976  30.615  36.446  1.00  0.00    -0.206 F 
ATOM     77  C   UNL A   1      38.583  33.891  37.857  1.00  0.00     0.022 A 
BRANCH  74  78
ATOM     78  S   UNL A   1      40.122  36.088  37.093  1.00  0.00     0.124 S 
ATOM     79  O   UNL A   1      39.335  36.619  38.199  1.00  0.00    -0.237 OA
ATOM     80  O   UNL A   1      41.506  35.735  37.399  1.00  0.00    -0.237 OA
ATOM     81  O   UNL A   1      39.920  36.751  35.807  1.00  0.00    -0.744 OA
ENDBRANCH  74  78
ENDBRANCH  47  71
BRANCH  59  82
ATOM     82  C   UNL A   1      44.446  28.020  34.210  1.00  0.00     0.023 A 
ATOM     83  C   UNL A   1      44.404  26.916  35.078  1.00  0.00     0.031 A 
ATOM     84  C   UNL A   1      45.642  28.755  34.124  1.00  0.00     0.131 A 
ATOM     85  C   UNL A   1      45.520  26.611  35.869  1.00  0.00     0.055 A 
ATOM     86  C   UNL A   1      46.769  28.410  34.869  1.00  0.00     0.041 A 
ATOM     87  F   UNL A   1      45.733  29.818  33.309  1.00  0.00    -0.206 F 
ATOM     88  C   UNL A   1      46.707  27.340  35.758  1.00  0.00     0.022 A 
BRANCH  85  89
ATOM     89  S   UNL A   1      45.368  25.302  37.113  1.00  0.00     0.124 S 
ATOM     90  O   UNL A   1      45.782  25.990  38.332  1.00  0.00    -0.237 OA
ATOM     91  O   UNL A   1      43.954  24.952  37.028  1.00  0.00    -0.237 OA
ATOM     92  O   UNL A   1      46.291  24.271  36.641  1.00  0.00    -0.744 OA
ENDBRANCH  85  89
ENDBRANCH  59  82
ENDBRANCH  33  34
ENDBRANCH  25  28
ENDBRANCH  23  24
ENDBRANCH  22  23
ENDBRANCH   1  22
TORSDOF 18
ENDMDL
MODEL 3
REMARK VINA RESULT:     -10.9      2.017      8.285
REMARK SMILES C[C@H](C(=O)NCCCNC(=O)c1ccc(-c2c3nc(c(-c4cc(S(=O)(=O)[O-])ccc4F)c4ccc([nH]4)c(-c4cc(S(=O)(=O)[O-])ccc4F)c4nc(c(-c5cc(S(=O)(=O)[O-])ccc5F)c5ccc2[nH]5)C=C4)C=C3)cc1)[C@H](C)[NH+]1CC[NH+](CCO)CC1
REMARK SMILES IDX 6 1 5 2 3 3 4 4 2 6 1 7 75 8 76 9 77 10 78 11 85 12 79 14
REMARK SMILES IDX 84 15 80 16 81 18 82 19 83 20 7 22 8 23 9 24 10 25 11 27
REMARK SMILES IDX 12 28 13 29 74 30 14 31 73 32 15 33 16 34 17 35 67 36 18 37
REMARK SMILES IDX 72 38 66 39 68 40 19 41 71 42 65 43 64 44 20 46 52 47 32 48
REMARK SMILES IDX 51 49 33 50 36 51 50 52 69 53 34 54 35 55 49 57 70 58 37 59
REMARK SMILES IDX 21 60 22 61 30 62 23 63 29 64 31 65 28 66 24 67 25 68 26 69
REMARK SMILES IDX 27 70 53 71 54 72 62 73 55 74 61 75 63 76 60 77 56 78 57 79
REMARK SMILES IDX 58 80 59 81 38 82 39 83 47 84 40 85 46 86 48 87 45 88 41 89
REMARK SMILES IDX 42 90 43 91 44 92
REMARK H PARENT 5 5 77 13 80 17 83 21 9 26 68 45 36 56
REMARK Flexibility Score: inf
ROOT
ATOM      1  C   UNL A   1      32.620  28.184  27.281  1.00  0.00     0.117 C 
ENDROOT
BRANCH   1   2
ATOM      2  N   UNL A   1      33.378  27.626  26.157  1.00  0.00    -0.356 N 
ATOM      3  C   UNL A   1      33.030  27.139  24.930  1.00  0.00     0.228 C 
ATOM      4  O   UNL A   1      33.946  27.117  24.096  1.00  0.00    -0.275 OA
ATOM      5  H   UNL A   1      34.349  27.597  26.322  1.00  0.00     0.163 HD
BRANCH   3   6
ATOM      6  C   UNL A   1      31.670  26.526  24.558  1.00  0.00     0.133 C 
ATOM      7  C   UNL A   1      30.899  27.156  23.404  1.00  0.00     0.024 C 
BRANCH   6   8
ATOM      8  C   UNL A   1      31.501  24.952  24.658  1.00  0.00     0.193 C 
ATOM      9  C   UNL A   1      30.551  24.443  23.552  1.00  0.00     0.076 C 
BRANCH   8  10
ATOM     10  N   UNL A   1      31.349  24.156  25.899  1.00  0.00    -0.323 N 
ATOM     11  C   UNL A   1      30.648  22.876  25.818  1.00  0.00     0.324 C 
ATOM     12  C   UNL A   1      32.499  24.016  26.807  1.00  0.00     0.324 C 
ATOM     13  H   UNL A   1      30.719  24.834  26.328  1.00  0.00     0.348 HD
ATOM     14  C   UNL A   1      31.596  21.712  25.485  1.00  0.00     0.324 C 
ATOM     15  C   UNL A   1      33.454  22.863  26.458  1.00  0.00     0.324 C 
ATOM     16  N   UNL A   1      32.752  21.557  26.399  1.00  0.00    -0.324 N 
ATOM     17  H   UNL A   1      32.415  21.258  27.314  1.00  0.00     0.348 HD
BRANCH  16  18
ATOM     18  C   UNL A   1      33.708  20.537  25.901  1.00  0.00     0.291 C 
BRANCH  18  19
ATOM     19  C   UNL A   1      33.058  19.230  25.426  1.00  0.00     0.217 C 
BRANCH  19  20
ATOM     20  O   UNL A   1      32.591  18.435  26.507  1.00  0.00    -0.391 OA
ATOM     21  H   UNL A   1      31.735  18.775  26.811  1.00  0.00     0.210 HD
ENDBRANCH  19  20
ENDBRANCH  18  19
ENDBRANCH  16  18
ENDBRANCH   8  10
ENDBRANCH   6   8
ENDBRANCH   3   6
ENDBRANCH   1   2
BRANCH   1  22
ATOM     22  C   UNL A   1      31.721  29.364  26.938  1.00  0.00     0.042 C 
BRANCH  22  23
ATOM     23  C   UNL A   1      32.419  30.534  26.251  1.00  0.00     0.118 C 
BRANCH  23  24
ATOM     24  N   UNL A   1      32.294  31.834  26.906  1.00  0.00    -0.352 N 
ATOM     25  C   UNL A   1      33.178  32.619  27.619  1.00  0.00     0.251 C 
ATOM     26  H   UNL A   1      31.396  32.231  26.822  1.00  0.00     0.163 HD
ATOM     27  O   UNL A   1      32.827  33.722  28.013  1.00  0.00    -0.269 OA
BRANCH  25  28
ATOM     28  C   UNL A   1      34.524  32.116  27.959  1.00  0.00     0.039 A 
ATOM     29  C   UNL A   1      35.603  33.006  27.980  1.00  0.00     0.014 A 
ATOM     30  C   UNL A   1      34.719  30.787  28.308  1.00  0.00     0.014 A 
ATOM     31  C   UNL A   1      36.831  32.589  28.499  1.00  0.00     0.010 A 
ATOM     32  C   UNL A   1      35.880  30.421  28.969  1.00  0.00     0.010 A 
ATOM     33  C   UNL A   1      36.950  31.319  29.085  1.00  0.00    -0.014 A 
BRANCH  33  34
ATOM     34  C   UNL A   1      38.159  30.894  29.840  1.00  0.00     0.031 A 
ATOM     35  C   UNL A   1      39.106  29.897  29.223  1.00  0.00     0.074 A 
ATOM     36  C   UNL A   1      38.323  31.294  31.118  1.00  0.00     0.049 A 
ATOM     37  N   UNL A   1      40.080  29.224  29.779  1.00  0.00    -0.248 NA
ATOM     38  C   UNL A   1      38.879  29.559  27.809  1.00  0.00     0.031 C 
ATOM     39  C   UNL A   1      37.432  32.202  31.848  1.00  0.00     0.029 A 
ATOM     40  N   UNL A   1      39.288  30.979  32.042  1.00  0.00    -0.354 N 
ATOM     41  C   UNL A   1      40.541  28.350  28.800  1.00  0.00     0.074 A 
ATOM     42  C   UNL A   1      39.693  28.529  27.643  1.00  0.00     0.031 C 
ATOM     43  C   UNL A   1      37.914  32.401  33.085  1.00  0.00     0.029 A 
ATOM     44  C   UNL A   1      39.111  31.589  33.263  1.00  0.00     0.049 A 
ATOM     45  H   UNL A   1      40.038  30.371  31.849  1.00  0.00     0.167 HD
ATOM     46  C   UNL A   1      41.596  27.500  28.851  1.00  0.00     0.034 A 
ATOM     47  C   UNL A   1      39.828  31.495  34.401  1.00  0.00     0.034 A 
ATOM     48  C   UNL A   1      42.470  27.394  29.993  1.00  0.00     0.049 A 
ATOM     49  C   UNL A   1      41.030  30.586  34.414  1.00  0.00     0.074 A 
ATOM     50  C   UNL A   1      43.620  26.637  30.133  1.00  0.00     0.029 A 
ATOM     51  N   UNL A   1      42.297  28.081  31.188  1.00  0.00    -0.354 N 
ATOM     52  N   UNL A   1      41.481  29.802  33.462  1.00  0.00    -0.248 NA
ATOM     53  C   UNL A   1      41.824  30.555  35.649  1.00  0.00     0.031 C 
ATOM     54  C   UNL A   1      44.112  26.828  31.428  1.00  0.00     0.029 A 
ATOM     55  C   UNL A   1      43.309  27.755  32.074  1.00  0.00     0.049 A 
ATOM     56  H   UNL A   1      41.561  28.708  31.377  1.00  0.00     0.167 HD
ATOM     57  C   UNL A   1      42.632  29.209  33.974  1.00  0.00     0.074 A 
ATOM     58  C   UNL A   1      42.814  29.743  35.309  1.00  0.00     0.031 C 
ATOM     59  C   UNL A   1      43.466  28.305  33.398  1.00  0.00     0.034 A 
BRANCH  46  60
ATOM     60  C   UNL A   1      41.852  26.626  27.645  1.00  0.00     0.023 A 
ATOM     61  C   UNL A   1      41.370  25.307  27.572  1.00  0.00     0.031 A 
ATOM     62  C   UNL A   1      42.616  27.105  26.566  1.00  0.00     0.131 A 
ATOM     63  C   UNL A   1      41.727  24.487  26.491  1.00  0.00     0.055 A 
ATOM     64  C   UNL A   1      42.893  26.312  25.450  1.00  0.00     0.041 A 
ATOM     65  F   UNL A   1      43.120  28.349  26.584  1.00  0.00    -0.206 F 
ATOM     66  C   UNL A   1      42.463  24.989  25.415  1.00  0.00     0.022 A 
BRANCH  63  67
ATOM     67  S   UNL A   1      41.338  22.719  26.584  1.00  0.00     0.124 S 
ATOM     68  O   UNL A   1      39.879  22.736  26.509  1.00  0.00    -0.237 OA
ATOM     69  O   UNL A   1      42.030  22.181  25.419  1.00  0.00    -0.237 OA
ATOM     70  O   UNL A   1      41.885  22.314  27.877  1.00  0.00    -0.744 OA
ENDBRANCH  63  67
ENDBRANCH  46  60
BRANCH  47  71
ATOM     71  C   UNL A   1      39.445  32.274  35.615  1.00  0.00     0.023 A 
ATOM     72  C   UNL A   1      38.684  31.682  36.638  1.00  0.00     0.031 A 
ATOM     73  C   UNL A   1      39.785  33.631  35.755  1.00  0.00     0.131 A 
ATOM     74  C   UNL A   1      38.240  32.455  37.722  1.00  0.00     0.055 A 
ATOM     75  C   UNL A   1      39.390  34.382  36.864  1.00  0.00     0.041 A 
ATOM     76  F   UNL A   1      40.518  34.248  34.814  1.00  0.00    -0.206 F 
ATOM     77  C   UNL A   1      38.598  33.798  37.848  1.00  0.00     0.022 A 
BRANCH  74  78
ATOM     78  S   UNL A   1      37.096  31.702  38.912  1.00  0.00     0.124 S 
ATOM     79  O   UNL A   1      36.887  30.382  38.329  1.00  0.00    -0.237 OA
ATOM     80  O   UNL A   1      37.876  31.744  40.145  1.00  0.00    -0.237 OA
ATOM     81  O   UNL A   1      35.937  32.590  38.878  1.00  0.00    -0.744 OA
ENDBRANCH  74  78
ENDBRANCH  47  71
BRANCH  59  82
ATOM     82  C   UNL A   1      44.670  27.886  34.200  1.00  0.00     0.023 A 
ATOM     83  C   UNL A   1      44.628  26.781  35.068  1.00  0.00     0.031 A 
ATOM     84  C   UNL A   1      45.871  28.609  34.100  1.00  0.00     0.131 A 
ATOM     85  C   UNL A   1      45.752  26.465  35.844  1.00  0.00     0.055 A 
ATOM     86  C   UNL A   1      47.004  28.252  34.829  1.00  0.00     0.041 A 
ATOM     87  F   UNL A   1      45.962  29.672  33.285  1.00  0.00    -0.206 F 
ATOM     88  C   UNL A   1      46.944  27.182  35.718  1.00  0.00     0.022 A 
BRANCH  85  89
ATOM     89  S   UNL A   1      45.604  25.155  37.089  1.00  0.00     0.124 S 
ATOM     90  O   UNL A   1      45.237  25.910  38.283  1.00  0.00    -0.237 OA
ATOM     91  O   UNL A   1      44.558  24.306  36.526  1.00  0.00    -0.237 OA
ATOM     92  O   UNL A   1      46.937  24.557  37.119  1.00  0.00    -0.744 OA
ENDBRANCH  85  89
ENDBRANCH  59  82
ENDBRANCH  33  34
ENDBRANCH  25  28
ENDBRANCH  23  24
ENDBRANCH  22  23
ENDBRANCH   1  22
TORSDOF 18
ENDMDL
