MODEL 1
REMARK VINA RESULT:     -12.0      0.000      0.000
REMARK SMILES CC[C@@](C)(NC(=O)N[C@@H](C)c1cccc(Br)c1)C(=O)NCCCNC(=O)c1ccc(-c2c3nc(c(-c4cc(S(=O)(=O)[O-])ccc4F)c4ccc([nH]4)c(-c4cc(S(=O)(=O)[O-])ccc4F)c4nc(c(-c5cc(S(=O)(=O)[O-])ccc5F)c5ccc2[nH]5)C=C4)C=C3)cc1
REMARK SMILES IDX 22 1 21 2 20 3 18 4 19 5 3 7 4 8 2 9 1 10 5 11 6 12 7 14
REMARK SMILES IDX 8 15 9 17 10 18 11 19 12 20 17 21 13 22 15 23 14 24 16 25
REMARK SMILES IDX 23 26 24 27 25 28 26 30 27 31 28 32 89 33 29 34 88 35 30 36
REMARK SMILES IDX 31 37 32 38 82 39 33 40 87 41 81 42 83 43 34 44 86 45 80 46
REMARK SMILES IDX 79 47 35 49 67 50 47 51 66 52 48 53 51 54 65 55 84 56 49 57
REMARK SMILES IDX 50 58 64 60 85 61 52 62 36 63 37 64 45 65 38 66 44 67 46 68
REMARK SMILES IDX 43 69 39 70 40 71 41 72 42 73 68 74 69 75 77 76 70 77 76 78
REMARK SMILES IDX 78 79 75 80 71 81 72 82 73 83 74 84 53 85 54 86 62 87 55 88
REMARK SMILES IDX 61 89 63 90 60 91 56 92 57 93 58 94 59 95
REMARK H PARENT 20 6 5 13 8 16 24 29 83 48 51 59
REMARK Flexibility Score: inf
ROOT
ATOM      1  C   UNL A   1      31.432  30.871  26.180  1.00  0.00     0.042 C 
ENDROOT
BRANCH   1   2
ATOM      2  C   UNL A   1      31.519  29.704  25.194  1.00  0.00     0.117 C 
BRANCH   2   3
ATOM      3  N   UNL A   1      32.627  29.635  24.250  1.00  0.00    -0.354 N 
ATOM      4  C   UNL A   1      32.986  28.727  23.289  1.00  0.00     0.245 C 
ATOM      5  O   UNL A   1      33.732  29.158  22.401  1.00  0.00    -0.272 OA
ATOM      6  H   UNL A   1      33.245  30.399  24.318  1.00  0.00     0.163 HD
BRANCH   4   7
ATOM      7  C   UNL A   1      32.410  27.282  23.225  1.00  0.00     0.117 C 
ATOM      8  C   UNL A   1      33.242  26.450  24.234  1.00  0.00     0.045 C 
BRANCH   7   9
ATOM      9  C   UNL A   1      30.914  27.077  23.614  1.00  0.00     0.035 C 
ATOM     10  C   UNL A   1      29.848  27.777  22.782  1.00  0.00     0.007 C 
ENDBRANCH   7   9
BRANCH   7  11
ATOM     11  N   UNL A   1      32.584  26.738  21.867  1.00  0.00    -0.324 N 
ATOM     12  C   UNL A   1      32.774  25.514  21.358  1.00  0.00     0.316 C 
ATOM     13  H   UNL A   1      32.556  27.436  21.173  1.00  0.00     0.166 HD
ATOM     14  O   UNL A   1      33.121  25.465  20.174  1.00  0.00    -0.249 OA
ATOM     15  N   UNL A   1      32.583  24.352  21.986  1.00  0.00    -0.332 N 
ATOM     16  H   UNL A   1      32.740  23.592  21.380  1.00  0.00     0.165 HD
BRANCH  15  17
ATOM     17  C   UNL A   1      32.208  23.891  23.320  1.00  0.00     0.111 C 
ATOM     18  C   UNL A   1      30.714  23.580  23.458  1.00  0.00     0.036 C 
BRANCH  17  19
ATOM     19  C   UNL A   1      33.004  22.656  23.709  1.00  0.00    -0.025 A 
ATOM     20  C   UNL A   1      32.418  21.381  23.763  1.00  0.00     0.006 A 
ATOM     21  C   UNL A   1      34.340  22.803  24.114  1.00  0.00     0.021 A 
ATOM     22  C   UNL A   1      33.132  20.294  24.267  1.00  0.00     0.002 A 
ATOM     23  C   UNL A   1      35.051  21.711  24.604  1.00  0.00     0.018 A 
ATOM     24  C   UNL A   1      34.449  20.460  24.695  1.00  0.00     0.016 A 
ATOM     25  Br  UNL A   1      36.836  21.948  25.179  1.00  0.00    -0.051 Br
ENDBRANCH  17  19
ENDBRANCH  15  17
ENDBRANCH   7  11
ENDBRANCH   4   7
ENDBRANCH   2   3
ENDBRANCH   1   2
BRANCH   1  26
ATOM     26  C   UNL A   1      32.692  31.390  26.863  1.00  0.00     0.118 C 
BRANCH  26  27
ATOM     27  N   UNL A   1      32.639  32.789  27.232  1.00  0.00    -0.352 N 
ATOM     28  C   UNL A   1      33.489  33.520  28.026  1.00  0.00     0.251 C 
ATOM     29  H   UNL A   1      31.879  33.292  26.858  1.00  0.00     0.163 HD
ATOM     30  O   UNL A   1      33.187  34.675  28.310  1.00  0.00    -0.269 OA
BRANCH  28  31
ATOM     31  C   UNL A   1      34.739  32.927  28.561  1.00  0.00     0.039 A 
ATOM     32  C   UNL A   1      34.634  31.842  29.436  1.00  0.00     0.014 A 
ATOM     33  C   UNL A   1      35.998  33.460  28.266  1.00  0.00     0.014 A 
ATOM     34  C   UNL A   1      35.786  31.274  29.988  1.00  0.00     0.010 A 
ATOM     35  C   UNL A   1      37.154  32.855  28.778  1.00  0.00     0.010 A 
ATOM     36  C   UNL A   1      37.060  31.764  29.655  1.00  0.00    -0.014 A 
BRANCH  36  37
ATOM     37  C   UNL A   1      38.277  31.145  30.254  1.00  0.00     0.031 A 
ATOM     38  C   UNL A   1      38.694  31.482  31.663  1.00  0.00     0.074 A 
ATOM     39  C   UNL A   1      39.007  30.269  29.535  1.00  0.00     0.049 A 
ATOM     40  N   UNL A   1      39.689  31.006  32.370  1.00  0.00    -0.248 NA
ATOM     41  C   UNL A   1      37.901  32.504  32.359  1.00  0.00     0.031 C 
ATOM     42  C   UNL A   1      38.735  29.887  28.147  1.00  0.00     0.029 A 
ATOM     43  N   UNL A   1      40.118  29.533  29.868  1.00  0.00    -0.354 N 
ATOM     44  C   UNL A   1      39.639  31.668  33.594  1.00  0.00     0.074 A 
ATOM     45  C   UNL A   1      38.558  32.627  33.503  1.00  0.00     0.031 C 
ATOM     46  C   UNL A   1      39.631  28.965  27.761  1.00  0.00     0.029 A 
ATOM     47  C   UNL A   1      40.561  28.709  28.857  1.00  0.00     0.049 A 
ATOM     48  H   UNL A   1      40.556  29.589  30.747  1.00  0.00     0.167 HD
ATOM     49  C   UNL A   1      40.405  31.477  34.700  1.00  0.00     0.034 A 
ATOM     50  C   UNL A   1      41.594  27.843  28.818  1.00  0.00     0.034 A 
ATOM     51  C   UNL A   1      41.483  30.518  34.778  1.00  0.00     0.049 A 
ATOM     52  C   UNL A   1      42.437  27.654  30.054  1.00  0.00     0.074 A 
ATOM     53  C   UNL A   1      42.300  30.222  35.857  1.00  0.00     0.029 A 
ATOM     54  N   UNL A   1      41.903  29.702  33.733  1.00  0.00    -0.354 N 
ATOM     55  N   UNL A   1      42.341  28.248  31.222  1.00  0.00    -0.248 NA
ATOM     56  C   UNL A   1      43.513  26.658  29.974  1.00  0.00     0.031 C 
ATOM     57  C   UNL A   1      43.252  29.282  35.446  1.00  0.00     0.029 A 
ATOM     58  C   UNL A   1      42.979  28.923  34.136  1.00  0.00     0.049 A 
ATOM     59  H   UNL A   1      41.496  29.680  32.837  1.00  0.00     0.167 HD
ATOM     60  C   UNL A   1      43.318  27.665  32.026  1.00  0.00     0.074 A 
ATOM     61  C   UNL A   1      43.977  26.662  31.214  1.00  0.00     0.031 C 
ATOM     62  C   UNL A   1      43.638  27.930  33.319  1.00  0.00     0.034 A 
BRANCH  49  63
ATOM     63  C   UNL A   1      40.116  32.347  35.902  1.00  0.00     0.023 A 
ATOM     64  C   UNL A   1      39.193  31.960  36.891  1.00  0.00     0.031 A 
ATOM     65  C   UNL A   1      40.750  33.594  36.053  1.00  0.00     0.131 A 
ATOM     66  C   UNL A   1      38.869  32.840  37.934  1.00  0.00     0.055 A 
ATOM     67  C   UNL A   1      40.489  34.428  37.143  1.00  0.00     0.041 A 
ATOM     68  F   UNL A   1      41.626  34.031  35.135  1.00  0.00    -0.206 F 
ATOM     69  C   UNL A   1      39.531  34.061  38.083  1.00  0.00     0.022 A 
BRANCH  66  70
ATOM     70  S   UNL A   1      37.462  32.435  39.005  1.00  0.00     0.124 S 
ATOM     71  O   UNL A   1      37.835  33.106  40.248  1.00  0.00    -0.237 OA
ATOM     72  O   UNL A   1      36.336  33.012  38.280  1.00  0.00    -0.237 OA
ATOM     73  O   UNL A   1      37.485  30.975  39.064  1.00  0.00    -0.744 OA
ENDBRANCH  66  70
ENDBRANCH  49  63
BRANCH  50  74
ATOM     74  C   UNL A   1      41.892  27.076  27.573  1.00  0.00     0.023 A 
ATOM     75  C   UNL A   1      41.663  25.692  27.497  1.00  0.00     0.031 A 
ATOM     76  C   UNL A   1      42.463  27.711  26.455  1.00  0.00     0.131 A 
ATOM     77  C   UNL A   1      42.052  24.979  26.352  1.00  0.00     0.055 A 
ATOM     78  C   UNL A   1      42.794  27.006  25.296  1.00  0.00     0.041 A 
ATOM     79  F   UNL A   1      42.698  29.032  26.472  1.00  0.00    -0.206 F 
ATOM     80  C   UNL A   1      42.604  25.629  25.246  1.00  0.00     0.022 A 
BRANCH  77  81
ATOM     81  S   UNL A   1      41.912  23.170  26.364  1.00  0.00     0.124 S 
ATOM     82  O   UNL A   1      42.719  22.817  27.525  1.00  0.00    -0.237 OA
ATOM     83  O   UNL A   1      40.471  22.979  26.500  1.00  0.00    -0.237 OA
ATOM     84  O   UNL A   1      42.470  22.778  25.072  1.00  0.00    -0.744 OA
ENDBRANCH  77  81
ENDBRANCH  50  74
BRANCH  62  85
ATOM     85  C   UNL A   1      44.715  27.074  33.949  1.00  0.00     0.023 A 
ATOM     86  C   UNL A   1      44.423  25.855  34.586  1.00  0.00     0.031 A 
ATOM     87  C   UNL A   1      46.053  27.510  33.946  1.00  0.00     0.131 A 
ATOM     88  C   UNL A   1      45.436  25.158  35.263  1.00  0.00     0.055 A 
ATOM     89  C   UNL A   1      47.069  26.775  34.558  1.00  0.00     0.041 A 
ATOM     90  F   UNL A   1      46.395  28.666  33.355  1.00  0.00    -0.206 F 
ATOM     91  C   UNL A   1      46.761  25.601  35.238  1.00  0.00     0.022 A 
BRANCH  88  92
ATOM     92  S   UNL A   1      44.976  23.735  36.292  1.00  0.00     0.124 S 
ATOM     93  O   UNL A   1      46.172  22.904  36.213  1.00  0.00    -0.237 OA
ATOM     94  O   UNL A   1      44.717  24.358  37.585  1.00  0.00    -0.237 OA
ATOM     95  O   UNL A   1      43.798  23.192  35.619  1.00  0.00    -0.744 OA
ENDBRANCH  88  92
ENDBRANCH  62  85
ENDBRANCH  36  37
ENDBRANCH  28  31
ENDBRANCH  26  27
ENDBRANCH   1  26
TORSDOF 17
ENDMDL
MODEL 2
REMARK VINA RESULT:     -11.9      5.060     10.260
REMARK SMILES CC[C@@](C)(NC(=O)N[C@@H](C)c1cccc(Br)c1)C(=O)NCCCNC(=O)c1ccc(-c2c3nc(c(-c4cc(S(=O)(=O)[O-])ccc4F)c4ccc([nH]4)c(-c4cc(S(=O)(=O)[O-])ccc4F)c4nc(c(-c5cc(S(=O)(=O)[O-])ccc5F)c5ccc2[nH]5)C=C4)C=C3)cc1
REMARK SMILES IDX 22 1 21 2 20 3 18 4 19 5 3 7 4 8 2 9 1 10 5 11 6 12 7 14
REMARK SMILES IDX 8 15 9 17 10 18 11 19 12 20 17 21 13 22 15 23 14 24 16 25
REMARK SMILES IDX 23 26 24 27 25 28 26 30 27 31 28 32 89 33 29 34 88 35 30 36
REMARK SMILES IDX 31 37 32 38 82 39 33 40 87 41 81 42 83 43 34 44 86 45 80 46
REMARK SMILES IDX 79 47 35 49 67 50 47 51 66 52 48 53 51 54 65 55 84 56 49 57
REMARK SMILES IDX 50 58 64 60 85 61 52 62 36 63 37 64 45 65 38 66 44 67 46 68
REMARK SMILES IDX 43 69 39 70 40 71 41 72 42 73 68 74 69 75 77 76 70 77 76 78
REMARK SMILES IDX 78 79 75 80 71 81 72 82 73 83 74 84 53 85 54 86 62 87 55 88
REMARK SMILES IDX 61 89 63 90 60 91 56 92 57 93 58 94 59 95
REMARK H PARENT 20 6 5 13 8 16 24 29 83 48 51 59
REMARK Flexibility Score: inf
ROOT
ATOM      1  C   UNL A   1      35.248  22.747  24.734  1.00  0.00     0.042 C 
ENDROOT
BRANCH   1   2
ATOM      2  C   UNL A   1      34.472  24.040  24.473  1.00  0.00     0.117 C 
BRANCH   2   3
ATOM      3  N   UNL A   1      34.156  24.431  23.106  1.00  0.00    -0.354 N 
ATOM      4  C   UNL A   1      33.087  25.072  22.535  1.00  0.00     0.245 C 
ATOM      5  O   UNL A   1      33.309  25.606  21.441  1.00  0.00    -0.272 OA
ATOM      6  H   UNL A   1      34.854  24.182  22.457  1.00  0.00     0.163 HD
BRANCH   4   7
ATOM      7  C   UNL A   1      31.714  25.239  23.251  1.00  0.00     0.117 C 
ATOM      8  C   UNL A   1      31.015  23.859  23.151  1.00  0.00     0.045 C 
BRANCH   7   9
ATOM      9  C   UNL A   1      31.722  25.620  24.762  1.00  0.00     0.035 C 
ATOM     10  C   UNL A   1      30.386  25.774  25.476  1.00  0.00     0.007 C 
ENDBRANCH   7   9
BRANCH   7  11
ATOM     11  N   UNL A   1      30.911  26.257  22.550  1.00  0.00    -0.324 N 
ATOM     12  C   UNL A   1      30.886  27.596  22.541  1.00  0.00     0.316 C 
ATOM     13  H   UNL A   1      30.237  25.862  21.951  1.00  0.00     0.166 HD
ATOM     14  O   UNL A   1      29.904  28.117  22.002  1.00  0.00    -0.249 OA
ATOM     15  N   UNL A   1      31.829  28.413  23.011  1.00  0.00    -0.332 N 
ATOM     16  H   UNL A   1      31.599  29.355  22.838  1.00  0.00     0.165 HD
BRANCH  15  17
ATOM     17  C   UNL A   1      33.105  28.304  23.712  1.00  0.00     0.111 C 
ATOM     18  C   UNL A   1      34.294  28.818  22.893  1.00  0.00     0.036 C 
BRANCH  17  19
ATOM     19  C   UNL A   1      33.062  29.052  25.035  1.00  0.00    -0.025 A 
ATOM     20  C   UNL A   1      31.980  29.874  25.389  1.00  0.00     0.006 A 
ATOM     21  C   UNL A   1      34.173  28.993  25.890  1.00  0.00     0.021 A 
ATOM     22  C   UNL A   1      32.035  30.663  26.538  1.00  0.00     0.002 A 
ATOM     23  C   UNL A   1      34.217  29.773  27.042  1.00  0.00     0.018 A 
ATOM     24  C   UNL A   1      33.159  30.619  27.362  1.00  0.00     0.016 A 
ATOM     25  Br  UNL A   1      35.744  29.703  28.153  1.00  0.00    -0.051 Br
ENDBRANCH  17  19
ENDBRANCH  15  17
ENDBRANCH   7  11
ENDBRANCH   4   7
ENDBRANCH   2   3
ENDBRANCH   1   2
BRANCH   1  26
ATOM     26  C   UNL A   1      36.219  22.662  25.904  1.00  0.00     0.118 C 
BRANCH  26  27
ATOM     27  N   UNL A   1      37.171  21.575  25.814  1.00  0.00    -0.352 N 
ATOM     28  C   UNL A   1      38.531  21.580  26.008  1.00  0.00     0.251 C 
ATOM     29  H   UNL A   1      36.785  20.700  25.577  1.00  0.00     0.163 HD
ATOM     30  O   UNL A   1      39.168  20.560  25.758  1.00  0.00    -0.269 OA
BRANCH  28  31
ATOM     31  C   UNL A   1      39.234  22.796  26.484  1.00  0.00     0.039 A 
ATOM     32  C   UNL A   1      39.010  23.997  25.805  1.00  0.00     0.014 A 
ATOM     33  C   UNL A   1      40.150  22.758  27.541  1.00  0.00     0.014 A 
ATOM     34  C   UNL A   1      39.676  25.160  26.201  1.00  0.00     0.010 A 
ATOM     35  C   UNL A   1      40.775  23.936  27.970  1.00  0.00     0.010 A 
ATOM     36  C   UNL A   1      40.555  25.148  27.296  1.00  0.00    -0.014 A 
BRANCH  36  37
ATOM     37  C   UNL A   1      41.258  26.398  27.704  1.00  0.00     0.031 A 
ATOM     38  C   UNL A   1      42.676  26.658  27.265  1.00  0.00     0.074 A 
ATOM     39  C   UNL A   1      40.617  27.309  28.464  1.00  0.00     0.049 A 
ATOM     40  N   UNL A   1      43.430  27.709  27.476  1.00  0.00    -0.248 NA
ATOM     41  C   UNL A   1      43.340  25.589  26.508  1.00  0.00     0.031 C 
ATOM     42  C   UNL A   1      39.258  27.161  28.989  1.00  0.00     0.029 A 
ATOM     43  N   UNL A   1      41.014  28.543  28.919  1.00  0.00    -0.354 N 
ATOM     44  C   UNL A   1      44.655  27.428  26.876  1.00  0.00     0.074 A 
ATOM     45  C   UNL A   1      44.560  26.080  26.356  1.00  0.00     0.031 C 
ATOM     46  C   UNL A   1      38.923  28.272  29.663  1.00  0.00     0.029 A 
ATOM     47  C   UNL A   1      40.050  29.201  29.648  1.00  0.00     0.049 A 
ATOM     48  H   UNL A   1      41.905  28.921  28.741  1.00  0.00     0.167 HD
ATOM     49  C   UNL A   1      45.746  28.226  26.748  1.00  0.00     0.034 A 
ATOM     50  C   UNL A   1      40.066  30.416  30.234  1.00  0.00     0.034 A 
ATOM     51  C   UNL A   1      45.829  29.569  27.274  1.00  0.00     0.049 A 
ATOM     52  C   UNL A   1      41.293  31.282  30.087  1.00  0.00     0.074 A 
ATOM     53  C   UNL A   1      46.873  30.474  27.173  1.00  0.00     0.029 A 
ATOM     54  N   UNL A   1      44.832  30.202  28.008  1.00  0.00    -0.354 N 
ATOM     55  N   UNL A   1      42.422  31.021  29.468  1.00  0.00    -0.248 NA
ATOM     56  C   UNL A   1      41.236  32.616  30.697  1.00  0.00     0.031 C 
ATOM     57  C   UNL A   1      46.536  31.621  27.900  1.00  0.00     0.029 A 
ATOM     58  C   UNL A   1      45.246  31.471  28.384  1.00  0.00     0.049 A 
ATOM     59  H   UNL A   1      43.958  29.806  28.229  1.00  0.00     0.167 HD
ATOM     60  C   UNL A   1      43.191  32.178  29.580  1.00  0.00     0.074 A 
ATOM     61  C   UNL A   1      42.389  33.139  30.309  1.00  0.00     0.031 C 
ATOM     62  C   UNL A   1      44.445  32.424  29.118  1.00  0.00     0.034 A 
BRANCH  49  63
ATOM     63  C   UNL A   1      46.947  27.649  26.033  1.00  0.00     0.023 A 
ATOM     64  C   UNL A   1      48.036  27.104  26.738  1.00  0.00     0.031 A 
ATOM     65  C   UNL A   1      47.021  27.666  24.628  1.00  0.00     0.131 A 
ATOM     66  C   UNL A   1      49.180  26.678  26.046  1.00  0.00     0.055 A 
ATOM     67  C   UNL A   1      48.127  27.158  23.941  1.00  0.00     0.041 A 
ATOM     68  F   UNL A   1      46.025  28.190  23.898  1.00  0.00    -0.206 F 
ATOM     69  C   UNL A   1      49.222  26.676  24.650  1.00  0.00     0.022 A 
BRANCH  66  70
ATOM     70  S   UNL A   1      50.669  26.273  26.999  1.00  0.00     0.124 S 
ATOM     71  O   UNL A   1      50.635  24.812  26.992  1.00  0.00    -0.237 OA
ATOM     72  O   UNL A   1      51.728  26.892  26.211  1.00  0.00    -0.237 OA
ATOM     73  O   UNL A   1      50.419  26.886  28.302  1.00  0.00    -0.744 OA
ENDBRANCH  66  70
ENDBRANCH  49  63
BRANCH  50  74
ATOM     74  C   UNL A   1      38.886  30.900  31.008  1.00  0.00     0.023 A 
ATOM     75  C   UNL A   1      37.871  31.653  30.395  1.00  0.00     0.031 A 
ATOM     76  C   UNL A   1      38.782  30.660  32.391  1.00  0.00     0.131 A 
ATOM     77  C   UNL A   1      36.827  32.185  31.168  1.00  0.00     0.055 A 
ATOM     78  C   UNL A   1      37.712  31.143  33.145  1.00  0.00     0.041 A 
ATOM     79  F   UNL A   1      39.721  29.943  33.026  1.00  0.00    -0.206 F 
ATOM     80  C   UNL A   1      36.734  31.924  32.537  1.00  0.00     0.022 A 
BRANCH  77  81
ATOM     81  S   UNL A   1      35.640  33.305  30.376  1.00  0.00     0.124 S 
ATOM     82  O   UNL A   1      35.506  34.354  31.379  1.00  0.00    -0.237 OA
ATOM     83  O   UNL A   1      36.342  33.673  29.151  1.00  0.00    -0.237 OA
ATOM     84  O   UNL A   1      34.458  32.467  30.186  1.00  0.00    -0.744 OA
ENDBRANCH  77  81
ENDBRANCH  50  74
BRANCH  62  85
ATOM     85  C   UNL A   1      44.996  33.816  29.340  1.00  0.00     0.023 A 
ATOM     86  C   UNL A   1      44.826  34.846  28.399  1.00  0.00     0.031 A 
ATOM     87  C   UNL A   1      45.743  34.101  30.498  1.00  0.00     0.131 A 
ATOM     88  C   UNL A   1      45.462  36.083  28.590  1.00  0.00     0.055 A 
ATOM     89  C   UNL A   1      46.310  35.356  30.719  1.00  0.00     0.041 A 
ATOM     90  F   UNL A   1      45.942  33.158  31.434  1.00  0.00    -0.206 F 
ATOM     91  C   UNL A   1      46.188  36.351  29.753  1.00  0.00     0.022 A 
BRANCH  88  92
ATOM     92  S   UNL A   1      45.439  37.292  27.237  1.00  0.00     0.124 S 
ATOM     93  O   UNL A   1      46.319  36.667  26.256  1.00  0.00    -0.237 OA
ATOM     94  O   UNL A   1      44.024  37.338  26.886  1.00  0.00    -0.237 OA
ATOM     95  O   UNL A   1      45.964  38.508  27.855  1.00  0.00    -0.744 OA
ENDBRANCH  88  92
ENDBRANCH  62  85
ENDBRANCH  36  37
ENDBRANCH  28  31
ENDBRANCH  26  27
ENDBRANCH   1  26
TORSDOF 17
ENDMDL
MODEL 3
REMARK VINA RESULT:     -11.9      4.810     10.087
REMARK SMILES CC[C@@](C)(NC(=O)N[C@@H](C)c1cccc(Br)c1)C(=O)NCCCNC(=O)c1ccc(-c2c3nc(c(-c4cc(S(=O)(=O)[O-])ccc4F)c4ccc([nH]4)c(-c4cc(S(=O)(=O)[O-])ccc4F)c4nc(c(-c5cc(S(=O)(=O)[O-])ccc5F)c5ccc2[nH]5)C=C4)C=C3)cc1
REMARK SMILES IDX 22 1 21 2 20 3 18 4 19 5 3 7 4 8 2 9 1 10 5 11 6 12 7 14
REMARK SMILES IDX 8 15 9 17 10 18 11 19 12 20 17 21 13 22 15 23 14 24 16 25
REMARK SMILES IDX 23 26 24 27 25 28 26 30 27 31 28 32 89 33 29 34 88 35 30 36
REMARK SMILES IDX 31 37 32 38 82 39 33 40 87 41 81 42 83 43 34 44 86 45 80 46
REMARK SMILES IDX 79 47 35 49 67 50 47 51 66 52 48 53 51 54 65 55 84 56 49 57
REMARK SMILES IDX 50 58 64 60 85 61 52 62 36 63 37 64 45 65 38 66 44 67 46 68
REMARK SMILES IDX 43 69 39 70 40 71 41 72 42 73 68 74 69 75 77 76 70 77 76 78
REMARK SMILES IDX 78 79 75 80 71 81 72 82 73 83 74 84 53 85 54 86 62 87 55 88
REMARK SMILES IDX 61 89 63 90 60 91 56 92 57 93 58 94 59 95
REMARK H PARENT 20 6 5 13 8 16 24 29 83 48 51 59
REMARK Flexibility Score: inf
ROOT
ATOM      1  C   UNL A   1      35.779  22.725  24.472  1.00  0.00     0.042 C 
ENDROOT
BRANCH   1   2
ATOM      2  C   UNL A   1      34.604  23.694  24.320  1.00  0.00     0.117 C 
BRANCH   2   3
ATOM      3  N   UNL A   1      34.337  24.310  23.028  1.00  0.00    -0.354 N 
ATOM      4  C   UNL A   1      33.308  25.078  22.547  1.00  0.00     0.245 C 
ATOM      5  O   UNL A   1      33.577  25.770  21.558  1.00  0.00    -0.272 OA
ATOM      6  H   UNL A   1      35.042  24.139  22.361  1.00  0.00     0.163 HD
BRANCH   4   7
ATOM      7  C   UNL A   1      31.925  25.185  23.255  1.00  0.00     0.117 C 
ATOM      8  C   UNL A   1      31.284  23.778  23.146  1.00  0.00     0.045 C 
BRANCH   7   9
ATOM      9  C   UNL A   1      31.908  25.561  24.768  1.00  0.00     0.035 C 
ATOM     10  C   UNL A   1      30.562  25.802  25.437  1.00  0.00     0.007 C 
ENDBRANCH   7   9
BRANCH   7  11
ATOM     11  N   UNL A   1      31.085  26.172  22.552  1.00  0.00    -0.324 N 
ATOM     12  C   UNL A   1      31.008  27.509  22.543  1.00  0.00     0.316 C 
ATOM     13  H   UNL A   1      30.429  25.751  21.951  1.00  0.00     0.166 HD
ATOM     14  O   UNL A   1      30.009  27.992  22.003  1.00  0.00    -0.249 OA
ATOM     15  N   UNL A   1      31.918  28.362  23.016  1.00  0.00    -0.332 N 
ATOM     16  H   UNL A   1      31.653  29.294  22.843  1.00  0.00     0.165 HD
BRANCH  15  17
ATOM     17  C   UNL A   1      33.196  28.301  23.720  1.00  0.00     0.111 C 
ATOM     18  C   UNL A   1      34.364  28.870  22.908  1.00  0.00     0.036 C 
BRANCH  17  19
ATOM     19  C   UNL A   1      33.118  29.037  25.048  1.00  0.00    -0.025 A 
ATOM     20  C   UNL A   1      32.017  29.841  25.388  1.00  0.00     0.006 A 
ATOM     21  C   UNL A   1      34.214  28.988  25.922  1.00  0.00     0.021 A 
ATOM     22  C   UNL A   1      32.040  30.621  26.545  1.00  0.00     0.002 A 
ATOM     23  C   UNL A   1      34.226  29.760  27.081  1.00  0.00     0.018 A 
ATOM     24  C   UNL A   1      33.150  30.587  27.389  1.00  0.00     0.016 A 
ATOM     25  Br  UNL A   1      35.734  29.704  28.219  1.00  0.00    -0.051 Br
ENDBRANCH  17  19
ENDBRANCH  15  17
ENDBRANCH   7  11
ENDBRANCH   4   7
ENDBRANCH   2   3
ENDBRANCH   1   2
BRANCH   1  26
ATOM     26  C   UNL A   1      36.447  22.542  25.829  1.00  0.00     0.118 C 
BRANCH  26  27
ATOM     27  N   UNL A   1      37.434  21.483  25.871  1.00  0.00    -0.352 N 
ATOM     28  C   UNL A   1      38.783  21.550  26.125  1.00  0.00     0.251 C 
ATOM     29  H   UNL A   1      37.086  20.579  25.691  1.00  0.00     0.163 HD
ATOM     30  O   UNL A   1      39.461  20.535  25.989  1.00  0.00    -0.269 OA
BRANCH  28  31
ATOM     31  C   UNL A   1      39.425  22.823  26.530  1.00  0.00     0.039 A 
ATOM     32  C   UNL A   1      40.405  22.782  27.525  1.00  0.00     0.014 A 
ATOM     33  C   UNL A   1      39.036  24.055  25.991  1.00  0.00     0.014 A 
ATOM     34  C   UNL A   1      41.014  23.964  27.959  1.00  0.00     0.010 A 
ATOM     35  C   UNL A   1      39.686  25.231  26.389  1.00  0.00     0.010 A 
ATOM     36  C   UNL A   1      40.673  25.200  27.386  1.00  0.00    -0.014 A 
BRANCH  36  37
ATOM     37  C   UNL A   1      41.332  26.450  27.861  1.00  0.00     0.031 A 
ATOM     38  C   UNL A   1      42.762  26.751  27.490  1.00  0.00     0.074 A 
ATOM     39  C   UNL A   1      40.642  27.326  28.619  1.00  0.00     0.049 A 
ATOM     40  N   UNL A   1      43.485  27.808  27.764  1.00  0.00    -0.248 NA
ATOM     41  C   UNL A   1      43.478  25.717  26.732  1.00  0.00     0.031 C 
ATOM     42  C   UNL A   1      39.264  27.136  29.080  1.00  0.00     0.029 A 
ATOM     43  N   UNL A   1      40.994  28.553  29.126  1.00  0.00    -0.354 N 
ATOM     44  C   UNL A   1      44.739  27.568  27.210  1.00  0.00     0.074 A 
ATOM     45  C   UNL A   1      44.694  26.235  26.647  1.00  0.00     0.031 C 
ATOM     46  C   UNL A   1      38.879  28.221  29.772  1.00  0.00     0.029 A 
ATOM     47  C   UNL A   1      39.986  29.171  29.833  1.00  0.00     0.049 A 
ATOM     48  H   UNL A   1      41.884  28.953  28.998  1.00  0.00     0.167 HD
ATOM     49  C   UNL A   1      45.819  28.390  27.152  1.00  0.00     0.034 A 
ATOM     50  C   UNL A   1      39.954  30.368  30.454  1.00  0.00     0.034 A 
ATOM     51  C   UNL A   1      45.853  29.718  27.720  1.00  0.00     0.049 A 
ATOM     52  C   UNL A   1      41.168  31.260  30.385  1.00  0.00     0.074 A 
ATOM     53  C   UNL A   1      46.881  30.645  27.691  1.00  0.00     0.029 A 
ATOM     54  N   UNL A   1      44.813  30.310  28.429  1.00  0.00    -0.354 N 
ATOM     55  N   UNL A   1      42.327  31.040  29.808  1.00  0.00    -0.248 NA
ATOM     56  C   UNL A   1      41.059  32.574  31.031  1.00  0.00     0.031 C 
ATOM     57  C   UNL A   1      46.492  31.763  28.437  1.00  0.00     0.029 A 
ATOM     58  C   UNL A   1      45.185  31.575  28.860  1.00  0.00     0.049 A 
ATOM     59  H   UNL A   1      43.939  29.891  28.601  1.00  0.00     0.167 HD
ATOM     60  C   UNL A   1      43.068  32.206  29.987  1.00  0.00     0.074 A 
ATOM     61  C   UNL A   1      42.217  33.130  30.709  1.00  0.00     0.031 C 
ATOM     62  C   UNL A   1      44.335  32.490  29.587  1.00  0.00     0.034 A 
BRANCH  49  63
ATOM     63  C   UNL A   1      47.061  27.858  26.473  1.00  0.00     0.023 A 
ATOM     64  C   UNL A   1      47.295  28.056  25.100  1.00  0.00     0.031 A 
ATOM     65  C   UNL A   1      48.012  27.118  27.198  1.00  0.00     0.131 A 
ATOM     66  C   UNL A   1      48.402  27.455  24.481  1.00  0.00     0.055 A 
ATOM     67  C   UNL A   1      49.159  26.596  26.593  1.00  0.00     0.041 A 
ATOM     68  F   UNL A   1      47.838  26.876  28.506  1.00  0.00    -0.206 F 
ATOM     69  C   UNL A   1      49.351  26.749  25.224  1.00  0.00     0.022 A 
BRANCH  66  70
ATOM     70  S   UNL A   1      48.501  27.477  22.670  1.00  0.00     0.124 S 
ATOM     71  O   UNL A   1      47.273  28.188  22.317  1.00  0.00    -0.237 OA
ATOM     72  O   UNL A   1      49.747  28.196  22.430  1.00  0.00    -0.237 OA
ATOM     73  O   UNL A   1      48.516  26.061  22.310  1.00  0.00    -0.744 OA
ENDBRANCH  66  70
ENDBRANCH  49  63
BRANCH  50  74
ATOM     74  C   UNL A   1      38.732  30.805  31.191  1.00  0.00     0.023 A 
ATOM     75  C   UNL A   1      37.788  31.657  30.594  1.00  0.00     0.031 A 
ATOM     76  C   UNL A   1      38.518  30.419  32.526  1.00  0.00     0.131 A 
ATOM     77  C   UNL A   1      36.704  32.138  31.345  1.00  0.00     0.055 A 
ATOM     78  C   UNL A   1      37.408  30.855  33.251  1.00  0.00     0.041 A 
ATOM     79  F   UNL A   1      39.387  29.603  33.144  1.00  0.00    -0.206 F 
ATOM     80  C   UNL A   1      36.501  31.732  32.666  1.00  0.00     0.022 A 
BRANCH  77  81
ATOM     81  S   UNL A   1      35.611  33.380  30.600  1.00  0.00     0.124 S 
ATOM     82  O   UNL A   1      34.405  32.602  30.348  1.00  0.00    -0.237 OA
ATOM     83  O   UNL A   1      35.522  34.379  31.660  1.00  0.00    -0.237 OA
ATOM     84  O   UNL A   1      36.342  33.804  29.408  1.00  0.00    -0.744 OA
ENDBRANCH  77  81
ENDBRANCH  50  74
BRANCH  62  85
ATOM     85  C   UNL A   1      44.849  33.884  29.873  1.00  0.00     0.023 A 
ATOM     86  C   UNL A   1      45.519  34.203  31.067  1.00  0.00     0.031 A 
ATOM     87  C   UNL A   1      44.624  34.921  28.949  1.00  0.00     0.131 A 
ATOM     88  C   UNL A   1      45.866  35.535  31.342  1.00  0.00     0.055 A 
ATOM     89  C   UNL A   1      45.038  36.231  29.195  1.00  0.00     0.041 A 
ATOM     90  F   UNL A   1      43.988  34.680  27.791  1.00  0.00    -0.206 F 
ATOM     91  C   UNL A   1      45.646  36.548  30.406  1.00  0.00     0.022 A 
BRANCH  88  92
ATOM     92  S   UNL A   1      46.487  35.948  32.997  1.00  0.00     0.124 S 
ATOM     93  O   UNL A   1      47.563  34.977  33.168  1.00  0.00    -0.237 OA
ATOM     94  O   UNL A   1      46.902  37.337  32.834  1.00  0.00    -0.237 OA
ATOM     95  O   UNL A   1      45.326  35.745  33.859  1.00  0.00    -0.744 OA
ENDBRANCH  88  92
ENDBRANCH  62  85
ENDBRANCH  36  37
ENDBRANCH  28  31
ENDBRANCH  26  27
ENDBRANCH   1  26
TORSDOF 17
ENDMDL
