MODEL 1
REMARK VINA RESULT:     -14.1      0.000      0.000
REMARK SMILES Cc1ccc(S(=O)(=O)N2c3ccc(C(=O)NCCCNC(=O)c4ccc(-c5c6nc(c(-c7cc(S(=O)(=O)[O-])ccc7F)c7ccc([nH]7)c(-c7cc(S(=O)(=O)[O-])ccc7F)c7nc(c(-c8cc(S(=O)(=O)[O-])ccc8F)c8ccc5[nH]8)C=C7)C=C6)cc4)cc3C[C@H]2C)cc1
REMARK SMILES IDX 18 1 17 2 16 3 14 4 15 5 13 7 9 8 10 9 89 10 11 11 87 12
REMARK SMILES IDX 88 13 90 14 12 15 86 16 6 17 7 18 8 19 5 20 1 21 2 22 3 23
REMARK SMILES IDX 92 24 4 25 91 26 19 27 20 28 21 29 22 31 23 32 24 33 85 34
REMARK SMILES IDX 25 35 84 36 26 37 27 38 28 39 78 40 29 41 83 42 77 43 79 44
REMARK SMILES IDX 30 45 82 46 76 47 75 48 31 50 63 51 43 52 62 53 44 54 47 55
REMARK SMILES IDX 61 56 80 57 45 58 46 59 60 61 81 62 48 63 32 64 33 65 41 66
REMARK SMILES IDX 34 67 40 68 42 69 39 70 35 71 36 72 37 73 38 74 64 75 65 76
REMARK SMILES IDX 73 77 66 78 72 79 74 80 71 81 67 82 68 83 69 84 70 85 49 86
REMARK SMILES IDX 50 87 58 88 51 89 57 90 59 91 56 92 52 93 53 94 54 95 55 96
REMARK H PARENT 16 6 20 30 79 49 47 60
REMARK Flexibility Score: inf
ROOT
ATOM      1  C   UNL A   1      32.794  30.612  26.896  1.00  0.00     0.042 C 
ENDROOT
BRANCH   1   2
ATOM      2  C   UNL A   1      32.293  29.725  25.754  1.00  0.00     0.118 C 
BRANCH   2   3
ATOM      3  N   UNL A   1      33.238  29.689  24.642  1.00  0.00    -0.352 N 
ATOM      4  C   UNL A   1      33.630  28.711  23.764  1.00  0.00     0.251 C 
ATOM      5  O   UNL A   1      34.414  29.040  22.868  1.00  0.00    -0.269 OA
ATOM      6  H   UNL A   1      33.691  30.551  24.491  1.00  0.00     0.163 HD
BRANCH   4   7
ATOM      7  C   UNL A   1      33.199  27.275  23.822  1.00  0.00     0.040 A 
ATOM      8  N   UNL A   1      32.045  23.254  24.521  1.00  0.00    -0.263 N 
ATOM      9  C   UNL A   1      32.368  24.617  24.162  1.00  0.00     0.055 A 
ATOM     10  C   UNL A   1      32.415  23.176  25.994  1.00  0.00     0.101 C 
ATOM     11  C   UNL A   1      32.032  25.272  23.001  1.00  0.00     0.028 A 
ATOM     12  C   UNL A   1      33.112  25.254  25.149  1.00  0.00    -0.021 A 
ATOM     13  C   UNL A   1      33.424  24.314  26.261  1.00  0.00     0.063 C 
ATOM     14  C   UNL A   1      31.131  23.390  26.809  1.00  0.00     0.032 C 
ATOM     15  C   UNL A   1      32.468  26.594  22.835  1.00  0.00     0.016 A 
ATOM     16  C   UNL A   1      33.529  26.570  24.997  1.00  0.00     0.019 A 
BRANCH   8  17
ATOM     17  S   UNL A   1      32.843  22.136  23.471  1.00  0.00     0.264 S 
ATOM     18  O   UNL A   1      32.951  22.751  22.163  1.00  0.00    -0.201 OA
ATOM     19  O   UNL A   1      32.228  20.833  23.642  1.00  0.00    -0.201 OA
BRANCH  17  20
ATOM     20  C   UNL A   1      34.520  21.918  24.038  1.00  0.00     0.088 A 
ATOM     21  C   UNL A   1      38.538  21.901  25.582  1.00  0.00     0.044 C 
ATOM     22  C   UNL A   1      37.150  21.880  25.015  1.00  0.00    -0.051 A 
ATOM     23  C   UNL A   1      36.762  22.844  24.079  1.00  0.00     0.005 A 
ATOM     24  C   UNL A   1      36.232  20.896  25.400  1.00  0.00     0.005 A 
ATOM     25  C   UNL A   1      35.454  22.867  23.597  1.00  0.00     0.022 A 
ATOM     26  C   UNL A   1      34.925  20.907  24.903  1.00  0.00     0.022 A 
ENDBRANCH  17  20
ENDBRANCH   8  17
ENDBRANCH   4   7
ENDBRANCH   2   3
ENDBRANCH   1   2
BRANCH   1  27
ATOM     27  C   UNL A   1      34.104  30.145  27.506  1.00  0.00     0.118 C 
BRANCH  27  28
ATOM     28  N   UNL A   1      34.747  31.145  28.356  1.00  0.00    -0.352 N 
ATOM     29  C   UNL A   1      35.926  31.035  29.074  1.00  0.00     0.251 C 
ATOM     30  H   UNL A   1      34.281  32.009  28.428  1.00  0.00     0.163 HD
ATOM     31  O   UNL A   1      36.321  31.935  29.797  1.00  0.00    -0.269 OA
BRANCH  29  32
ATOM     32  C   UNL A   1      36.759  29.833  28.851  1.00  0.00     0.039 A 
ATOM     33  C   UNL A   1      37.085  29.059  29.969  1.00  0.00     0.014 A 
ATOM     34  C   UNL A   1      37.419  29.655  27.639  1.00  0.00     0.014 A 
ATOM     35  C   UNL A   1      38.232  28.272  29.933  1.00  0.00     0.010 A 
ATOM     36  C   UNL A   1      38.615  28.969  27.639  1.00  0.00     0.010 A 
ATOM     37  C   UNL A   1      39.048  28.323  28.800  1.00  0.00    -0.014 A 
BRANCH  37  38
ATOM     38  C   UNL A   1      40.421  27.834  28.793  1.00  0.00     0.031 A 
ATOM     39  C   UNL A   1      40.726  26.460  28.340  1.00  0.00     0.074 A 
ATOM     40  C   UNL A   1      41.438  28.609  29.228  1.00  0.00     0.049 A 
ATOM     41  N   UNL A   1      41.661  25.733  28.853  1.00  0.00    -0.248 NA
ATOM     42  C   UNL A   1      39.970  25.779  27.293  1.00  0.00     0.031 C 
ATOM     43  C   UNL A   1      42.869  28.334  29.103  1.00  0.00     0.029 A 
ATOM     44  N   UNL A   1      41.392  29.717  30.053  1.00  0.00    -0.354 N 
ATOM     45  C   UNL A   1      41.826  24.646  28.031  1.00  0.00     0.074 A 
ATOM     46  C   UNL A   1      40.698  24.672  27.127  1.00  0.00     0.031 C 
ATOM     47  C   UNL A   1      43.536  29.075  30.001  1.00  0.00     0.029 A 
ATOM     48  C   UNL A   1      42.554  29.758  30.824  1.00  0.00     0.049 A 
ATOM     49  H   UNL A   1      40.659  30.372  30.091  1.00  0.00     0.167 HD
ATOM     50  C   UNL A   1      42.974  23.918  28.075  1.00  0.00     0.034 A 
ATOM     51  C   UNL A   1      42.523  29.738  32.187  1.00  0.00     0.034 A 
ATOM     52  C   UNL A   1      43.942  24.465  29.017  1.00  0.00     0.049 A 
ATOM     53  C   UNL A   1      43.246  28.550  32.786  1.00  0.00     0.074 A 
ATOM     54  C   UNL A   1      45.061  25.264  28.843  1.00  0.00     0.029 A 
ATOM     55  N   UNL A   1      43.677  24.452  30.380  1.00  0.00    -0.354 N 
ATOM     56  N   UNL A   1      43.549  27.466  32.125  1.00  0.00    -0.248 NA
ATOM     57  C   UNL A   1      43.665  28.485  34.180  1.00  0.00     0.031 C 
ATOM     58  C   UNL A   1      45.463  25.741  30.114  1.00  0.00     0.029 A 
ATOM     59  C   UNL A   1      44.602  25.219  31.063  1.00  0.00     0.049 A 
ATOM     60  H   UNL A   1      42.932  23.965  30.802  1.00  0.00     0.167 HD
ATOM     61  C   UNL A   1      44.169  26.569  32.962  1.00  0.00     0.074 A 
ATOM     62  C   UNL A   1      44.230  27.266  34.234  1.00  0.00     0.031 C 
ATOM     63  C   UNL A   1      44.567  25.336  32.516  1.00  0.00     0.034 A 
BRANCH  50  64
ATOM     64  C   UNL A   1      43.318  22.917  27.006  1.00  0.00     0.023 A 
ATOM     65  C   UNL A   1      42.753  21.629  27.045  1.00  0.00     0.031 A 
ATOM     66  C   UNL A   1      44.214  23.167  25.949  1.00  0.00     0.131 A 
ATOM     67  C   UNL A   1      43.149  20.630  26.141  1.00  0.00     0.055 A 
ATOM     68  C   UNL A   1      44.646  22.160  25.076  1.00  0.00     0.041 A 
ATOM     69  F   UNL A   1      44.697  24.400  25.726  1.00  0.00    -0.206 F 
ATOM     70  C   UNL A   1      44.121  20.879  25.177  1.00  0.00     0.022 A 
BRANCH  67  71
ATOM     71  S   UNL A   1      42.367  18.997  26.249  1.00  0.00     0.124 S 
ATOM     72  O   UNL A   1      42.474  18.696  27.674  1.00  0.00    -0.237 OA
ATOM     73  O   UNL A   1      41.024  19.262  25.746  1.00  0.00    -0.237 OA
ATOM     74  O   UNL A   1      43.199  18.165  25.380  1.00  0.00    -0.744 OA
ENDBRANCH  67  71
ENDBRANCH  50  64
BRANCH  51  75
ATOM     75  C   UNL A   1      41.320  30.391  32.769  1.00  0.00     0.023 A 
ATOM     76  C   UNL A   1      41.303  31.801  32.798  1.00  0.00     0.031 A 
ATOM     77  C   UNL A   1      40.101  29.714  32.903  1.00  0.00     0.131 A 
ATOM     78  C   UNL A   1      40.083  32.492  32.800  1.00  0.00     0.055 A 
ATOM     79  C   UNL A   1      38.887  30.411  32.961  1.00  0.00     0.041 A 
ATOM     80  F   UNL A   1      40.053  28.375  32.849  1.00  0.00    -0.206 F 
ATOM     81  C   UNL A   1      38.871  31.803  32.867  1.00  0.00     0.022 A 
BRANCH  78  82
ATOM     82  S   UNL A   1      40.103  34.275  32.446  1.00  0.00     0.124 S 
ATOM     83  O   UNL A   1      41.038  34.353  31.330  1.00  0.00    -0.237 OA
ATOM     84  O   UNL A   1      38.703  34.549  32.130  1.00  0.00    -0.237 OA
ATOM     85  O   UNL A   1      40.559  34.870  33.699  1.00  0.00    -0.744 OA
ENDBRANCH  78  82
ENDBRANCH  51  75
BRANCH  63  86
ATOM     86  C   UNL A   1      45.068  24.167  33.353  1.00  0.00     0.023 A 
ATOM     87  C   UNL A   1      46.345  24.101  33.928  1.00  0.00     0.031 A 
ATOM     88  C   UNL A   1      44.225  23.060  33.647  1.00  0.00     0.131 A 
ATOM     89  C   UNL A   1      46.764  22.982  34.673  1.00  0.00     0.055 A 
ATOM     90  C   UNL A   1      44.622  21.975  34.436  1.00  0.00     0.041 A 
ATOM     91  F   UNL A   1      42.965  22.983  33.197  1.00  0.00    -0.206 F 
ATOM     92  C   UNL A   1      45.907  21.922  34.945  1.00  0.00     0.022 A 
BRANCH  89  93
ATOM     93  S   UNL A   1      48.486  22.925  35.236  1.00  0.00     0.124 S 
ATOM     94  O   UNL A   1      49.080  21.975  34.299  1.00  0.00    -0.237 OA
ATOM     95  O   UNL A   1      48.910  24.313  35.081  1.00  0.00    -0.237 OA
ATOM     96  O   UNL A   1      48.384  22.456  36.616  1.00  0.00    -0.744 OA
ENDBRANCH  89  93
ENDBRANCH  63  86
ENDBRANCH  37  38
ENDBRANCH  29  32
ENDBRANCH  27  28
ENDBRANCH   1  27
TORSDOF 15
ENDMDL
MODEL 2
REMARK VINA RESULT:     -13.9      4.043     10.610
REMARK SMILES Cc1ccc(S(=O)(=O)N2c3ccc(C(=O)NCCCNC(=O)c4ccc(-c5c6nc(c(-c7cc(S(=O)(=O)[O-])ccc7F)c7ccc([nH]7)c(-c7cc(S(=O)(=O)[O-])ccc7F)c7nc(c(-c8cc(S(=O)(=O)[O-])ccc8F)c8ccc5[nH]8)C=C7)C=C6)cc4)cc3C[C@H]2C)cc1
REMARK SMILES IDX 18 1 17 2 16 3 14 4 15 5 13 7 9 8 10 9 89 10 11 11 87 12
REMARK SMILES IDX 88 13 90 14 12 15 86 16 6 17 7 18 8 19 5 20 1 21 2 22 3 23
REMARK SMILES IDX 92 24 4 25 91 26 19 27 20 28 21 29 22 31 23 32 24 33 85 34
REMARK SMILES IDX 25 35 84 36 26 37 27 38 28 39 78 40 29 41 83 42 77 43 79 44
REMARK SMILES IDX 30 45 82 46 76 47 75 48 31 50 63 51 43 52 62 53 44 54 47 55
REMARK SMILES IDX 61 56 80 57 45 58 46 59 60 61 81 62 48 63 32 64 33 65 41 66
REMARK SMILES IDX 34 67 40 68 42 69 39 70 35 71 36 72 37 73 38 74 64 75 65 76
REMARK SMILES IDX 73 77 66 78 72 79 74 80 71 81 67 82 68 83 69 84 70 85 49 86
REMARK SMILES IDX 50 87 58 88 51 89 57 90 59 91 56 92 52 93 53 94 54 95 55 96
REMARK H PARENT 16 6 20 30 79 49 47 60
REMARK Flexibility Score: inf
ROOT
ATOM      1  C   UNL A   1      38.146  21.597  25.617  1.00  0.00     0.042 C 
ENDROOT
BRANCH   1   2
ATOM      2  C   UNL A   1      36.709  21.615  25.089  1.00  0.00     0.118 C 
BRANCH   2   3
ATOM      3  N   UNL A   1      35.742  21.317  26.141  1.00  0.00    -0.352 N 
ATOM      4  C   UNL A   1      34.619  21.956  26.602  1.00  0.00     0.251 C 
ATOM      5  O   UNL A   1      33.966  21.383  27.479  1.00  0.00    -0.269 OA
ATOM      6  H   UNL A   1      35.938  20.481  26.622  1.00  0.00     0.163 HD
BRANCH   4   7
ATOM      7  C   UNL A   1      34.140  23.302  26.143  1.00  0.00     0.040 A 
ATOM      8  N   UNL A   1      32.454  27.094  25.268  1.00  0.00    -0.263 N 
ATOM      9  C   UNL A   1      33.141  25.841  25.492  1.00  0.00     0.055 A 
ATOM     10  C   UNL A   1      31.317  27.063  26.278  1.00  0.00     0.101 C 
ATOM     11  C   UNL A   1      34.362  25.462  24.988  1.00  0.00     0.028 A 
ATOM     12  C   UNL A   1      32.408  24.982  26.304  1.00  0.00    -0.021 A 
ATOM     13  C   UNL A   1      31.087  25.581  26.645  1.00  0.00     0.063 C 
ATOM     14  C   UNL A   1      31.767  27.861  27.511  1.00  0.00     0.032 C 
ATOM     15  C   UNL A   1      34.843  24.185  25.306  1.00  0.00     0.016 A 
ATOM     16  C   UNL A   1      32.889  23.723  26.637  1.00  0.00     0.019 A 
BRANCH   8  17
ATOM     17  S   UNL A   1      31.999  27.258  23.609  1.00  0.00     0.264 S 
ATOM     18  O   UNL A   1      31.505  25.974  23.152  1.00  0.00    -0.201 OA
ATOM     19  O   UNL A   1      33.069  27.945  22.910  1.00  0.00    -0.201 OA
BRANCH  17  20
ATOM     20  C   UNL A   1      30.609  28.372  23.506  1.00  0.00     0.088 A 
ATOM     21  C   UNL A   1      27.596  31.408  23.027  1.00  0.00     0.044 C 
ATOM     22  C   UNL A   1      28.626  30.336  23.228  1.00  0.00    -0.051 A 
ATOM     23  C   UNL A   1      29.799  30.618  23.934  1.00  0.00     0.005 A 
ATOM     24  C   UNL A   1      28.426  29.045  22.726  1.00  0.00     0.005 A 
ATOM     25  C   UNL A   1      30.788  29.643  24.069  1.00  0.00     0.022 A 
ATOM     26  C   UNL A   1      29.408  28.061  22.876  1.00  0.00     0.022 A 
ENDBRANCH  17  20
ENDBRANCH   8  17
ENDBRANCH   4   7
ENDBRANCH   2   3
ENDBRANCH   1   2
BRANCH   1  27
ATOM     27  C   UNL A   1      38.669  22.964  26.017  1.00  0.00     0.118 C 
BRANCH  27  28
ATOM     28  N   UNL A   1      40.105  22.990  26.285  1.00  0.00    -0.352 N 
ATOM     29  C   UNL A   1      40.886  24.056  26.699  1.00  0.00     0.251 C 
ATOM     30  H   UNL A   1      40.580  22.138  26.154  1.00  0.00     0.163 HD
ATOM     31  O   UNL A   1      42.095  23.952  26.829  1.00  0.00    -0.269 OA
BRANCH  29  32
ATOM     32  C   UNL A   1      40.195  25.304  27.091  1.00  0.00     0.039 A 
ATOM     33  C   UNL A   1      40.545  26.475  26.412  1.00  0.00     0.014 A 
ATOM     34  C   UNL A   1      39.456  25.352  28.269  1.00  0.00     0.014 A 
ATOM     35  C   UNL A   1      40.353  27.702  27.041  1.00  0.00     0.010 A 
ATOM     36  C   UNL A   1      39.371  26.554  28.941  1.00  0.00     0.010 A 
ATOM     37  C   UNL A   1      39.868  27.720  28.350  1.00  0.00    -0.014 A 
BRANCH  37  38
ATOM     38  C   UNL A   1      39.964  28.889  29.213  1.00  0.00     0.031 A 
ATOM     39  C   UNL A   1      38.889  29.903  29.225  1.00  0.00     0.074 A 
ATOM     40  C   UNL A   1      41.048  29.092  29.994  1.00  0.00     0.049 A 
ATOM     41  N   UNL A   1      39.102  31.166  29.384  1.00  0.00    -0.248 NA
ATOM     42  C   UNL A   1      37.481  29.575  29.020  1.00  0.00     0.031 C 
ATOM     43  C   UNL A   1      41.201  30.101  31.041  1.00  0.00     0.029 A 
ATOM     44  N   UNL A   1      42.317  28.555  29.873  1.00  0.00    -0.354 N 
ATOM     45  C   UNL A   1      37.883  31.760  29.599  1.00  0.00     0.074 A 
ATOM     46  C   UNL A   1      36.900  30.750  29.278  1.00  0.00     0.031 C 
ATOM     47  C   UNL A   1      42.509  30.281  31.285  1.00  0.00     0.029 A 
ATOM     48  C   UNL A   1      43.250  29.491  30.319  1.00  0.00     0.049 A 
ATOM     49  H   UNL A   1      42.527  27.657  29.528  1.00  0.00     0.167 HD
ATOM     50  C   UNL A   1      37.808  32.986  30.183  1.00  0.00     0.034 A 
ATOM     51  C   UNL A   1      44.244  29.965  29.515  1.00  0.00     0.034 A 
ATOM     52  C   UNL A   1      39.119  33.502  30.561  1.00  0.00     0.049 A 
ATOM     53  C   UNL A   1      44.183  31.464  29.307  1.00  0.00     0.074 A 
ATOM     54  C   UNL A   1      39.793  33.532  31.772  1.00  0.00     0.029 A 
ATOM     55  N   UNL A   1      40.050  33.830  29.585  1.00  0.00    -0.354 N 
ATOM     56  N   UNL A   1      43.127  32.194  29.536  1.00  0.00    -0.248 NA
ATOM     57  C   UNL A   1      45.304  32.251  28.808  1.00  0.00     0.031 C 
ATOM     58  C   UNL A   1      41.142  33.876  31.516  1.00  0.00     0.029 A 
ATOM     59  C   UNL A   1      41.287  34.071  30.154  1.00  0.00     0.049 A 
ATOM     60  H   UNL A   1      39.856  33.884  28.621  1.00  0.00     0.167 HD
ATOM     61  C   UNL A   1      43.389  33.505  29.217  1.00  0.00     0.074 A 
ATOM     62  C   UNL A   1      44.774  33.485  28.780  1.00  0.00     0.031 C 
ATOM     63  C   UNL A   1      42.429  34.475  29.343  1.00  0.00     0.034 A 
BRANCH  50  64
ATOM     64  C   UNL A   1      36.510  33.538  30.703  1.00  0.00     0.023 A 
ATOM     65  C   UNL A   1      35.618  34.178  29.821  1.00  0.00     0.031 A 
ATOM     66  C   UNL A   1      36.114  33.489  32.053  1.00  0.00     0.131 A 
ATOM     67  C   UNL A   1      34.460  34.817  30.291  1.00  0.00     0.055 A 
ATOM     68  C   UNL A   1      34.984  34.164  32.531  1.00  0.00     0.041 A 
ATOM     69  F   UNL A   1      36.810  32.776  32.954  1.00  0.00    -0.206 F 
ATOM     70  C   UNL A   1      34.155  34.845  31.649  1.00  0.00     0.022 A 
BRANCH  67  71
ATOM     71  S   UNL A   1      33.355  35.612  29.091  1.00  0.00     0.124 S 
ATOM     72  O   UNL A   1      32.645  34.470  28.521  1.00  0.00    -0.237 OA
ATOM     73  O   UNL A   1      32.569  36.503  29.937  1.00  0.00    -0.237 OA
ATOM     74  O   UNL A   1      34.277  36.283  28.176  1.00  0.00    -0.744 OA
ENDBRANCH  67  71
ENDBRANCH  50  64
BRANCH  51  75
ATOM     75  C   UNL A   1      44.724  28.979  28.510  1.00  0.00     0.023 A 
ATOM     76  C   UNL A   1      45.554  27.937  28.973  1.00  0.00     0.031 A 
ATOM     77  C   UNL A   1      44.089  28.815  27.271  1.00  0.00     0.131 A 
ATOM     78  C   UNL A   1      45.606  26.718  28.284  1.00  0.00     0.055 A 
ATOM     79  C   UNL A   1      44.189  27.613  26.559  1.00  0.00     0.041 A 
ATOM     80  F   UNL A   1      43.263  29.758  26.796  1.00  0.00    -0.206 F 
ATOM     81  C   UNL A   1      44.915  26.543  27.084  1.00  0.00     0.022 A 
BRANCH  78  82
ATOM     82  S   UNL A   1      46.368  25.292  29.117  1.00  0.00     0.124 S 
ATOM     83  O   UNL A   1      45.983  24.189  28.245  1.00  0.00    -0.237 OA
ATOM     84  O   UNL A   1      47.785  25.647  29.115  1.00  0.00    -0.237 OA
ATOM     85  O   UNL A   1      45.753  25.298  30.442  1.00  0.00    -0.744 OA
ENDBRANCH  78  82
ENDBRANCH  51  75
BRANCH  63  86
ATOM     86  C   UNL A   1      42.494  35.911  28.841  1.00  0.00     0.023 A 
ATOM     87  C   UNL A   1      43.074  36.969  29.555  1.00  0.00     0.031 A 
ATOM     88  C   UNL A   1      41.994  36.262  27.557  1.00  0.00     0.131 A 
ATOM     89  C   UNL A   1      43.082  38.284  29.051  1.00  0.00     0.055 A 
ATOM     90  C   UNL A   1      42.055  37.558  27.032  1.00  0.00     0.041 A 
ATOM     91  F   UNL A   1      41.434  35.361  26.737  1.00  0.00    -0.206 F 
ATOM     92  C   UNL A   1      42.590  38.586  27.787  1.00  0.00     0.022 A 
BRANCH  89  93
ATOM     93  S   UNL A   1      43.712  39.605  30.121  1.00  0.00     0.124 S 
ATOM     94  O   UNL A   1      42.611  40.565  30.096  1.00  0.00    -0.237 OA
ATOM     95  O   UNL A   1      43.915  38.910  31.388  1.00  0.00    -0.237 OA
ATOM     96  O   UNL A   1      44.933  40.044  29.448  1.00  0.00    -0.744 OA
ENDBRANCH  89  93
ENDBRANCH  63  86
ENDBRANCH  37  38
ENDBRANCH  29  32
ENDBRANCH  27  28
ENDBRANCH   1  27
TORSDOF 15
ENDMDL
MODEL 3
REMARK VINA RESULT:     -13.7      2.070      2.489
REMARK SMILES Cc1ccc(S(=O)(=O)N2c3ccc(C(=O)NCCCNC(=O)c4ccc(-c5c6nc(c(-c7cc(S(=O)(=O)[O-])ccc7F)c7ccc([nH]7)c(-c7cc(S(=O)(=O)[O-])ccc7F)c7nc(c(-c8cc(S(=O)(=O)[O-])ccc8F)c8ccc5[nH]8)C=C7)C=C6)cc4)cc3C[C@H]2C)cc1
REMARK SMILES IDX 18 1 17 2 16 3 14 4 15 5 13 7 9 8 10 9 89 10 11 11 87 12
REMARK SMILES IDX 88 13 90 14 12 15 86 16 6 17 7 18 8 19 5 20 1 21 2 22 3 23
REMARK SMILES IDX 92 24 4 25 91 26 19 27 20 28 21 29 22 31 23 32 24 33 85 34
REMARK SMILES IDX 25 35 84 36 26 37 27 38 28 39 78 40 29 41 83 42 77 43 79 44
REMARK SMILES IDX 30 45 82 46 76 47 75 48 31 50 63 51 43 52 62 53 44 54 47 55
REMARK SMILES IDX 61 56 80 57 45 58 46 59 60 61 81 62 48 63 32 64 33 65 41 66
REMARK SMILES IDX 34 67 40 68 42 69 39 70 35 71 36 72 37 73 38 74 64 75 65 76
REMARK SMILES IDX 73 77 66 78 72 79 74 80 71 81 67 82 68 83 69 84 70 85 49 86
REMARK SMILES IDX 50 87 58 88 51 89 57 90 59 91 56 92 52 93 53 94 54 95 55 96
REMARK H PARENT 16 6 20 30 79 49 47 60
REMARK Flexibility Score: inf
ROOT
ATOM      1  C   UNL A   1      32.371  30.660  26.723  1.00  0.00     0.042 C 
ENDROOT
BRANCH   1   2
ATOM      2  C   UNL A   1      31.997  29.720  25.574  1.00  0.00     0.118 C 
BRANCH   2   3
ATOM      3  N   UNL A   1      33.044  29.665  24.558  1.00  0.00    -0.352 N 
ATOM      4  C   UNL A   1      33.514  28.672  23.737  1.00  0.00     0.251 C 
ATOM      5  O   UNL A   1      34.381  28.985  22.915  1.00  0.00    -0.269 OA
ATOM      6  H   UNL A   1      33.511  30.524  24.437  1.00  0.00     0.163 HD
BRANCH   4   7
ATOM      7  C   UNL A   1      33.076  27.238  23.777  1.00  0.00     0.040 A 
ATOM      8  N   UNL A   1      31.821  23.238  24.426  1.00  0.00    -0.263 N 
ATOM      9  C   UNL A   1      32.197  24.591  24.075  1.00  0.00     0.055 A 
ATOM     10  C   UNL A   1      31.969  23.208  25.940  1.00  0.00     0.101 C 
ATOM     11  C   UNL A   1      32.038  25.207  22.857  1.00  0.00     0.028 A 
ATOM     12  C   UNL A   1      32.788  25.260  25.140  1.00  0.00    -0.021 A 
ATOM     13  C   UNL A   1      32.931  24.357  26.316  1.00  0.00     0.063 C 
ATOM     14  C   UNL A   1      30.579  23.446  26.549  1.00  0.00     0.032 C 
ATOM     15  C   UNL A   1      32.496  26.524  22.715  1.00  0.00     0.016 A 
ATOM     16  C   UNL A   1      33.227  26.571  25.010  1.00  0.00     0.019 A 
BRANCH   8  17
ATOM     17  S   UNL A   1      32.761  22.090  23.542  1.00  0.00     0.264 S 
ATOM     18  O   UNL A   1      32.834  22.537  22.165  1.00  0.00    -0.201 OA
ATOM     19  O   UNL A   1      32.288  20.760  23.877  1.00  0.00    -0.201 OA
BRANCH  17  20
ATOM     20  C   UNL A   1      34.438  22.136  24.150  1.00  0.00     0.088 A 
ATOM     21  C   UNL A   1      38.505  21.722  25.498  1.00  0.00     0.044 C 
ATOM     22  C   UNL A   1      37.082  21.896  25.057  1.00  0.00    -0.051 A 
ATOM     23  C   UNL A   1      36.078  21.088  25.599  1.00  0.00     0.005 A 
ATOM     24  C   UNL A   1      36.738  22.870  24.113  1.00  0.00     0.005 A 
ATOM     25  C   UNL A   1      34.764  21.203  25.145  1.00  0.00     0.022 A 
ATOM     26  C   UNL A   1      35.417  22.999  23.670  1.00  0.00     0.022 A 
ENDBRANCH  17  20
ENDBRANCH   8  17
ENDBRANCH   4   7
ENDBRANCH   2   3
ENDBRANCH   1   2
BRANCH   1  27
ATOM     27  C   UNL A   1      33.533  30.167  27.566  1.00  0.00     0.118 C 
BRANCH  27  28
ATOM     28  N   UNL A   1      34.225  31.229  28.293  1.00  0.00    -0.352 N 
ATOM     29  C   UNL A   1      35.445  31.173  28.947  1.00  0.00     0.251 C 
ATOM     30  H   UNL A   1      33.763  32.098  28.323  1.00  0.00     0.163 HD
ATOM     31  O   UNL A   1      35.881  32.125  29.570  1.00  0.00    -0.269 OA
BRANCH  29  32
ATOM     32  C   UNL A   1      36.264  29.952  28.771  1.00  0.00     0.039 A 
ATOM     33  C   UNL A   1      36.780  29.353  29.925  1.00  0.00     0.014 A 
ATOM     34  C   UNL A   1      36.731  29.600  27.509  1.00  0.00     0.014 A 
ATOM     35  C   UNL A   1      37.927  28.572  29.822  1.00  0.00     0.010 A 
ATOM     36  C   UNL A   1      37.931  28.925  27.420  1.00  0.00     0.010 A 
ATOM     37  C   UNL A   1      38.556  28.458  28.580  1.00  0.00    -0.014 A 
BRANCH  37  38
ATOM     38  C   UNL A   1      39.923  27.977  28.427  1.00  0.00     0.031 A 
ATOM     39  C   UNL A   1      40.200  26.531  28.308  1.00  0.00     0.074 A 
ATOM     40  C   UNL A   1      40.966  28.835  28.423  1.00  0.00     0.049 A 
ATOM     41  N   UNL A   1      41.252  25.965  28.797  1.00  0.00    -0.248 NA
ATOM     42  C   UNL A   1      39.289  25.594  27.657  1.00  0.00     0.031 C 
ATOM     43  C   UNL A   1      42.356  28.528  28.090  1.00  0.00     0.029 A 
ATOM     44  N   UNL A   1      41.028  30.127  28.912  1.00  0.00    -0.354 N 
ATOM     45  C   UNL A   1      41.307  24.694  28.281  1.00  0.00     0.074 A 
ATOM     46  C   UNL A   1      40.024  24.479  27.650  1.00  0.00     0.031 C 
ATOM     47  C   UNL A   1      43.149  29.482  28.602  1.00  0.00     0.029 A 
ATOM     48  C   UNL A   1      42.315  30.369  29.392  1.00  0.00     0.049 A 
ATOM     49  H   UNL A   1      40.285  30.772  28.919  1.00  0.00     0.167 HD
ATOM     50  C   UNL A   1      42.476  23.998  28.286  1.00  0.00     0.034 A 
ATOM     51  C   UNL A   1      42.553  30.722  30.688  1.00  0.00     0.034 A 
ATOM     52  C   UNL A   1      43.582  24.776  28.831  1.00  0.00     0.049 A 
ATOM     53  C   UNL A   1      43.437  29.738  31.424  1.00  0.00     0.074 A 
ATOM     54  C   UNL A   1      44.604  25.491  28.227  1.00  0.00     0.029 A 
ATOM     55  N   UNL A   1      43.589  25.137  30.172  1.00  0.00    -0.354 N 
ATOM     56  N   UNL A   1      43.658  28.513  31.032  1.00  0.00    -0.248 NA
ATOM     57  C   UNL A   1      44.124  30.054  32.671  1.00  0.00     0.031 C 
ATOM     58  C   UNL A   1      45.223  26.293  29.214  1.00  0.00     0.029 A 
ATOM     59  C   UNL A   1      44.592  26.055  30.422  1.00  0.00     0.049 A 
ATOM     60  H   UNL A   1      42.967  24.788  30.850  1.00  0.00     0.167 HD
ATOM     61  C   UNL A   1      44.474  27.875  31.936  1.00  0.00     0.074 A 
ATOM     62  C   UNL A   1      44.748  28.893  32.935  1.00  0.00     0.031 C 
ATOM     63  C   UNL A   1      44.836  26.565  31.766  1.00  0.00     0.034 A 
BRANCH  50  64
ATOM     64  C   UNL A   1      42.653  22.741  27.479  1.00  0.00     0.023 A 
ATOM     65  C   UNL A   1      43.692  22.658  26.534  1.00  0.00     0.031 A 
ATOM     66  C   UNL A   1      41.815  21.615  27.577  1.00  0.00     0.131 A 
ATOM     67  C   UNL A   1      43.810  21.554  25.673  1.00  0.00     0.055 A 
ATOM     68  C   UNL A   1      41.901  20.534  26.690  1.00  0.00     0.041 A 
ATOM     69  F   UNL A   1      40.887  21.522  28.543  1.00  0.00    -0.206 F 
ATOM     70  C   UNL A   1      42.896  20.505  25.722  1.00  0.00     0.022 A 
BRANCH  67  71
ATOM     71  S   UNL A   1      45.183  21.515  24.488  1.00  0.00     0.124 S 
ATOM     72  O   UNL A   1      44.747  20.490  23.544  1.00  0.00    -0.237 OA
ATOM     73  O   UNL A   1      45.201  22.885  23.990  1.00  0.00    -0.237 OA
ATOM     74  O   UNL A   1      46.331  21.143  25.314  1.00  0.00    -0.744 OA
ENDBRANCH  67  71
ENDBRANCH  50  64
BRANCH  51  75
ATOM     75  C   UNL A   1      41.457  31.517  31.303  1.00  0.00     0.023 A 
ATOM     76  C   UNL A   1      40.525  30.821  32.102  1.00  0.00     0.031 A 
ATOM     77  C   UNL A   1      41.544  32.908  31.452  1.00  0.00     0.131 A 
ATOM     78  C   UNL A   1      39.830  31.490  33.119  1.00  0.00     0.055 A 
ATOM     79  C   UNL A   1      40.804  33.580  32.435  1.00  0.00     0.041 A 
ATOM     80  F   UNL A   1      42.435  33.617  30.745  1.00  0.00    -0.206 F 
ATOM     81  C   UNL A   1      39.975  32.866  33.301  1.00  0.00     0.022 A 
BRANCH  78  82
ATOM     82  S   UNL A   1      38.949  30.492  34.357  1.00  0.00     0.124 S 
ATOM     83  O   UNL A   1      37.708  31.237  34.522  1.00  0.00    -0.237 OA
ATOM     84  O   UNL A   1      38.836  29.195  33.694  1.00  0.00    -0.237 OA
ATOM     85  O   UNL A   1      39.849  30.497  35.507  1.00  0.00    -0.744 OA
ENDBRANCH  78  82
ENDBRANCH  51  75
BRANCH  63  86
ATOM     86  C   UNL A   1      45.549  25.666  32.768  1.00  0.00     0.023 A 
ATOM     87  C   UNL A   1      44.926  24.629  33.476  1.00  0.00     0.031 A 
ATOM     88  C   UNL A   1      46.942  25.803  33.015  1.00  0.00     0.131 A 
ATOM     89  C   UNL A   1      45.630  23.845  34.411  1.00  0.00     0.055 A 
ATOM     90  C   UNL A   1      47.654  24.986  33.900  1.00  0.00     0.041 A 
ATOM     91  F   UNL A   1      47.690  26.728  32.396  1.00  0.00    -0.206 F 
ATOM     92  C   UNL A   1      46.995  24.005  34.619  1.00  0.00     0.022 A 
BRANCH  89  93
ATOM     93  S   UNL A   1      44.697  22.637  35.389  1.00  0.00     0.124 S 
ATOM     94  O   UNL A   1      43.339  23.170  35.311  1.00  0.00    -0.237 OA
ATOM     95  O   UNL A   1      44.932  21.396  34.658  1.00  0.00    -0.237 OA
ATOM     96  O   UNL A   1      45.318  22.708  36.711  1.00  0.00    -0.744 OA
ENDBRANCH  89  93
ENDBRANCH  63  86
ENDBRANCH  37  38
ENDBRANCH  29  32
ENDBRANCH  27  28
ENDBRANCH   1  27
TORSDOF 15
ENDMDL
