MODEL 1
REMARK VINA RESULT:     -13.5      0.000      0.000
REMARK SMILES Cc1c(CC(=O)N[C@H](CO)C(=O)NCCCNC(=O)c2ccc(-c3c4nc(c(-c5cc(S(=O)(=O)[O-])ccc5F)c5ccc([nH]5)c(-c5cc(S(=O)(=O)[O-])ccc5F)c5nc(c(-c6cc(S(=O)(=O)[O-])ccc6F)c6ccc3[nH]6)C=C5)C=C4)cc2)cc(-c2ccc(S(C)(=O)=O)cc2)n1-c1ccc(F)cc1
REMARK SMILES IDX 14 1 13 2 11 3 12 4 8 6 7 7 5 8 6 9 4 11 3 12 1 13 2 14
REMARK SMILES IDX 95 15 83 16 84 17 96 18 97 19 102 20 98 21 101 22 99 23
REMARK SMILES IDX 100 24 85 25 86 26 94 27 87 28 93 29 88 30 89 31 90 32 91 33
REMARK SMILES IDX 92 34 9 35 10 36 15 38 16 39 17 40 18 41 19 43 20 44 21 45
REMARK SMILES IDX 82 46 22 47 81 48 23 49 24 50 25 51 75 52 26 53 80 54 74 55
REMARK SMILES IDX 76 56 27 57 79 58 73 59 72 60 28 62 60 63 40 64 59 65 41 66
REMARK SMILES IDX 44 67 58 68 77 69 42 70 43 71 57 73 78 74 45 75 29 76 30 77
REMARK SMILES IDX 38 78 31 79 37 80 39 81 36 82 32 83 33 84 34 85 35 86 61 87
REMARK SMILES IDX 62 88 70 89 63 90 69 91 71 92 68 93 64 94 65 95 66 96 67 97
REMARK SMILES IDX 46 98 47 99 55 100 48 101 54 102 56 103 53 104 49 105 50 106
REMARK SMILES IDX 51 107 52 108
REMARK H PARENT 13 5 7 10 10 37 17 42 76 61 44 72
REMARK Flexibility Score: inf
ROOT
ATOM      1  C   UNL A   1      32.918  29.722  25.362  1.00  0.00     0.117 C 
ENDROOT
BRANCH   1   2
ATOM      2  N   UNL A   1      31.565  30.172  25.105  1.00  0.00    -0.354 N 
ATOM      3  C   UNL A   1      30.628  29.686  24.245  1.00  0.00     0.244 C 
ATOM      4  O   UNL A   1      29.988  30.528  23.608  1.00  0.00    -0.273 OA
ATOM      5  H   UNL A   1      31.279  30.951  25.635  1.00  0.00     0.163 HD
BRANCH   3   6
ATOM      6  C   UNL A   1      30.419  28.184  23.971  1.00  0.00     0.197 C 
BRANCH   6   7
ATOM      7  N   UNL A   1      30.341  27.365  25.186  1.00  0.00    -0.342 N 
ATOM      8  C   UNL A   1      30.315  26.005  25.301  1.00  0.00     0.225 C 
ATOM      9  O   UNL A   1      30.294  25.529  26.439  1.00  0.00    -0.275 OA
ATOM     10  H   UNL A   1      30.300  27.864  26.034  1.00  0.00     0.164 HD
BRANCH   8  11
ATOM     11  C   UNL A   1      30.378  25.104  24.073  1.00  0.00     0.137 C 
BRANCH  11  12
ATOM     12  C   UNL A   1      31.458  24.068  24.133  1.00  0.00    -0.017 A 
ATOM     13  C   UNL A   1      33.564  25.560  24.261  1.00  0.00     0.065 C 
ATOM     14  C   UNL A   1      32.828  24.259  24.282  1.00  0.00     0.024 A 
ATOM     15  N   UNL A   1      33.438  23.006  24.365  1.00  0.00    -0.314 N 
ATOM     16  C   UNL A   1      31.254  22.671  24.009  1.00  0.00     0.033 A 
ATOM     17  C   UNL A   1      32.462  22.024  24.197  1.00  0.00     0.053 A 
BRANCH  15  18
ATOM     18  C   UNL A   1      34.824  22.753  24.567  1.00  0.00     0.046 A 
ATOM     19  C   UNL A   1      35.302  22.528  25.866  1.00  0.00     0.029 A 
ATOM     20  C   UNL A   1      35.709  22.781  23.481  1.00  0.00     0.029 A 
ATOM     21  C   UNL A   1      36.663  22.312  26.073  1.00  0.00     0.041 A 
ATOM     22  C   UNL A   1      37.072  22.577  23.699  1.00  0.00     0.041 A 
ATOM     23  C   UNL A   1      37.535  22.339  24.990  1.00  0.00     0.123 A 
ATOM     24  F   UNL A   1      38.842  22.130  25.193  1.00  0.00    -0.207 F 
ENDBRANCH  15  18
BRANCH  17  25
ATOM     25  C   UNL A   1      32.658  20.577  24.376  1.00  0.00    -0.001 A 
ATOM     26  C   UNL A   1      32.805  19.727  23.268  1.00  0.00     0.011 A 
ATOM     27  C   UNL A   1      32.763  20.038  25.664  1.00  0.00     0.011 A 
ATOM     28  C   UNL A   1      33.028  18.358  23.438  1.00  0.00     0.021 A 
ATOM     29  C   UNL A   1      32.984  18.671  25.844  1.00  0.00     0.021 A 
ATOM     30  C   UNL A   1      33.107  17.836  24.731  1.00  0.00     0.067 A 
BRANCH  30  31
ATOM     31  S   UNL A   1      33.453  16.104  24.949  1.00  0.00     0.175 S 
ATOM     32  C   UNL A   1      31.974  15.440  25.670  1.00  0.00     0.163 C 
ATOM     33  O   UNL A   1      33.646  15.551  23.639  1.00  0.00    -0.224 OA
ATOM     34  O   UNL A   1      34.505  16.013  25.966  1.00  0.00    -0.224 OA
ENDBRANCH  30  31
ENDBRANCH  17  25
ENDBRANCH  11  12
ENDBRANCH   8  11
ENDBRANCH   6   7
BRANCH   6  35
ATOM     35  C   UNL A   1      31.477  27.632  23.007  1.00  0.00     0.191 C 
BRANCH  35  36
ATOM     36  O   UNL A   1      31.001  27.471  21.675  1.00  0.00    -0.394 OA
ATOM     37  H   UNL A   1      30.317  26.782  21.658  1.00  0.00     0.210 HD
ENDBRANCH  35  36
ENDBRANCH   6  35
ENDBRANCH   3   6
ENDBRANCH   1   2
BRANCH   1  38
ATOM     38  C   UNL A   1      33.204  29.549  26.866  1.00  0.00     0.042 C 
BRANCH  38  39
ATOM     39  C   UNL A   1      34.632  29.862  27.357  1.00  0.00     0.118 C 
BRANCH  39  40
ATOM     40  N   UNL A   1      34.737  31.027  28.203  1.00  0.00    -0.352 N 
ATOM     41  C   UNL A   1      35.895  31.563  28.744  1.00  0.00     0.251 C 
ATOM     42  H   UNL A   1      33.897  31.490  28.420  1.00  0.00     0.163 HD
ATOM     43  O   UNL A   1      35.781  32.548  29.469  1.00  0.00    -0.269 OA
BRANCH  41  44
ATOM     44  C   UNL A   1      37.234  30.906  28.547  1.00  0.00     0.039 A 
ATOM     45  C   UNL A   1      37.331  29.928  27.575  1.00  0.00     0.014 A 
ATOM     46  C   UNL A   1      38.347  31.077  29.392  1.00  0.00     0.014 A 
ATOM     47  C   UNL A   1      38.525  29.176  27.437  1.00  0.00     0.010 A 
ATOM     48  C   UNL A   1      39.531  30.236  29.303  1.00  0.00     0.010 A 
ATOM     49  C   UNL A   1      39.655  29.225  28.335  1.00  0.00    -0.014 A 
BRANCH  49  50
ATOM     50  C   UNL A   1      40.565  27.907  28.395  1.00  0.00     0.031 A 
ATOM     51  C   UNL A   1      41.401  28.125  29.618  1.00  0.00     0.074 A 
ATOM     52  C   UNL A   1      40.873  26.739  27.702  1.00  0.00     0.049 A 
ATOM     53  N   UNL A   1      42.120  29.207  29.752  1.00  0.00    -0.248 NA
ATOM     54  C   UNL A   1      41.129  27.414  30.871  1.00  0.00     0.031 C 
ATOM     55  C   UNL A   1      40.360  26.294  26.398  1.00  0.00     0.029 A 
ATOM     56  N   UNL A   1      41.735  25.638  28.012  1.00  0.00    -0.354 N 
ATOM     57  C   UNL A   1      42.631  29.176  31.025  1.00  0.00     0.074 A 
ATOM     58  C   UNL A   1      41.808  28.192  31.720  1.00  0.00     0.031 C 
ATOM     59  C   UNL A   1      40.775  25.027  26.098  1.00  0.00     0.029 A 
ATOM     60  C   UNL A   1      41.668  24.499  27.130  1.00  0.00     0.049 A 
ATOM     61  H   UNL A   1      42.342  25.657  28.786  1.00  0.00     0.167 HD
ATOM     62  C   UNL A   1      43.977  29.363  31.154  1.00  0.00     0.034 A 
ATOM     63  C   UNL A   1      42.311  23.261  27.166  1.00  0.00     0.034 A 
ATOM     64  C   UNL A   1      44.667  28.110  31.299  1.00  0.00     0.049 A 
ATOM     65  C   UNL A   1      43.538  23.421  27.949  1.00  0.00     0.074 A 
ATOM     66  C   UNL A   1      44.451  27.001  32.092  1.00  0.00     0.029 A 
ATOM     67  N   UNL A   1      45.406  27.684  30.212  1.00  0.00    -0.354 N 
ATOM     68  N   UNL A   1      44.583  24.023  27.476  1.00  0.00    -0.248 NA
ATOM     69  C   UNL A   1      43.683  22.873  29.294  1.00  0.00     0.031 C 
ATOM     70  C   UNL A   1      44.572  25.910  31.199  1.00  0.00     0.029 A 
ATOM     71  C   UNL A   1      45.208  26.331  30.035  1.00  0.00     0.049 A 
ATOM     72  H   UNL A   1      45.981  28.255  29.653  1.00  0.00     0.167 HD
ATOM     73  C   UNL A   1      45.228  24.415  28.606  1.00  0.00     0.074 A 
ATOM     74  C   UNL A   1      44.839  23.455  29.621  1.00  0.00     0.031 C 
ATOM     75  C   UNL A   1      45.491  25.740  28.740  1.00  0.00     0.034 A 
BRANCH  62  76
ATOM     76  C   UNL A   1      44.550  30.528  30.399  1.00  0.00     0.023 A 
ATOM     77  C   UNL A   1      44.258  30.658  29.035  1.00  0.00     0.031 A 
ATOM     78  C   UNL A   1      45.397  31.492  30.984  1.00  0.00     0.131 A 
ATOM     79  C   UNL A   1      44.855  31.689  28.289  1.00  0.00     0.055 A 
ATOM     80  C   UNL A   1      46.033  32.476  30.231  1.00  0.00     0.041 A 
ATOM     81  F   UNL A   1      45.582  31.530  32.313  1.00  0.00    -0.206 F 
ATOM     82  C   UNL A   1      45.769  32.574  28.871  1.00  0.00     0.022 A 
BRANCH  79  83
ATOM     83  S   UNL A   1      44.369  31.901  26.556  1.00  0.00     0.124 S 
ATOM     84  O   UNL A   1      43.816  33.253  26.548  1.00  0.00    -0.237 OA
ATOM     85  O   UNL A   1      45.640  31.738  25.854  1.00  0.00    -0.237 OA
ATOM     86  O   UNL A   1      43.399  30.831  26.331  1.00  0.00    -0.744 OA
ENDBRANCH  79  83
ENDBRANCH  62  76
BRANCH  63  87
ATOM     87  C   UNL A   1      42.254  21.836  26.572  1.00  0.00     0.023 A 
ATOM     88  C   UNL A   1      43.344  21.277  25.796  1.00  0.00     0.031 A 
ATOM     89  C   UNL A   1      41.347  20.892  27.067  1.00  0.00     0.131 A 
ATOM     90  C   UNL A   1      43.510  19.876  25.602  1.00  0.00     0.055 A 
ATOM     91  C   UNL A   1      41.506  19.502  26.857  1.00  0.00     0.041 A 
ATOM     92  F   UNL A   1      40.340  21.276  27.865  1.00  0.00    -0.206 F 
ATOM     93  C   UNL A   1      42.590  18.989  26.145  1.00  0.00     0.022 A 
BRANCH  90  94
ATOM     94  S   UNL A   1      45.015  19.165  24.806  1.00  0.00     0.124 S 
ATOM     95  O   UNL A   1      46.013  20.209  24.999  1.00  0.00    -0.237 OA
ATOM     96  O   UNL A   1      45.218  17.923  25.546  1.00  0.00    -0.237 OA
ATOM     97  O   UNL A   1      44.605  18.967  23.413  1.00  0.00    -0.744 OA
ENDBRANCH  90  94
ENDBRANCH  63  87
BRANCH  75  98
ATOM     98  C   UNL A   1      45.874  26.502  27.467  1.00  0.00     0.023 A 
ATOM     99  C   UNL A   1      47.119  26.415  26.781  1.00  0.00     0.031 A 
ATOM    100  C   UNL A   1      44.966  27.451  26.974  1.00  0.00     0.131 A 
ATOM    101  C   UNL A   1      47.433  27.287  25.716  1.00  0.00     0.055 A 
ATOM    102  C   UNL A   1      45.257  28.284  25.889  1.00  0.00     0.041 A 
ATOM    103  F   UNL A   1      43.765  27.601  27.557  1.00  0.00    -0.206 F 
ATOM    104  C   UNL A   1      46.500  28.220  25.269  1.00  0.00     0.022 A 
BRANCH 101 105
ATOM    105  S   UNL A   1      49.098  27.273  24.962  1.00  0.00     0.124 S 
ATOM    106  O   UNL A   1      48.939  28.105  23.775  1.00  0.00    -0.237 OA
ATOM    107  O   UNL A   1      49.937  27.827  26.021  1.00  0.00    -0.237 OA
ATOM    108  O   UNL A   1      49.333  25.856  24.681  1.00  0.00    -0.744 OA
ENDBRANCH 101 105
ENDBRANCH  75  98
ENDBRANCH  49  50
ENDBRANCH  41  44
ENDBRANCH  39  40
ENDBRANCH  38  39
ENDBRANCH   1  38
TORSDOF 21
ENDMDL
MODEL 2
REMARK VINA RESULT:     -13.1      2.039      2.767
REMARK SMILES Cc1c(CC(=O)N[C@H](CO)C(=O)NCCCNC(=O)c2ccc(-c3c4nc(c(-c5cc(S(=O)(=O)[O-])ccc5F)c5ccc([nH]5)c(-c5cc(S(=O)(=O)[O-])ccc5F)c5nc(c(-c6cc(S(=O)(=O)[O-])ccc6F)c6ccc3[nH]6)C=C5)C=C4)cc2)cc(-c2ccc(S(C)(=O)=O)cc2)n1-c1ccc(F)cc1
REMARK SMILES IDX 14 1 13 2 11 3 12 4 8 6 7 7 5 8 6 9 4 11 3 12 1 13 2 14
REMARK SMILES IDX 95 15 83 16 84 17 96 18 97 19 102 20 98 21 101 22 99 23
REMARK SMILES IDX 100 24 85 25 86 26 94 27 87 28 93 29 88 30 89 31 90 32 91 33
REMARK SMILES IDX 92 34 9 35 10 36 15 38 16 39 17 40 18 41 19 43 20 44 21 45
REMARK SMILES IDX 82 46 22 47 81 48 23 49 24 50 25 51 75 52 26 53 80 54 74 55
REMARK SMILES IDX 76 56 27 57 79 58 73 59 72 60 28 62 60 63 40 64 59 65 41 66
REMARK SMILES IDX 44 67 58 68 77 69 42 70 43 71 57 73 78 74 45 75 29 76 30 77
REMARK SMILES IDX 38 78 31 79 37 80 39 81 36 82 32 83 33 84 34 85 35 86 61 87
REMARK SMILES IDX 62 88 70 89 63 90 69 91 71 92 68 93 64 94 65 95 66 96 67 97
REMARK SMILES IDX 46 98 47 99 55 100 48 101 54 102 56 103 53 104 49 105 50 106
REMARK SMILES IDX 51 107 52 108
REMARK H PARENT 13 5 7 10 10 37 17 42 76 61 44 72
REMARK Flexibility Score: inf
ROOT
ATOM      1  C   UNL A   1      33.729  29.730  26.135  1.00  0.00     0.117 C 
ENDROOT
BRANCH   1   2
ATOM      2  N   UNL A   1      32.325  29.988  25.886  1.00  0.00    -0.354 N 
ATOM      3  C   UNL A   1      31.380  29.207  25.294  1.00  0.00     0.244 C 
ATOM      4  O   UNL A   1      30.622  29.776  24.504  1.00  0.00    -0.273 OA
ATOM      5  H   UNL A   1      32.004  30.867  26.194  1.00  0.00     0.163 HD
BRANCH   3   6
ATOM      6  C   UNL A   1      31.296  27.680  25.485  1.00  0.00     0.197 C 
BRANCH   6   7
ATOM      7  N   UNL A   1      30.018  27.099  25.058  1.00  0.00    -0.342 N 
ATOM      8  C   UNL A   1      29.712  26.471  23.885  1.00  0.00     0.225 C 
ATOM      9  O   UNL A   1      28.571  26.016  23.762  1.00  0.00    -0.275 OA
ATOM     10  H   UNL A   1      29.279  27.173  25.705  1.00  0.00     0.164 HD
BRANCH   8  11
ATOM     11  C   UNL A   1      30.758  26.278  22.793  1.00  0.00     0.137 C 
BRANCH  11  12
ATOM     12  C   UNL A   1      31.764  25.212  23.097  1.00  0.00    -0.017 A 
ATOM     13  C   UNL A   1      33.836  26.642  23.678  1.00  0.00     0.065 C 
ATOM     14  C   UNL A   1      33.073  25.363  23.544  1.00  0.00     0.024 A 
ATOM     15  N   UNL A   1      33.609  24.093  23.767  1.00  0.00    -0.314 N 
ATOM     16  C   UNL A   1      31.548  23.820  22.939  1.00  0.00     0.033 A 
ATOM     17  C   UNL A   1      32.663  23.139  23.393  1.00  0.00     0.053 A 
BRANCH  15  18
ATOM     18  C   UNL A   1      34.908  23.802  24.271  1.00  0.00     0.046 A 
ATOM     19  C   UNL A   1      35.217  24.118  25.603  1.00  0.00     0.029 A 
ATOM     20  C   UNL A   1      35.882  23.253  23.428  1.00  0.00     0.029 A 
ATOM     21  C   UNL A   1      36.497  23.864  26.093  1.00  0.00     0.041 A 
ATOM     22  C   UNL A   1      37.165  23.015  23.924  1.00  0.00     0.041 A 
ATOM     23  C   UNL A   1      37.458  23.317  25.250  1.00  0.00     0.123 A 
ATOM     24  F   UNL A   1      38.686  23.074  25.726  1.00  0.00    -0.207 F 
ENDBRANCH  15  18
BRANCH  17  25
ATOM     25  C   UNL A   1      32.768  21.690  23.619  1.00  0.00    -0.001 A 
ATOM     26  C   UNL A   1      33.334  21.185  24.801  1.00  0.00     0.011 A 
ATOM     27  C   UNL A   1      32.244  20.793  22.680  1.00  0.00     0.011 A 
ATOM     28  C   UNL A   1      33.402  19.808  25.034  1.00  0.00     0.021 A 
ATOM     29  C   UNL A   1      32.309  19.416  22.903  1.00  0.00     0.021 A 
ATOM     30  C   UNL A   1      32.894  18.930  24.074  1.00  0.00     0.067 A 
BRANCH  30  31
ATOM     31  S   UNL A   1      32.922  17.180  24.397  1.00  0.00     0.175 S 
ATOM     32  C   UNL A   1      34.479  16.899  25.202  1.00  0.00     0.163 C 
ATOM     33  O   UNL A   1      31.848  16.909  25.310  1.00  0.00    -0.224 OA
ATOM     34  O   UNL A   1      32.986  16.515  23.093  1.00  0.00    -0.224 OA
ENDBRANCH  30  31
ENDBRANCH  17  25
ENDBRANCH  11  12
ENDBRANCH   8  11
ENDBRANCH   6   7
BRANCH   6  35
ATOM     35  C   UNL A   1      31.629  27.269  26.925  1.00  0.00     0.191 C 
BRANCH  35  36
ATOM     36  O   UNL A   1      31.015  28.097  27.907  1.00  0.00    -0.394 OA
ATOM     37  H   UNL A   1      31.102  27.683  28.780  1.00  0.00     0.210 HD
ENDBRANCH  35  36
ENDBRANCH   6  35
ENDBRANCH   3   6
ENDBRANCH   1   2
BRANCH   1  38
ATOM     38  C   UNL A   1      34.153  30.118  27.564  1.00  0.00     0.042 C 
BRANCH  38  39
ATOM     39  C   UNL A   1      34.869  31.471  27.748  1.00  0.00     0.118 C 
BRANCH  39  40
ATOM     40  N   UNL A   1      34.367  32.277  28.835  1.00  0.00    -0.352 N 
ATOM     41  C   UNL A   1      34.918  32.411  30.099  1.00  0.00     0.251 C 
ATOM     42  H   UNL A   1      33.544  32.786  28.659  1.00  0.00     0.163 HD
ATOM     43  O   UNL A   1      34.328  33.124  30.905  1.00  0.00    -0.269 OA
BRANCH  41  44
ATOM     44  C   UNL A   1      36.135  31.629  30.514  1.00  0.00     0.039 A 
ATOM     45  C   UNL A   1      37.298  31.822  29.792  1.00  0.00     0.014 A 
ATOM     46  C   UNL A   1      36.138  30.586  31.459  1.00  0.00     0.014 A 
ATOM     47  C   UNL A   1      38.436  31.014  30.044  1.00  0.00     0.010 A 
ATOM     48  C   UNL A   1      37.279  29.701  31.643  1.00  0.00     0.010 A 
ATOM     49  C   UNL A   1      38.470  29.864  30.916  1.00  0.00    -0.014 A 
BRANCH  49  50
ATOM     50  C   UNL A   1      39.578  28.755  30.576  1.00  0.00     0.031 A 
ATOM     51  C   UNL A   1      40.456  28.767  31.789  1.00  0.00     0.074 A 
ATOM     52  C   UNL A   1      40.014  27.894  29.572  1.00  0.00     0.049 A 
ATOM     53  N   UNL A   1      41.004  29.876  32.206  1.00  0.00    -0.248 NA
ATOM     54  C   UNL A   1      40.390  27.703  32.795  1.00  0.00     0.031 C 
ATOM     55  C   UNL A   1      39.484  27.745  28.209  1.00  0.00     0.029 A 
ATOM     56  N   UNL A   1      41.058  26.914  29.535  1.00  0.00    -0.354 N 
ATOM     57  C   UNL A   1      41.605  29.583  33.405  1.00  0.00     0.074 A 
ATOM     58  C   UNL A   1      40.998  28.321  33.813  1.00  0.00     0.031 C 
ATOM     59  C   UNL A   1      40.069  26.700  27.551  1.00  0.00     0.029 A 
ATOM     60  C   UNL A   1      41.106  26.068  28.368  1.00  0.00     0.049 A 
ATOM     61  H   UNL A   1      41.709  26.822  30.267  1.00  0.00     0.167 HD
ATOM     62  C   UNL A   1      42.910  29.955  33.547  1.00  0.00     0.034 A 
ATOM     63  C   UNL A   1      41.936  24.997  28.035  1.00  0.00     0.034 A 
ATOM     64  C   UNL A   1      43.797  28.847  33.313  1.00  0.00     0.049 A 
ATOM     65  C   UNL A   1      43.176  25.142  28.800  1.00  0.00     0.074 A 
ATOM     66  C   UNL A   1      43.815  27.542  33.764  1.00  0.00     0.029 A 
ATOM     67  N   UNL A   1      44.513  28.870  32.132  1.00  0.00    -0.354 N 
ATOM     68  N   UNL A   1      44.077  26.021  28.491  1.00  0.00    -0.248 NA
ATOM     69  C   UNL A   1      43.503  24.278  29.929  1.00  0.00     0.031 C 
ATOM     70  C   UNL A   1      44.040  26.777  32.595  1.00  0.00     0.029 A 
ATOM     71  C   UNL A   1      44.517  27.605  31.583  1.00  0.00     0.049 A 
ATOM     72  H   UNL A   1      44.949  29.662  31.743  1.00  0.00     0.167 HD
ATOM     73  C   UNL A   1      44.733  26.190  29.669  1.00  0.00     0.074 A 
ATOM     74  C   UNL A   1      44.573  24.935  30.379  1.00  0.00     0.031 C 
ATOM     75  C   UNL A   1      44.794  27.451  30.167  1.00  0.00     0.034 A 
BRANCH  62  76
ATOM     76  C   UNL A   1      43.237  31.363  33.140  1.00  0.00     0.023 A 
ATOM     77  C   UNL A   1      42.690  31.867  31.954  1.00  0.00     0.031 A 
ATOM     78  C   UNL A   1      44.097  32.205  33.876  1.00  0.00     0.131 A 
ATOM     79  C   UNL A   1      43.052  33.149  31.507  1.00  0.00     0.055 A 
ATOM     80  C   UNL A   1      44.501  33.450  33.401  1.00  0.00     0.041 A 
ATOM     81  F   UNL A   1      44.521  31.855  35.101  1.00  0.00    -0.206 F 
ATOM     82  C   UNL A   1      43.984  33.926  32.204  1.00  0.00     0.022 A 
BRANCH  79  83
ATOM     83  S   UNL A   1      42.239  33.819  30.032  1.00  0.00     0.124 S 
ATOM     84  O   UNL A   1      43.228  33.568  28.987  1.00  0.00    -0.237 OA
ATOM     85  O   UNL A   1      41.024  33.013  29.953  1.00  0.00    -0.237 OA
ATOM     86  O   UNL A   1      42.025  35.227  30.360  1.00  0.00    -0.744 OA
ENDBRANCH  79  83
ENDBRANCH  62  76
BRANCH  63  87
ATOM     87  C   UNL A   1      42.060  23.803  27.062  1.00  0.00     0.023 A 
ATOM     88  C   UNL A   1      43.183  23.657  26.156  1.00  0.00     0.031 A 
ATOM     89  C   UNL A   1      41.325  22.631  27.273  1.00  0.00     0.131 A 
ATOM     90  C   UNL A   1      43.542  22.408  25.573  1.00  0.00     0.055 A 
ATOM     91  C   UNL A   1      41.675  21.397  26.679  1.00  0.00     0.041 A 
ATOM     92  F   UNL A   1      40.311  22.618  28.151  1.00  0.00    -0.206 F 
ATOM     93  C   UNL A   1      42.788  21.275  25.847  1.00  0.00     0.022 A 
BRANCH  90  94
ATOM     94  S   UNL A   1      45.096  22.187  24.603  1.00  0.00     0.124 S 
ATOM     95  O   UNL A   1      46.091  21.918  25.633  1.00  0.00    -0.237 OA
ATOM     96  O   UNL A   1      44.766  21.080  23.710  1.00  0.00    -0.237 OA
ATOM     97  O   UNL A   1      45.261  23.473  23.921  1.00  0.00    -0.744 OA
ENDBRANCH  90  94
ENDBRANCH  63  87
BRANCH  75  98
ATOM     98  C   UNL A   1      44.960  28.588  29.153  1.00  0.00     0.023 A 
ATOM     99  C   UNL A   1      46.172  28.965  28.508  1.00  0.00     0.031 A 
ATOM    100  C   UNL A   1      43.849  29.407  28.901  1.00  0.00     0.131 A 
ATOM    101  C   UNL A   1      46.252  30.135  27.722  1.00  0.00     0.055 A 
ATOM    102  C   UNL A   1      43.915  30.540  28.083  1.00  0.00     0.041 A 
ATOM    103  F   UNL A   1      42.663  29.126  29.465  1.00  0.00    -0.206 F 
ATOM    104  C   UNL A   1      45.122  30.921  27.508  1.00  0.00     0.022 A 
BRANCH 101 105
ATOM    105  S   UNL A   1      47.855  30.693  27.043  1.00  0.00     0.124 S 
ATOM    106  O   UNL A   1      48.319  29.540  26.280  1.00  0.00    -0.237 OA
ATOM    107  O   UNL A   1      47.484  31.868  26.260  1.00  0.00    -0.237 OA
ATOM    108  O   UNL A   1      48.648  30.986  28.238  1.00  0.00    -0.744 OA
ENDBRANCH 101 105
ENDBRANCH  75  98
ENDBRANCH  49  50
ENDBRANCH  41  44
ENDBRANCH  39  40
ENDBRANCH  38  39
ENDBRANCH   1  38
TORSDOF 21
ENDMDL
MODEL 3
REMARK VINA RESULT:     -12.1      2.824      5.336
REMARK SMILES Cc1c(CC(=O)N[C@H](CO)C(=O)NCCCNC(=O)c2ccc(-c3c4nc(c(-c5cc(S(=O)(=O)[O-])ccc5F)c5ccc([nH]5)c(-c5cc(S(=O)(=O)[O-])ccc5F)c5nc(c(-c6cc(S(=O)(=O)[O-])ccc6F)c6ccc3[nH]6)C=C5)C=C4)cc2)cc(-c2ccc(S(C)(=O)=O)cc2)n1-c1ccc(F)cc1
REMARK SMILES IDX 14 1 13 2 11 3 12 4 8 6 7 7 5 8 6 9 4 11 3 12 1 13 2 14
REMARK SMILES IDX 95 15 83 16 84 17 96 18 97 19 102 20 98 21 101 22 99 23
REMARK SMILES IDX 100 24 85 25 86 26 94 27 87 28 93 29 88 30 89 31 90 32 91 33
REMARK SMILES IDX 92 34 9 35 10 36 15 38 16 39 17 40 18 41 19 43 20 44 21 45
REMARK SMILES IDX 82 46 22 47 81 48 23 49 24 50 25 51 75 52 26 53 80 54 74 55
REMARK SMILES IDX 76 56 27 57 79 58 73 59 72 60 28 62 60 63 40 64 59 65 41 66
REMARK SMILES IDX 44 67 58 68 77 69 42 70 43 71 57 73 78 74 45 75 29 76 30 77
REMARK SMILES IDX 38 78 31 79 37 80 39 81 36 82 32 83 33 84 34 85 35 86 61 87
REMARK SMILES IDX 62 88 70 89 63 90 69 91 71 92 68 93 64 94 65 95 66 96 67 97
REMARK SMILES IDX 46 98 47 99 55 100 48 101 54 102 56 103 53 104 49 105 50 106
REMARK SMILES IDX 51 107 52 108
REMARK H PARENT 13 5 7 10 10 37 17 42 76 61 44 72
REMARK Flexibility Score: inf
ROOT
ATOM      1  C   UNL A   1      31.574  30.512  24.857  1.00  0.00     0.117 C 
ENDROOT
BRANCH   1   2
ATOM      2  N   UNL A   1      30.229  30.638  24.334  1.00  0.00    -0.354 N 
ATOM      3  C   UNL A   1      29.597  29.930  23.357  1.00  0.00     0.244 C 
ATOM      4  O   UNL A   1      28.921  30.589  22.560  1.00  0.00    -0.273 OA
ATOM      5  H   UNL A   1      29.686  31.346  24.751  1.00  0.00     0.163 HD
BRANCH   3   6
ATOM      6  C   UNL A   1      29.775  28.413  23.153  1.00  0.00     0.197 C 
BRANCH   6   7
ATOM      7  N   UNL A   1      29.684  27.634  24.392  1.00  0.00    -0.342 N 
ATOM      8  C   UNL A   1      29.775  26.282  24.562  1.00  0.00     0.225 C 
ATOM      9  O   UNL A   1      29.716  25.847  25.716  1.00  0.00    -0.275 OA
ATOM     10  H   UNL A   1      29.537  28.156  25.214  1.00  0.00     0.164 HD
BRANCH   8  11
ATOM     11  C   UNL A   1      30.010  25.349  23.381  1.00  0.00     0.137 C 
BRANCH  11  12
ATOM     12  C   UNL A   1      31.149  24.396  23.574  1.00  0.00    -0.017 A 
ATOM     13  C   UNL A   1      33.102  26.039  23.979  1.00  0.00     0.065 C 
ATOM     14  C   UNL A   1      32.470  24.685  23.899  1.00  0.00     0.024 A 
ATOM     15  N   UNL A   1      33.157  23.480  24.054  1.00  0.00    -0.314 N 
ATOM     16  C   UNL A   1      31.068  22.989  23.418  1.00  0.00     0.033 A 
ATOM     17  C   UNL A   1      32.288  22.431  23.757  1.00  0.00     0.053 A 
BRANCH  15  18
ATOM     18  C   UNL A   1      34.521  23.329  24.431  1.00  0.00     0.046 A 
ATOM     19  C   UNL A   1      34.899  23.565  25.761  1.00  0.00     0.029 A 
ATOM     20  C   UNL A   1      35.484  22.997  23.469  1.00  0.00     0.029 A 
ATOM     21  C   UNL A   1      36.238  23.450  26.129  1.00  0.00     0.041 A 
ATOM     22  C   UNL A   1      36.824  22.897  23.844  1.00  0.00     0.041 A 
ATOM     23  C   UNL A   1      37.188  23.118  25.168  1.00  0.00     0.123 A 
ATOM     24  F   UNL A   1      38.473  23.007  25.527  1.00  0.00    -0.207 F 
ENDBRANCH  15  18
BRANCH  17  25
ATOM     25  C   UNL A   1      32.568  21.001  23.953  1.00  0.00    -0.001 A 
ATOM     26  C   UNL A   1      33.002  20.516  25.198  1.00  0.00     0.011 A 
ATOM     27  C   UNL A   1      32.343  20.093  22.911  1.00  0.00     0.011 A 
ATOM     28  C   UNL A   1      33.234  19.152  25.396  1.00  0.00     0.021 A 
ATOM     29  C   UNL A   1      32.574  18.728  23.099  1.00  0.00     0.021 A 
ATOM     30  C   UNL A   1      33.026  18.265  24.337  1.00  0.00     0.067 A 
BRANCH  30  31
ATOM     31  S   UNL A   1      33.260  16.521  24.605  1.00  0.00     0.175 S 
ATOM     32  C   UNL A   1      34.822  16.403  25.440  1.00  0.00     0.163 C 
ATOM     33  O   UNL A   1      32.207  16.091  25.482  1.00  0.00    -0.224 OA
ATOM     34  O   UNL A   1      33.432  15.914  23.283  1.00  0.00    -0.224 OA
ENDBRANCH  30  31
ENDBRANCH  17  25
ENDBRANCH  11  12
ENDBRANCH   8  11
ENDBRANCH   6   7
BRANCH   6  35
ATOM     35  C   UNL A   1      31.071  28.091  22.398  1.00  0.00     0.191 C 
BRANCH  35  36
ATOM     36  O   UNL A   1      31.775  29.249  21.962  1.00  0.00    -0.394 OA
ATOM     37  H   UNL A   1      32.542  29.397  22.538  1.00  0.00     0.210 HD
ENDBRANCH  35  36
ENDBRANCH   6  35
ENDBRANCH   3   6
ENDBRANCH   1   2
BRANCH   1  38
ATOM     38  C   UNL A   1      31.640  29.597  26.094  1.00  0.00     0.042 C 
BRANCH  38  39
ATOM     39  C   UNL A   1      32.060  30.241  27.430  1.00  0.00     0.118 C 
BRANCH  39  40
ATOM     40  N   UNL A   1      32.586  31.581  27.316  1.00  0.00    -0.352 N 
ATOM     41  C   UNL A   1      33.887  31.990  27.561  1.00  0.00     0.251 C 
ATOM     42  H   UNL A   1      31.953  32.278  27.034  1.00  0.00     0.163 HD
ATOM     43  O   UNL A   1      34.140  33.185  27.437  1.00  0.00    -0.269 OA
BRANCH  41  44
ATOM     44  C   UNL A   1      34.932  31.033  28.067  1.00  0.00     0.039 A 
ATOM     45  C   UNL A   1      35.749  31.462  29.097  1.00  0.00     0.014 A 
ATOM     46  C   UNL A   1      35.264  29.808  27.459  1.00  0.00     0.014 A 
ATOM     47  C   UNL A   1      36.840  30.662  29.521  1.00  0.00     0.010 A 
ATOM     48  C   UNL A   1      36.441  29.041  27.839  1.00  0.00     0.010 A 
ATOM     49  C   UNL A   1      37.298  29.457  28.872  1.00  0.00    -0.014 A 
BRANCH  49  50
ATOM     50  C   UNL A   1      38.844  29.088  29.080  1.00  0.00     0.031 A 
ATOM     51  C   UNL A   1      38.970  28.968  30.566  1.00  0.00     0.074 A 
ATOM     52  C   UNL A   1      40.047  28.925  28.396  1.00  0.00     0.049 A 
ATOM     53  N   UNL A   1      38.605  29.946  31.350  1.00  0.00    -0.248 NA
ATOM     54  C   UNL A   1      39.066  27.662  31.225  1.00  0.00     0.031 C 
ATOM     55  C   UNL A   1      40.313  29.123  26.964  1.00  0.00     0.029 A 
ATOM     56  N   UNL A   1      41.351  28.522  28.831  1.00  0.00    -0.354 N 
ATOM     57  C   UNL A   1      38.696  29.469  32.634  1.00  0.00     0.074 A 
ATOM     58  C   UNL A   1      38.753  28.019  32.475  1.00  0.00     0.031 C 
ATOM     59  C   UNL A   1      41.576  28.729  26.625  1.00  0.00     0.029 A 
ATOM     60  C   UNL A   1      42.329  28.285  27.799  1.00  0.00     0.049 A 
ATOM     61  H   UNL A   1      41.569  28.413  29.785  1.00  0.00     0.167 HD
ATOM     62  C   UNL A   1      39.395  30.229  33.525  1.00  0.00     0.034 A 
ATOM     63  C   UNL A   1      43.650  27.839  27.861  1.00  0.00     0.034 A 
ATOM     64  C   UNL A   1      40.735  29.735  33.695  1.00  0.00     0.049 A 
ATOM     65  C   UNL A   1      44.159  28.142  29.199  1.00  0.00     0.074 A 
ATOM     66  C   UNL A   1      41.254  28.475  33.917  1.00  0.00     0.029 A 
ATOM     67  N   UNL A   1      41.746  30.488  33.130  1.00  0.00    -0.354 N 
ATOM     68  N   UNL A   1      44.481  29.346  29.556  1.00  0.00    -0.248 NA
ATOM     69  C   UNL A   1      44.383  27.108  30.203  1.00  0.00     0.031 C 
ATOM     70  C   UNL A   1      42.320  28.374  32.993  1.00  0.00     0.029 A 
ATOM     71  C   UNL A   1      42.655  29.644  32.529  1.00  0.00     0.049 A 
ATOM     72  H   UNL A   1      41.806  31.471  33.152  1.00  0.00     0.167 HD
ATOM     73  C   UNL A   1      44.375  29.284  30.910  1.00  0.00     0.074 A 
ATOM     74  C   UNL A   1      44.628  27.897  31.251  1.00  0.00     0.031 C 
ATOM     75  C   UNL A   1      43.537  30.171  31.505  1.00  0.00     0.034 A 
BRANCH  62  76
ATOM     76  C   UNL A   1      39.055  31.692  33.545  1.00  0.00     0.023 A 
ATOM     77  C   UNL A   1      37.730  32.074  33.785  1.00  0.00     0.031 A 
ATOM     78  C   UNL A   1      40.000  32.712  33.304  1.00  0.00     0.131 A 
ATOM     79  C   UNL A   1      37.372  33.431  33.719  1.00  0.00     0.055 A 
ATOM     80  C   UNL A   1      39.632  34.049  33.180  1.00  0.00     0.041 A 
ATOM     81  F   UNL A   1      41.311  32.434  33.235  1.00  0.00    -0.206 F 
ATOM     82  C   UNL A   1      38.307  34.415  33.381  1.00  0.00     0.022 A 
BRANCH  79  83
ATOM     83  S   UNL A   1      35.676  33.906  34.149  1.00  0.00     0.124 S 
ATOM     84  O   UNL A   1      35.583  35.260  33.610  1.00  0.00    -0.237 OA
ATOM     85  O   UNL A   1      34.884  32.896  33.451  1.00  0.00    -0.237 OA
ATOM     86  O   UNL A   1      35.645  33.813  35.607  1.00  0.00    -0.744 OA
ENDBRANCH  79  83
ENDBRANCH  62  76
BRANCH  63  87
ATOM     87  C   UNL A   1      44.788  27.264  26.988  1.00  0.00     0.023 A 
ATOM     88  C   UNL A   1      44.909  25.845  26.709  1.00  0.00     0.031 A 
ATOM     89  C   UNL A   1      45.509  28.091  26.119  1.00  0.00     0.131 A 
ATOM     90  C   UNL A   1      45.654  25.339  25.607  1.00  0.00     0.055 A 
ATOM     91  C   UNL A   1      46.263  27.582  25.036  1.00  0.00     0.041 A 
ATOM     92  F   UNL A   1      45.416  29.425  26.223  1.00  0.00    -0.206 F 
ATOM     93  C   UNL A   1      46.324  26.216  24.764  1.00  0.00     0.022 A 
BRANCH  90  94
ATOM     94  S   UNL A   1      45.620  23.556  25.132  1.00  0.00     0.124 S 
ATOM     95  O   UNL A   1      46.409  23.528  23.908  1.00  0.00    -0.237 OA
ATOM     96  O   UNL A   1      46.201  22.899  26.299  1.00  0.00    -0.237 OA
ATOM     97  O   UNL A   1      44.193  23.279  24.942  1.00  0.00    -0.744 OA
ENDBRANCH  90  94
ENDBRANCH  63  87
BRANCH  75  98
ATOM     98  C   UNL A   1      43.480  31.579  30.904  1.00  0.00     0.023 A 
ATOM     99  C   UNL A   1      44.504  32.565  30.980  1.00  0.00     0.031 A 
ATOM    100  C   UNL A   1      42.277  31.988  30.309  1.00  0.00     0.131 A 
ATOM    101  C   UNL A   1      44.283  33.889  30.542  1.00  0.00     0.055 A 
ATOM    102  C   UNL A   1      42.072  33.287  29.831  1.00  0.00     0.041 A 
ATOM    103  F   UNL A   1      41.255  31.124  30.192  1.00  0.00    -0.206 F 
ATOM    104  C   UNL A   1      43.068  34.248  29.965  1.00  0.00     0.022 A 
BRANCH 101 105
ATOM    105  S   UNL A   1      45.551  35.179  30.803  1.00  0.00     0.124 S 
ATOM    106  O   UNL A   1      45.403  35.520  32.213  1.00  0.00    -0.237 OA
ATOM    107  O   UNL A   1      46.789  34.495  30.439  1.00  0.00    -0.237 OA
ATOM    108  O   UNL A   1      45.152  36.242  29.879  1.00  0.00    -0.744 OA
ENDBRANCH 101 105
ENDBRANCH  75  98
ENDBRANCH  49  50
ENDBRANCH  41  44
ENDBRANCH  39  40
ENDBRANCH  38  39
ENDBRANCH   1  38
TORSDOF 21
ENDMDL
