MODEL 1
REMARK VINA RESULT:     -13.4      0.000      0.000
REMARK SMILES O=C(NCCCNC(=O)[C@H]1[C@@H](C(=O)Nc2ccccc2-c2ccccc2)[C@@H]2C=C[C@H]1O2)c1ccc(-c2c3nc(c(-c4cc(S(=O)(=O)[O-])ccc4F)c4ccc([nH]4)c(-c4cc(S(=O)(=O)[O-])ccc4F)c4nc(c(-c5cc(S(=O)(=O)[O-])ccc5F)c5ccc2[nH]5)C=C4)C=C3)cc1
REMARK SMILES IDX 5 1 4 2 3 3 1 4 2 5 32 7 33 8 94 9 34 10 93 11 35 12 36 13
REMARK SMILES IDX 37 14 87 15 38 16 92 17 86 18 88 19 39 20 91 21 85 22 84 23
REMARK SMILES IDX 40 25 72 26 52 27 71 28 53 29 56 30 70 31 89 32 54 33 55 34
REMARK SMILES IDX 69 36 90 37 57 38 41 39 42 40 50 41 43 42 49 43 51 44 48 45
REMARK SMILES IDX 44 46 45 47 46 48 47 49 73 50 74 51 82 52 75 53 81 54 83 55
REMARK SMILES IDX 80 56 76 57 77 58 78 59 79 60 58 61 59 62 67 63 60 64 66 65
REMARK SMILES IDX 68 66 65 67 61 68 62 69 63 70 64 71 6 72 7 73 8 74 9 76
REMARK SMILES IDX 10 77 11 78 30 79 27 80 29 81 31 82 28 83 12 84 13 85 14 86
REMARK SMILES IDX 15 88 16 89 20 90 17 91 19 92 18 93 21 94 22 95 26 96 23 97
REMARK SMILES IDX 25 98 24 99
REMARK H PARENT 3 6 88 24 56 35 7 75 14 87
REMARK Flexibility Score: inf
ROOT
ATOM      1  C   UNL A   1      36.357  23.537  26.203  1.00  0.00     0.042 C 
ENDROOT
BRANCH   1   2
ATOM      2  C   UNL A   1      37.721  23.901  25.647  1.00  0.00     0.118 C 
BRANCH   2   3
ATOM      3  N   UNL A   1      38.706  22.951  26.058  1.00  0.00    -0.352 N 
ATOM      4  O   UNL A   1      40.891  22.465  26.317  1.00  0.00    -0.269 OA
ATOM      5  C   UNL A   1      39.981  23.274  26.419  1.00  0.00     0.251 C 
ATOM      6  H   UNL A   1      38.448  22.001  26.082  1.00  0.00     0.163 HD
BRANCH   5   7
ATOM      7  C   UNL A   1      40.189  24.636  26.943  1.00  0.00     0.039 A 
ATOM      8  C   UNL A   1      39.894  24.902  28.292  1.00  0.00     0.014 A 
ATOM      9  C   UNL A   1      40.605  25.643  26.081  1.00  0.00     0.014 A 
ATOM     10  C   UNL A   1      39.985  26.194  28.773  1.00  0.00     0.010 A 
ATOM     11  C   UNL A   1      40.805  26.917  26.596  1.00  0.00     0.010 A 
ATOM     12  C   UNL A   1      40.522  27.187  27.949  1.00  0.00    -0.014 A 
BRANCH  12  13
ATOM     13  C   UNL A   1      40.930  28.480  28.530  1.00  0.00     0.031 A 
ATOM     14  C   UNL A   1      42.357  28.733  28.877  1.00  0.00     0.074 A 
ATOM     15  C   UNL A   1      39.964  29.368  28.834  1.00  0.00     0.049 A 
ATOM     16  N   UNL A   1      42.867  29.705  29.581  1.00  0.00    -0.248 NA
ATOM     17  C   UNL A   1      43.332  27.747  28.393  1.00  0.00     0.031 C 
ATOM     18  C   UNL A   1      38.540  29.206  28.522  1.00  0.00     0.029 A 
ATOM     19  N   UNL A   1      40.023  30.566  29.494  1.00  0.00    -0.354 N 
ATOM     20  C   UNL A   1      44.226  29.436  29.657  1.00  0.00     0.074 A 
ATOM     21  C   UNL A   1      44.446  28.186  28.958  1.00  0.00     0.031 C 
ATOM     22  C   UNL A   1      37.865  30.268  28.979  1.00  0.00     0.029 A 
ATOM     23  C   UNL A   1      38.786  31.130  29.704  1.00  0.00     0.049 A 
ATOM     24  H   UNL A   1      40.865  30.983  29.789  1.00  0.00     0.167 HD
ATOM     25  C   UNL A   1      45.188  30.174  30.260  1.00  0.00     0.034 A 
ATOM     26  C   UNL A   1      38.421  32.186  30.453  1.00  0.00     0.034 A 
ATOM     27  C   UNL A   1      44.911  31.396  30.976  1.00  0.00     0.049 A 
ATOM     28  C   UNL A   1      39.488  32.935  31.197  1.00  0.00     0.074 A 
ATOM     29  C   UNL A   1      45.803  32.244  31.603  1.00  0.00     0.029 A 
ATOM     30  N   UNL A   1      43.642  31.925  31.191  1.00  0.00    -0.354 N 
ATOM     31  N   UNL A   1      40.775  32.681  31.262  1.00  0.00    -0.248 NA
ATOM     32  C   UNL A   1      39.062  34.108  31.967  1.00  0.00     0.031 C 
ATOM     33  C   UNL A   1      45.070  33.214  32.293  1.00  0.00     0.029 A 
ATOM     34  C   UNL A   1      43.727  33.058  31.985  1.00  0.00     0.049 A 
ATOM     35  H   UNL A   1      42.805  31.549  30.833  1.00  0.00     0.167 HD
ATOM     36  C   UNL A   1      41.321  33.692  32.044  1.00  0.00     0.074 A 
ATOM     37  C   UNL A   1      40.221  34.548  32.441  1.00  0.00     0.031 C 
ATOM     38  C   UNL A   1      42.619  33.902  32.379  1.00  0.00     0.034 A 
BRANCH  25  39
ATOM     39  C   UNL A   1      46.594  29.630  30.233  1.00  0.00     0.023 A 
ATOM     40  C   UNL A   1      47.448  29.845  29.138  1.00  0.00     0.031 A 
ATOM     41  C   UNL A   1      47.063  28.818  31.281  1.00  0.00     0.131 A 
ATOM     42  C   UNL A   1      48.668  29.157  29.059  1.00  0.00     0.055 A 
ATOM     43  C   UNL A   1      48.329  28.232  31.250  1.00  0.00     0.041 A 
ATOM     44  F   UNL A   1      46.284  28.549  32.341  1.00  0.00    -0.206 F 
ATOM     45  C   UNL A   1      49.129  28.379  30.121  1.00  0.00     0.022 A 
BRANCH  42  46
ATOM     46  S   UNL A   1      49.518  29.110  27.456  1.00  0.00     0.124 S 
ATOM     47  O   UNL A   1      50.693  29.939  27.722  1.00  0.00    -0.237 OA
ATOM     48  O   UNL A   1      49.771  27.686  27.273  1.00  0.00    -0.237 OA
ATOM     49  O   UNL A   1      48.547  29.700  26.537  1.00  0.00    -0.744 OA
ENDBRANCH  42  46
ENDBRANCH  25  39
BRANCH  26  50
ATOM     50  C   UNL A   1      36.980  32.541  30.565  1.00  0.00     0.023 A 
ATOM     51  C   UNL A   1      36.337  33.286  29.567  1.00  0.00     0.031 A 
ATOM     52  C   UNL A   1      36.216  32.109  31.666  1.00  0.00     0.131 A 
ATOM     53  C   UNL A   1      34.977  33.601  29.704  1.00  0.00     0.055 A 
ATOM     54  C   UNL A   1      34.849  32.368  31.763  1.00  0.00     0.041 A 
ATOM     55  F   UNL A   1      36.785  31.390  32.648  1.00  0.00    -0.206 F 
ATOM     56  C   UNL A   1      34.223  33.127  30.782  1.00  0.00     0.022 A 
BRANCH  53  57
ATOM     57  S   UNL A   1      34.222  34.719  28.494  1.00  0.00     0.124 S 
ATOM     58  O   UNL A   1      32.817  34.333  28.573  1.00  0.00    -0.237 OA
ATOM     59  O   UNL A   1      34.559  36.030  29.037  1.00  0.00    -0.237 OA
ATOM     60  O   UNL A   1      34.894  34.372  27.244  1.00  0.00    -0.744 OA
ENDBRANCH  53  57
ENDBRANCH  26  50
BRANCH  38  61
ATOM     61  C   UNL A   1      42.952  35.160  33.145  1.00  0.00     0.023 A 
ATOM     62  C   UNL A   1      43.178  36.394  32.516  1.00  0.00     0.031 A 
ATOM     63  C   UNL A   1      42.982  35.115  34.552  1.00  0.00     0.131 A 
ATOM     64  C   UNL A   1      43.447  37.530  33.298  1.00  0.00     0.055 A 
ATOM     65  C   UNL A   1      43.172  36.259  35.322  1.00  0.00     0.041 A 
ATOM     66  F   UNL A   1      42.792  33.955  35.202  1.00  0.00    -0.206 F 
ATOM     67  C   UNL A   1      43.413  37.476  34.694  1.00  0.00     0.022 A 
BRANCH  64  68
ATOM     68  S   UNL A   1      43.931  39.069  32.469  1.00  0.00     0.124 S 
ATOM     69  O   UNL A   1      45.273  39.288  33.000  1.00  0.00    -0.237 OA
ATOM     70  O   UNL A   1      43.853  38.705  31.058  1.00  0.00    -0.237 OA
ATOM     71  O   UNL A   1      42.924  40.029  32.918  1.00  0.00    -0.744 OA
ENDBRANCH  64  68
ENDBRANCH  38  61
ENDBRANCH  12  13
ENDBRANCH   5   7
ENDBRANCH   2   3
ENDBRANCH   1   2
BRANCH   1  72
ATOM     72  C   UNL A   1      35.083  24.359  25.738  1.00  0.00     0.117 C 
BRANCH  72  73
ATOM     73  N   UNL A   1      33.593  24.240  26.293  1.00  0.00    -0.356 N 
ATOM     74  C   UNL A   1      32.514  23.240  26.609  1.00  0.00     0.227 C 
ATOM     75  H   UNL A   1      33.260  25.142  26.502  1.00  0.00     0.163 HD
ATOM     76  O   UNL A   1      32.035  23.607  27.707  1.00  0.00    -0.275 OA
BRANCH  74  77
ATOM     77  C   UNL A   1      31.825  21.620  25.565  1.00  0.00     0.127 C 
ATOM     78  C   UNL A   1      31.500  22.898  24.200  1.00  0.00     0.127 C 
ATOM     79  C   UNL A   1      33.163  20.053  24.833  1.00  0.00     0.155 C 
ATOM     80  C   UNL A   1      32.960  22.597  22.912  1.00  0.00     0.155 C 
ATOM     81  C   UNL A   1      32.137  19.639  23.153  1.00  0.00     0.004 C 
ATOM     82  O   UNL A   1      34.322  21.751  24.138  1.00  0.00    -0.365 OA
ATOM     83  C   UNL A   1      32.079  20.951  22.183  1.00  0.00     0.004 C 
BRANCH  78  84
ATOM     84  C   UNL A   1      30.692  23.588  25.310  1.00  0.00     0.231 C 
ATOM     85  O   UNL A   1      29.967  22.928  26.055  1.00  0.00    -0.274 OA
ATOM     86  N   UNL A   1      30.995  25.162  25.561  1.00  0.00    -0.325 N 
ATOM     87  H   UNL A   1      31.171  25.390  26.503  1.00  0.00     0.169 HD
BRANCH  86  88
ATOM     88  C   UNL A   1      31.068  26.554  24.449  1.00  0.00     0.049 A 
ATOM     89  C   UNL A   1      30.774  26.355  23.131  1.00  0.00     0.027 A 
ATOM     90  C   UNL A   1      31.467  28.059  24.798  1.00  0.00     0.005 A 
ATOM     91  C   UNL A   1      30.243  27.359  22.348  1.00  0.00     0.002 A 
ATOM     92  C   UNL A   1      30.773  29.017  24.042  1.00  0.00     0.011 A 
ATOM     93  C   UNL A   1      30.070  28.627  22.886  1.00  0.00     0.001 A 
BRANCH  90  94
ATOM     94  C   UNL A   1      32.252  28.536  26.408  1.00  0.00    -0.016 A 
ATOM     95  C   UNL A   1      31.781  30.339  27.101  1.00  0.00     0.009 A 
ATOM     96  C   UNL A   1      33.705  27.961  26.546  1.00  0.00     0.009 A 
ATOM     97  C   UNL A   1      33.512  31.126  27.552  1.00  0.00     0.001 A 
ATOM     98  C   UNL A   1      34.872  28.825  27.073  1.00  0.00     0.001 A 
ATOM     99  C   UNL A   1      34.835  30.312  27.488  1.00  0.00     0.000 A 
ENDBRANCH  90  94
ENDBRANCH  86  88
ENDBRANCH  78  84
ENDBRANCH  74  77
ENDBRANCH  72  73
ENDBRANCH   1  72
TORSDOF 16
ENDMDL
MODEL 2
REMARK VINA RESULT:     -13.3      3.523      9.247
REMARK SMILES O=C(NCCCNC(=O)[C@H]1[C@@H](C(=O)Nc2ccccc2-c2ccccc2)[C@@H]2C=C[C@H]1O2)c1ccc(-c2c3nc(c(-c4cc(S(=O)(=O)[O-])ccc4F)c4ccc([nH]4)c(-c4cc(S(=O)(=O)[O-])ccc4F)c4nc(c(-c5cc(S(=O)(=O)[O-])ccc5F)c5ccc2[nH]5)C=C4)C=C3)cc1
REMARK SMILES IDX 5 1 4 2 3 3 1 4 2 5 32 7 33 8 94 9 34 10 93 11 35 12 36 13
REMARK SMILES IDX 37 14 87 15 38 16 92 17 86 18 88 19 39 20 91 21 85 22 84 23
REMARK SMILES IDX 40 25 72 26 52 27 71 28 53 29 56 30 70 31 89 32 54 33 55 34
REMARK SMILES IDX 69 36 90 37 57 38 41 39 42 40 50 41 43 42 49 43 51 44 48 45
REMARK SMILES IDX 44 46 45 47 46 48 47 49 73 50 74 51 82 52 75 53 81 54 83 55
REMARK SMILES IDX 80 56 76 57 77 58 78 59 79 60 58 61 59 62 67 63 60 64 66 65
REMARK SMILES IDX 68 66 65 67 61 68 62 69 63 70 64 71 6 72 7 73 8 74 9 76
REMARK SMILES IDX 10 77 11 78 30 79 27 80 29 81 31 82 28 83 12 84 13 85 14 86
REMARK SMILES IDX 15 88 16 89 20 90 17 91 19 92 18 93 21 94 22 95 26 96 23 97
REMARK SMILES IDX 25 98 24 99
REMARK H PARENT 3 6 88 24 56 35 7 75 14 87
REMARK Flexibility Score: inf
ROOT
ATOM      1  C   UNL A   1      34.418  28.499  26.122  1.00  0.00     0.042 C 
ENDROOT
BRANCH   1   2
ATOM      2  C   UNL A   1      34.007  29.006  27.490  1.00  0.00     0.118 C 
BRANCH   2   3
ATOM      3  N   UNL A   1      34.088  30.431  27.549  1.00  0.00    -0.352 N 
ATOM      4  O   UNL A   1      34.686  32.258  28.726  1.00  0.00    -0.269 OA
ATOM      5  C   UNL A   1      34.941  31.119  28.362  1.00  0.00     0.251 C 
ATOM      6  H   UNL A   1      33.489  30.951  26.966  1.00  0.00     0.163 HD
BRANCH   5   7
ATOM      7  C   UNL A   1      36.177  30.420  28.758  1.00  0.00     0.039 A 
ATOM      8  C   UNL A   1      37.315  30.529  27.941  1.00  0.00     0.014 A 
ATOM      9  C   UNL A   1      36.171  29.614  29.890  1.00  0.00     0.014 A 
ATOM     10  C   UNL A   1      38.449  29.799  28.243  1.00  0.00     0.010 A 
ATOM     11  C   UNL A   1      37.347  28.971  30.251  1.00  0.00     0.010 A 
ATOM     12  C   UNL A   1      38.496  29.086  29.443  1.00  0.00    -0.014 A 
BRANCH  12  13
ATOM     13  C   UNL A   1      39.786  28.572  29.942  1.00  0.00     0.031 A 
ATOM     14  C   UNL A   1      40.539  29.318  30.989  1.00  0.00     0.074 A 
ATOM     15  C   UNL A   1      40.304  27.481  29.345  1.00  0.00     0.049 A 
ATOM     16  N   UNL A   1      41.768  29.145  31.392  1.00  0.00    -0.248 NA
ATOM     17  C   UNL A   1      39.827  30.421  31.647  1.00  0.00     0.031 C 
ATOM     18  C   UNL A   1      39.630  26.683  28.316  1.00  0.00     0.029 A 
ATOM     19  N   UNL A   1      41.519  26.870  29.494  1.00  0.00    -0.354 N 
ATOM     20  C   UNL A   1      41.994  30.139  32.332  1.00  0.00     0.074 A 
ATOM     21  C   UNL A   1      40.783  30.933  32.405  1.00  0.00     0.031 C 
ATOM     22  C   UNL A   1      40.435  25.683  27.936  1.00  0.00     0.029 A 
ATOM     23  C   UNL A   1      41.714  25.831  28.614  1.00  0.00     0.049 A 
ATOM     24  H   UNL A   1      42.187  27.146  30.163  1.00  0.00     0.167 HD
ATOM     25  C   UNL A   1      43.116  30.357  33.059  1.00  0.00     0.034 A 
ATOM     26  C   UNL A   1      42.820  25.118  28.332  1.00  0.00     0.034 A 
ATOM     27  C   UNL A   1      44.310  29.559  32.922  1.00  0.00     0.049 A 
ATOM     28  C   UNL A   1      44.084  25.439  29.076  1.00  0.00     0.074 A 
ATOM     29  C   UNL A   1      45.498  29.665  33.622  1.00  0.00     0.029 A 
ATOM     30  N   UNL A   1      44.482  28.530  32.002  1.00  0.00    -0.354 N 
ATOM     31  N   UNL A   1      44.293  26.377  29.971  1.00  0.00    -0.248 NA
ATOM     32  C   UNL A   1      45.257  24.612  28.778  1.00  0.00     0.031 C 
ATOM     33  C   UNL A   1      46.420  28.786  33.047  1.00  0.00     0.029 A 
ATOM     34  C   UNL A   1      45.772  28.031  32.082  1.00  0.00     0.049 A 
ATOM     35  H   UNL A   1      43.789  28.204  31.383  1.00  0.00     0.167 HD
ATOM     36  C   UNL A   1      45.613  26.224  30.378  1.00  0.00     0.074 A 
ATOM     37  C   UNL A   1      46.154  25.115  29.617  1.00  0.00     0.031 C 
ATOM     38  C   UNL A   1      46.302  26.925  31.313  1.00  0.00     0.034 A 
BRANCH  25  39
ATOM     39  C   UNL A   1      43.117  31.544  33.990  1.00  0.00     0.023 A 
ATOM     40  C   UNL A   1      42.713  31.431  35.331  1.00  0.00     0.031 A 
ATOM     41  C   UNL A   1      43.448  32.824  33.510  1.00  0.00     0.131 A 
ATOM     42  C   UNL A   1      42.532  32.586  36.105  1.00  0.00     0.055 A 
ATOM     43  C   UNL A   1      43.380  33.956  34.323  1.00  0.00     0.041 A 
ATOM     44  F   UNL A   1      43.812  33.003  32.231  1.00  0.00    -0.206 F 
ATOM     45  C   UNL A   1      42.895  33.844  35.622  1.00  0.00     0.022 A 
BRANCH  42  46
ATOM     46  S   UNL A   1      41.598  32.437  37.653  1.00  0.00     0.124 S 
ATOM     47  O   UNL A   1      42.358  31.405  38.358  1.00  0.00    -0.237 OA
ATOM     48  O   UNL A   1      41.686  33.782  38.208  1.00  0.00    -0.237 OA
ATOM     49  O   UNL A   1      40.267  32.025  37.212  1.00  0.00    -0.744 OA
ENDBRANCH  42  46
ENDBRANCH  25  39
BRANCH  26  50
ATOM     50  C   UNL A   1      42.770  24.083  27.264  1.00  0.00     0.023 A 
ATOM     51  C   UNL A   1      42.295  22.791  27.528  1.00  0.00     0.031 A 
ATOM     52  C   UNL A   1      43.174  24.385  25.949  1.00  0.00     0.131 A 
ATOM     53  C   UNL A   1      42.260  21.840  26.497  1.00  0.00     0.055 A 
ATOM     54  C   UNL A   1      43.074  23.456  24.915  1.00  0.00     0.041 A 
ATOM     55  F   UNL A   1      43.635  25.610  25.645  1.00  0.00    -0.206 F 
ATOM     56  C   UNL A   1      42.622  22.171  25.188  1.00  0.00     0.022 A 
BRANCH  53  57
ATOM     57  S   UNL A   1      41.816  20.132  26.910  1.00  0.00     0.124 S 
ATOM     58  O   UNL A   1      41.311  19.642  25.632  1.00  0.00    -0.237 OA
ATOM     59  O   UNL A   1      43.093  19.582  27.348  1.00  0.00    -0.237 OA
ATOM     60  O   UNL A   1      40.811  20.286  27.960  1.00  0.00    -0.744 OA
ENDBRANCH  53  57
ENDBRANCH  26  50
BRANCH  38  61
ATOM     61  C   UNL A   1      47.700  26.462  31.647  1.00  0.00     0.023 A 
ATOM     62  C   UNL A   1      48.840  26.953  30.990  1.00  0.00     0.031 A 
ATOM     63  C   UNL A   1      47.883  25.545  32.699  1.00  0.00     0.131 A 
ATOM     64  C   UNL A   1      50.112  26.503  31.381  1.00  0.00     0.055 A 
ATOM     65  C   UNL A   1      49.150  25.162  33.131  1.00  0.00     0.041 A 
ATOM     66  F   UNL A   1      46.825  25.029  33.346  1.00  0.00    -0.206 F 
ATOM     67  C   UNL A   1      50.274  25.637  32.467  1.00  0.00     0.022 A 
BRANCH  64  68
ATOM     68  S   UNL A   1      51.554  26.992  30.397  1.00  0.00     0.124 S 
ATOM     69  O   UNL A   1      51.469  26.078  29.263  1.00  0.00    -0.237 OA
ATOM     70  O   UNL A   1      51.279  28.396  30.110  1.00  0.00    -0.237 OA
ATOM     71  O   UNL A   1      52.680  26.754  31.300  1.00  0.00    -0.744 OA
ENDBRANCH  64  68
ENDBRANCH  38  61
ENDBRANCH  12  13
ENDBRANCH   5   7
ENDBRANCH   2   3
ENDBRANCH   1   2
BRANCH   1  72
ATOM     72  C   UNL A   1      33.932  27.067  25.643  1.00  0.00     0.117 C 
BRANCH  72  73
ATOM     73  N   UNL A   1      33.881  26.505  24.153  1.00  0.00    -0.356 N 
ATOM     74  C   UNL A   1      33.279  26.765  22.799  1.00  0.00     0.227 C 
ATOM     75  H   UNL A   1      34.444  25.699  24.099  1.00  0.00     0.163 HD
ATOM     76  O   UNL A   1      34.209  26.575  21.981  1.00  0.00    -0.275 OA
BRANCH  74  77
ATOM     77  C   UNL A   1      31.376  27.274  22.242  1.00  0.00     0.127 C 
ATOM     78  C   UNL A   1      30.905  25.672  23.144  1.00  0.00     0.127 C 
ATOM     79  C   UNL A   1      30.323  28.977  23.120  1.00  0.00     0.155 C 
ATOM     80  C   UNL A   1      30.139  26.298  24.848  1.00  0.00     0.155 C 
ATOM     81  C   UNL A   1      28.482  28.171  23.052  1.00  0.00     0.004 C 
ATOM     82  O   UNL A   1      31.030  28.104  24.977  1.00  0.00    -0.365 OA
ATOM     83  C   UNL A   1      28.416  26.821  23.969  1.00  0.00     0.004 C 
BRANCH  78  84
ATOM     84  C   UNL A   1      31.927  25.057  22.177  1.00  0.00     0.231 C 
ATOM     85  O   UNL A   1      31.930  25.375  20.988  1.00  0.00    -0.274 OA
ATOM     86  N   UNL A   1      33.096  24.144  22.835  1.00  0.00    -0.325 N 
ATOM     87  H   UNL A   1      34.005  24.387  22.546  1.00  0.00     0.169 HD
BRANCH  86  88
ATOM     88  C   UNL A   1      33.038  22.781  23.984  1.00  0.00     0.049 A 
ATOM     89  C   UNL A   1      31.823  22.362  24.442  1.00  0.00     0.027 A 
ATOM     90  C   UNL A   1      34.269  21.966  24.590  1.00  0.00     0.005 A 
ATOM     91  C   UNL A   1      31.603  21.054  24.820  1.00  0.00     0.002 A 
ATOM     92  C   UNL A   1      33.991  20.608  24.814  1.00  0.00     0.011 A 
ATOM     93  C   UNL A   1      32.658  20.152  24.809  1.00  0.00     0.001 A 
BRANCH  90  94
ATOM     94  C   UNL A   1      36.023  22.542  24.430  1.00  0.00    -0.016 A 
ATOM     95  C   UNL A   1      37.405  21.112  24.402  1.00  0.00     0.009 A 
ATOM     96  C   UNL A   1      36.267  23.899  25.178  1.00  0.00     0.009 A 
ATOM     97  C   UNL A   1      38.726  21.722  25.707  1.00  0.00     0.001 A 
ATOM     98  C   UNL A   1      37.514  24.126  26.061  1.00  0.00     0.001 A 
ATOM     99  C   UNL A   1      38.641  23.120  26.381  1.00  0.00     0.000 A 
ENDBRANCH  90  94
ENDBRANCH  86  88
ENDBRANCH  78  84
ENDBRANCH  74  77
ENDBRANCH  72  73
ENDBRANCH   1  72
TORSDOF 16
ENDMDL
MODEL 3
REMARK VINA RESULT:     -13.3      2.733      7.686
REMARK SMILES O=C(NCCCNC(=O)[C@H]1[C@@H](C(=O)Nc2ccccc2-c2ccccc2)[C@@H]2C=C[C@H]1O2)c1ccc(-c2c3nc(c(-c4cc(S(=O)(=O)[O-])ccc4F)c4ccc([nH]4)c(-c4cc(S(=O)(=O)[O-])ccc4F)c4nc(c(-c5cc(S(=O)(=O)[O-])ccc5F)c5ccc2[nH]5)C=C4)C=C3)cc1
REMARK SMILES IDX 5 1 4 2 3 3 1 4 2 5 32 7 33 8 94 9 34 10 93 11 35 12 36 13
REMARK SMILES IDX 37 14 87 15 38 16 92 17 86 18 88 19 39 20 91 21 85 22 84 23
REMARK SMILES IDX 40 25 72 26 52 27 71 28 53 29 56 30 70 31 89 32 54 33 55 34
REMARK SMILES IDX 69 36 90 37 57 38 41 39 42 40 50 41 43 42 49 43 51 44 48 45
REMARK SMILES IDX 44 46 45 47 46 48 47 49 73 50 74 51 82 52 75 53 81 54 83 55
REMARK SMILES IDX 80 56 76 57 77 58 78 59 79 60 58 61 59 62 67 63 60 64 66 65
REMARK SMILES IDX 68 66 65 67 61 68 62 69 63 70 64 71 6 72 7 73 8 74 9 76
REMARK SMILES IDX 10 77 11 78 30 79 27 80 29 81 31 82 28 83 12 84 13 85 14 86
REMARK SMILES IDX 15 88 16 89 20 90 17 91 19 92 18 93 21 94 22 95 26 96 23 97
REMARK SMILES IDX 25 98 24 99
REMARK H PARENT 3 6 88 24 56 35 7 75 14 87
REMARK Flexibility Score: inf
ROOT
ATOM      1  C   UNL A   1      36.469  22.456  26.280  1.00  0.00     0.042 C 
ENDROOT
BRANCH   1   2
ATOM      2  C   UNL A   1      37.601  22.153  25.317  1.00  0.00     0.118 C 
BRANCH   2   3
ATOM      3  N   UNL A   1      38.341  21.009  25.747  1.00  0.00    -0.352 N 
ATOM      4  O   UNL A   1      40.357  20.050  26.054  1.00  0.00    -0.269 OA
ATOM      5  C   UNL A   1      39.648  21.042  26.137  1.00  0.00     0.251 C 
ATOM      6  H   UNL A   1      37.878  20.140  25.762  1.00  0.00     0.163 HD
BRANCH   5   7
ATOM      7  C   UNL A   1      40.141  22.324  26.671  1.00  0.00     0.039 A 
ATOM      8  C   UNL A   1      40.940  22.322  27.827  1.00  0.00     0.014 A 
ATOM      9  C   UNL A   1      39.750  23.511  26.063  1.00  0.00     0.014 A 
ATOM     10  C   UNL A   1      41.324  23.520  28.398  1.00  0.00     0.010 A 
ATOM     11  C   UNL A   1      40.233  24.708  26.574  1.00  0.00     0.010 A 
ATOM     12  C   UNL A   1      41.044  24.712  27.726  1.00  0.00    -0.014 A 
BRANCH  12  13
ATOM     13  C   UNL A   1      41.714  25.961  28.135  1.00  0.00     0.031 A 
ATOM     14  C   UNL A   1      40.960  27.012  28.876  1.00  0.00     0.074 A 
ATOM     15  C   UNL A   1      42.981  26.161  27.723  1.00  0.00     0.049 A 
ATOM     16  N   UNL A   1      41.308  28.244  29.126  1.00  0.00    -0.248 NA
ATOM     17  C   UNL A   1      39.630  26.636  29.371  1.00  0.00     0.031 C 
ATOM     18  C   UNL A   1      43.798  25.182  27.000  1.00  0.00     0.029 A 
ATOM     19  N   UNL A   1      43.794  27.258  27.826  1.00  0.00    -0.354 N 
ATOM     20  C   UNL A   1      40.226  28.810  29.785  1.00  0.00     0.074 A 
ATOM     21  C   UNL A   1      39.198  27.790  29.855  1.00  0.00     0.031 C 
ATOM     22  C   UNL A   1      44.996  25.716  26.737  1.00  0.00     0.029 A 
ATOM     23  C   UNL A   1      44.996  27.103  27.176  1.00  0.00     0.049 A 
ATOM     24  H   UNL A   1      43.544  28.075  28.317  1.00  0.00     0.167 HD
ATOM     25  C   UNL A   1      40.117  30.066  30.278  1.00  0.00     0.034 A 
ATOM     26  C   UNL A   1      45.964  27.996  26.902  1.00  0.00     0.034 A 
ATOM     27  C   UNL A   1      41.158  31.056  30.150  1.00  0.00     0.049 A 
ATOM     28  C   UNL A   1      45.782  29.411  27.369  1.00  0.00     0.074 A 
ATOM     29  C   UNL A   1      41.174  32.351  30.632  1.00  0.00     0.029 A 
ATOM     30  N   UNL A   1      42.353  30.874  29.462  1.00  0.00    -0.354 N 
ATOM     31  N   UNL A   1      44.759  29.942  27.998  1.00  0.00    -0.248 NA
ATOM     32  C   UNL A   1      46.876  30.347  27.094  1.00  0.00     0.031 C 
ATOM     33  C   UNL A   1      42.318  32.984  30.138  1.00  0.00     0.029 A 
ATOM     34  C   UNL A   1      43.087  32.049  29.464  1.00  0.00     0.049 A 
ATOM     35  H   UNL A   1      42.636  30.032  29.035  1.00  0.00     0.167 HD
ATOM     36  C   UNL A   1      45.106  31.266  28.236  1.00  0.00     0.074 A 
ATOM     37  C   UNL A   1      46.425  31.456  27.666  1.00  0.00     0.031 C 
ATOM     38  C   UNL A   1      44.403  32.227  28.887  1.00  0.00     0.034 A 
BRANCH  25  39
ATOM     39  C   UNL A   1      38.804  30.444  30.918  1.00  0.00     0.023 A 
ATOM     40  C   UNL A   1      37.872  31.265  30.261  1.00  0.00     0.031 A 
ATOM     41  C   UNL A   1      38.514  30.046  32.235  1.00  0.00     0.131 A 
ATOM     42  C   UNL A   1      36.762  31.760  30.961  1.00  0.00     0.055 A 
ATOM     43  C   UNL A   1      37.346  30.446  32.886  1.00  0.00     0.041 A 
ATOM     44  F   UNL A   1      39.378  29.287  32.928  1.00  0.00    -0.206 F 
ATOM     45  C   UNL A   1      36.475  31.330  32.257  1.00  0.00     0.022 A 
BRANCH  42  46
ATOM     46  S   UNL A   1      35.845  33.147  30.235  1.00  0.00     0.124 S 
ATOM     47  O   UNL A   1      34.462  32.695  30.383  1.00  0.00    -0.237 OA
ATOM     48  O   UNL A   1      36.242  34.267  31.080  1.00  0.00    -0.237 OA
ATOM     49  O   UNL A   1      36.331  33.195  28.857  1.00  0.00    -0.744 OA
ENDBRANCH  42  46
ENDBRANCH  25  39
BRANCH  26  50
ATOM     50  C   UNL A   1      47.146  27.571  26.104  1.00  0.00     0.023 A 
ATOM     51  C   UNL A   1      47.240  27.861  24.736  1.00  0.00     0.031 A 
ATOM     52  C   UNL A   1      48.218  26.889  26.713  1.00  0.00     0.131 A 
ATOM     53  C   UNL A   1      48.370  27.447  24.015  1.00  0.00     0.055 A 
ATOM     54  C   UNL A   1      49.367  26.540  26.005  1.00  0.00     0.041 A 
ATOM     55  F   UNL A   1      48.177  26.590  28.022  1.00  0.00    -0.206 F 
ATOM     56  C   UNL A   1      49.444  26.811  24.644  1.00  0.00     0.022 A 
BRANCH  53  57
ATOM     57  S   UNL A   1      48.380  27.673  22.217  1.00  0.00     0.124 S 
ATOM     58  O   UNL A   1      47.050  28.226  21.982  1.00  0.00    -0.237 OA
ATOM     59  O   UNL A   1      49.498  28.590  22.030  1.00  0.00    -0.237 OA
ATOM     60  O   UNL A   1      48.592  26.320  21.705  1.00  0.00    -0.744 OA
ENDBRANCH  53  57
ENDBRANCH  26  50
BRANCH  38  61
ATOM     61  C   UNL A   1      45.077  33.559  29.111  1.00  0.00     0.023 A 
ATOM     62  C   UNL A   1      44.934  34.641  28.227  1.00  0.00     0.031 A 
ATOM     63  C   UNL A   1      45.836  33.753  30.281  1.00  0.00     0.131 A 
ATOM     64  C   UNL A   1      45.562  35.862  28.521  1.00  0.00     0.055 A 
ATOM     65  C   UNL A   1      46.392  34.988  30.603  1.00  0.00     0.041 A 
ATOM     66  F   UNL A   1      46.021  32.744  31.149  1.00  0.00    -0.206 F 
ATOM     67  C   UNL A   1      46.261  36.051  29.717  1.00  0.00     0.022 A 
BRANCH  64  68
ATOM     68  S   UNL A   1      45.532  37.183  27.279  1.00  0.00     0.124 S 
ATOM     69  O   UNL A   1      46.131  38.296  28.008  1.00  0.00    -0.237 OA
ATOM     70  O   UNL A   1      46.336  36.620  26.199  1.00  0.00    -0.237 OA
ATOM     71  O   UNL A   1      44.110  37.336  26.977  1.00  0.00    -0.744 OA
ENDBRANCH  64  68
ENDBRANCH  38  61
ENDBRANCH  12  13
ENDBRANCH   5   7
ENDBRANCH   2   3
ENDBRANCH   1   2
BRANCH   1  72
ATOM     72  C   UNL A   1      35.528  23.703  26.008  1.00  0.00     0.117 C 
BRANCH  72  73
ATOM     73  N   UNL A   1      33.985  23.857  26.379  1.00  0.00    -0.356 N 
ATOM     74  C   UNL A   1      32.721  23.065  26.574  1.00  0.00     0.227 C 
ATOM     75  H   UNL A   1      33.790  24.809  26.535  1.00  0.00     0.163 HD
ATOM     76  O   UNL A   1      32.186  23.544  27.601  1.00  0.00    -0.275 OA
BRANCH  74  77
ATOM     77  C   UNL A   1      31.891  21.552  25.474  1.00  0.00     0.127 C 
ATOM     78  C   UNL A   1      31.664  22.906  24.164  1.00  0.00     0.127 C 
ATOM     79  C   UNL A   1      33.087  19.909  24.667  1.00  0.00     0.155 C 
ATOM     80  C   UNL A   1      33.085  22.536  22.850  1.00  0.00     0.155 C 
ATOM     81  C   UNL A   1      32.018  19.650  22.983  1.00  0.00     0.004 C 
ATOM     82  O   UNL A   1      34.380  21.531  24.027  1.00  0.00    -0.365 OA
ATOM     83  C   UNL A   1      32.064  21.000  22.066  1.00  0.00     0.004 C 
BRANCH  78  84
ATOM     84  C   UNL A   1      30.925  23.616  25.308  1.00  0.00     0.231 C 
ATOM     85  O   UNL A   1      30.229  22.973  26.094  1.00  0.00    -0.274 OA
ATOM     86  N   UNL A   1      31.265  25.187  25.532  1.00  0.00    -0.325 N 
ATOM     87  H   UNL A   1      31.492  25.418  26.461  1.00  0.00     0.169 HD
BRANCH  86  88
ATOM     88  C   UNL A   1      31.303  26.570  24.407  1.00  0.00     0.049 A 
ATOM     89  C   UNL A   1      31.079  26.341  23.080  1.00  0.00     0.027 A 
ATOM     90  C   UNL A   1      31.595  28.100  24.755  1.00  0.00     0.005 A 
ATOM     91  C   UNL A   1      30.523  27.303  22.263  1.00  0.00     0.002 A 
ATOM     92  C   UNL A   1      30.878  29.007  23.958  1.00  0.00     0.011 A 
ATOM     93  C   UNL A   1      30.251  28.563  22.777  1.00  0.00     0.001 A 
BRANCH  90  94
ATOM     94  C   UNL A   1      32.279  28.638  26.391  1.00  0.00    -0.016 A 
ATOM     95  C   UNL A   1      31.864  30.507  26.929  1.00  0.00     0.009 A 
ATOM     96  C   UNL A   1      33.678  27.995  26.683  1.00  0.00     0.009 A 
ATOM     97  C   UNL A   1      33.599  31.226  27.473  1.00  0.00     0.001 A 
ATOM     98  C   UNL A   1      34.851  28.827  27.250  1.00  0.00     0.001 A 
ATOM     99  C   UNL A   1      34.871  30.338  27.567  1.00  0.00     0.000 A 
ENDBRANCH  90  94
ENDBRANCH  86  88
ENDBRANCH  78  84
ENDBRANCH  74  77
ENDBRANCH  72  73
ENDBRANCH   1  72
TORSDOF 16
ENDMDL
