MODEL 1
REMARK VINA RESULT:     -11.5      0.000      0.000
REMARK SMILES CC(C)CC[C@H](C(=O)NCCCNC(=O)c1ccc(-c2c3nc(c(-c4cc(S(=O)(=O)[O-])ccc4F)c4ccc([nH]4)c(-c4cc(S(=O)(=O)[O-])ccc4F)c4nc(c(-c5cc(S(=O)(=O)[O-])ccc5F)c5ccc2[nH]5)C=C4)C=C3)cc1)c1ccc(F)cc1
REMARK SMILES IDX 11 1 10 2 9 3 7 4 8 5 6 7 5 8 4 9 2 10 1 11 3 12 79 13 80 14
REMARK SMILES IDX 85 15 81 16 84 17 82 18 83 19 12 20 13 21 14 22 15 24 16 25
REMARK SMILES IDX 17 26 78 27 18 28 77 29 19 30 20 31 21 32 71 33 22 34 76 35
REMARK SMILES IDX 70 36 72 37 23 38 75 39 69 40 68 41 24 43 56 44 36 45 55 46
REMARK SMILES IDX 37 47 40 48 54 49 73 50 38 51 39 52 53 54 74 55 41 56 25 57
REMARK SMILES IDX 26 58 34 59 27 60 33 61 35 62 32 63 28 64 29 65 30 66 31 67
REMARK SMILES IDX 57 68 58 69 66 70 59 71 65 72 67 73 64 74 60 75 61 76 62 77
REMARK SMILES IDX 63 78 42 79 43 80 51 81 44 82 50 83 52 84 49 85 45 86 46 87
REMARK SMILES IDX 47 88 48 89
REMARK H PARENT 9 6 13 23 72 42 40 53
REMARK Flexibility Score: inf
ROOT
ATOM      1  C   UNL A   1      31.418  31.709  26.391  1.00  0.00     0.042 C 
ENDROOT
BRANCH   1   2
ATOM      2  C   UNL A   1      31.517  30.219  26.088  1.00  0.00     0.117 C 
BRANCH   2   3
ATOM      3  N   UNL A   1      32.049  29.980  24.761  1.00  0.00    -0.356 N 
ATOM      4  C   UNL A   1      31.679  29.072  23.813  1.00  0.00     0.227 C 
ATOM      5  O   UNL A   1      32.346  29.045  22.776  1.00  0.00    -0.274 OA
ATOM      6  H   UNL A   1      32.797  30.567  24.503  1.00  0.00     0.163 HD
BRANCH   4   7
ATOM      7  C   UNL A   1      30.423  28.207  24.033  1.00  0.00     0.108 C 
BRANCH   7   8
ATOM      8  C   UNL A   1      29.519  28.423  22.777  1.00  0.00     0.018 C 
BRANCH   8   9
ATOM      9  C   UNL A   1      28.086  28.958  23.018  1.00  0.00     0.004 C 
BRANCH   9  10
ATOM     10  C   UNL A   1      27.785  30.367  22.482  1.00  0.00    -0.017 C 
ATOM     11  C   UNL A   1      27.528  31.364  23.614  1.00  0.00     0.007 C 
ATOM     12  C   UNL A   1      28.919  30.881  21.594  1.00  0.00     0.007 C 
ENDBRANCH   9  10
ENDBRANCH   8   9
ENDBRANCH   7   8
BRANCH   7  13
ATOM     13  C   UNL A   1      30.705  26.752  24.430  1.00  0.00    -0.035 A 
ATOM     14  C   UNL A   1      30.488  25.691  23.532  1.00  0.00     0.007 A 
ATOM     15  C   UNL A   1      31.212  26.427  25.701  1.00  0.00     0.007 A 
ATOM     16  C   UNL A   1      30.592  24.361  23.946  1.00  0.00     0.039 A 
ATOM     17  C   UNL A   1      31.288  25.099  26.130  1.00  0.00     0.039 A 
ATOM     18  C   UNL A   1      30.950  24.078  25.255  1.00  0.00     0.123 A 
ATOM     19  F   UNL A   1      30.970  22.809  25.680  1.00  0.00    -0.207 F 
ENDBRANCH   7  13
ENDBRANCH   4   7
ENDBRANCH   2   3
ENDBRANCH   1   2
BRANCH   1  20
ATOM     20  C   UNL A   1      32.642  32.273  27.109  1.00  0.00     0.118 C 
BRANCH  20  21
ATOM     21  N   UNL A   1      32.489  33.681  27.449  1.00  0.00    -0.352 N 
ATOM     22  C   UNL A   1      33.105  34.423  28.424  1.00  0.00     0.251 C 
ATOM     23  H   UNL A   1      31.844  34.176  26.895  1.00  0.00     0.163 HD
ATOM     24  O   UNL A   1      32.676  35.552  28.675  1.00  0.00    -0.269 OA
BRANCH  22  25
ATOM     25  C   UNL A   1      34.252  33.878  29.182  1.00  0.00     0.039 A 
ATOM     26  C   UNL A   1      34.011  32.946  30.194  1.00  0.00     0.014 A 
ATOM     27  C   UNL A   1      35.560  34.301  28.924  1.00  0.00     0.014 A 
ATOM     28  C   UNL A   1      35.083  32.398  30.906  1.00  0.00     0.010 A 
ATOM     29  C   UNL A   1      36.631  33.695  29.577  1.00  0.00     0.010 A 
ATOM     30  C   UNL A   1      36.405  32.742  30.582  1.00  0.00    -0.014 A 
BRANCH  30  31
ATOM     31  C   UNL A   1      37.557  32.123  31.293  1.00  0.00     0.031 A 
ATOM     32  C   UNL A   1      38.355  31.029  30.630  1.00  0.00     0.074 A 
ATOM     33  C   UNL A   1      37.850  32.509  32.551  1.00  0.00     0.049 A 
ATOM     34  N   UNL A   1      39.351  30.327  31.108  1.00  0.00    -0.248 NA
ATOM     35  C   UNL A   1      37.965  30.655  29.261  1.00  0.00     0.031 C 
ATOM     36  C   UNL A   1      37.120  33.526  33.315  1.00  0.00     0.029 A 
ATOM     37  N   UNL A   1      38.827  32.087  33.419  1.00  0.00    -0.354 N 
ATOM     38  C   UNL A   1      39.690  29.417  30.112  1.00  0.00     0.074 A 
ATOM     39  C   UNL A   1      38.764  29.626  29.021  1.00  0.00     0.031 C 
ATOM     40  C   UNL A   1      37.689  33.662  34.524  1.00  0.00     0.029 A 
ATOM     41  C   UNL A   1      38.788  32.711  34.647  1.00  0.00     0.049 A 
ATOM     42  H   UNL A   1      39.495  31.403  33.185  1.00  0.00     0.167 HD
ATOM     43  C   UNL A   1      40.691  28.503  30.105  1.00  0.00     0.034 A 
ATOM     44  C   UNL A   1      39.540  32.527  35.751  1.00  0.00     0.034 A 
ATOM     45  C   UNL A   1      41.626  28.329  31.190  1.00  0.00     0.049 A 
ATOM     46  C   UNL A   1      40.653  31.506  35.709  1.00  0.00     0.074 A 
ATOM     47  C   UNL A   1      42.726  27.490  31.248  1.00  0.00     0.029 A 
ATOM     48  N   UNL A   1      41.571  28.996  32.406  1.00  0.00    -0.354 N 
ATOM     49  N   UNL A   1      41.006  30.707  34.726  1.00  0.00    -0.248 NA
ATOM     50  C   UNL A   1      41.481  31.374  36.914  1.00  0.00     0.031 C 
ATOM     51  C   UNL A   1      43.287  27.591  32.525  1.00  0.00     0.029 A 
ATOM     52  C   UNL A   1      42.596  28.560  33.232  1.00  0.00     0.049 A 
ATOM     53  H   UNL A   1      40.904  29.679  32.646  1.00  0.00     0.167 HD
ATOM     54  C   UNL A   1      42.123  30.013  35.186  1.00  0.00     0.074 A 
ATOM     55  C   UNL A   1      42.395  30.501  36.520  1.00  0.00     0.031 C 
ATOM     56  C   UNL A   1      42.859  29.060  34.561  1.00  0.00     0.034 A 
BRANCH  43  57
ATOM     57  C   UNL A   1      40.816  27.596  28.905  1.00  0.00     0.023 A 
ATOM     58  C   UNL A   1      41.757  27.827  27.888  1.00  0.00     0.031 A 
ATOM     59  C   UNL A   1      39.993  26.458  28.796  1.00  0.00     0.131 A 
ATOM     60  C   UNL A   1      41.823  26.960  26.786  1.00  0.00     0.055 A 
ATOM     61  C   UNL A   1      40.114  25.560  27.735  1.00  0.00     0.041 A 
ATOM     62  F   UNL A   1      39.061  26.198  29.726  1.00  0.00    -0.206 F 
ATOM     63  C   UNL A   1      41.028  25.813  26.717  1.00  0.00     0.022 A 
BRANCH  60  64
ATOM     64  S   UNL A   1      42.895  27.404  25.392  1.00  0.00     0.124 S 
ATOM     65  O   UNL A   1      42.980  26.137  24.670  1.00  0.00    -0.237 OA
ATOM     66  O   UNL A   1      42.138  28.464  24.736  1.00  0.00    -0.237 OA
ATOM     67  O   UNL A   1      44.136  27.831  26.036  1.00  0.00    -0.744 OA
ENDBRANCH  60  64
ENDBRANCH  43  57
BRANCH  44  68
ATOM     68  C   UNL A   1      39.269  33.296  37.003  1.00  0.00     0.023 A 
ATOM     69  C   UNL A   1      39.902  34.525  37.252  1.00  0.00     0.031 A 
ATOM     70  C   UNL A   1      38.442  32.770  38.011  1.00  0.00     0.131 A 
ATOM     71  C   UNL A   1      39.762  35.144  38.505  1.00  0.00     0.055 A 
ATOM     72  C   UNL A   1      38.249  33.425  39.228  1.00  0.00     0.041 A 
ATOM     73  F   UNL A   1      37.808  31.599  37.829  1.00  0.00    -0.206 F 
ATOM     74  C   UNL A   1      38.930  34.609  39.489  1.00  0.00     0.022 A 
BRANCH  71  75
ATOM     75  S   UNL A   1      40.800  36.585  38.878  1.00  0.00     0.124 S 
ATOM     76  O   UNL A   1      41.263  36.275  40.226  1.00  0.00    -0.237 OA
ATOM     77  O   UNL A   1      41.804  36.516  37.822  1.00  0.00    -0.237 OA
ATOM     78  O   UNL A   1      39.870  37.708  38.780  1.00  0.00    -0.744 OA
ENDBRANCH  71  75
ENDBRANCH  44  68
BRANCH  56  79
ATOM     79  C   UNL A   1      44.072  28.535  35.293  1.00  0.00     0.023 A 
ATOM     80  C   UNL A   1      43.989  27.465  36.203  1.00  0.00     0.031 A 
ATOM     81  C   UNL A   1      45.329  29.133  35.092  1.00  0.00     0.131 A 
ATOM     82  C   UNL A   1      45.125  27.074  36.927  1.00  0.00     0.055 A 
ATOM     83  C   UNL A   1      46.471  28.692  35.762  1.00  0.00     0.041 A 
ATOM     84  F   UNL A   1      45.469  30.160  34.238  1.00  0.00    -0.206 F 
ATOM     85  C   UNL A   1      46.369  27.668  36.699  1.00  0.00     0.022 A 
BRANCH  82  86
ATOM     86  S   UNL A   1      44.932  25.857  38.258  1.00  0.00     0.124 S 
ATOM     87  O   UNL A   1      44.105  26.583  39.216  1.00  0.00    -0.237 OA
ATOM     88  O   UNL A   1      44.282  24.745  37.571  1.00  0.00    -0.237 OA
ATOM     89  O   UNL A   1      46.304  25.601  38.691  1.00  0.00    -0.744 OA
ENDBRANCH  82  86
ENDBRANCH  56  79
ENDBRANCH  30  31
ENDBRANCH  22  25
ENDBRANCH  20  21
ENDBRANCH   1  20
TORSDOF 17
ENDMDL
MODEL 2
REMARK VINA RESULT:     -11.3      5.317      8.580
REMARK SMILES CC(C)CC[C@H](C(=O)NCCCNC(=O)c1ccc(-c2c3nc(c(-c4cc(S(=O)(=O)[O-])ccc4F)c4ccc([nH]4)c(-c4cc(S(=O)(=O)[O-])ccc4F)c4nc(c(-c5cc(S(=O)(=O)[O-])ccc5F)c5ccc2[nH]5)C=C4)C=C3)cc1)c1ccc(F)cc1
REMARK SMILES IDX 11 1 10 2 9 3 7 4 8 5 6 7 5 8 4 9 2 10 1 11 3 12 79 13 80 14
REMARK SMILES IDX 85 15 81 16 84 17 82 18 83 19 12 20 13 21 14 22 15 24 16 25
REMARK SMILES IDX 17 26 78 27 18 28 77 29 19 30 20 31 21 32 71 33 22 34 76 35
REMARK SMILES IDX 70 36 72 37 23 38 75 39 69 40 68 41 24 43 56 44 36 45 55 46
REMARK SMILES IDX 37 47 40 48 54 49 73 50 38 51 39 52 53 54 74 55 41 56 25 57
REMARK SMILES IDX 26 58 34 59 27 60 33 61 35 62 32 63 28 64 29 65 30 66 31 67
REMARK SMILES IDX 57 68 58 69 66 70 59 71 65 72 67 73 64 74 60 75 61 76 62 77
REMARK SMILES IDX 63 78 42 79 43 80 51 81 44 82 50 83 52 84 49 85 45 86 46 87
REMARK SMILES IDX 47 88 48 89
REMARK H PARENT 9 6 13 23 72 42 40 53
REMARK Flexibility Score: inf
ROOT
ATOM      1  C   UNL A   1      35.164  23.005  26.512  1.00  0.00     0.042 C 
ENDROOT
BRANCH   1   2
ATOM      2  C   UNL A   1      33.951  23.289  25.634  1.00  0.00     0.117 C 
BRANCH   2   3
ATOM      3  N   UNL A   1      32.721  23.262  26.401  1.00  0.00    -0.356 N 
ATOM      4  C   UNL A   1      31.717  24.181  26.490  1.00  0.00     0.227 C 
ATOM      5  O   UNL A   1      30.798  23.927  27.272  1.00  0.00    -0.274 OA
ATOM      6  H   UNL A   1      32.590  22.450  26.944  1.00  0.00     0.163 HD
BRANCH   4   7
ATOM      7  C   UNL A   1      31.729  25.417  25.571  1.00  0.00     0.108 C 
BRANCH   7   8
ATOM      8  C   UNL A   1      30.277  25.556  25.011  1.00  0.00     0.018 C 
BRANCH   8   9
ATOM      9  C   UNL A   1      30.108  26.273  23.648  1.00  0.00     0.004 C 
BRANCH   9  10
ATOM     10  C   UNL A   1      30.017  27.808  23.691  1.00  0.00    -0.017 C 
ATOM     11  C   UNL A   1      31.184  28.469  22.955  1.00  0.00     0.007 C 
ATOM     12  C   UNL A   1      28.694  28.305  23.105  1.00  0.00     0.007 C 
ENDBRANCH   9  10
ENDBRANCH   8   9
ENDBRANCH   7   8
BRANCH   7  13
ATOM     13  C   UNL A   1      32.345  26.677  26.193  1.00  0.00    -0.035 A 
ATOM     14  C   UNL A   1      31.604  27.511  27.049  1.00  0.00     0.007 A 
ATOM     15  C   UNL A   1      33.684  27.033  25.945  1.00  0.00     0.007 A 
ATOM     16  C   UNL A   1      32.114  28.736  27.484  1.00  0.00     0.039 A 
ATOM     17  C   UNL A   1      34.187  28.271  26.351  1.00  0.00     0.039 A 
ATOM     18  C   UNL A   1      33.386  29.125  27.095  1.00  0.00     0.123 A 
ATOM     19  F   UNL A   1      33.848  30.333  27.439  1.00  0.00    -0.207 F 
ENDBRANCH   7  13
ENDBRANCH   4   7
ENDBRANCH   2   3
ENDBRANCH   1   2
BRANCH   1  20
ATOM     20  C   UNL A   1      36.484  23.478  25.909  1.00  0.00     0.118 C 
BRANCH  20  21
ATOM     21  N   UNL A   1      37.548  22.494  26.052  1.00  0.00    -0.352 N 
ATOM     22  C   UNL A   1      38.871  22.667  26.367  1.00  0.00     0.251 C 
ATOM     23  H   UNL A   1      37.275  21.560  25.900  1.00  0.00     0.163 HD
ATOM     24  O   UNL A   1      39.645  21.716  26.232  1.00  0.00    -0.269 OA
BRANCH  22  25
ATOM     25  C   UNL A   1      39.374  23.975  26.840  1.00  0.00     0.039 A 
ATOM     26  C   UNL A   1      39.973  24.840  25.921  1.00  0.00     0.014 A 
ATOM     27  C   UNL A   1      39.288  24.342  28.186  1.00  0.00     0.014 A 
ATOM     28  C   UNL A   1      40.433  26.092  26.341  1.00  0.00     0.010 A 
ATOM     29  C   UNL A   1      39.671  25.621  28.586  1.00  0.00     0.010 A 
ATOM     30  C   UNL A   1      40.256  26.508  27.670  1.00  0.00    -0.014 A 
BRANCH  30  31
ATOM     31  C   UNL A   1      40.688  27.861  28.116  1.00  0.00     0.031 A 
ATOM     32  C   UNL A   1      42.150  28.230  28.103  1.00  0.00     0.074 A 
ATOM     33  C   UNL A   1      39.772  28.734  28.582  1.00  0.00     0.049 A 
ATOM     34  N   UNL A   1      42.727  29.332  28.509  1.00  0.00    -0.248 NA
ATOM     35  C   UNL A   1      43.088  27.218  27.594  1.00  0.00     0.031 C 
ATOM     36  C   UNL A   1      38.333  28.474  28.686  1.00  0.00     0.029 A 
ATOM     37  N   UNL A   1      39.909  30.012  29.067  1.00  0.00    -0.354 N 
ATOM     38  C   UNL A   1      44.093  29.138  28.326  1.00  0.00     0.074 A 
ATOM     39  C   UNL A   1      44.260  27.796  27.814  1.00  0.00     0.031 C 
ATOM     40  C   UNL A   1      37.722  29.563  29.181  1.00  0.00     0.029 A 
ATOM     41  C   UNL A   1      38.724  30.580  29.479  1.00  0.00     0.049 A 
ATOM     42  H   UNL A   1      40.775  30.478  29.115  1.00  0.00     0.167 HD
ATOM     43  C   UNL A   1      45.109  30.007  28.551  1.00  0.00     0.034 A 
ATOM     44  C   UNL A   1      38.474  31.778  30.046  1.00  0.00     0.034 A 
ATOM     45  C   UNL A   1      44.921  31.354  29.031  1.00  0.00     0.049 A 
ATOM     46  C   UNL A   1      39.628  32.726  30.277  1.00  0.00     0.074 A 
ATOM     47  C   UNL A   1      45.876  32.340  29.214  1.00  0.00     0.029 A 
ATOM     48  N   UNL A   1      43.705  31.904  29.413  1.00  0.00    -0.354 N 
ATOM     49  N   UNL A   1      40.906  32.551  30.025  1.00  0.00    -0.248 NA
ATOM     50  C   UNL A   1      39.306  34.039  30.850  1.00  0.00     0.031 C 
ATOM     51  C   UNL A   1      45.251  33.456  29.779  1.00  0.00     0.029 A 
ATOM     52  C   UNL A   1      43.892  33.202  29.863  1.00  0.00     0.049 A 
ATOM     53  H   UNL A   1      42.838  31.440  29.370  1.00  0.00     0.167 HD
ATOM     54  C   UNL A   1      41.527  33.749  30.369  1.00  0.00     0.074 A 
ATOM     55  C   UNL A   1      40.484  34.642  30.825  1.00  0.00     0.031 C 
ATOM     56  C   UNL A   1      42.841  34.084  30.311  1.00  0.00     0.034 A 
BRANCH  43  57
ATOM     57  C   UNL A   1      46.520  29.525  28.312  1.00  0.00     0.023 A 
ATOM     58  C   UNL A   1      47.279  28.904  29.318  1.00  0.00     0.031 A 
ATOM     59  C   UNL A   1      47.102  29.665  27.038  1.00  0.00     0.131 A 
ATOM     60  C   UNL A   1      48.591  28.487  29.046  1.00  0.00     0.055 A 
ATOM     61  C   UNL A   1      48.380  29.182  26.755  1.00  0.00     0.041 A 
ATOM     62  F   UNL A   1      46.433  30.270  26.044  1.00  0.00    -0.206 F 
ATOM     63  C   UNL A   1      49.136  28.596  27.765  1.00  0.00     0.022 A 
BRANCH  60  64
ATOM     64  S   UNL A   1      49.615  27.888  30.418  1.00  0.00     0.124 S 
ATOM     65  O   UNL A   1      49.567  29.021  31.339  1.00  0.00    -0.237 OA
ATOM     66  O   UNL A   1      48.903  26.688  30.844  1.00  0.00    -0.237 OA
ATOM     67  O   UNL A   1      50.917  27.653  29.797  1.00  0.00    -0.744 OA
ENDBRANCH  60  64
ENDBRANCH  43  57
BRANCH  44  68
ATOM     68  C   UNL A   1      37.091  32.157  30.465  1.00  0.00     0.023 A 
ATOM     69  C   UNL A   1      36.195  32.750  29.560  1.00  0.00     0.031 A 
ATOM     70  C   UNL A   1      36.674  32.015  31.801  1.00  0.00     0.131 A 
ATOM     71  C   UNL A   1      34.965  33.250  30.018  1.00  0.00     0.055 A 
ATOM     72  C   UNL A   1      35.421  32.449  32.236  1.00  0.00     0.041 A 
ATOM     73  F   UNL A   1      37.487  31.452  32.711  1.00  0.00    -0.206 F 
ATOM     74  C   UNL A   1      34.567  33.091  31.346  1.00  0.00     0.022 A 
BRANCH  71  75
ATOM     75  S   UNL A   1      33.956  34.239  28.880  1.00  0.00     0.124 S 
ATOM     76  O   UNL A   1      34.925  35.216  28.398  1.00  0.00    -0.237 OA
ATOM     77  O   UNL A   1      33.519  33.237  27.915  1.00  0.00    -0.237 OA
ATOM     78  O   UNL A   1      32.902  34.775  29.739  1.00  0.00    -0.744 OA
ENDBRANCH  71  75
ENDBRANCH  44  68
BRANCH  56  79
ATOM     79  C   UNL A   1      43.209  35.500  30.687  1.00  0.00     0.023 A 
ATOM     80  C   UNL A   1      43.316  36.522  29.727  1.00  0.00     0.031 A 
ATOM     81  C   UNL A   1      43.478  35.825  32.028  1.00  0.00     0.131 A 
ATOM     82  C   UNL A   1      43.750  37.800  30.112  1.00  0.00     0.055 A 
ATOM     83  C   UNL A   1      43.840  37.116  32.416  1.00  0.00     0.041 A 
ATOM     84  F   UNL A   1      43.395  34.889  32.989  1.00  0.00    -0.206 F 
ATOM     85  C   UNL A   1      43.995  38.108  31.453  1.00  0.00     0.022 A 
BRANCH  82  86
ATOM     86  S   UNL A   1      44.106  39.024  28.821  1.00  0.00     0.124 S 
ATOM     87  O   UNL A   1      45.565  39.000  28.774  1.00  0.00    -0.237 OA
ATOM     88  O   UNL A   1      43.422  38.461  27.661  1.00  0.00    -0.237 OA
ATOM     89  O   UNL A   1      43.523  40.257  29.347  1.00  0.00    -0.744 OA
ENDBRANCH  82  86
ENDBRANCH  56  79
ENDBRANCH  30  31
ENDBRANCH  22  25
ENDBRANCH  20  21
ENDBRANCH   1  20
TORSDOF 17
ENDMDL
MODEL 3
REMARK VINA RESULT:     -11.2      1.348      1.677
REMARK SMILES CC(C)CC[C@H](C(=O)NCCCNC(=O)c1ccc(-c2c3nc(c(-c4cc(S(=O)(=O)[O-])ccc4F)c4ccc([nH]4)c(-c4cc(S(=O)(=O)[O-])ccc4F)c4nc(c(-c5cc(S(=O)(=O)[O-])ccc5F)c5ccc2[nH]5)C=C4)C=C3)cc1)c1ccc(F)cc1
REMARK SMILES IDX 11 1 10 2 9 3 7 4 8 5 6 7 5 8 4 9 2 10 1 11 3 12 79 13 80 14
REMARK SMILES IDX 85 15 81 16 84 17 82 18 83 19 12 20 13 21 14 22 15 24 16 25
REMARK SMILES IDX 17 26 78 27 18 28 77 29 19 30 20 31 21 32 71 33 22 34 76 35
REMARK SMILES IDX 70 36 72 37 23 38 75 39 69 40 68 41 24 43 56 44 36 45 55 46
REMARK SMILES IDX 37 47 40 48 54 49 73 50 38 51 39 52 53 54 74 55 41 56 25 57
REMARK SMILES IDX 26 58 34 59 27 60 33 61 35 62 32 63 28 64 29 65 30 66 31 67
REMARK SMILES IDX 57 68 58 69 66 70 59 71 65 72 67 73 64 74 60 75 61 76 62 77
REMARK SMILES IDX 63 78 42 79 43 80 51 81 44 82 50 83 52 84 49 85 45 86 46 87
REMARK SMILES IDX 47 88 48 89
REMARK H PARENT 9 6 13 23 72 42 40 53
REMARK Flexibility Score: inf
ROOT
ATOM      1  C   UNL A   1      31.656  31.738  26.866  1.00  0.00     0.042 C 
ENDROOT
BRANCH   1   2
ATOM      2  C   UNL A   1      31.881  30.242  26.684  1.00  0.00     0.117 C 
BRANCH   2   3
ATOM      3  N   UNL A   1      32.715  29.966  25.530  1.00  0.00    -0.356 N 
ATOM      4  C   UNL A   1      32.488  29.165  24.450  1.00  0.00     0.227 C 
ATOM      5  O   UNL A   1      33.401  29.067  23.628  1.00  0.00    -0.274 OA
ATOM      6  H   UNL A   1      33.583  30.431  25.526  1.00  0.00     0.163 HD
BRANCH   4   7
ATOM      7  C   UNL A   1      31.106  28.510  24.261  1.00  0.00     0.108 C 
BRANCH   7   8
ATOM      8  C   UNL A   1      30.584  28.987  22.868  1.00  0.00     0.018 C 
BRANCH   8   9
ATOM      9  C   UNL A   1      29.069  29.278  22.739  1.00  0.00     0.004 C 
BRANCH   9  10
ATOM     10  C   UNL A   1      28.676  30.737  22.452  1.00  0.00    -0.017 C 
ATOM     11  C   UNL A   1      28.012  30.889  21.081  1.00  0.00     0.007 C 
ATOM     12  C   UNL A   1      27.747  31.289  23.535  1.00  0.00     0.007 C 
ENDBRANCH   9  10
ENDBRANCH   8   9
ENDBRANCH   7   8
BRANCH   7  13
ATOM     13  C   UNL A   1      31.069  26.999  24.524  1.00  0.00    -0.035 A 
ATOM     14  C   UNL A   1      30.830  26.079  23.487  1.00  0.00     0.007 A 
ATOM     15  C   UNL A   1      31.293  26.476  25.811  1.00  0.00     0.007 A 
ATOM     16  C   UNL A   1      30.638  24.722  23.754  1.00  0.00     0.039 A 
ATOM     17  C   UNL A   1      31.070  25.125  26.089  1.00  0.00     0.039 A 
ATOM     18  C   UNL A   1      30.718  24.264  25.060  1.00  0.00     0.123 A 
ATOM     19  F   UNL A   1      30.453  22.981  25.333  1.00  0.00    -0.207 F 
ENDBRANCH   7  13
ENDBRANCH   4   7
ENDBRANCH   2   3
ENDBRANCH   1   2
BRANCH   1  20
ATOM     20  C   UNL A   1      32.937  32.527  27.121  1.00  0.00     0.118 C 
BRANCH  20  21
ATOM     21  N   UNL A   1      32.677  33.869  27.622  1.00  0.00    -0.352 N 
ATOM     22  C   UNL A   1      33.222  34.531  28.691  1.00  0.00     0.251 C 
ATOM     23  H   UNL A   1      32.005  34.379  27.114  1.00  0.00     0.163 HD
ATOM     24  O   UNL A   1      32.707  35.588  29.064  1.00  0.00    -0.269 OA
BRANCH  22  25
ATOM     25  C   UNL A   1      34.395  33.983  29.406  1.00  0.00     0.039 A 
ATOM     26  C   UNL A   1      34.188  33.055  30.430  1.00  0.00     0.014 A 
ATOM     27  C   UNL A   1      35.693  34.398  29.096  1.00  0.00     0.014 A 
ATOM     28  C   UNL A   1      35.284  32.505  31.102  1.00  0.00     0.010 A 
ATOM     29  C   UNL A   1      36.786  33.789  29.710  1.00  0.00     0.010 A 
ATOM     30  C   UNL A   1      36.594  32.840  30.726  1.00  0.00    -0.014 A 
BRANCH  30  31
ATOM     31  C   UNL A   1      37.769  32.218  31.394  1.00  0.00     0.031 A 
ATOM     32  C   UNL A   1      38.522  31.103  30.715  1.00  0.00     0.074 A 
ATOM     33  C   UNL A   1      38.124  32.621  32.632  1.00  0.00     0.049 A 
ATOM     34  N   UNL A   1      39.530  30.395  31.159  1.00  0.00    -0.248 NA
ATOM     35  C   UNL A   1      38.065  30.711  29.372  1.00  0.00     0.031 C 
ATOM     36  C   UNL A   1      37.444  33.660  33.410  1.00  0.00     0.029 A 
ATOM     37  N   UNL A   1      39.135  32.200  33.461  1.00  0.00    -0.354 N 
ATOM     38  C   UNL A   1      39.812  29.464  30.164  1.00  0.00     0.074 A 
ATOM     39  C   UNL A   1      38.840  29.668  29.113  1.00  0.00     0.031 C 
ATOM     40  C   UNL A   1      38.068  33.809  34.589  1.00  0.00     0.029 A 
ATOM     41  C   UNL A   1      39.160  32.845  34.679  1.00  0.00     0.049 A 
ATOM     42  H   UNL A   1      39.783  31.503  33.209  1.00  0.00     0.167 HD
ATOM     43  C   UNL A   1      40.799  28.537  30.128  1.00  0.00     0.034 A 
ATOM     44  C   UNL A   1      39.960  32.669  35.750  1.00  0.00     0.034 A 
ATOM     45  C   UNL A   1      41.781  28.369  31.172  1.00  0.00     0.049 A 
ATOM     46  C   UNL A   1      41.056  31.632  35.675  1.00  0.00     0.074 A 
ATOM     47  C   UNL A   1      42.871  27.515  31.194  1.00  0.00     0.029 A 
ATOM     48  N   UNL A   1      41.791  29.056  32.377  1.00  0.00    -0.354 N 
ATOM     49  N   UNL A   1      41.354  30.813  34.691  1.00  0.00    -0.248 NA
ATOM     50  C   UNL A   1      41.937  31.509  36.843  1.00  0.00     0.031 C 
ATOM     51  C   UNL A   1      43.491  27.630  32.442  1.00  0.00     0.029 A 
ATOM     52  C   UNL A   1      42.846  28.620  33.164  1.00  0.00     0.049 A 
ATOM     53  H   UNL A   1      41.144  29.752  32.636  1.00  0.00     0.167 HD
ATOM     54  C   UNL A   1      42.482  30.112  35.111  1.00  0.00     0.074 A 
ATOM     55  C   UNL A   1      42.821  30.618  36.423  1.00  0.00     0.031 C 
ATOM     56  C   UNL A   1      43.177  29.138  34.470  1.00  0.00     0.034 A 
BRANCH  43  57
ATOM     57  C   UNL A   1      40.857  27.608  28.939  1.00  0.00     0.023 A 
ATOM     58  C   UNL A   1      41.804  27.766  27.913  1.00  0.00     0.031 A 
ATOM     59  C   UNL A   1      39.964  26.524  28.851  1.00  0.00     0.131 A 
ATOM     60  C   UNL A   1      41.807  26.882  26.822  1.00  0.00     0.055 A 
ATOM     61  C   UNL A   1      40.020  25.606  27.801  1.00  0.00     0.041 A 
ATOM     62  F   UNL A   1      39.024  26.336  29.790  1.00  0.00    -0.206 F 
ATOM     63  C   UNL A   1      40.941  25.788  26.773  1.00  0.00     0.022 A 
BRANCH  60  64
ATOM     64  S   UNL A   1      42.895  27.239  25.416  1.00  0.00     0.124 S 
ATOM     65  O   UNL A   1      42.180  28.331  24.759  1.00  0.00    -0.237 OA
ATOM     66  O   UNL A   1      44.149  27.598  26.069  1.00  0.00    -0.237 OA
ATOM     67  O   UNL A   1      42.917  25.982  24.671  1.00  0.00    -0.744 OA
ENDBRANCH  60  64
ENDBRANCH  43  57
BRANCH  44  68
ATOM     68  C   UNL A   1      39.756  33.463  37.000  1.00  0.00     0.023 A 
ATOM     69  C   UNL A   1      39.071  32.921  38.100  1.00  0.00     0.031 A 
ATOM     70  C   UNL A   1      40.165  34.806  37.080  1.00  0.00     0.131 A 
ATOM     71  C   UNL A   1      38.745  33.739  39.194  1.00  0.00     0.055 A 
ATOM     72  C   UNL A   1      39.902  35.594  38.201  1.00  0.00     0.041 A 
ATOM     73  F   UNL A   1      40.826  35.377  36.059  1.00  0.00    -0.206 F 
ATOM     74  C   UNL A   1      39.168  35.067  39.258  1.00  0.00     0.022 A 
BRANCH  71  75
ATOM     75  S   UNL A   1      37.637  33.077  40.470  1.00  0.00     0.124 S 
ATOM     76  O   UNL A   1      36.426  32.815  39.702  1.00  0.00    -0.237 OA
ATOM     77  O   UNL A   1      38.373  31.904  40.929  1.00  0.00    -0.237 OA
ATOM     78  O   UNL A   1      37.541  34.169  41.436  1.00  0.00    -0.744 OA
ENDBRANCH  71  75
ENDBRANCH  44  68
BRANCH  56  79
ATOM     79  C   UNL A   1      44.415  28.610  35.155  1.00  0.00     0.023 A 
ATOM     80  C   UNL A   1      44.370  27.509  36.030  1.00  0.00     0.031 A 
ATOM     81  C   UNL A   1      45.657  29.234  34.943  1.00  0.00     0.131 A 
ATOM     82  C   UNL A   1      45.530  27.113  36.714  1.00  0.00     0.055 A 
ATOM     83  C   UNL A   1      46.822  28.790  35.571  1.00  0.00     0.041 A 
ATOM     84  F   UNL A   1      45.760  30.291  34.120  1.00  0.00    -0.206 F 
ATOM     85  C   UNL A   1      46.759  27.734  36.476  1.00  0.00     0.022 A 
BRANCH  82  86
ATOM     86  S   UNL A   1      45.388  25.850  38.008  1.00  0.00     0.124 S 
ATOM     87  O   UNL A   1      44.252  25.062  37.541  1.00  0.00    -0.237 OA
ATOM     88  O   UNL A   1      46.689  25.192  37.944  1.00  0.00    -0.237 OA
ATOM     89  O   UNL A   1      45.146  26.629  39.222  1.00  0.00    -0.744 OA
ENDBRANCH  82  86
ENDBRANCH  56  79
ENDBRANCH  30  31
ENDBRANCH  22  25
ENDBRANCH  20  21
ENDBRANCH   1  20
TORSDOF 17
ENDMDL
