MODEL 1
REMARK VINA RESULT:     -13.7      0.000      0.000
REMARK SMILES COc1ccc(-n2c(SCc3cn(-c4ccc(C(=O)NCCCNC(=O)c5ccc(-c6c7nc(c(-c8cc(S(=O)(=O)[O-])ccc8F)c8ccc([nH]8)c(-c8cc(S(=O)(=O)[O-])ccc8F)c8nc(c(-c9cc(S(=O)(=O)[O-])ccc9F)c9ccc6[nH]9)C=C8)C=C7)cc5)cc4)nn3)nc3ccccc3c2=O)cc1
REMARK SMILES IDX 18 1 19 2 20 3 17 5 14 6 15 7 91 8 16 9 90 10 13 11 11 12
REMARK SMILES IDX 12 13 93 14 92 15 10 16 9 17 8 18 7 19 101 20 94 21 100 22
REMARK SMILES IDX 102 23 95 24 99 25 96 26 98 27 97 28 6 29 3 30 4 31 104 32
REMARK SMILES IDX 5 33 103 34 2 35 1 36 21 37 22 38 23 39 24 40 25 41 26 43
REMARK SMILES IDX 27 44 28 45 89 46 29 47 88 48 30 49 31 50 32 51 82 52 33 53
REMARK SMILES IDX 87 54 81 55 83 56 34 57 86 58 80 59 79 60 35 62 67 63 47 64
REMARK SMILES IDX 66 65 48 66 51 67 65 68 84 69 49 70 50 71 64 73 85 74 52 75
REMARK SMILES IDX 36 76 37 77 45 78 38 79 44 80 46 81 43 82 39 83 40 84 41 85
REMARK SMILES IDX 42 86 68 87 69 88 77 89 70 90 76 91 78 92 75 93 71 94 72 95
REMARK SMILES IDX 73 96 74 97 53 98 54 99 62 100 55 101 61 102 63 103 60 104
REMARK SMILES IDX 56 105 57 106 58 107 59 108
REMARK H PARENT 20 4 24 42 83 61 51 72
REMARK Flexibility Score: inf
ROOT
ATOM      1  C   UNL A   1      31.158  30.430  25.214  1.00  0.00     0.251 C 
ATOM      2  O   UNL A   1      30.282  31.264  25.002  1.00  0.00    -0.269 OA
ATOM      3  N   UNL A   1      31.725  30.372  26.467  1.00  0.00    -0.352 N 
ATOM      4  H   UNL A   1      31.412  31.077  27.079  1.00  0.00     0.163 HD
ENDROOT
BRANCH   1   5
ATOM      5  C   UNL A   1      31.502  29.466  24.136  1.00  0.00     0.039 A 
ATOM      6  C   UNL A   1      32.111  27.333  22.472  1.00  0.00     0.066 A 
ATOM      7  C   UNL A   1      30.777  27.576  22.785  1.00  0.00     0.029 A 
ATOM      8  C   UNL A   1      33.113  28.234  22.834  1.00  0.00     0.029 A 
ATOM      9  C   UNL A   1      30.482  28.632  23.648  1.00  0.00     0.016 A 
ATOM     10  C   UNL A   1      32.789  29.323  23.624  1.00  0.00     0.016 A 
BRANCH   6  11
ATOM     11  N   UNL A   1      32.489  26.108  21.915  1.00  0.00    -0.220 N 
ATOM     12  C   UNL A   1      32.794  23.986  21.607  1.00  0.00     0.093 A 
ATOM     13  C   UNL A   1      32.275  24.891  22.494  1.00  0.00     0.141 A 
ATOM     14  N   UNL A   1      33.232  24.652  20.499  1.00  0.00    -0.134 NA
ATOM     15  N   UNL A   1      32.986  25.946  20.673  1.00  0.00    -0.062 NA
BRANCH  12  16
ATOM     16  C   UNL A   1      32.862  22.522  21.711  1.00  0.00     0.138 C 
BRANCH  16  17
ATOM     17  S   UNL A   1      32.463  21.904  23.348  1.00  0.00    -0.081 SA
BRANCH  17  18
ATOM     18  C   UNL A   1      34.064  21.488  24.085  1.00  0.00     0.176 A 
ATOM     19  N   UNL A   1      33.934  20.838  25.293  1.00  0.00    -0.255 N 
ATOM     20  C   UNL A   1      33.786  21.652  26.406  1.00  0.00     0.266 A 
ATOM     21  N   UNL A   1      34.969  22.417  23.984  1.00  0.00    -0.223 NA
ATOM     22  C   UNL A   1      33.969  23.111  26.101  1.00  0.00     0.066 A 
ATOM     23  O   UNL A   1      33.488  21.291  27.539  1.00  0.00    -0.268 OA
ATOM     24  C   UNL A   1      34.689  23.434  24.929  1.00  0.00     0.079 A 
ATOM     25  C   UNL A   1      33.247  24.093  26.773  1.00  0.00     0.016 A 
ATOM     26  C   UNL A   1      34.808  24.761  24.523  1.00  0.00     0.029 A 
ATOM     27  C   UNL A   1      33.275  25.404  26.285  1.00  0.00     0.001 A 
ATOM     28  C   UNL A   1      34.080  25.743  25.191  1.00  0.00     0.002 A 
BRANCH  19  29
ATOM     29  C   UNL A   1      33.893  19.428  25.315  1.00  0.00     0.052 A 
ATOM     30  C   UNL A   1      33.483  16.739  24.705  1.00  0.00     0.119 A 
ATOM     31  C   UNL A   1      34.698  17.334  24.378  1.00  0.00     0.048 A 
ATOM     32  C   UNL A   1      32.527  17.442  25.439  1.00  0.00     0.048 A 
ATOM     33  C   UNL A   1      34.889  18.691  24.653  1.00  0.00     0.030 A 
ATOM     34  C   UNL A   1      32.747  18.779  25.779  1.00  0.00     0.030 A 
BRANCH  30  35
ATOM     35  O   UNL A   1      33.251  15.442  24.337  1.00  0.00    -0.497 OA
ATOM     36  C   UNL A   1      32.782  14.677  25.455  1.00  0.00     0.278 C 
ENDBRANCH  30  35
ENDBRANCH  19  29
ENDBRANCH  17  18
ENDBRANCH  16  17
ENDBRANCH  12  16
ENDBRANCH   6  11
ENDBRANCH   1   5
BRANCH   3  37
ATOM     37  C   UNL A   1      32.698  29.462  27.062  1.00  0.00     0.118 C 
BRANCH  37  38
ATOM     38  C   UNL A   1      34.122  30.043  27.047  1.00  0.00     0.042 C 
BRANCH  38  39
ATOM     39  C   UNL A   1      34.441  30.823  28.302  1.00  0.00     0.118 C 
BRANCH  39  40
ATOM     40  N   UNL A   1      35.140  32.082  28.026  1.00  0.00    -0.352 N 
ATOM     41  C   UNL A   1      36.413  32.465  28.439  1.00  0.00     0.251 C 
ATOM     42  H   UNL A   1      34.648  32.738  27.481  1.00  0.00     0.163 HD
ATOM     43  O   UNL A   1      36.734  33.635  28.475  1.00  0.00    -0.269 OA
BRANCH  41  44
ATOM     44  C   UNL A   1      37.350  31.392  28.827  1.00  0.00     0.039 A 
ATOM     45  C   UNL A   1      37.298  30.097  28.307  1.00  0.00     0.014 A 
ATOM     46  C   UNL A   1      38.369  31.772  29.684  1.00  0.00     0.014 A 
ATOM     47  C   UNL A   1      38.339  29.221  28.618  1.00  0.00     0.010 A 
ATOM     48  C   UNL A   1      39.515  31.043  29.698  1.00  0.00     0.010 A 
ATOM     49  C   UNL A   1      39.453  29.717  29.311  1.00  0.00    -0.014 A 
BRANCH  49  50
ATOM     50  C   UNL A   1      40.625  28.923  29.641  1.00  0.00     0.031 A 
ATOM     51  C   UNL A   1      40.833  28.700  31.090  1.00  0.00     0.074 A 
ATOM     52  C   UNL A   1      41.281  28.208  28.696  1.00  0.00     0.049 A 
ATOM     53  N   UNL A   1      41.743  29.225  31.837  1.00  0.00    -0.248 NA
ATOM     54  C   UNL A   1      39.815  27.948  31.842  1.00  0.00     0.031 C 
ATOM     55  C   UNL A   1      40.978  28.060  27.263  1.00  0.00     0.029 A 
ATOM     56  N   UNL A   1      42.299  27.328  28.857  1.00  0.00    -0.354 N 
ATOM     57  C   UNL A   1      41.580  28.653  33.092  1.00  0.00     0.074 A 
ATOM     58  C   UNL A   1      40.256  28.090  33.094  1.00  0.00     0.031 C 
ATOM     59  C   UNL A   1      41.601  26.966  26.773  1.00  0.00     0.029 A 
ATOM     60  C   UNL A   1      42.488  26.446  27.797  1.00  0.00     0.049 A 
ATOM     61  H   UNL A   1      42.862  27.313  29.664  1.00  0.00     0.167 HD
ATOM     62  C   UNL A   1      42.646  28.460  33.920  1.00  0.00     0.034 A 
ATOM     63  C   UNL A   1      43.292  25.348  27.787  1.00  0.00     0.034 A 
ATOM     64  C   UNL A   1      43.812  29.170  33.432  1.00  0.00     0.049 A 
ATOM     65  C   UNL A   1      44.292  25.568  28.869  1.00  0.00     0.074 A 
ATOM     66  C   UNL A   1      44.071  30.490  33.110  1.00  0.00     0.029 A 
ATOM     67  N   UNL A   1      44.789  28.440  32.785  1.00  0.00    -0.354 N 
ATOM     68  N   UNL A   1      45.161  26.546  28.841  1.00  0.00    -0.248 NA
ATOM     69  C   UNL A   1      43.972  25.068  30.201  1.00  0.00     0.031 C 
ATOM     70  C   UNL A   1      44.798  30.422  31.883  1.00  0.00     0.029 A 
ATOM     71  C   UNL A   1      45.039  29.077  31.592  1.00  0.00     0.049 A 
ATOM     72  H   UNL A   1      45.225  27.622  33.115  1.00  0.00     0.167 HD
ATOM     73  C   UNL A   1      45.160  27.071  30.127  1.00  0.00     0.074 A 
ATOM     74  C   UNL A   1      44.474  26.064  30.942  1.00  0.00     0.031 C 
ATOM     75  C   UNL A   1      45.419  28.393  30.367  1.00  0.00     0.034 A 
BRANCH  62  76
ATOM     76  C   UNL A   1      42.767  27.360  34.949  1.00  0.00     0.023 A 
ATOM     77  C   UNL A   1      43.546  26.242  34.600  1.00  0.00     0.031 A 
ATOM     78  C   UNL A   1      41.960  27.213  36.099  1.00  0.00     0.131 A 
ATOM     79  C   UNL A   1      43.430  25.031  35.304  1.00  0.00     0.055 A 
ATOM     80  C   UNL A   1      41.903  26.030  36.840  1.00  0.00     0.041 A 
ATOM     81  F   UNL A   1      41.110  28.158  36.517  1.00  0.00    -0.206 F 
ATOM     82  C   UNL A   1      42.614  24.918  36.426  1.00  0.00     0.022 A 
BRANCH  79  83
ATOM     83  S   UNL A   1      44.219  23.557  34.608  1.00  0.00     0.124 S 
ATOM     84  O   UNL A   1      45.319  24.143  33.849  1.00  0.00    -0.237 OA
ATOM     85  O   UNL A   1      44.589  22.820  35.811  1.00  0.00    -0.237 OA
ATOM     86  O   UNL A   1      43.159  22.953  33.807  1.00  0.00    -0.744 OA
ENDBRANCH  79  83
ENDBRANCH  62  76
BRANCH  63  87
ATOM     87  C   UNL A   1      42.997  24.025  27.157  1.00  0.00     0.023 A 
ATOM     88  C   UNL A   1      43.903  23.350  26.308  1.00  0.00     0.031 A 
ATOM     89  C   UNL A   1      41.867  23.284  27.579  1.00  0.00     0.131 A 
ATOM     90  C   UNL A   1      43.660  22.008  25.919  1.00  0.00     0.055 A 
ATOM     91  C   UNL A   1      41.632  21.961  27.192  1.00  0.00     0.041 A 
ATOM     92  F   UNL A   1      40.990  23.792  28.458  1.00  0.00    -0.206 F 
ATOM     93  C   UNL A   1      42.534  21.313  26.366  1.00  0.00     0.022 A 
BRANCH  90  94
ATOM     94  S   UNL A   1      44.861  21.100  24.888  1.00  0.00     0.124 S 
ATOM     95  O   UNL A   1      44.444  19.716  25.071  1.00  0.00    -0.237 OA
ATOM     96  O   UNL A   1      44.641  21.675  23.565  1.00  0.00    -0.237 OA
ATOM     97  O   UNL A   1      46.153  21.437  25.489  1.00  0.00    -0.744 OA
ENDBRANCH  90  94
ENDBRANCH  63  87
BRANCH  75  98
ATOM     98  C   UNL A   1      45.934  29.265  29.232  1.00  0.00     0.023 A 
ATOM     99  C   UNL A   1      45.140  30.141  28.451  1.00  0.00     0.031 A 
ATOM    100  C   UNL A   1      47.327  29.322  29.047  1.00  0.00     0.131 A 
ATOM    101  C   UNL A   1      45.749  31.018  27.529  1.00  0.00     0.055 A 
ATOM    102  C   UNL A   1      47.927  30.206  28.151  1.00  0.00     0.041 A 
ATOM    103  F   UNL A   1      48.142  28.541  29.776  1.00  0.00    -0.206 F 
ATOM    104  C   UNL A   1      47.139  31.056  27.384  1.00  0.00     0.022 A 
BRANCH 101 105
ATOM    105  S   UNL A   1      44.745  32.128  26.483  1.00  0.00     0.124 S 
ATOM    106  O   UNL A   1      45.671  32.539  25.435  1.00  0.00    -0.237 OA
ATOM    107  O   UNL A   1      43.647  31.262  26.063  1.00  0.00    -0.237 OA
ATOM    108  O   UNL A   1      44.353  33.199  27.402  1.00  0.00    -0.744 OA
ENDBRANCH 101 105
ENDBRANCH  75  98
ENDBRANCH  49  50
ENDBRANCH  41  44
ENDBRANCH  39  40
ENDBRANCH  38  39
ENDBRANCH  37  38
ENDBRANCH   3  37
TORSDOF 19
ENDMDL
MODEL 2
REMARK VINA RESULT:     -13.2      3.273      8.340
REMARK SMILES COc1ccc(-n2c(SCc3cn(-c4ccc(C(=O)NCCCNC(=O)c5ccc(-c6c7nc(c(-c8cc(S(=O)(=O)[O-])ccc8F)c8ccc([nH]8)c(-c8cc(S(=O)(=O)[O-])ccc8F)c8nc(c(-c9cc(S(=O)(=O)[O-])ccc9F)c9ccc6[nH]9)C=C8)C=C7)cc5)cc4)nn3)nc3ccccc3c2=O)cc1
REMARK SMILES IDX 18 1 19 2 20 3 17 5 14 6 15 7 91 8 16 9 90 10 13 11 11 12
REMARK SMILES IDX 12 13 93 14 92 15 10 16 9 17 8 18 7 19 101 20 94 21 100 22
REMARK SMILES IDX 102 23 95 24 99 25 96 26 98 27 97 28 6 29 3 30 4 31 104 32
REMARK SMILES IDX 5 33 103 34 2 35 1 36 21 37 22 38 23 39 24 40 25 41 26 43
REMARK SMILES IDX 27 44 28 45 89 46 29 47 88 48 30 49 31 50 32 51 82 52 33 53
REMARK SMILES IDX 87 54 81 55 83 56 34 57 86 58 80 59 79 60 35 62 67 63 47 64
REMARK SMILES IDX 66 65 48 66 51 67 65 68 84 69 49 70 50 71 64 73 85 74 52 75
REMARK SMILES IDX 36 76 37 77 45 78 38 79 44 80 46 81 43 82 39 83 40 84 41 85
REMARK SMILES IDX 42 86 68 87 69 88 77 89 70 90 76 91 78 92 75 93 71 94 72 95
REMARK SMILES IDX 73 96 74 97 53 98 54 99 62 100 55 101 61 102 63 103 60 104
REMARK SMILES IDX 56 105 57 106 58 107 59 108
REMARK H PARENT 20 4 24 42 83 61 51 72
REMARK Flexibility Score: inf
ROOT
ATOM      1  C   UNL A   1      37.086  33.768  30.918  1.00  0.00     0.251 C 
ATOM      2  O   UNL A   1      37.911  34.667  30.785  1.00  0.00    -0.269 OA
ATOM      3  N   UNL A   1      37.042  33.083  32.110  1.00  0.00    -0.352 N 
ATOM      4  H   UNL A   1      37.750  33.340  32.744  1.00  0.00     0.163 HD
ENDROOT
BRANCH   1   5
ATOM      5  C   UNL A   1      36.115  33.522  29.819  1.00  0.00     0.039 A 
ATOM      6  C   UNL A   1      34.173  32.678  28.029  1.00  0.00     0.066 A 
ATOM      7  C   UNL A   1      33.776  33.387  29.159  1.00  0.00     0.029 A 
ATOM      8  C   UNL A   1      35.522  32.541  27.700  1.00  0.00     0.029 A 
ATOM      9  C   UNL A   1      34.756  33.781  30.071  1.00  0.00     0.016 A 
ATOM     10  C   UNL A   1      36.482  33.011  28.577  1.00  0.00     0.016 A 
BRANCH   6  11
ATOM     11  N   UNL A   1      33.230  31.967  27.280  1.00  0.00    -0.220 N 
ATOM     12  C   UNL A   1      32.246  30.405  26.148  1.00  0.00     0.093 A 
ATOM     13  C   UNL A   1      33.409  30.699  26.809  1.00  0.00     0.141 A 
ATOM     14  N   UNL A   1      31.377  31.447  26.296  1.00  0.00    -0.134 NA
ATOM     15  N   UNL A   1      31.968  32.374  27.042  1.00  0.00    -0.062 NA
BRANCH  12  16
ATOM     16  C   UNL A   1      31.877  29.182  25.422  1.00  0.00     0.138 C 
BRANCH  16  17
ATOM     17  S   UNL A   1      33.290  28.190  24.931  1.00  0.00    -0.081 SA
BRANCH  17  18
ATOM     18  C   UNL A   1      32.697  27.212  23.526  1.00  0.00     0.176 A 
ATOM     19  N   UNL A   1      31.364  26.884  23.639  1.00  0.00    -0.255 N 
ATOM     20  C   UNL A   1      31.080  25.744  24.377  1.00  0.00     0.266 A 
ATOM     21  N   UNL A   1      33.521  26.293  23.114  1.00  0.00    -0.223 NA
ATOM     22  C   UNL A   1      32.308  24.978  24.776  1.00  0.00     0.066 A 
ATOM     23  O   UNL A   1      29.972  25.370  24.743  1.00  0.00    -0.268 OA
ATOM     24  C   UNL A   1      33.478  25.203  24.017  1.00  0.00     0.079 A 
ATOM     25  C   UNL A   1      32.379  24.292  25.986  1.00  0.00     0.016 A 
ATOM     26  C   UNL A   1      34.682  24.610  24.391  1.00  0.00     0.029 A 
ATOM     27  C   UNL A   1      33.619  23.805  26.415  1.00  0.00     0.001 A 
ATOM     28  C   UNL A   1      34.754  23.930  25.606  1.00  0.00     0.002 A 
BRANCH  19  29
ATOM     29  C   UNL A   1      30.394  27.738  23.071  1.00  0.00     0.052 A 
ATOM     30  C   UNL A   1      28.620  29.824  22.554  1.00  0.00     0.119 A 
ATOM     31  C   UNL A   1      29.902  29.871  22.015  1.00  0.00     0.048 A 
ATOM     32  C   UNL A   1      28.184  28.691  23.243  1.00  0.00     0.048 A 
ATOM     33  C   UNL A   1      30.802  28.842  22.303  1.00  0.00     0.030 A 
ATOM     34  C   UNL A   1      29.061  27.628  23.470  1.00  0.00     0.030 A 
BRANCH  30  35
ATOM     35  O   UNL A   1      27.774  30.883  22.367  1.00  0.00    -0.497 OA
ATOM     36  C   UNL A   1      28.285  32.056  23.013  1.00  0.00     0.278 C 
ENDBRANCH  30  35
ENDBRANCH  19  29
ENDBRANCH  17  18
ENDBRANCH  16  17
ENDBRANCH  12  16
ENDBRANCH   6  11
ENDBRANCH   1   5
BRANCH   3  37
ATOM     37  C   UNL A   1      36.144  32.049  32.616  1.00  0.00     0.118 C 
BRANCH  37  38
ATOM     38  C   UNL A   1      36.834  30.679  32.719  1.00  0.00     0.042 C 
BRANCH  38  39
ATOM     39  C   UNL A   1      37.406  30.219  31.397  1.00  0.00     0.118 C 
BRANCH  39  40
ATOM     40  N   UNL A   1      36.377  29.744  30.468  1.00  0.00    -0.352 N 
ATOM     41  C   UNL A   1      36.539  29.319  29.151  1.00  0.00     0.251 C 
ATOM     42  H   UNL A   1      35.458  29.721  30.817  1.00  0.00     0.163 HD
ATOM     43  O   UNL A   1      35.604  29.307  28.379  1.00  0.00    -0.269 OA
BRANCH  41  44
ATOM     44  C   UNL A   1      37.890  28.885  28.742  1.00  0.00     0.039 A 
ATOM     45  C   UNL A   1      38.637  29.521  27.748  1.00  0.00     0.014 A 
ATOM     46  C   UNL A   1      38.431  27.847  29.482  1.00  0.00     0.014 A 
ATOM     47  C   UNL A   1      39.965  29.129  27.572  1.00  0.00     0.010 A 
ATOM     48  C   UNL A   1      39.782  27.717  29.532  1.00  0.00     0.010 A 
ATOM     49  C   UNL A   1      40.528  28.226  28.485  1.00  0.00    -0.014 A 
BRANCH  49  50
ATOM     50  C   UNL A   1      41.913  27.787  28.445  1.00  0.00     0.031 A 
ATOM     51  C   UNL A   1      42.146  26.545  27.673  1.00  0.00     0.074 A 
ATOM     52  C   UNL A   1      42.925  28.607  28.821  1.00  0.00     0.049 A 
ATOM     53  N   UNL A   1      42.438  25.380  28.142  1.00  0.00    -0.248 NA
ATOM     54  C   UNL A   1      41.852  26.544  26.231  1.00  0.00     0.031 C 
ATOM     55  C   UNL A   1      42.866  30.002  29.288  1.00  0.00     0.029 A 
ATOM     56  N   UNL A   1      44.260  28.401  28.725  1.00  0.00    -0.354 N 
ATOM     57  C   UNL A   1      42.635  24.565  27.035  1.00  0.00     0.074 A 
ATOM     58  C   UNL A   1      42.025  25.254  25.931  1.00  0.00     0.031 C 
ATOM     59  C   UNL A   1      44.083  30.577  29.164  1.00  0.00     0.029 A 
ATOM     60  C   UNL A   1      45.040  29.552  28.791  1.00  0.00     0.049 A 
ATOM     61  H   UNL A   1      44.649  27.504  28.615  1.00  0.00     0.167 HD
ATOM     62  C   UNL A   1      43.517  23.525  27.077  1.00  0.00     0.034 A 
ATOM     63  C   UNL A   1      46.370  29.649  28.520  1.00  0.00     0.034 A 
ATOM     64  C   UNL A   1      43.936  23.260  28.439  1.00  0.00     0.049 A 
ATOM     65  C   UNL A   1      46.915  28.270  28.667  1.00  0.00     0.074 A 
ATOM     66  C   UNL A   1      43.266  22.974  29.615  1.00  0.00     0.029 A 
ATOM     67  N   UNL A   1      45.181  23.709  28.831  1.00  0.00    -0.354 N 
ATOM     68  N   UNL A   1      46.912  27.626  29.806  1.00  0.00    -0.248 NA
ATOM     69  C   UNL A   1      46.945  27.422  27.482  1.00  0.00     0.031 C 
ATOM     70  C   UNL A   1      43.912  23.781  30.600  1.00  0.00     0.029 A 
ATOM     71  C   UNL A   1      45.002  24.416  29.998  1.00  0.00     0.049 A 
ATOM     72  H   UNL A   1      46.035  23.553  28.367  1.00  0.00     0.167 HD
ATOM     73  C   UNL A   1      46.499  26.337  29.494  1.00  0.00     0.074 A 
ATOM     74  C   UNL A   1      46.619  26.247  28.036  1.00  0.00     0.031 C 
ATOM     75  C   UNL A   1      45.800  25.567  30.385  1.00  0.00     0.034 A 
BRANCH  62  76
ATOM     76  C   UNL A   1      44.289  22.985  25.896  1.00  0.00     0.023 A 
ATOM     77  C   UNL A   1      44.247  21.594  25.687  1.00  0.00     0.031 A 
ATOM     78  C   UNL A   1      45.264  23.689  25.154  1.00  0.00     0.131 A 
ATOM     79  C   UNL A   1      45.196  20.956  24.870  1.00  0.00     0.055 A 
ATOM     80  C   UNL A   1      46.159  23.058  24.286  1.00  0.00     0.041 A 
ATOM     81  F   UNL A   1      45.477  25.001  25.296  1.00  0.00    -0.206 F 
ATOM     82  C   UNL A   1      46.152  21.680  24.165  1.00  0.00     0.022 A 
BRANCH  79  83
ATOM     83  S   UNL A   1      45.274  19.147  24.902  1.00  0.00     0.124 S 
ATOM     84  O   UNL A   1      46.603  18.918  25.458  1.00  0.00    -0.237 OA
ATOM     85  O   UNL A   1      44.148  18.815  25.768  1.00  0.00    -0.237 OA
ATOM     86  O   UNL A   1      45.112  18.778  23.499  1.00  0.00    -0.744 OA
ENDBRANCH  79  83
ENDBRANCH  62  76
BRANCH  63  87
ATOM     87  C   UNL A   1      47.062  30.766  27.809  1.00  0.00     0.023 A 
ATOM     88  C   UNL A   1      46.375  31.775  27.097  1.00  0.00     0.031 A 
ATOM     89  C   UNL A   1      48.445  30.983  28.020  1.00  0.00     0.131 A 
ATOM     90  C   UNL A   1      47.066  32.924  26.631  1.00  0.00     0.055 A 
ATOM     91  C   UNL A   1      49.121  32.115  27.559  1.00  0.00     0.041 A 
ATOM     92  F   UNL A   1      49.176  30.136  28.762  1.00  0.00    -0.206 F 
ATOM     93  C   UNL A   1      48.432  33.097  26.868  1.00  0.00     0.022 A 
BRANCH  90  94
ATOM     94  S   UNL A   1      46.177  34.270  25.779  1.00  0.00     0.124 S 
ATOM     95  O   UNL A   1      45.173  33.542  25.013  1.00  0.00    -0.237 OA
ATOM     96  O   UNL A   1      45.685  35.077  26.890  1.00  0.00    -0.237 OA
ATOM     97  O   UNL A   1      47.217  34.912  24.974  1.00  0.00    -0.744 OA
ENDBRANCH  90  94
ENDBRANCH  63  87
BRANCH  75  98
ATOM     98  C   UNL A   1      45.657  26.042  31.822  1.00  0.00     0.023 A 
ATOM     99  C   UNL A   1      44.546  26.749  32.342  1.00  0.00     0.031 A 
ATOM    100  C   UNL A   1      46.633  25.612  32.740  1.00  0.00     0.131 A 
ATOM    101  C   UNL A   1      44.450  27.003  33.727  1.00  0.00     0.055 A 
ATOM    102  C   UNL A   1      46.524  25.844  34.110  1.00  0.00     0.041 A 
ATOM    103  F   UNL A   1      47.699  24.910  32.320  1.00  0.00    -0.206 F 
ATOM    104  C   UNL A   1      45.433  26.545  34.610  1.00  0.00     0.022 A 
BRANCH 101 105
ATOM    105  S   UNL A   1      43.047  27.946  34.415  1.00  0.00     0.124 S 
ATOM    106  O   UNL A   1      42.930  29.088  33.515  1.00  0.00    -0.237 OA
ATOM    107  O   UNL A   1      41.956  26.977  34.364  1.00  0.00    -0.237 OA
ATOM    108  O   UNL A   1      43.495  28.282  35.769  1.00  0.00    -0.744 OA
ENDBRANCH 101 105
ENDBRANCH  75  98
ENDBRANCH  49  50
ENDBRANCH  41  44
ENDBRANCH  39  40
ENDBRANCH  38  39
ENDBRANCH  37  38
ENDBRANCH   3  37
TORSDOF 19
ENDMDL
MODEL 3
REMARK VINA RESULT:     -12.7      3.097      7.940
REMARK SMILES COc1ccc(-n2c(SCc3cn(-c4ccc(C(=O)NCCCNC(=O)c5ccc(-c6c7nc(c(-c8cc(S(=O)(=O)[O-])ccc8F)c8ccc([nH]8)c(-c8cc(S(=O)(=O)[O-])ccc8F)c8nc(c(-c9cc(S(=O)(=O)[O-])ccc9F)c9ccc6[nH]9)C=C8)C=C7)cc5)cc4)nn3)nc3ccccc3c2=O)cc1
REMARK SMILES IDX 18 1 19 2 20 3 17 5 14 6 15 7 91 8 16 9 90 10 13 11 11 12
REMARK SMILES IDX 12 13 93 14 92 15 10 16 9 17 8 18 7 19 101 20 94 21 100 22
REMARK SMILES IDX 102 23 95 24 99 25 96 26 98 27 97 28 6 29 3 30 4 31 104 32
REMARK SMILES IDX 5 33 103 34 2 35 1 36 21 37 22 38 23 39 24 40 25 41 26 43
REMARK SMILES IDX 27 44 28 45 89 46 29 47 88 48 30 49 31 50 32 51 82 52 33 53
REMARK SMILES IDX 87 54 81 55 83 56 34 57 86 58 80 59 79 60 35 62 67 63 47 64
REMARK SMILES IDX 66 65 48 66 51 67 65 68 84 69 49 70 50 71 64 73 85 74 52 75
REMARK SMILES IDX 36 76 37 77 45 78 38 79 44 80 46 81 43 82 39 83 40 84 41 85
REMARK SMILES IDX 42 86 68 87 69 88 77 89 70 90 76 91 78 92 75 93 71 94 72 95
REMARK SMILES IDX 73 96 74 97 53 98 54 99 62 100 55 101 61 102 63 103 60 104
REMARK SMILES IDX 56 105 57 106 58 107 59 108
REMARK H PARENT 20 4 24 42 83 61 51 72
REMARK Flexibility Score: inf
ROOT
ATOM      1  C   UNL A   1      37.268  33.872  30.801  1.00  0.00     0.251 C 
ATOM      2  O   UNL A   1      38.022  34.820  30.599  1.00  0.00    -0.269 OA
ATOM      3  N   UNL A   1      37.241  33.305  32.054  1.00  0.00    -0.352 N 
ATOM      4  H   UNL A   1      37.905  33.682  32.676  1.00  0.00     0.163 HD
ENDROOT
BRANCH   1   5
ATOM      5  C   UNL A   1      36.357  33.439  29.709  1.00  0.00     0.039 A 
ATOM      6  C   UNL A   1      34.525  32.283  27.978  1.00  0.00     0.066 A 
ATOM      7  C   UNL A   1      34.056  33.132  28.977  1.00  0.00     0.029 A 
ATOM      8  C   UNL A   1      35.892  32.148  27.729  1.00  0.00     0.029 A 
ATOM      9  C   UNL A   1      34.982  33.684  29.863  1.00  0.00     0.016 A 
ATOM     10  C   UNL A   1      36.797  32.770  28.570  1.00  0.00     0.016 A 
BRANCH   6  11
ATOM     11  N   UNL A   1      33.639  31.441  27.300  1.00  0.00    -0.220 N 
ATOM     12  C   UNL A   1      32.808  29.755  26.222  1.00  0.00     0.093 A 
ATOM     13  C   UNL A   1      33.968  30.221  26.784  1.00  0.00     0.141 A 
ATOM     14  N   UNL A   1      31.806  30.648  26.472  1.00  0.00    -0.134 NA
ATOM     15  N   UNL A   1      32.313  31.648  27.185  1.00  0.00    -0.062 NA
BRANCH  12  16
ATOM     16  C   UNL A   1      32.568  28.497  25.504  1.00  0.00     0.138 C 
BRANCH  16  17
ATOM     17  S   UNL A   1      31.119  27.610  26.083  1.00  0.00    -0.081 SA
BRANCH  17  18
ATOM     18  C   UNL A   1      30.832  26.332  24.832  1.00  0.00     0.176 A 
ATOM     19  N   UNL A   1      31.911  26.169  23.990  1.00  0.00    -0.255 N 
ATOM     20  C   UNL A   1      31.967  27.029  22.903  1.00  0.00     0.266 A 
ATOM     21  N   UNL A   1      29.642  26.339  24.307  1.00  0.00    -0.223 NA
ATOM     22  C   UNL A   1      30.735  27.873  22.754  1.00  0.00     0.066 A 
ATOM     23  O   UNL A   1      32.911  27.172  22.135  1.00  0.00    -0.268 OA
ATOM     24  C   UNL A   1      29.558  27.405  23.379  1.00  0.00     0.079 A 
ATOM     25  C   UNL A   1      30.797  29.175  22.264  1.00  0.00     0.016 A 
ATOM     26  C   UNL A   1      28.403  28.184  23.374  1.00  0.00     0.029 A 
ATOM     27  C   UNL A   1      29.668  29.994  22.375  1.00  0.00     0.001 A 
ATOM     28  C   UNL A   1      28.468  29.490  22.891  1.00  0.00     0.002 A 
BRANCH  19  29
ATOM     29  C   UNL A   1      32.897  25.213  24.312  1.00  0.00     0.052 A 
ATOM     30  C   UNL A   1      34.614  23.461  25.636  1.00  0.00     0.119 A 
ATOM     31  C   UNL A   1      33.405  22.984  25.140  1.00  0.00     0.048 A 
ATOM     32  C   UNL A   1      35.022  24.769  25.369  1.00  0.00     0.048 A 
ATOM     33  C   UNL A   1      32.529  23.871  24.508  1.00  0.00     0.030 A 
ATOM     34  C   UNL A   1      34.177  25.637  24.672  1.00  0.00     0.030 A 
BRANCH  30  35
ATOM     35  O   UNL A   1      35.422  22.622  26.353  1.00  0.00    -0.497 OA
ATOM     36  C   UNL A   1      36.754  22.629  25.822  1.00  0.00     0.278 C 
ENDBRANCH  30  35
ENDBRANCH  19  29
ENDBRANCH  17  18
ENDBRANCH  16  17
ENDBRANCH  12  16
ENDBRANCH   6  11
ENDBRANCH   1   5
BRANCH   3  37
ATOM     37  C   UNL A   1      36.414  32.254  32.638  1.00  0.00     0.118 C 
BRANCH  37  38
ATOM     38  C   UNL A   1      37.252  31.066  33.141  1.00  0.00     0.042 C 
BRANCH  38  39
ATOM     39  C   UNL A   1      37.729  30.178  32.014  1.00  0.00     0.118 C 
BRANCH  39  40
ATOM     40  N   UNL A   1      36.631  29.688  31.174  1.00  0.00    -0.352 N 
ATOM     41  C   UNL A   1      36.687  29.265  29.848  1.00  0.00     0.251 C 
ATOM     42  H   UNL A   1      35.745  29.653  31.600  1.00  0.00     0.163 HD
ATOM     43  O   UNL A   1      35.690  29.239  29.158  1.00  0.00    -0.269 OA
BRANCH  41  44
ATOM     44  C   UNL A   1      38.004  28.849  29.327  1.00  0.00     0.039 A 
ATOM     45  C   UNL A   1      38.654  29.492  28.271  1.00  0.00     0.014 A 
ATOM     46  C   UNL A   1      38.622  27.822  30.020  1.00  0.00     0.014 A 
ATOM     47  C   UNL A   1      39.968  29.119  27.982  1.00  0.00     0.010 A 
ATOM     48  C   UNL A   1      39.974  27.713  29.955  1.00  0.00     0.010 A 
ATOM     49  C   UNL A   1      40.620  28.228  28.846  1.00  0.00    -0.014 A 
BRANCH  49  50
ATOM     50  C   UNL A   1      42.003  27.810  28.689  1.00  0.00     0.031 A 
ATOM     51  C   UNL A   1      42.189  26.574  27.893  1.00  0.00     0.074 A 
ATOM     52  C   UNL A   1      43.031  28.642  28.985  1.00  0.00     0.049 A 
ATOM     53  N   UNL A   1      42.535  25.411  28.329  1.00  0.00    -0.248 NA
ATOM     54  C   UNL A   1      41.777  26.575  26.481  1.00  0.00     0.031 C 
ATOM     55  C   UNL A   1      42.992  30.034  29.463  1.00  0.00     0.029 A 
ATOM     56  N   UNL A   1      44.356  28.456  28.777  1.00  0.00    -0.354 N 
ATOM     57  C   UNL A   1      42.651  24.604  27.205  1.00  0.00     0.074 A 
ATOM     58  C   UNL A   1      41.942  25.290  26.159  1.00  0.00     0.031 C 
ATOM     59  C   UNL A   1      44.186  30.627  29.241  1.00  0.00     0.029 A 
ATOM     60  C   UNL A   1      45.123  29.617  28.785  1.00  0.00     0.049 A 
ATOM     61  H   UNL A   1      44.748  27.565  28.630  1.00  0.00     0.167 HD
ATOM     62  C   UNL A   1      43.548  23.578  27.168  1.00  0.00     0.034 A 
ATOM     63  C   UNL A   1      46.425  29.735  28.405  1.00  0.00     0.034 A 
ATOM     64  C   UNL A   1      44.083  23.312  28.489  1.00  0.00     0.049 A 
ATOM     65  C   UNL A   1      46.999  28.364  28.498  1.00  0.00     0.074 A 
ATOM     66  C   UNL A   1      43.516  23.011  29.714  1.00  0.00     0.029 A 
ATOM     67  N   UNL A   1      45.349  23.777  28.779  1.00  0.00    -0.354 N 
ATOM     68  N   UNL A   1      47.100  27.714  29.630  1.00  0.00    -0.248 NA
ATOM     69  C   UNL A   1      46.943  27.522  27.310  1.00  0.00     0.031 C 
ATOM     70  C   UNL A   1      44.230  23.822  30.647  1.00  0.00     0.029 A 
ATOM     71  C   UNL A   1      45.257  24.476  29.961  1.00  0.00     0.049 A 
ATOM     72  H   UNL A   1      46.163  23.635  28.244  1.00  0.00     0.167 HD
ATOM     73  C   UNL A   1      46.681  26.421  29.345  1.00  0.00     0.074 A 
ATOM     74  C   UNL A   1      46.681  26.340  27.882  1.00  0.00     0.031 C 
ATOM     75  C   UNL A   1      46.069  25.637  30.286  1.00  0.00     0.034 A 
BRANCH  62  76
ATOM     76  C   UNL A   1      44.227  23.054  25.924  1.00  0.00     0.023 A 
ATOM     77  C   UNL A   1      44.182  21.665  25.707  1.00  0.00     0.031 A 
ATOM     78  C   UNL A   1      45.132  23.773  25.111  1.00  0.00     0.131 A 
ATOM     79  C   UNL A   1      45.068  21.042  24.811  1.00  0.00     0.055 A 
ATOM     80  C   UNL A   1      45.959  23.158  24.168  1.00  0.00     0.041 A 
ATOM     81  F   UNL A   1      45.343  25.087  25.246  1.00  0.00    -0.206 F 
ATOM     82  C   UNL A   1      45.956  21.782  24.037  1.00  0.00     0.022 A 
BRANCH  79  83
ATOM     83  S   UNL A   1      45.165  19.234  24.822  1.00  0.00     0.124 S 
ATOM     84  O   UNL A   1      44.124  18.887  25.784  1.00  0.00    -0.237 OA
ATOM     85  O   UNL A   1      44.886  18.911  23.427  1.00  0.00    -0.237 OA
ATOM     86  O   UNL A   1      46.533  18.972  25.261  1.00  0.00    -0.744 OA
ENDBRANCH  79  83
ENDBRANCH  62  76
BRANCH  63  87
ATOM     87  C   UNL A   1      47.039  30.866  27.645  1.00  0.00     0.023 A 
ATOM     88  C   UNL A   1      46.286  31.918  27.077  1.00  0.00     0.031 A 
ATOM     89  C   UNL A   1      48.444  31.043  27.666  1.00  0.00     0.131 A 
ATOM     90  C   UNL A   1      46.936  33.069  26.561  1.00  0.00     0.055 A 
ATOM     91  C   UNL A   1      49.079  32.179  27.156  1.00  0.00     0.041 A 
ATOM     92  F   UNL A   1      49.249  30.151  28.263  1.00  0.00    -0.206 F 
ATOM     93  C   UNL A   1      48.326  33.204  26.608  1.00  0.00     0.022 A 
BRANCH  90  94
ATOM     94  S   UNL A   1      45.972  34.468  25.896  1.00  0.00     0.124 S 
ATOM     95  O   UNL A   1      45.134  34.835  27.030  1.00  0.00    -0.237 OA
ATOM     96  O   UNL A   1      47.012  35.421  25.523  1.00  0.00    -0.237 OA
ATOM     97  O   UNL A   1      45.252  33.881  24.764  1.00  0.00    -0.744 OA
ENDBRANCH  90  94
ENDBRANCH  63  87
BRANCH  75  98
ATOM     98  C   UNL A   1      46.039  26.103  31.733  1.00  0.00     0.023 A 
ATOM     99  C   UNL A   1      44.921  26.681  32.382  1.00  0.00     0.031 A 
ATOM    100  C   UNL A   1      47.157  25.796  32.530  1.00  0.00     0.131 A 
ATOM    101  C   UNL A   1      44.958  26.932  33.771  1.00  0.00     0.055 A 
ATOM    102  C   UNL A   1      47.182  26.024  33.905  1.00  0.00     0.041 A 
ATOM    103  F   UNL A   1      48.242  25.219  31.985  1.00  0.00    -0.206 F 
ATOM    104  C   UNL A   1      46.082  26.598  34.531  1.00  0.00     0.022 A 
BRANCH 101 105
ATOM    105  S   UNL A   1      43.544  27.712  34.622  1.00  0.00     0.124 S 
ATOM    106  O   UNL A   1      42.422  26.842  34.289  1.00  0.00    -0.237 OA
ATOM    107  O   UNL A   1      43.968  27.701  36.019  1.00  0.00    -0.237 OA
ATOM    108  O   UNL A   1      43.478  29.046  34.020  1.00  0.00    -0.744 OA
ENDBRANCH 101 105
ENDBRANCH  75  98
ENDBRANCH  49  50
ENDBRANCH  41  44
ENDBRANCH  39  40
ENDBRANCH  38  39
ENDBRANCH  37  38
ENDBRANCH   3  37
TORSDOF 19
ENDMDL
