MODEL 1
REMARK VINA RESULT:     -13.9      0.000      0.000
REMARK SMILES O=C(Cn1nc(C(=O)NCCCNC(=O)c2ccc(-c3c4nc(c(-c5cc(S(=O)(=O)[O-])ccc5F)c5ccc([nH]5)c(-c5cc(S(=O)(=O)[O-])ccc5F)c5nc(c(-c6cc(S(=O)(=O)[O-])ccc6F)c6ccc3[nH]6)C=C5)C=C4)cc2)c2ccccc2c1=O)Nc1ccc2c(c1)C(=O)c1ccccc1C2=O
REMARK SMILES IDX 11 1 10 2 9 3 7 4 8 5 6 7 4 8 5 9 85 10 84 11 86 12 79 13
REMARK SMILES IDX 83 14 80 15 82 16 81 17 3 18 2 19 1 20 87 21 88 23 89 24
REMARK SMILES IDX 93 25 90 26 92 27 91 28 94 29 102 30 95 31 96 32 101 33
REMARK SMILES IDX 103 34 97 35 100 36 98 37 99 38 12 39 13 40 14 41 15 43
REMARK SMILES IDX 16 44 17 45 78 46 18 47 77 48 19 49 20 50 21 51 71 52 22 53
REMARK SMILES IDX 76 54 70 55 72 56 23 57 75 58 69 59 68 60 24 62 56 63 36 64
REMARK SMILES IDX 55 65 37 66 40 67 54 68 73 69 38 70 39 71 53 73 74 74 41 75
REMARK SMILES IDX 25 76 26 77 34 78 27 79 33 80 35 81 32 82 28 83 29 84 30 85
REMARK SMILES IDX 31 86 57 87 58 88 66 89 59 90 65 91 67 92 64 93 60 94 61 95
REMARK SMILES IDX 62 96 63 97 42 98 43 99 51 100 44 101 50 102 52 103 49 104
REMARK SMILES IDX 45 105 46 106 47 107 48 108
REMARK H PARENT 9 6 87 22 13 42 72 61 40 72
REMARK Flexibility Score: inf
ROOT
ATOM      1  C   UNL A   1      48.157  39.442  27.503  1.00  0.00     0.042 C 
ENDROOT
BRANCH   1   2
ATOM      2  C   UNL A   1      48.145  40.984  27.506  1.00  0.00     0.118 C 
BRANCH   2   3
ATOM      3  N   UNL A   1      47.309  41.577  28.544  1.00  0.00    -0.351 N 
ATOM      4  C   UNL A   1      45.947  41.755  28.648  1.00  0.00     0.272 C 
ATOM      5  O   UNL A   1      45.481  42.250  29.671  1.00  0.00    -0.267 OA
ATOM      6  H   UNL A   1      47.815  41.914  29.318  1.00  0.00     0.163 HD
BRANCH   4   7
ATOM      7  C   UNL A   1      44.992  41.514  27.466  1.00  0.00     0.156 A 
ATOM      8  N   UNL A   1      44.012  42.387  25.529  1.00  0.00    -0.219 N 
ATOM      9  N   UNL A   1      44.989  42.406  26.514  1.00  0.00    -0.163 NA
ATOM     10  C   UNL A   1      43.031  41.402  25.455  1.00  0.00     0.275 A 
ATOM     11  C   UNL A   1      43.036  40.376  26.517  1.00  0.00     0.051 A 
ATOM     12  O   UNL A   1      42.181  41.347  24.570  1.00  0.00    -0.267 OA
ATOM     13  C   UNL A   1      44.003  40.408  27.521  1.00  0.00     0.020 A 
ATOM     14  C   UNL A   1      42.045  39.379  26.518  1.00  0.00     0.014 A 
ATOM     15  C   UNL A   1      43.973  39.430  28.526  1.00  0.00     0.011 A 
ATOM     16  C   UNL A   1      42.016  38.416  27.525  1.00  0.00     0.001 A 
ATOM     17  C   UNL A   1      42.979  38.445  28.530  1.00  0.00     0.001 A 
BRANCH   8  18
ATOM     18  C   UNL A   1      44.028  43.482  24.510  1.00  0.00     0.248 C 
BRANCH  18  19
ATOM     19  C   UNL A   1      44.183  43.032  23.034  1.00  0.00     0.246 C 
ATOM     20  O   UNL A   1      45.137  42.386  22.621  1.00  0.00    -0.273 OA
ATOM     21  N   UNL A   1      43.133  43.486  22.289  1.00  0.00    -0.324 N 
ATOM     22  H   UNL A   1      42.390  43.849  22.825  1.00  0.00     0.169 HD
BRANCH  21  23
ATOM     23  C   UNL A   1      42.912  43.534  20.923  1.00  0.00     0.042 A 
ATOM     24  C   UNL A   1      41.902  42.919  20.201  1.00  0.00     0.027 A 
ATOM     25  C   UNL A   1      43.801  44.385  20.281  1.00  0.00     0.039 A 
ATOM     26  C   UNL A   1      41.659  43.375  18.889  1.00  0.00     0.015 A 
ATOM     27  C   UNL A   1      43.661  44.698  18.957  1.00  0.00     0.036 A 
ATOM     28  C   UNL A   1      42.501  44.341  18.310  1.00  0.00     0.034 A 
ATOM     29  C   UNL A   1      44.651  45.596  18.369  1.00  0.00     0.194 C 
ATOM     30  C   UNL A   1      42.087  45.212  17.190  1.00  0.00     0.194 C 
ATOM     31  O   UNL A   1      45.840  45.507  18.641  1.00  0.00    -0.289 OA
ATOM     32  C   UNL A   1      44.101  46.663  17.544  1.00  0.00     0.034 A 
ATOM     33  C   UNL A   1      42.820  46.501  17.011  1.00  0.00     0.034 A 
ATOM     34  O   UNL A   1      41.112  44.932  16.512  1.00  0.00    -0.289 OA
ATOM     35  C   UNL A   1      44.794  47.872  17.469  1.00  0.00     0.013 A 
ATOM     36  C   UNL A   1      42.204  47.594  16.411  1.00  0.00     0.013 A 
ATOM     37  C   UNL A   1      44.160  48.965  16.898  1.00  0.00     0.001 A 
ATOM     38  C   UNL A   1      42.867  48.828  16.381  1.00  0.00     0.001 A 
ENDBRANCH  21  23
ENDBRANCH  18  19
ENDBRANCH   8  18
ENDBRANCH   4   7
ENDBRANCH   2   3
ENDBRANCH   1   2
BRANCH   1  39
ATOM     39  C   UNL A   1      48.189  38.780  28.892  1.00  0.00     0.118 C 
BRANCH  39  40
ATOM     40  N   UNL A   1      47.125  37.798  29.101  1.00  0.00    -0.352 N 
ATOM     41  C   UNL A   1      47.356  36.649  29.841  1.00  0.00     0.251 C 
ATOM     42  H   UNL A   1      46.235  37.955  28.710  1.00  0.00     0.163 HD
ATOM     43  O   UNL A   1      48.324  36.485  30.572  1.00  0.00    -0.269 OA
BRANCH  41  44
ATOM     44  C   UNL A   1      46.415  35.524  29.582  1.00  0.00     0.039 A 
ATOM     45  C   UNL A   1      46.513  34.404  30.405  1.00  0.00     0.014 A 
ATOM     46  C   UNL A   1      45.468  35.537  28.559  1.00  0.00     0.014 A 
ATOM     47  C   UNL A   1      45.756  33.255  30.126  1.00  0.00     0.010 A 
ATOM     48  C   UNL A   1      44.659  34.398  28.330  1.00  0.00     0.010 A 
ATOM     49  C   UNL A   1      44.835  33.205  29.060  1.00  0.00    -0.014 A 
BRANCH  49  50
ATOM     50  C   UNL A   1      44.156  31.898  28.694  1.00  0.00     0.031 A 
ATOM     51  C   UNL A   1      44.838  30.862  27.805  1.00  0.00     0.074 A 
ATOM     52  C   UNL A   1      42.965  31.537  29.227  1.00  0.00     0.049 A 
ATOM     53  N   UNL A   1      44.438  29.650  27.483  1.00  0.00    -0.248 NA
ATOM     54  C   UNL A   1      46.127  31.226  27.201  1.00  0.00     0.031 C 
ATOM     55  C   UNL A   1      42.156  32.359  30.124  1.00  0.00     0.029 A 
ATOM     56  N   UNL A   1      42.236  30.366  29.113  1.00  0.00    -0.354 N 
ATOM     57  C   UNL A   1      45.444  29.103  26.691  1.00  0.00     0.074 A 
ATOM     58  C   UNL A   1      46.434  30.139  26.508  1.00  0.00     0.031 C 
ATOM     59  C   UNL A   1      41.088  31.654  30.525  1.00  0.00     0.029 A 
ATOM     60  C   UNL A   1      41.075  30.351  29.855  1.00  0.00     0.049 A 
ATOM     61  H   UNL A   1      42.521  29.611  28.550  1.00  0.00     0.167 HD
ATOM     62  C   UNL A   1      45.571  27.853  26.182  1.00  0.00     0.034 A 
ATOM     63  C   UNL A   1      40.093  29.429  29.984  1.00  0.00     0.034 A 
ATOM     64  C   UNL A   1      44.612  26.787  26.316  1.00  0.00     0.049 A 
ATOM     65  C   UNL A   1      40.165  28.109  29.252  1.00  0.00     0.074 A 
ATOM     66  C   UNL A   1      44.700  25.496  25.819  1.00  0.00     0.029 A 
ATOM     67  N   UNL A   1      43.395  26.877  26.966  1.00  0.00    -0.354 N 
ATOM     68  N   UNL A   1      41.153  27.599  28.559  1.00  0.00    -0.248 NA
ATOM     69  C   UNL A   1      38.976  27.238  29.313  1.00  0.00     0.031 C 
ATOM     70  C   UNL A   1      43.507  24.830  26.102  1.00  0.00     0.029 A 
ATOM     71  C   UNL A   1      42.700  25.683  26.832  1.00  0.00     0.049 A 
ATOM     72  H   UNL A   1      43.070  27.670  27.451  1.00  0.00     0.167 HD
ATOM     73  C   UNL A   1      40.715  26.350  28.120  1.00  0.00     0.074 A 
ATOM     74  C   UNL A   1      39.381  26.165  28.644  1.00  0.00     0.031 C 
ATOM     75  C   UNL A   1      41.371  25.451  27.345  1.00  0.00     0.034 A 
BRANCH  62  76
ATOM     76  C   UNL A   1      46.830  27.523  25.419  1.00  0.00     0.023 A 
ATOM     77  C   UNL A   1      46.960  27.907  24.073  1.00  0.00     0.031 A 
ATOM     78  C   UNL A   1      47.820  26.702  25.985  1.00  0.00     0.131 A 
ATOM     79  C   UNL A   1      48.048  27.442  23.325  1.00  0.00     0.055 A 
ATOM     80  C   UNL A   1      48.914  26.262  25.241  1.00  0.00     0.041 A 
ATOM     81  F   UNL A   1      47.733  26.314  27.268  1.00  0.00    -0.206 F 
ATOM     82  C   UNL A   1      49.025  26.622  23.902  1.00  0.00     0.022 A 
BRANCH  79  83
ATOM     83  S   UNL A   1      48.206  27.829  21.560  1.00  0.00     0.124 S 
ATOM     84  O   UNL A   1      46.880  28.360  21.252  1.00  0.00    -0.237 OA
ATOM     85  O   UNL A   1      49.287  28.809  21.556  1.00  0.00    -0.237 OA
ATOM     86  O   UNL A   1      48.518  26.543  20.945  1.00  0.00    -0.744 OA
ENDBRANCH  79  83
ENDBRANCH  62  76
BRANCH  63  87
ATOM     87  C   UNL A   1      38.920  29.732  30.861  1.00  0.00     0.023 A 
ATOM     88  C   UNL A   1      37.885  30.573  30.413  1.00  0.00     0.031 A 
ATOM     89  C   UNL A   1      38.847  29.236  32.174  1.00  0.00     0.131 A 
ATOM     90  C   UNL A   1      36.867  30.957  31.294  1.00  0.00     0.055 A 
ATOM     91  C   UNL A   1      37.786  29.560  33.024  1.00  0.00     0.041 A 
ATOM     92  F   UNL A   1      39.806  28.426  32.646  1.00  0.00    -0.206 F 
ATOM     93  C   UNL A   1      36.801  30.441  32.591  1.00  0.00     0.022 A 
BRANCH  90  94
ATOM     94  S   UNL A   1      35.676  32.242  30.825  1.00  0.00     0.124 S 
ATOM     95  O   UNL A   1      34.662  32.112  31.866  1.00  0.00    -0.237 OA
ATOM     96  O   UNL A   1      36.499  33.447  30.891  1.00  0.00    -0.237 OA
ATOM     97  O   UNL A   1      35.258  31.852  29.483  1.00  0.00    -0.744 OA
ENDBRANCH  90  94
ENDBRANCH  63  87
BRANCH  75  98
ATOM     98  C   UNL A   1      40.693  24.152  26.968  1.00  0.00     0.023 A 
ATOM     99  C   UNL A   1      39.453  24.159  26.296  1.00  0.00     0.031 A 
ATOM    100  C   UNL A   1      41.193  22.916  27.413  1.00  0.00     0.131 A 
ATOM    101  C   UNL A   1      38.741  22.963  26.123  1.00  0.00     0.055 A 
ATOM    102  C   UNL A   1      40.499  21.721  27.202  1.00  0.00     0.041 A 
ATOM    103  F   UNL A   1      42.364  22.850  28.066  1.00  0.00    -0.206 F 
ATOM    104  C   UNL A   1      39.260  21.744  26.569  1.00  0.00     0.022 A 
BRANCH 101 105
ATOM    105  S   UNL A   1      37.078  22.952  25.393  1.00  0.00     0.124 S 
ATOM    106  O   UNL A   1      37.355  23.327  24.007  1.00  0.00    -0.237 OA
ATOM    107  O   UNL A   1      36.662  21.566  25.591  1.00  0.00    -0.237 OA
ATOM    108  O   UNL A   1      36.344  23.944  26.171  1.00  0.00    -0.744 OA
ENDBRANCH 101 105
ENDBRANCH  75  98
ENDBRANCH  49  50
ENDBRANCH  41  44
ENDBRANCH  39  40
ENDBRANCH   1  39
TORSDOF 16
ENDMDL
MODEL 2
REMARK VINA RESULT:     -13.7      1.282      1.504
REMARK SMILES O=C(Cn1nc(C(=O)NCCCNC(=O)c2ccc(-c3c4nc(c(-c5cc(S(=O)(=O)[O-])ccc5F)c5ccc([nH]5)c(-c5cc(S(=O)(=O)[O-])ccc5F)c5nc(c(-c6cc(S(=O)(=O)[O-])ccc6F)c6ccc3[nH]6)C=C5)C=C4)cc2)c2ccccc2c1=O)Nc1ccc2c(c1)C(=O)c1ccccc1C2=O
REMARK SMILES IDX 11 1 10 2 9 3 7 4 8 5 6 7 4 8 5 9 85 10 84 11 86 12 79 13
REMARK SMILES IDX 83 14 80 15 82 16 81 17 3 18 2 19 1 20 87 21 88 23 89 24
REMARK SMILES IDX 93 25 90 26 92 27 91 28 94 29 102 30 95 31 96 32 101 33
REMARK SMILES IDX 103 34 97 35 100 36 98 37 99 38 12 39 13 40 14 41 15 43
REMARK SMILES IDX 16 44 17 45 78 46 18 47 77 48 19 49 20 50 21 51 71 52 22 53
REMARK SMILES IDX 76 54 70 55 72 56 23 57 75 58 69 59 68 60 24 62 56 63 36 64
REMARK SMILES IDX 55 65 37 66 40 67 54 68 73 69 38 70 39 71 53 73 74 74 41 75
REMARK SMILES IDX 25 76 26 77 34 78 27 79 33 80 35 81 32 82 28 83 29 84 30 85
REMARK SMILES IDX 31 86 57 87 58 88 66 89 59 90 65 91 67 92 64 93 60 94 61 95
REMARK SMILES IDX 62 96 63 97 42 98 43 99 51 100 44 101 50 102 52 103 49 104
REMARK SMILES IDX 45 105 46 106 47 107 48 108
REMARK H PARENT 9 6 87 22 13 42 72 61 40 72
REMARK Flexibility Score: inf
ROOT
ATOM      1  C   UNL A   1      47.806  39.836  27.494  1.00  0.00     0.042 C 
ENDROOT
BRANCH   1   2
ATOM      2  C   UNL A   1      48.079  41.294  27.912  1.00  0.00     0.118 C 
BRANCH   2   3
ATOM      3  N   UNL A   1      47.132  41.830  28.882  1.00  0.00    -0.351 N 
ATOM      4  C   UNL A   1      45.757  41.925  28.881  1.00  0.00     0.272 C 
ATOM      5  O   UNL A   1      45.185  42.386  29.865  1.00  0.00    -0.267 OA
ATOM      6  H   UNL A   1      47.555  42.193  29.694  1.00  0.00     0.163 HD
BRANCH   4   7
ATOM      7  C   UNL A   1      44.913  41.634  27.628  1.00  0.00     0.156 A 
ATOM      8  N   UNL A   1      44.077  42.440  25.597  1.00  0.00    -0.219 N 
ATOM      9  N   UNL A   1      44.966  42.507  26.660  1.00  0.00    -0.163 NA
ATOM     10  C   UNL A   1      43.133  41.426  25.461  1.00  0.00     0.275 A 
ATOM     11  C   UNL A   1      43.077  40.421  26.542  1.00  0.00     0.051 A 
ATOM     12  O   UNL A   1      42.364  41.330  24.509  1.00  0.00    -0.267 OA
ATOM     13  C   UNL A   1      43.955  40.501  27.622  1.00  0.00     0.020 A 
ATOM     14  C   UNL A   1      42.117  39.395  26.480  1.00  0.00     0.014 A 
ATOM     15  C   UNL A   1      43.866  39.541  28.642  1.00  0.00     0.011 A 
ATOM     16  C   UNL A   1      42.030  38.452  27.501  1.00  0.00     0.001 A 
ATOM     17  C   UNL A   1      42.903  38.527  28.583  1.00  0.00     0.001 A 
BRANCH   8  18
ATOM     18  C   UNL A   1      44.149  43.517  24.560  1.00  0.00     0.248 C 
BRANCH  18  19
ATOM     19  C   UNL A   1      44.276  43.034  23.091  1.00  0.00     0.246 C 
ATOM     20  O   UNL A   1      45.212  42.360  22.680  1.00  0.00    -0.273 OA
ATOM     21  N   UNL A   1      43.227  43.496  22.350  1.00  0.00    -0.324 N 
ATOM     22  H   UNL A   1      42.499  43.884  22.888  1.00  0.00     0.169 HD
BRANCH  21  23
ATOM     23  C   UNL A   1      42.991  43.521  20.986  1.00  0.00     0.042 A 
ATOM     24  C   UNL A   1      41.976  42.890  20.285  1.00  0.00     0.027 A 
ATOM     25  C   UNL A   1      43.867  44.368  20.321  1.00  0.00     0.039 A 
ATOM     26  C   UNL A   1      41.715  43.324  18.969  1.00  0.00     0.015 A 
ATOM     27  C   UNL A   1      43.710  44.660  18.994  1.00  0.00     0.036 A 
ATOM     28  C   UNL A   1      42.544  44.286  18.366  1.00  0.00     0.034 A 
ATOM     29  C   UNL A   1      44.687  45.555  18.381  1.00  0.00     0.194 C 
ATOM     30  C   UNL A   1      42.113  45.137  17.237  1.00  0.00     0.194 C 
ATOM     31  O   UNL A   1      45.880  45.478  18.641  1.00  0.00    -0.289 OA
ATOM     32  C   UNL A   1      44.122  46.606  17.547  1.00  0.00     0.034 A 
ATOM     33  C   UNL A   1      42.836  46.428  17.031  1.00  0.00     0.034 A 
ATOM     34  O   UNL A   1      41.131  44.842  16.575  1.00  0.00    -0.289 OA
ATOM     35  C   UNL A   1      44.807  47.818  17.446  1.00  0.00     0.013 A 
ATOM     36  C   UNL A   1      42.206  47.509  16.421  1.00  0.00     0.013 A 
ATOM     37  C   UNL A   1      44.159  48.898  16.865  1.00  0.00     0.001 A 
ATOM     38  C   UNL A   1      42.861  48.745  16.365  1.00  0.00     0.001 A 
ENDBRANCH  21  23
ENDBRANCH  18  19
ENDBRANCH   8  18
ENDBRANCH   4   7
ENDBRANCH   2   3
ENDBRANCH   1   2
BRANCH   1  39
ATOM     39  C   UNL A   1      48.132  38.772  28.558  1.00  0.00     0.118 C 
BRANCH  39  40
ATOM     40  N   UNL A   1      47.054  37.808  28.776  1.00  0.00    -0.352 N 
ATOM     41  C   UNL A   1      47.212  36.757  29.667  1.00  0.00     0.251 C 
ATOM     42  H   UNL A   1      46.206  37.907  28.285  1.00  0.00     0.163 HD
ATOM     43  O   UNL A   1      48.103  36.693  30.504  1.00  0.00    -0.269 OA
BRANCH  41  44
ATOM     44  C   UNL A   1      46.302  35.598  29.452  1.00  0.00     0.039 A 
ATOM     45  C   UNL A   1      46.488  34.479  30.263  1.00  0.00     0.014 A 
ATOM     46  C   UNL A   1      45.302  35.578  28.482  1.00  0.00     0.014 A 
ATOM     47  C   UNL A   1      45.762  33.303  30.018  1.00  0.00     0.010 A 
ATOM     48  C   UNL A   1      44.527  34.409  28.290  1.00  0.00     0.010 A 
ATOM     49  C   UNL A   1      44.787  33.221  29.003  1.00  0.00    -0.014 A 
BRANCH  49  50
ATOM     50  C   UNL A   1      44.140  31.890  28.666  1.00  0.00     0.031 A 
ATOM     51  C   UNL A   1      44.846  30.852  27.799  1.00  0.00     0.074 A 
ATOM     52  C   UNL A   1      42.959  31.512  29.210  1.00  0.00     0.049 A 
ATOM     53  N   UNL A   1      44.476  29.625  27.504  1.00  0.00    -0.248 NA
ATOM     54  C   UNL A   1      46.125  31.236  27.184  1.00  0.00     0.031 C 
ATOM     55  C   UNL A   1      42.132  32.332  30.090  1.00  0.00     0.029 A 
ATOM     56  N   UNL A   1      42.259  30.320  29.122  1.00  0.00    -0.354 N 
ATOM     57  C   UNL A   1      45.494  29.085  26.721  1.00  0.00     0.074 A 
ATOM     58  C   UNL A   1      46.457  30.142  26.514  1.00  0.00     0.031 C 
ATOM     59  C   UNL A   1      41.082  31.610  30.509  1.00  0.00     0.029 A 
ATOM     60  C   UNL A   1      41.101  30.293  29.868  1.00  0.00     0.049 A 
ATOM     61  H   UNL A   1      42.563  29.561  28.576  1.00  0.00     0.167 HD
ATOM     62  C   UNL A   1      45.651  27.828  26.239  1.00  0.00     0.034 A 
ATOM     63  C   UNL A   1      40.142  29.349  30.019  1.00  0.00     0.034 A 
ATOM     64  C   UNL A   1      44.719  26.743  26.397  1.00  0.00     0.049 A 
ATOM     65  C   UNL A   1      40.246  28.016  29.315  1.00  0.00     0.074 A 
ATOM     66  C   UNL A   1      44.838  25.444  25.929  1.00  0.00     0.029 A 
ATOM     67  N   UNL A   1      43.502  26.816  27.049  1.00  0.00    -0.354 N 
ATOM     68  N   UNL A   1      41.245  27.516  28.631  1.00  0.00    -0.248 NA
ATOM     69  C   UNL A   1      39.079  27.117  29.397  1.00  0.00     0.031 C 
ATOM     70  C   UNL A   1      43.663  24.754  26.229  1.00  0.00     0.029 A 
ATOM     71  C   UNL A   1      42.836  25.602  26.942  1.00  0.00     0.049 A 
ATOM     72  H   UNL A   1      43.158  27.611  27.517  1.00  0.00     0.167 HD
ATOM     73  C   UNL A   1      40.837  26.247  28.220  1.00  0.00     0.074 A 
ATOM     74  C   UNL A   1      39.510  26.041  28.750  1.00  0.00     0.031 C 
ATOM     75  C   UNL A   1      41.514  25.349  27.462  1.00  0.00     0.034 A 
BRANCH  62  76
ATOM     76  C   UNL A   1      46.916  27.514  25.480  1.00  0.00     0.023 A 
ATOM     77  C   UNL A   1      47.021  27.839  24.116  1.00  0.00     0.031 A 
ATOM     78  C   UNL A   1      47.943  26.760  26.075  1.00  0.00     0.131 A 
ATOM     79  C   UNL A   1      48.121  27.383  23.381  1.00  0.00     0.055 A 
ATOM     80  C   UNL A   1      49.048  26.330  25.342  1.00  0.00     0.041 A 
ATOM     81  F   UNL A   1      47.881  26.429  27.375  1.00  0.00    -0.206 F 
ATOM     82  C   UNL A   1      49.134  26.630  23.986  1.00  0.00     0.022 A 
BRANCH  79  83
ATOM     83  S   UNL A   1      48.251  27.693  21.599  1.00  0.00     0.124 S 
ATOM     84  O   UNL A   1      46.946  28.281  21.303  1.00  0.00    -0.237 OA
ATOM     85  O   UNL A   1      49.380  28.615  21.528  1.00  0.00    -0.237 OA
ATOM     86  O   UNL A   1      48.479  26.370  21.027  1.00  0.00    -0.744 OA
ENDBRANCH  79  83
ENDBRANCH  62  76
BRANCH  63  87
ATOM     87  C   UNL A   1      38.964  29.642  30.891  1.00  0.00     0.023 A 
ATOM     88  C   UNL A   1      37.964  30.540  30.474  1.00  0.00     0.031 A 
ATOM     89  C   UNL A   1      38.850  29.077  32.173  1.00  0.00     0.131 A 
ATOM     90  C   UNL A   1      36.943  30.907  31.358  1.00  0.00     0.055 A 
ATOM     91  C   UNL A   1      37.785  29.388  33.022  1.00  0.00     0.041 A 
ATOM     92  F   UNL A   1      39.774  28.211  32.616  1.00  0.00    -0.206 F 
ATOM     93  C   UNL A   1      36.836  30.323  32.623  1.00  0.00     0.022 A 
BRANCH  90  94
ATOM     94  S   UNL A   1      35.802  32.255  30.941  1.00  0.00     0.124 S 
ATOM     95  O   UNL A   1      35.568  32.027  29.519  1.00  0.00    -0.237 OA
ATOM     96  O   UNL A   1      34.672  31.970  31.821  1.00  0.00    -0.237 OA
ATOM     97  O   UNL A   1      36.555  33.459  31.272  1.00  0.00    -0.744 OA
ENDBRANCH  90  94
ENDBRANCH  63  87
BRANCH  75  98
ATOM     98  C   UNL A   1      40.868  24.026  27.116  1.00  0.00     0.023 A 
ATOM     99  C   UNL A   1      41.621  22.833  27.133  1.00  0.00     0.031 A 
ATOM    100  C   UNL A   1      39.554  23.966  26.619  1.00  0.00     0.131 A 
ATOM    101  C   UNL A   1      41.070  21.647  26.626  1.00  0.00     0.055 A 
ATOM    102  C   UNL A   1      38.995  22.773  26.153  1.00  0.00     0.041 A 
ATOM    103  F   UNL A   1      38.794  25.071  26.571  1.00  0.00    -0.206 F 
ATOM    104  C   UNL A   1      39.759  21.610  26.141  1.00  0.00     0.022 A 
BRANCH 101 105
ATOM    105  S   UNL A   1      42.057  20.128  26.497  1.00  0.00     0.124 S 
ATOM    106  O   UNL A   1      43.378  20.654  26.156  1.00  0.00    -0.237 OA
ATOM    107  O   UNL A   1      41.940  19.567  27.841  1.00  0.00    -0.237 OA
ATOM    108  O   UNL A   1      41.399  19.368  25.442  1.00  0.00    -0.744 OA
ENDBRANCH 101 105
ENDBRANCH  75  98
ENDBRANCH  49  50
ENDBRANCH  41  44
ENDBRANCH  39  40
ENDBRANCH   1  39
TORSDOF 16
ENDMDL
MODEL 3
REMARK VINA RESULT:     -13.6     10.312     21.293
REMARK SMILES O=C(Cn1nc(C(=O)NCCCNC(=O)c2ccc(-c3c4nc(c(-c5cc(S(=O)(=O)[O-])ccc5F)c5ccc([nH]5)c(-c5cc(S(=O)(=O)[O-])ccc5F)c5nc(c(-c6cc(S(=O)(=O)[O-])ccc6F)c6ccc3[nH]6)C=C5)C=C4)cc2)c2ccccc2c1=O)Nc1ccc2c(c1)C(=O)c1ccccc1C2=O
REMARK SMILES IDX 11 1 10 2 9 3 7 4 8 5 6 7 4 8 5 9 85 10 84 11 86 12 79 13
REMARK SMILES IDX 83 14 80 15 82 16 81 17 3 18 2 19 1 20 87 21 88 23 89 24
REMARK SMILES IDX 93 25 90 26 92 27 91 28 94 29 102 30 95 31 96 32 101 33
REMARK SMILES IDX 103 34 97 35 100 36 98 37 99 38 12 39 13 40 14 41 15 43
REMARK SMILES IDX 16 44 17 45 78 46 18 47 77 48 19 49 20 50 21 51 71 52 22 53
REMARK SMILES IDX 76 54 70 55 72 56 23 57 75 58 69 59 68 60 24 62 56 63 36 64
REMARK SMILES IDX 55 65 37 66 40 67 54 68 73 69 38 70 39 71 53 73 74 74 41 75
REMARK SMILES IDX 25 76 26 77 34 78 27 79 33 80 35 81 32 82 28 83 29 84 30 85
REMARK SMILES IDX 31 86 57 87 58 88 66 89 59 90 65 91 67 92 64 93 60 94 61 95
REMARK SMILES IDX 62 96 63 97 42 98 43 99 51 100 44 101 50 102 52 103 49 104
REMARK SMILES IDX 45 105 46 106 47 107 48 108
REMARK H PARENT 9 6 87 22 13 42 72 61 40 72
REMARK Flexibility Score: inf
ROOT
ATOM      1  C   UNL A   1      45.384  25.977  39.663  1.00  0.00     0.042 C 
ENDROOT
BRANCH   1   2
ATOM      2  C   UNL A   1      45.666  24.462  39.624  1.00  0.00     0.118 C 
BRANCH   2   3
ATOM      3  N   UNL A   1      47.081  24.112  39.615  1.00  0.00    -0.351 N 
ATOM      4  C   UNL A   1      47.751  22.964  39.252  1.00  0.00     0.272 C 
ATOM      5  O   UNL A   1      48.978  22.944  39.293  1.00  0.00    -0.267 OA
ATOM      6  H   UNL A   1      47.672  24.836  39.926  1.00  0.00     0.163 HD
BRANCH   4   7
ATOM      7  C   UNL A   1      47.019  21.643  38.957  1.00  0.00     0.156 A 
ATOM      8  N   UNL A   1      46.389  19.532  39.746  1.00  0.00    -0.219 N 
ATOM      9  N   UNL A   1      46.836  20.828  39.959  1.00  0.00    -0.163 NA
ATOM     10  C   UNL A   1      46.052  19.045  38.486  1.00  0.00     0.275 A 
ATOM     11  C   UNL A   1      46.238  19.965  37.345  1.00  0.00     0.051 A 
ATOM     12  O   UNL A   1      45.620  17.914  38.282  1.00  0.00    -0.267 OA
ATOM     13  C   UNL A   1      46.709  21.260  37.557  1.00  0.00     0.020 A 
ATOM     14  C   UNL A   1      45.953  19.516  36.044  1.00  0.00     0.014 A 
ATOM     15  C   UNL A   1      46.890  22.106  36.452  1.00  0.00     0.011 A 
ATOM     16  C   UNL A   1      46.144  20.359  34.951  1.00  0.00     0.001 A 
ATOM     17  C   UNL A   1      46.616  21.653  35.156  1.00  0.00     0.001 A 
BRANCH   8  18
ATOM     18  C   UNL A   1      46.272  18.631  40.934  1.00  0.00     0.248 C 
BRANCH  18  19
ATOM     19  C   UNL A   1      44.827  18.275  41.374  1.00  0.00     0.246 C 
ATOM     20  O   UNL A   1      44.124  19.017  42.048  1.00  0.00    -0.273 OA
ATOM     21  N   UNL A   1      44.492  17.029  40.929  1.00  0.00    -0.324 N 
ATOM     22  H   UNL A   1      45.126  16.655  40.274  1.00  0.00     0.169 HD
BRANCH  21  23
ATOM     23  C   UNL A   1      43.430  16.190  41.223  1.00  0.00     0.042 A 
ATOM     24  C   UNL A   1      42.387  15.813  40.393  1.00  0.00     0.027 A 
ATOM     25  C   UNL A   1      43.540  15.635  42.490  1.00  0.00     0.039 A 
ATOM     26  C   UNL A   1      41.616  14.695  40.770  1.00  0.00     0.015 A 
ATOM     27  C   UNL A   1      42.683  14.660  42.921  1.00  0.00     0.036 A 
ATOM     28  C   UNL A   1      41.841  14.067  42.008  1.00  0.00     0.034 A 
ATOM     29  C   UNL A   1      42.874  14.143  44.273  1.00  0.00     0.194 C 
ATOM     30  C   UNL A   1      41.459  12.668  42.291  1.00  0.00     0.194 C 
ATOM     31  O   UNL A   1      43.152  14.881  45.209  1.00  0.00    -0.289 OA
ATOM     32  C   UNL A   1      42.830  12.693  44.390  1.00  0.00     0.034 A 
ATOM     33  C   UNL A   1      42.185  11.962  43.389  1.00  0.00     0.034 A 
ATOM     34  O   UNL A   1      40.659  12.085  41.577  1.00  0.00    -0.289 OA
ATOM     35  C   UNL A   1      43.584  12.082  45.393  1.00  0.00     0.013 A 
ATOM     36  C   UNL A   1      42.326  10.578  43.377  1.00  0.00     0.013 A 
ATOM     37  C   UNL A   1      43.745  10.705  45.354  1.00  0.00     0.001 A 
ATOM     38  C   UNL A   1      43.127   9.959  44.345  1.00  0.00     0.001 A 
ENDBRANCH  21  23
ENDBRANCH  18  19
ENDBRANCH   8  18
ENDBRANCH   4   7
ENDBRANCH   2   3
ENDBRANCH   1   2
BRANCH   1  39
ATOM     39  C   UNL A   1      44.046  26.415  39.042  1.00  0.00     0.118 C 
BRANCH  39  40
ATOM     40  N   UNL A   1      44.116  26.657  37.601  1.00  0.00    -0.352 N 
ATOM     41  C   UNL A   1      43.398  25.870  36.713  1.00  0.00     0.251 C 
ATOM     42  H   UNL A   1      44.681  27.387  37.257  1.00  0.00     0.163 HD
ATOM     43  O   UNL A   1      42.485  25.123  37.040  1.00  0.00    -0.269 OA
BRANCH  41  44
ATOM     44  C   UNL A   1      43.905  25.863  35.313  1.00  0.00     0.039 A 
ATOM     45  C   UNL A   1      45.004  25.053  35.034  1.00  0.00     0.014 A 
ATOM     46  C   UNL A   1      43.347  26.631  34.292  1.00  0.00     0.014 A 
ATOM     47  C   UNL A   1      45.619  25.109  33.773  1.00  0.00     0.010 A 
ATOM     48  C   UNL A   1      43.933  26.626  33.004  1.00  0.00     0.010 A 
ATOM     49  C   UNL A   1      45.125  25.923  32.734  1.00  0.00    -0.014 A 
BRANCH  49  50
ATOM     50  C   UNL A   1      45.907  26.076  31.442  1.00  0.00     0.031 A 
ATOM     51  C   UNL A   1      45.669  25.157  30.248  1.00  0.00     0.074 A 
ATOM     52  C   UNL A   1      46.767  27.103  31.245  1.00  0.00     0.049 A 
ATOM     53  N   UNL A   1      46.177  25.220  29.035  1.00  0.00    -0.248 NA
ATOM     54  C   UNL A   1      44.748  24.026  30.432  1.00  0.00     0.031 C 
ATOM     55  C   UNL A   1      47.119  28.114  32.238  1.00  0.00     0.029 A 
ATOM     56  N   UNL A   1      47.488  27.482  30.125  1.00  0.00    -0.354 N 
ATOM     57  C   UNL A   1      45.601  24.178  28.314  1.00  0.00     0.074 A 
ATOM     58  C   UNL A   1      44.770  23.445  29.241  1.00  0.00     0.031 C 
ATOM     59  C   UNL A   1      47.927  29.025  31.674  1.00  0.00     0.029 A 
ATOM     60  C   UNL A   1      48.230  28.630  30.296  1.00  0.00     0.049 A 
ATOM     61  H   UNL A   1      47.471  26.975  29.281  1.00  0.00     0.167 HD
ATOM     62  C   UNL A   1      45.710  23.862  27.000  1.00  0.00     0.034 A 
ATOM     63  C   UNL A   1      49.076  29.294  29.474  1.00  0.00     0.034 A 
ATOM     64  C   UNL A   1      46.534  24.543  26.035  1.00  0.00     0.049 A 
ATOM     65  C   UNL A   1      49.329  28.811  28.064  1.00  0.00     0.074 A 
ATOM     66  C   UNL A   1      46.674  24.260  24.685  1.00  0.00     0.029 A 
ATOM     67  N   UNL A   1      47.365  25.615  26.301  1.00  0.00    -0.354 N 
ATOM     68  N   UNL A   1      48.727  27.859  27.394  1.00  0.00    -0.248 NA
ATOM     69  C   UNL A   1      50.390  29.490  27.299  1.00  0.00     0.031 C 
ATOM     70  C   UNL A   1      47.644  25.110  24.152  1.00  0.00     0.029 A 
ATOM     71  C   UNL A   1      48.063  25.966  25.153  1.00  0.00     0.049 A 
ATOM     72  H   UNL A   1      47.450  26.062  27.174  1.00  0.00     0.167 HD
ATOM     73  C   UNL A   1      49.320  27.839  26.132  1.00  0.00     0.074 A 
ATOM     74  C   UNL A   1      50.312  28.888  26.118  1.00  0.00     0.031 C 
ATOM     75  C   UNL A   1      49.057  27.011  25.091  1.00  0.00     0.034 A 
BRANCH  62  76
ATOM     76  C   UNL A   1      44.890  22.708  26.479  1.00  0.00     0.023 A 
ATOM     77  C   UNL A   1      45.518  21.506  26.109  1.00  0.00     0.031 A 
ATOM     78  C   UNL A   1      43.519  22.863  26.211  1.00  0.00     0.131 A 
ATOM     79  C   UNL A   1      44.777  20.512  25.460  1.00  0.00     0.055 A 
ATOM     80  C   UNL A   1      42.781  21.859  25.587  1.00  0.00     0.041 A 
ATOM     81  F   UNL A   1      42.881  23.996  26.549  1.00  0.00    -0.206 F 
ATOM     82  C   UNL A   1      43.413  20.682  25.197  1.00  0.00     0.022 A 
BRANCH  79  83
ATOM     83  S   UNL A   1      45.565  18.986  24.876  1.00  0.00     0.124 S 
ATOM     84  O   UNL A   1      45.271  19.028  23.445  1.00  0.00    -0.237 OA
ATOM     85  O   UNL A   1      46.963  19.206  25.233  1.00  0.00    -0.237 OA
ATOM     86  O   UNL A   1      44.882  17.932  25.619  1.00  0.00    -0.744 OA
ENDBRANCH  79  83
ENDBRANCH  62  76
BRANCH  63  87
ATOM     87  C   UNL A   1      49.770  30.518  29.978  1.00  0.00     0.023 A 
ATOM     88  C   UNL A   1      49.270  31.800  29.689  1.00  0.00     0.031 A 
ATOM     89  C   UNL A   1      50.970  30.426  30.704  1.00  0.00     0.131 A 
ATOM     90  C   UNL A   1      50.005  32.935  30.050  1.00  0.00     0.055 A 
ATOM     91  C   UNL A   1      51.661  31.563  31.131  1.00  0.00     0.041 A 
ATOM     92  F   UNL A   1      51.486  29.226  31.011  1.00  0.00    -0.206 F 
ATOM     93  C   UNL A   1      51.188  32.825  30.786  1.00  0.00     0.022 A 
BRANCH  90  94
ATOM     94  S   UNL A   1      49.518  34.579  29.458  1.00  0.00     0.124 S 
ATOM     95  O   UNL A   1      49.648  34.432  28.012  1.00  0.00    -0.237 OA
ATOM     96  O   UNL A   1      48.150  34.681  29.961  1.00  0.00    -0.237 OA
ATOM     97  O   UNL A   1      50.479  35.473  30.092  1.00  0.00    -0.744 OA
ENDBRANCH  90  94
ENDBRANCH  63  87
BRANCH  75  98
ATOM     98  C   UNL A   1      49.841  27.154  23.805  1.00  0.00     0.023 A 
ATOM     99  C   UNL A   1      51.222  26.867  23.772  1.00  0.00     0.031 A 
ATOM    100  C   UNL A   1      49.260  27.722  22.658  1.00  0.00     0.131 A 
ATOM    101  C   UNL A   1      51.978  27.185  22.634  1.00  0.00     0.055 A 
ATOM    102  C   UNL A   1      50.010  27.999  21.512  1.00  0.00     0.041 A 
ATOM    103  F   UNL A   1      47.952  28.023  22.636  1.00  0.00    -0.206 F 
ATOM    104  C   UNL A   1      51.378  27.745  21.502  1.00  0.00     0.022 A 
BRANCH 101 105
ATOM    105  S   UNL A   1      53.781  26.965  22.608  1.00  0.00     0.124 S 
ATOM    106  O   UNL A   1      53.985  26.013  23.700  1.00  0.00    -0.237 OA
ATOM    107  O   UNL A   1      54.009  26.431  21.268  1.00  0.00    -0.237 OA
ATOM    108  O   UNL A   1      54.304  28.305  22.846  1.00  0.00    -0.744 OA
ENDBRANCH 101 105
ENDBRANCH  75  98
ENDBRANCH  49  50
ENDBRANCH  41  44
ENDBRANCH  39  40
ENDBRANCH   1  39
TORSDOF 16
ENDMDL
