MODEL 1
REMARK VINA RESULT:     -11.3      0.000      0.000
REMARK SMILES CC(C)CN(C)c1ccc([N+](=O)[O-])cc1C(=O)NCCCNC(=O)c1ccc(-c2c3nc(c(-c4cc(S(=O)(=O)[O-])ccc4F)c4ccc([nH]4)c(-c4cc(S(=O)(=O)[O-])ccc4F)c4nc(c(-c5cc(S(=O)(=O)[O-])ccc5F)c5ccc2[nH]5)C=C4)C=C3)cc1
REMARK SMILES IDX 20 1 19 2 18 3 16 4 17 5 15 7 7 8 8 9 9 10 14 11 10 12 5 13
REMARK SMILES IDX 6 14 4 15 2 16 1 17 3 18 11 19 12 20 13 21 21 22 22 23 23 24
REMARK SMILES IDX 24 26 25 27 26 28 87 29 27 30 86 31 28 32 29 33 30 34 80 35
REMARK SMILES IDX 31 36 85 37 79 38 81 39 32 40 84 41 78 42 77 43 33 45 65 46
REMARK SMILES IDX 45 47 64 48 46 49 49 50 63 51 82 52 47 53 48 54 62 56 83 57
REMARK SMILES IDX 50 58 34 59 35 60 43 61 36 62 42 63 44 64 41 65 37 66 38 67
REMARK SMILES IDX 39 68 40 69 66 70 67 71 75 72 68 73 74 74 76 75 73 76 69 77
REMARK SMILES IDX 70 78 71 79 72 80 51 81 52 82 60 83 53 84 59 85 61 86 58 87
REMARK SMILES IDX 54 88 55 89 56 90 57 91
REMARK H PARENT 18 6 22 25 81 44 49 55
REMARK Flexibility Score: inf
ROOT
ATOM      1  C   UNL A   1      31.924  28.806  26.510  1.00  0.00     0.042 C 
ENDROOT
BRANCH   1   2
ATOM      2  C   UNL A   1      32.678  27.491  26.593  1.00  0.00     0.118 C 
BRANCH   2   3
ATOM      3  N   UNL A   1      31.837  26.367  26.940  1.00  0.00    -0.352 N 
ATOM      4  C   UNL A   1      31.936  25.050  26.579  1.00  0.00     0.253 C 
ATOM      5  O   UNL A   1      31.150  24.259  27.105  1.00  0.00    -0.269 OA
ATOM      6  H   UNL A   1      31.076  26.581  27.526  1.00  0.00     0.163 HD
BRANCH   4   7
ATOM      7  C   UNL A   1      32.859  24.535  25.525  1.00  0.00     0.069 A 
ATOM      8  C   UNL A   1      32.705  24.613  24.119  1.00  0.00     0.050 A 
ATOM      9  C   UNL A   1      33.720  24.035  23.319  1.00  0.00     0.034 A 
ATOM     10  C   UNL A   1      34.872  23.466  23.864  1.00  0.00     0.088 A 
ATOM     11  C   UNL A   1      34.046  23.991  26.072  1.00  0.00     0.101 A 
ATOM     12  C   UNL A   1      35.044  23.477  25.244  1.00  0.00     0.270 A 
BRANCH   8  13
ATOM     13  N   UNL A   1      31.649  25.262  23.470  1.00  0.00    -0.374 N 
ATOM     14  C   UNL A   1      30.447  24.450  23.224  1.00  0.00     0.143 C 
BRANCH  13  15
ATOM     15  C   UNL A   1      31.965  26.257  22.420  1.00  0.00     0.119 C 
BRANCH  15  16
ATOM     16  C   UNL A   1      32.419  27.623  22.972  1.00  0.00     0.002 C 
ATOM     17  C   UNL A   1      33.750  28.064  22.358  1.00  0.00     0.009 C 
ATOM     18  C   UNL A   1      31.368  28.705  22.706  1.00  0.00     0.009 C 
ENDBRANCH  15  16
ENDBRANCH  13  15
ENDBRANCH   8  13
BRANCH  12  19
ATOM     19  N   UNL A   1      36.292  22.978  25.825  1.00  0.00     0.062 N 
ATOM     20  O   UNL A   1      37.122  23.816  26.205  1.00  0.00    -0.258 OA
ATOM     21  O   UNL A   1      36.437  21.752  25.922  1.00  0.00    -0.258 OA
ENDBRANCH  12  19
ENDBRANCH   4   7
ENDBRANCH   2   3
ENDBRANCH   1   2
BRANCH   1  22
ATOM     22  C   UNL A   1      32.782  29.947  25.964  1.00  0.00     0.118 C 
BRANCH  22  23
ATOM     23  N   UNL A   1      32.696  31.193  26.725  1.00  0.00    -0.352 N 
ATOM     24  C   UNL A   1      33.581  31.826  27.573  1.00  0.00     0.251 C 
ATOM     25  H   UNL A   1      31.844  31.671  26.609  1.00  0.00     0.163 HD
ATOM     26  O   UNL A   1      33.230  32.847  28.154  1.00  0.00    -0.269 OA
BRANCH  24  27
ATOM     27  C   UNL A   1      34.914  31.237  27.845  1.00  0.00     0.039 A 
ATOM     28  C   UNL A   1      36.019  32.081  27.985  1.00  0.00     0.014 A 
ATOM     29  C   UNL A   1      35.072  29.868  28.029  1.00  0.00     0.014 A 
ATOM     30  C   UNL A   1      37.228  31.567  28.465  1.00  0.00     0.010 A 
ATOM     31  C   UNL A   1      36.216  29.389  28.654  1.00  0.00     0.010 A 
ATOM     32  C   UNL A   1      37.309  30.233  28.898  1.00  0.00    -0.014 A 
BRANCH  32  33
ATOM     33  C   UNL A   1      38.497  29.701  29.626  1.00  0.00     0.031 A 
ATOM     34  C   UNL A   1      38.835  30.216  31.003  1.00  0.00     0.074 A 
ATOM     35  C   UNL A   1      39.342  28.853  29.004  1.00  0.00     0.049 A 
ATOM     36  N   UNL A   1      39.914  30.029  31.720  1.00  0.00    -0.248 NA
ATOM     37  C   UNL A   1      37.854  31.117  31.627  1.00  0.00     0.031 C 
ATOM     38  C   UNL A   1      39.186  28.341  27.639  1.00  0.00     0.029 A 
ATOM     39  N   UNL A   1      40.513  28.277  29.433  1.00  0.00    -0.354 N 
ATOM     40  C   UNL A   1      39.765  30.831  32.848  1.00  0.00     0.074 A 
ATOM     41  C   UNL A   1      38.525  31.559  32.679  1.00  0.00     0.031 C 
ATOM     42  C   UNL A   1      40.191  27.494  27.364  1.00  0.00     0.029 A 
ATOM     43  C   UNL A   1      41.096  27.443  28.505  1.00  0.00     0.049 A 
ATOM     44  H   UNL A   1      40.901  28.446  30.322  1.00  0.00     0.167 HD
ATOM     45  C   UNL A   1      40.566  30.928  33.939  1.00  0.00     0.034 A 
ATOM     46  C   UNL A   1      42.234  26.723  28.562  1.00  0.00     0.034 A 
ATOM     47  C   UNL A   1      41.763  30.144  34.122  1.00  0.00     0.049 A 
ATOM     48  C   UNL A   1      43.071  26.787  29.812  1.00  0.00     0.074 A 
ATOM     49  C   UNL A   1      42.608  30.099  35.218  1.00  0.00     0.029 A 
ATOM     50  N   UNL A   1      42.277  29.254  33.188  1.00  0.00    -0.354 N 
ATOM     51  N   UNL A   1      42.892  27.517  30.889  1.00  0.00    -0.248 NA
ATOM     52  C   UNL A   1      44.255  25.921  29.860  1.00  0.00     0.031 C 
ATOM     53  C   UNL A   1      43.653  29.213  34.931  1.00  0.00     0.029 A 
ATOM     54  C   UNL A   1      43.430  28.660  33.680  1.00  0.00     0.049 A 
ATOM     55  H   UNL A   1      41.881  29.070  32.306  1.00  0.00     0.167 HD
ATOM     56  C   UNL A   1      43.927  27.175  31.753  1.00  0.00     0.074 A 
ATOM     57  C   UNL A   1      44.713  26.163  31.079  1.00  0.00     0.031 C 
ATOM     58  C   UNL A   1      44.203  27.654  32.992  1.00  0.00     0.034 A 
BRANCH  45  59
ATOM     59  C   UNL A   1      40.166  31.922  35.006  1.00  0.00     0.023 A 
ATOM     60  C   UNL A   1      39.389  31.539  36.114  1.00  0.00     0.031 A 
ATOM     61  C   UNL A   1      40.516  33.278  34.889  1.00  0.00     0.131 A 
ATOM     62  C   UNL A   1      38.899  32.512  36.998  1.00  0.00     0.055 A 
ATOM     63  C   UNL A   1      40.106  34.229  35.828  1.00  0.00     0.041 A 
ATOM     64  F   UNL A   1      41.244  33.711  33.847  1.00  0.00    -0.206 F 
ATOM     65  C   UNL A   1      39.275  33.851  36.879  1.00  0.00     0.022 A 
BRANCH  62  66
ATOM     66  S   UNL A   1      37.630  32.023  38.197  1.00  0.00     0.124 S 
ATOM     67  O   UNL A   1      36.582  33.007  37.930  1.00  0.00    -0.237 OA
ATOM     68  O   UNL A   1      37.333  30.652  37.802  1.00  0.00    -0.237 OA
ATOM     69  O   UNL A   1      38.301  32.172  39.487  1.00  0.00    -0.744 OA
ENDBRANCH  62  66
ENDBRANCH  45  59
BRANCH  46  70
ATOM     70  C   UNL A   1      42.647  25.866  27.414  1.00  0.00     0.023 A 
ATOM     71  C   UNL A   1      42.184  24.546  27.304  1.00  0.00     0.031 A 
ATOM     72  C   UNL A   1      43.531  26.341  26.431  1.00  0.00     0.131 A 
ATOM     73  C   UNL A   1      42.645  23.727  26.261  1.00  0.00     0.055 A 
ATOM     74  C   UNL A   1      43.951  25.537  25.368  1.00  0.00     0.041 A 
ATOM     75  F   UNL A   1      43.991  27.601  26.482  1.00  0.00    -0.206 F 
ATOM     76  C   UNL A   1      43.518  24.216  25.287  1.00  0.00     0.022 A 
BRANCH  73  77
ATOM     77  S   UNL A   1      42.143  21.984  26.241  1.00  0.00     0.124 S 
ATOM     78  O   UNL A   1      40.710  22.090  25.993  1.00  0.00    -0.237 OA
ATOM     79  O   UNL A   1      42.947  21.451  25.146  1.00  0.00    -0.237 OA
ATOM     80  O   UNL A   1      42.514  21.509  27.572  1.00  0.00    -0.744 OA
ENDBRANCH  73  77
ENDBRANCH  46  70
BRANCH  58  81
ATOM     81  C   UNL A   1      45.376  27.041  33.712  1.00  0.00     0.023 A 
ATOM     82  C   UNL A   1      45.248  25.856  34.457  1.00  0.00     0.031 A 
ATOM     83  C   UNL A   1      46.634  27.664  33.665  1.00  0.00     0.131 A 
ATOM     84  C   UNL A   1      46.347  25.362  35.174  1.00  0.00     0.055 A 
ATOM     85  C   UNL A   1      47.739  27.138  34.337  1.00  0.00     0.041 A 
ATOM     86  F   UNL A   1      46.810  28.799  32.969  1.00  0.00    -0.206 F 
ATOM     87  C   UNL A   1      47.595  25.987  35.108  1.00  0.00     0.022 A 
BRANCH  84  88
ATOM     88  S   UNL A   1      46.101  23.939  36.272  1.00  0.00     0.124 S 
ATOM     89  O   UNL A   1      44.723  24.128  36.711  1.00  0.00    -0.237 OA
ATOM     90  O   UNL A   1      46.336  22.812  35.376  1.00  0.00    -0.237 OA
ATOM     91  O   UNL A   1      47.114  24.126  37.309  1.00  0.00    -0.744 OA
ENDBRANCH  84  88
ENDBRANCH  58  81
ENDBRANCH  32  33
ENDBRANCH  24  27
ENDBRANCH  22  23
ENDBRANCH   1  22
TORSDOF 17
ENDMDL
MODEL 2
REMARK VINA RESULT:     -11.2      1.991      3.040
REMARK SMILES CC(C)CN(C)c1ccc([N+](=O)[O-])cc1C(=O)NCCCNC(=O)c1ccc(-c2c3nc(c(-c4cc(S(=O)(=O)[O-])ccc4F)c4ccc([nH]4)c(-c4cc(S(=O)(=O)[O-])ccc4F)c4nc(c(-c5cc(S(=O)(=O)[O-])ccc5F)c5ccc2[nH]5)C=C4)C=C3)cc1
REMARK SMILES IDX 20 1 19 2 18 3 16 4 17 5 15 7 7 8 8 9 9 10 14 11 10 12 5 13
REMARK SMILES IDX 6 14 4 15 2 16 1 17 3 18 11 19 12 20 13 21 21 22 22 23 23 24
REMARK SMILES IDX 24 26 25 27 26 28 87 29 27 30 86 31 28 32 29 33 30 34 80 35
REMARK SMILES IDX 31 36 85 37 79 38 81 39 32 40 84 41 78 42 77 43 33 45 65 46
REMARK SMILES IDX 45 47 64 48 46 49 49 50 63 51 82 52 47 53 48 54 62 56 83 57
REMARK SMILES IDX 50 58 34 59 35 60 43 61 36 62 42 63 44 64 41 65 37 66 38 67
REMARK SMILES IDX 39 68 40 69 66 70 67 71 75 72 68 73 74 74 76 75 73 76 69 77
REMARK SMILES IDX 70 78 71 79 72 80 51 81 52 82 60 83 53 84 59 85 61 86 58 87
REMARK SMILES IDX 54 88 55 89 56 90 57 91
REMARK H PARENT 18 6 22 25 81 44 49 55
REMARK Flexibility Score: inf
ROOT
ATOM      1  C   UNL A   1      31.606  29.288  27.209  1.00  0.00     0.042 C 
ENDROOT
BRANCH   1   2
ATOM      2  C   UNL A   1      32.094  27.854  27.109  1.00  0.00     0.118 C 
BRANCH   2   3
ATOM      3  N   UNL A   1      31.025  26.881  27.112  1.00  0.00    -0.352 N 
ATOM      4  C   UNL A   1      30.470  26.182  26.074  1.00  0.00     0.253 C 
ATOM      5  O   UNL A   1      29.637  25.317  26.357  1.00  0.00    -0.269 OA
ATOM      6  H   UNL A   1      30.638  26.690  27.997  1.00  0.00     0.163 HD
BRANCH   4   7
ATOM      7  C   UNL A   1      30.731  26.469  24.633  1.00  0.00     0.069 A 
ATOM      8  C   UNL A   1      31.371  25.636  23.682  1.00  0.00     0.050 A 
ATOM      9  C   UNL A   1      31.513  26.138  22.366  1.00  0.00     0.034 A 
ATOM     10  C   UNL A   1      30.990  27.371  21.973  1.00  0.00     0.088 A 
ATOM     11  C   UNL A   1      30.169  27.701  24.221  1.00  0.00     0.101 A 
ATOM     12  C   UNL A   1      30.289  28.134  22.901  1.00  0.00     0.270 A 
BRANCH   8  13
ATOM     13  N   UNL A   1      31.828  24.339  23.941  1.00  0.00    -0.374 N 
ATOM     14  C   UNL A   1      30.917  23.247  23.564  1.00  0.00     0.143 C 
BRANCH  13  15
ATOM     15  C   UNL A   1      32.630  24.099  25.163  1.00  0.00     0.119 C 
BRANCH  15  16
ATOM     16  C   UNL A   1      34.149  24.254  24.951  1.00  0.00     0.002 C 
ATOM     17  C   UNL A   1      34.539  24.027  23.489  1.00  0.00     0.009 C 
ATOM     18  C   UNL A   1      34.631  25.642  25.383  1.00  0.00     0.009 C 
ENDBRANCH  15  16
ENDBRANCH  13  15
ENDBRANCH   8  13
BRANCH  12  19
ATOM     19  N   UNL A   1      29.645  29.381  22.480  1.00  0.00     0.062 N 
ATOM     20  O   UNL A   1      28.904  29.947  23.295  1.00  0.00    -0.258 OA
ATOM     21  O   UNL A   1      29.894  29.805  21.343  1.00  0.00    -0.258 OA
ENDBRANCH  12  19
ENDBRANCH   4   7
ENDBRANCH   2   3
ENDBRANCH   1   2
BRANCH   1  22
ATOM     22  C   UNL A   1      32.403  30.249  26.327  1.00  0.00     0.118 C 
BRANCH  22  23
ATOM     23  N   UNL A   1      32.424  31.633  26.798  1.00  0.00    -0.352 N 
ATOM     24  C   UNL A   1      33.382  32.375  27.459  1.00  0.00     0.251 C 
ATOM     25  H   UNL A   1      31.598  32.132  26.606  1.00  0.00     0.163 HD
ATOM     26  O   UNL A   1      33.118  33.519  27.811  1.00  0.00    -0.269 OA
BRANCH  24  27
ATOM     27  C   UNL A   1      34.689  31.771  27.813  1.00  0.00     0.039 A 
ATOM     28  C   UNL A   1      35.788  32.604  28.041  1.00  0.00     0.014 A 
ATOM     29  C   UNL A   1      34.824  30.398  27.988  1.00  0.00     0.014 A 
ATOM     30  C   UNL A   1      36.957  32.073  28.595  1.00  0.00     0.010 A 
ATOM     31  C   UNL A   1      35.918  29.901  28.682  1.00  0.00     0.010 A 
ATOM     32  C   UNL A   1      36.998  30.732  29.012  1.00  0.00    -0.014 A 
BRANCH  32  33
ATOM     33  C   UNL A   1      38.129  30.180  29.813  1.00  0.00     0.031 A 
ATOM     34  C   UNL A   1      38.321  30.606  31.247  1.00  0.00     0.074 A 
ATOM     35  C   UNL A   1      39.055  29.399  29.218  1.00  0.00     0.049 A 
ATOM     36  N   UNL A   1      39.335  30.396  32.049  1.00  0.00    -0.248 NA
ATOM     37  C   UNL A   1      37.259  31.436  31.835  1.00  0.00     0.031 C 
ATOM     38  C   UNL A   1      39.043  28.980  27.813  1.00  0.00     0.029 A 
ATOM     39  N   UNL A   1      40.199  28.824  29.716  1.00  0.00    -0.354 N 
ATOM     40  C   UNL A   1      39.057  31.113  33.209  1.00  0.00     0.074 A 
ATOM     41  C   UNL A   1      37.816  31.820  32.972  1.00  0.00     0.031 C 
ATOM     42  C   UNL A   1      40.094  28.179  27.578  1.00  0.00     0.029 A 
ATOM     43  C   UNL A   1      40.891  28.072  28.794  1.00  0.00     0.049 A 
ATOM     44  H   UNL A   1      40.497  28.939  30.647  1.00  0.00     0.167 HD
ATOM     45  C   UNL A   1      39.749  31.153  34.375  1.00  0.00     0.034 A 
ATOM     46  C   UNL A   1      42.040  27.378  28.910  1.00  0.00     0.034 A 
ATOM     47  C   UNL A   1      40.948  30.389  34.617  1.00  0.00     0.049 A 
ATOM     48  C   UNL A   1      42.755  27.375  30.235  1.00  0.00     0.074 A 
ATOM     49  C   UNL A   1      41.689  30.288  35.783  1.00  0.00     0.029 A 
ATOM     50  N   UNL A   1      41.574  29.579  33.679  1.00  0.00    -0.354 N 
ATOM     51  N   UNL A   1      42.454  28.023  31.337  1.00  0.00    -0.248 NA
ATOM     52  C   UNL A   1      43.956  26.537  30.337  1.00  0.00     0.031 C 
ATOM     53  C   UNL A   1      42.783  29.450  35.538  1.00  0.00     0.029 A 
ATOM     54  C   UNL A   1      42.694  28.981  34.236  1.00  0.00     0.049 A 
ATOM     55  H   UNL A   1      41.268  29.448  32.753  1.00  0.00     0.167 HD
ATOM     56  C   UNL A   1      43.414  27.647  32.270  1.00  0.00     0.074 A 
ATOM     57  C   UNL A   1      44.292  26.705  31.607  1.00  0.00     0.031 C 
ATOM     58  C   UNL A   1      43.559  28.045  33.559  1.00  0.00     0.034 A 
BRANCH  45  59
ATOM     59  C   UNL A   1      39.221  32.060  35.464  1.00  0.00     0.023 A 
ATOM     60  C   UNL A   1      39.614  33.406  35.556  1.00  0.00     0.031 A 
ATOM     61  C   UNL A   1      38.357  31.561  36.454  1.00  0.00     0.131 A 
ATOM     62  C   UNL A   1      39.235  34.175  36.666  1.00  0.00     0.055 A 
ATOM     63  C   UNL A   1      37.903  32.360  37.507  1.00  0.00     0.041 A 
ATOM     64  F   UNL A   1      37.956  30.280  36.432  1.00  0.00    -0.206 F 
ATOM     65  C   UNL A   1      38.359  33.670  37.629  1.00  0.00     0.022 A 
BRANCH  62  66
ATOM     66  S   UNL A   1      40.040  35.779  36.918  1.00  0.00     0.124 S 
ATOM     67  O   UNL A   1      39.618  36.508  35.723  1.00  0.00    -0.237 OA
ATOM     68  O   UNL A   1      39.461  36.230  38.177  1.00  0.00    -0.237 OA
ATOM     69  O   UNL A   1      41.462  35.446  36.967  1.00  0.00    -0.744 OA
ENDBRANCH  62  66
ENDBRANCH  45  59
BRANCH  46  70
ATOM     70  C   UNL A   1      42.585  26.614  27.751  1.00  0.00     0.023 A 
ATOM     71  C   UNL A   1      42.208  25.280  27.533  1.00  0.00     0.031 A 
ATOM     72  C   UNL A   1      43.510  27.193  26.866  1.00  0.00     0.131 A 
ATOM     73  C   UNL A   1      42.791  24.549  26.485  1.00  0.00     0.055 A 
ATOM     74  C   UNL A   1      44.052  26.477  25.796  1.00  0.00     0.041 A 
ATOM     75  F   UNL A   1      43.892  28.470  27.021  1.00  0.00    -0.206 F 
ATOM     76  C   UNL A   1      43.702  25.142  25.609  1.00  0.00     0.022 A 
BRANCH  73  77
ATOM     77  S   UNL A   1      42.392  22.787  26.330  1.00  0.00     0.124 S 
ATOM     78  O   UNL A   1      40.976  22.770  26.676  1.00  0.00    -0.237 OA
ATOM     79  O   UNL A   1      42.715  22.526  24.931  1.00  0.00    -0.237 OA
ATOM     80  O   UNL A   1      43.281  22.152  27.301  1.00  0.00    -0.744 OA
ENDBRANCH  73  77
ENDBRANCH  46  70
BRANCH  58  81
ATOM     81  C   UNL A   1      44.679  27.412  34.344  1.00  0.00     0.023 A 
ATOM     82  C   UNL A   1      44.527  26.164  34.973  1.00  0.00     0.031 A 
ATOM     83  C   UNL A   1      45.908  28.079  34.479  1.00  0.00     0.131 A 
ATOM     84  C   UNL A   1      45.568  25.648  35.757  1.00  0.00     0.055 A 
ATOM     85  C   UNL A   1      46.961  27.534  35.216  1.00  0.00     0.041 A 
ATOM     86  F   UNL A   1      46.105  29.274  33.899  1.00  0.00    -0.206 F 
ATOM     87  C   UNL A   1      46.789  26.318  35.871  1.00  0.00     0.022 A 
BRANCH  84  88
ATOM     88  S   UNL A   1      45.273  24.129  36.704  1.00  0.00     0.124 S 
ATOM     89  O   UNL A   1      46.593  23.508  36.699  1.00  0.00    -0.237 OA
ATOM     90  O   UNL A   1      44.817  24.648  37.990  1.00  0.00    -0.237 OA
ATOM     91  O   UNL A   1      44.255  23.429  35.923  1.00  0.00    -0.744 OA
ENDBRANCH  84  88
ENDBRANCH  58  81
ENDBRANCH  32  33
ENDBRANCH  24  27
ENDBRANCH  22  23
ENDBRANCH   1  22
TORSDOF 17
ENDMDL
MODEL 3
REMARK VINA RESULT:     -11.2      5.169      7.812
REMARK SMILES CC(C)CN(C)c1ccc([N+](=O)[O-])cc1C(=O)NCCCNC(=O)c1ccc(-c2c3nc(c(-c4cc(S(=O)(=O)[O-])ccc4F)c4ccc([nH]4)c(-c4cc(S(=O)(=O)[O-])ccc4F)c4nc(c(-c5cc(S(=O)(=O)[O-])ccc5F)c5ccc2[nH]5)C=C4)C=C3)cc1
REMARK SMILES IDX 20 1 19 2 18 3 16 4 17 5 15 7 7 8 8 9 9 10 14 11 10 12 5 13
REMARK SMILES IDX 6 14 4 15 2 16 1 17 3 18 11 19 12 20 13 21 21 22 22 23 23 24
REMARK SMILES IDX 24 26 25 27 26 28 87 29 27 30 86 31 28 32 29 33 30 34 80 35
REMARK SMILES IDX 31 36 85 37 79 38 81 39 32 40 84 41 78 42 77 43 33 45 65 46
REMARK SMILES IDX 45 47 64 48 46 49 49 50 63 51 82 52 47 53 48 54 62 56 83 57
REMARK SMILES IDX 50 58 34 59 35 60 43 61 36 62 42 63 44 64 41 65 37 66 38 67
REMARK SMILES IDX 39 68 40 69 66 70 67 71 75 72 68 73 74 74 76 75 73 76 69 77
REMARK SMILES IDX 70 78 71 79 72 80 51 81 52 82 60 83 53 84 59 85 61 86 58 87
REMARK SMILES IDX 54 88 55 89 56 90 57 91
REMARK H PARENT 18 6 22 25 81 44 49 55
REMARK Flexibility Score: inf
ROOT
ATOM      1  C   UNL A   1      36.681  21.901  24.003  1.00  0.00     0.042 C 
ENDROOT
BRANCH   1   2
ATOM      2  C   UNL A   1      35.809  23.144  24.013  1.00  0.00     0.118 C 
BRANCH   2   3
ATOM      3  N   UNL A   1      35.009  23.295  22.818  1.00  0.00    -0.352 N 
ATOM      4  C   UNL A   1      33.650  23.380  22.675  1.00  0.00     0.253 C 
ATOM      5  O   UNL A   1      33.215  23.622  21.547  1.00  0.00    -0.269 OA
ATOM      6  H   UNL A   1      35.519  23.344  21.978  1.00  0.00     0.163 HD
BRANCH   4   7
ATOM      7  C   UNL A   1      32.671  23.102  23.767  1.00  0.00     0.069 A 
ATOM      8  C   UNL A   1      32.311  21.846  24.315  1.00  0.00     0.050 A 
ATOM      9  C   UNL A   1      31.341  21.837  25.345  1.00  0.00     0.034 A 
ATOM     10  C   UNL A   1      30.794  23.010  25.871  1.00  0.00     0.088 A 
ATOM     11  C   UNL A   1      32.142  24.289  24.328  1.00  0.00     0.101 A 
ATOM     12  C   UNL A   1      31.225  24.237  25.378  1.00  0.00     0.270 A 
BRANCH   8  13
ATOM     13  N   UNL A   1      32.882  20.624  23.942  1.00  0.00    -0.374 N 
ATOM     14  C   UNL A   1      32.230  19.921  22.826  1.00  0.00     0.143 C 
BRANCH  13  15
ATOM     15  C   UNL A   1      33.440  19.750  24.999  1.00  0.00     0.119 C 
BRANCH  15  16
ATOM     16  C   UNL A   1      33.709  18.304  24.535  1.00  0.00     0.002 C 
ATOM     17  C   UNL A   1      35.204  17.977  24.550  1.00  0.00     0.009 C 
ATOM     18  C   UNL A   1      32.971  17.292  25.417  1.00  0.00     0.009 C 
ENDBRANCH  15  16
ENDBRANCH  13  15
ENDBRANCH   8  13
BRANCH  12  19
ATOM     19  N   UNL A   1      30.740  25.477  25.988  1.00  0.00     0.062 N 
ATOM     20  O   UNL A   1      29.660  25.930  25.582  1.00  0.00    -0.258 OA
ATOM     21  O   UNL A   1      31.424  25.987  26.884  1.00  0.00    -0.258 OA
ENDBRANCH  12  19
ENDBRANCH   4   7
ENDBRANCH   2   3
ENDBRANCH   1   2
BRANCH   1  22
ATOM     22  C   UNL A   1      36.978  21.374  25.407  1.00  0.00     0.118 C 
BRANCH  22  23
ATOM     23  N   UNL A   1      38.142  20.494  25.494  1.00  0.00    -0.352 N 
ATOM     24  C   UNL A   1      39.400  20.667  26.034  1.00  0.00     0.251 C 
ATOM     25  H   UNL A   1      38.001  19.607  25.091  1.00  0.00     0.163 HD
ATOM     26  O   UNL A   1      40.234  19.778  25.910  1.00  0.00    -0.269 OA
BRANCH  24  27
ATOM     27  C   UNL A   1      39.767  21.946  26.688  1.00  0.00     0.039 A 
ATOM     28  C   UNL A   1      40.739  21.946  27.693  1.00  0.00     0.014 A 
ATOM     29  C   UNL A   1      39.213  23.151  26.274  1.00  0.00     0.014 A 
ATOM     30  C   UNL A   1      41.259  23.159  28.154  1.00  0.00     0.010 A 
ATOM     31  C   UNL A   1      39.837  24.345  26.612  1.00  0.00     0.010 A 
ATOM     32  C   UNL A   1      40.882  24.369  27.547  1.00  0.00    -0.014 A 
BRANCH  32  33
ATOM     33  C   UNL A   1      41.572  25.658  27.842  1.00  0.00     0.031 A 
ATOM     34  C   UNL A   1      40.862  26.736  28.622  1.00  0.00     0.074 A 
ATOM     35  C   UNL A   1      42.783  25.911  27.301  1.00  0.00     0.049 A 
ATOM     36  N   UNL A   1      41.207  27.984  28.819  1.00  0.00    -0.248 NA
ATOM     37  C   UNL A   1      39.559  26.379  29.201  1.00  0.00     0.031 C 
ATOM     38  C   UNL A   1      43.547  24.992  26.451  1.00  0.00     0.029 A 
ATOM     39  N   UNL A   1      43.584  27.024  27.375  1.00  0.00    -0.354 N 
ATOM     40  C   UNL A   1      40.139  28.571  29.493  1.00  0.00     0.074 A 
ATOM     41  C   UNL A   1      39.110  27.558  29.601  1.00  0.00     0.031 C 
ATOM     42  C   UNL A   1      44.720  25.558  26.127  1.00  0.00     0.029 A 
ATOM     43  C   UNL A   1      44.773  26.900  26.692  1.00  0.00     0.049 A 
ATOM     44  H   UNL A   1      43.331  27.836  27.870  1.00  0.00     0.167 HD
ATOM     45  C   UNL A   1      40.036  29.823  30.004  1.00  0.00     0.034 A 
ATOM     46  C   UNL A   1      45.789  27.770  26.532  1.00  0.00     0.034 A 
ATOM     47  C   UNL A   1      41.098  30.798  29.946  1.00  0.00     0.049 A 
ATOM     48  C   UNL A   1      45.688  29.130  27.171  1.00  0.00     0.074 A 
ATOM     49  C   UNL A   1      41.138  32.067  30.498  1.00  0.00     0.029 A 
ATOM     50  N   UNL A   1      42.317  30.604  29.310  1.00  0.00    -0.354 N 
ATOM     51  N   UNL A   1      44.689  29.653  27.843  1.00  0.00    -0.248 NA
ATOM     52  C   UNL A   1      46.855  30.010  27.040  1.00  0.00     0.031 C 
ATOM     53  C   UNL A   1      42.363  32.655  30.162  1.00  0.00     0.029 A 
ATOM     54  C   UNL A   1      43.112  31.731  29.449  1.00  0.00     0.049 A 
ATOM     55  H   UNL A   1      42.579  29.786  28.830  1.00  0.00     0.167 HD
ATOM     56  C   UNL A   1      45.121  30.915  28.240  1.00  0.00     0.074 A 
ATOM     57  C   UNL A   1      46.474  31.065  27.746  1.00  0.00     0.031 C 
ATOM     58  C   UNL A   1      44.459  31.864  28.949  1.00  0.00     0.034 A 
BRANCH  45  59
ATOM     59  C   UNL A   1      38.727  30.198  30.661  1.00  0.00     0.023 A 
ATOM     60  C   UNL A   1      37.731  30.906  29.966  1.00  0.00     0.031 A 
ATOM     61  C   UNL A   1      38.492  29.894  32.013  1.00  0.00     0.131 A 
ATOM     62  C   UNL A   1      36.600  31.379  30.647  1.00  0.00     0.055 A 
ATOM     63  C   UNL A   1      37.317  30.283  32.662  1.00  0.00     0.041 A 
ATOM     64  F   UNL A   1      39.409  29.233  32.737  1.00  0.00    -0.206 F 
ATOM     65  C   UNL A   1      36.372  31.048  31.984  1.00  0.00     0.022 A 
BRANCH  62  66
ATOM     66  S   UNL A   1      35.523  32.570  29.805  1.00  0.00     0.124 S 
ATOM     67  O   UNL A   1      34.360  32.590  30.691  1.00  0.00    -0.237 OA
ATOM     68  O   UNL A   1      36.338  33.780  29.796  1.00  0.00    -0.237 OA
ATOM     69  O   UNL A   1      35.293  31.960  28.498  1.00  0.00    -0.744 OA
ENDBRANCH  62  66
ENDBRANCH  45  59
BRANCH  46  70
ATOM     70  C   UNL A   1      47.000  27.386  25.750  1.00  0.00     0.023 A 
ATOM     71  C   UNL A   1      47.137  27.774  24.408  1.00  0.00     0.031 A 
ATOM     72  C   UNL A   1      48.019  26.604  26.320  1.00  0.00     0.131 A 
ATOM     73  C   UNL A   1      48.244  27.337  23.663  1.00  0.00     0.055 A 
ATOM     74  C   UNL A   1      49.141  26.211  25.588  1.00  0.00     0.041 A 
ATOM     75  F   UNL A   1      47.943  26.220  27.603  1.00  0.00    -0.206 F 
ATOM     76  C   UNL A   1      49.252  26.567  24.246  1.00  0.00     0.022 A 
BRANCH  73  77
ATOM     77  S   UNL A   1      48.308  27.731  21.894  1.00  0.00     0.124 S 
ATOM     78  O   UNL A   1      49.429  28.661  21.836  1.00  0.00    -0.237 OA
ATOM     79  O   UNL A   1      48.530  26.417  21.299  1.00  0.00    -0.237 OA
ATOM     80  O   UNL A   1      46.996  28.318  21.629  1.00  0.00    -0.744 OA
ENDBRANCH  73  77
ENDBRANCH  46  70
BRANCH  58  81
ATOM     81  C   UNL A   1      45.220  33.124  29.273  1.00  0.00     0.023 A 
ATOM     82  C   UNL A   1      45.230  34.226  28.400  1.00  0.00     0.031 A 
ATOM     83  C   UNL A   1      45.961  33.212  30.463  1.00  0.00     0.131 A 
ATOM     84  C   UNL A   1      46.013  35.348  28.704  1.00  0.00     0.055 A 
ATOM     85  C   UNL A   1      46.696  34.354  30.786  1.00  0.00     0.041 A 
ATOM     86  F   UNL A   1      45.987  32.187  31.330  1.00  0.00    -0.206 F 
ATOM     87  C   UNL A   1      46.735  35.425  29.898  1.00  0.00     0.022 A 
BRANCH  84  88
ATOM     88  S   UNL A   1      46.150  36.672  27.473  1.00  0.00     0.124 S 
ATOM     89  O   UNL A   1      45.732  35.996  26.250  1.00  0.00    -0.237 OA
ATOM     90  O   UNL A   1      45.228  37.677  27.993  1.00  0.00    -0.237 OA
ATOM     91  O   UNL A   1      47.563  37.045  27.524  1.00  0.00    -0.744 OA
ENDBRANCH  84  88
ENDBRANCH  58  81
ENDBRANCH  32  33
ENDBRANCH  24  27
ENDBRANCH  22  23
ENDBRANCH   1  22
TORSDOF 17
ENDMDL
