MODEL 1
REMARK VINA RESULT:     -13.0      0.000      0.000
REMARK SMILES Cc1ccc(S(=O)(=O)N(CC(=O)NCCCNC(=O)c2ccc(-c3c4nc(c(-c5cc(S(=O)(=O)[O-])ccc5F)c5ccc([nH]5)c(-c5cc(S(=O)(=O)[O-])ccc5F)c5nc(c(-c6cc(S(=O)(=O)[O-])ccc6F)c6ccc3[nH]6)C=C5)C=C4)cc2)c2cc(Cl)cc(Cl)c2)cc1
REMARK SMILES IDX 15 1 14 2 13 3 11 4 12 5 10 7 9 8 6 9 7 10 8 11 5 12 1 13
REMARK SMILES IDX 2 14 3 15 92 16 4 17 91 18 83 19 84 20 90 21 85 22 88 23
REMARK SMILES IDX 86 24 87 25 89 26 16 27 17 28 18 29 19 31 20 32 21 33 82 34
REMARK SMILES IDX 22 35 81 36 23 37 24 38 25 39 75 40 26 41 80 42 74 43 76 44
REMARK SMILES IDX 27 45 79 46 73 47 72 48 28 50 60 51 40 52 59 53 41 54 44 55
REMARK SMILES IDX 58 56 77 57 42 58 43 59 57 61 78 62 45 63 29 64 30 65 38 66
REMARK SMILES IDX 31 67 37 68 39 69 36 70 32 71 33 72 34 73 35 74 61 75 62 76
REMARK SMILES IDX 70 77 63 78 69 79 71 80 68 81 64 82 65 83 66 84 67 85 46 86
REMARK SMILES IDX 47 87 55 88 48 89 54 90 56 91 53 92 49 93 50 94 51 95 52 96
REMARK H PARENT 13 6 17 30 76 49 44 60
REMARK Flexibility Score: inf
ROOT
ATOM      1  C   UNL A   1      33.009  30.977  27.151  1.00  0.00     0.042 C 
ENDROOT
BRANCH   1   2
ATOM      2  C   UNL A   1      32.349  30.093  26.106  1.00  0.00     0.117 C 
BRANCH   2   3
ATOM      3  N   UNL A   1      31.576  29.001  26.665  1.00  0.00    -0.354 N 
ATOM      4  C   UNL A   1      31.805  27.658  26.651  1.00  0.00     0.240 C 
ATOM      5  O   UNL A   1      31.049  26.919  27.291  1.00  0.00    -0.273 OA
ATOM      6  H   UNL A   1      30.752  29.275  27.129  1.00  0.00     0.163 HD
BRANCH   4   7
ATOM      7  C   UNL A   1      32.999  27.038  25.937  1.00  0.00     0.235 C 
BRANCH   7   8
ATOM      8  N   UNL A   1      32.751  26.004  24.878  1.00  0.00    -0.257 N 
BRANCH   8   9
ATOM      9  S   UNL A   1      32.693  26.628  23.258  1.00  0.00     0.264 S 
ATOM     10  O   UNL A   1      32.620  25.486  22.363  1.00  0.00    -0.201 OA
ATOM     11  O   UNL A   1      33.776  27.583  23.117  1.00  0.00    -0.201 OA
BRANCH   9  12
ATOM     12  C   UNL A   1      31.178  27.548  23.003  1.00  0.00     0.088 A 
ATOM     13  C   UNL A   1      27.594  29.926  22.614  1.00  0.00     0.044 C 
ATOM     14  C   UNL A   1      28.838  29.096  22.729  1.00  0.00    -0.051 A 
ATOM     15  C   UNL A   1      30.081  29.615  22.348  1.00  0.00     0.005 A 
ATOM     16  C   UNL A   1      28.781  27.812  23.278  1.00  0.00     0.005 A 
ATOM     17  C   UNL A   1      31.243  28.842  22.467  1.00  0.00     0.022 A 
ATOM     18  C   UNL A   1      29.947  27.063  23.459  1.00  0.00     0.022 A 
ENDBRANCH   9  12
ENDBRANCH   8   9
BRANCH   8  19
ATOM     19  C   UNL A   1      33.617  24.814  25.082  1.00  0.00     0.055 A 
ATOM     20  C   UNL A   1      33.006  23.553  25.208  1.00  0.00     0.047 A 
ATOM     21  C   UNL A   1      35.005  24.879  25.272  1.00  0.00     0.047 A 
ATOM     22  C   UNL A   1      33.750  22.422  25.562  1.00  0.00     0.044 A 
ATOM     23  C   UNL A   1      35.745  23.734  25.592  1.00  0.00     0.044 A 
ATOM     24  Cl  UNL A   1      32.956  20.914  25.795  1.00  0.00    -0.084 Cl
ATOM     25  C   UNL A   1      35.121  22.506  25.757  1.00  0.00     0.041 A 
ATOM     26  Cl  UNL A   1      37.450  23.855  25.814  1.00  0.00    -0.084 Cl
ENDBRANCH   8  19
ENDBRANCH   7   8
ENDBRANCH   4   7
ENDBRANCH   2   3
ENDBRANCH   1   2
BRANCH   1  27
ATOM     27  C   UNL A   1      34.284  30.375  27.726  1.00  0.00     0.118 C 
BRANCH  27  28
ATOM     28  N   UNL A   1      35.004  31.295  28.612  1.00  0.00    -0.352 N 
ATOM     29  C   UNL A   1      36.218  31.095  29.248  1.00  0.00     0.251 C 
ATOM     30  H   UNL A   1      34.571  32.164  28.774  1.00  0.00     0.163 HD
ATOM     31  O   UNL A   1      36.736  31.940  29.961  1.00  0.00    -0.269 OA
BRANCH  29  32
ATOM     32  C   UNL A   1      36.941  29.845  28.935  1.00  0.00     0.039 A 
ATOM     33  C   UNL A   1      37.201  28.986  30.005  1.00  0.00     0.014 A 
ATOM     34  C   UNL A   1      37.622  29.727  27.726  1.00  0.00     0.014 A 
ATOM     35  C   UNL A   1      38.322  28.167  29.951  1.00  0.00     0.010 A 
ATOM     36  C   UNL A   1      38.784  28.976  27.707  1.00  0.00     0.010 A 
ATOM     37  C   UNL A   1      39.174  28.263  28.850  1.00  0.00    -0.014 A 
BRANCH  37  38
ATOM     38  C   UNL A   1      40.553  27.783  28.891  1.00  0.00     0.031 A 
ATOM     39  C   UNL A   1      40.880  26.395  28.520  1.00  0.00     0.074 A 
ATOM     40  C   UNL A   1      41.550  28.595  29.312  1.00  0.00     0.049 A 
ATOM     41  N   UNL A   1      41.919  25.754  28.942  1.00  0.00    -0.248 NA
ATOM     42  C   UNL A   1      39.985  25.572  27.721  1.00  0.00     0.031 C 
ATOM     43  C   UNL A   1      42.987  28.349  29.223  1.00  0.00     0.029 A 
ATOM     44  N   UNL A   1      41.432  29.673  30.188  1.00  0.00    -0.354 N 
ATOM     45  C   UNL A   1      41.999  24.577  28.239  1.00  0.00     0.074 A 
ATOM     46  C   UNL A   1      40.703  24.451  27.620  1.00  0.00     0.031 C 
ATOM     47  C   UNL A   1      43.601  29.032  30.199  1.00  0.00     0.029 A 
ATOM     48  C   UNL A   1      42.570  29.644  31.016  1.00  0.00     0.049 A 
ATOM     49  H   UNL A   1      40.696  30.327  30.222  1.00  0.00     0.167 HD
ATOM     50  C   UNL A   1      43.204  23.940  28.151  1.00  0.00     0.034 A 
ATOM     51  C   UNL A   1      42.469  29.553  32.371  1.00  0.00     0.034 A 
ATOM     52  C   UNL A   1      44.176  24.489  29.113  1.00  0.00     0.049 A 
ATOM     53  C   UNL A   1      43.195  28.373  32.969  1.00  0.00     0.074 A 
ATOM     54  C   UNL A   1      45.328  25.251  28.998  1.00  0.00     0.029 A 
ATOM     55  N   UNL A   1      43.882  24.455  30.477  1.00  0.00    -0.354 N 
ATOM     56  N   UNL A   1      43.688  27.378  32.286  1.00  0.00    -0.248 NA
ATOM     57  C   UNL A   1      43.367  28.203  34.405  1.00  0.00     0.031 C 
ATOM     58  C   UNL A   1      45.713  25.682  30.300  1.00  0.00     0.029 A 
ATOM     59  C   UNL A   1      44.811  25.168  31.215  1.00  0.00     0.049 A 
ATOM     60  H   UNL A   1      43.110  23.981  30.864  1.00  0.00     0.167 HD
ATOM     61  C   UNL A   1      44.185  26.424  33.144  1.00  0.00     0.074 A 
ATOM     62  C   UNL A   1      43.968  27.003  34.460  1.00  0.00     0.031 C 
ATOM     63  C   UNL A   1      44.698  25.240  32.675  1.00  0.00     0.034 A 
BRANCH  50  64
ATOM     64  C   UNL A   1      43.604  22.996  27.014  1.00  0.00     0.023 A 
ATOM     65  C   UNL A   1      43.003  21.716  26.942  1.00  0.00     0.031 A 
ATOM     66  C   UNL A   1      44.613  23.215  26.050  1.00  0.00     0.131 A 
ATOM     67  C   UNL A   1      43.451  20.732  26.032  1.00  0.00     0.055 A 
ATOM     68  C   UNL A   1      45.062  22.237  25.152  1.00  0.00     0.041 A 
ATOM     69  F   UNL A   1      45.225  24.388  25.890  1.00  0.00    -0.206 F 
ATOM     70  C   UNL A   1      44.492  20.982  25.147  1.00  0.00     0.022 A 
BRANCH  67  71
ATOM     71  S   UNL A   1      42.680  19.089  26.035  1.00  0.00     0.124 S 
ATOM     72  O   UNL A   1      43.655  18.290  25.300  1.00  0.00    -0.237 OA
ATOM     73  O   UNL A   1      42.553  18.809  27.460  1.00  0.00    -0.237 OA
ATOM     74  O   UNL A   1      41.414  19.307  25.336  1.00  0.00    -0.744 OA
ENDBRANCH  67  71
ENDBRANCH  50  64
BRANCH  51  75
ATOM     75  C   UNL A   1      41.240  30.188  32.921  1.00  0.00     0.023 A 
ATOM     76  C   UNL A   1      41.234  31.597  32.972  1.00  0.00     0.031 A 
ATOM     77  C   UNL A   1      40.011  29.522  32.999  1.00  0.00     0.131 A 
ATOM     78  C   UNL A   1      40.026  32.299  32.885  1.00  0.00     0.055 A 
ATOM     79  C   UNL A   1      38.803  30.233  33.016  1.00  0.00     0.041 A 
ATOM     80  F   UNL A   1      39.952  28.185  32.930  1.00  0.00    -0.206 F 
ATOM     81  C   UNL A   1      38.805  31.626  32.906  1.00  0.00     0.022 A 
BRANCH  78  82
ATOM     82  S   UNL A   1      40.108  34.048  32.403  1.00  0.00     0.124 S 
ATOM     83  O   UNL A   1      39.114  34.127  31.341  1.00  0.00    -0.237 OA
ATOM     84  O   UNL A   1      39.769  34.738  33.650  1.00  0.00    -0.237 OA
ATOM     85  O   UNL A   1      41.496  34.232  31.986  1.00  0.00    -0.744 OA
ENDBRANCH  78  82
ENDBRANCH  51  75
BRANCH  63  86
ATOM     86  C   UNL A   1      45.167  24.045  33.506  1.00  0.00     0.023 A 
ATOM     87  C   UNL A   1      46.473  23.870  33.989  1.00  0.00     0.031 A 
ATOM     88  C   UNL A   1      44.269  22.999  33.851  1.00  0.00     0.131 A 
ATOM     89  C   UNL A   1      46.840  22.756  34.773  1.00  0.00     0.055 A 
ATOM     90  C   UNL A   1      44.632  21.890  34.627  1.00  0.00     0.041 A 
ATOM     91  F   UNL A   1      42.987  23.006  33.463  1.00  0.00    -0.206 F 
ATOM     92  C   UNL A   1      45.926  21.763  35.100  1.00  0.00     0.022 A 
BRANCH  89  93
ATOM     93  S   UNL A   1      48.558  22.639  35.348  1.00  0.00     0.124 S 
ATOM     94  O   UNL A   1      49.017  24.019  35.229  1.00  0.00    -0.237 OA
ATOM     95  O   UNL A   1      48.392  22.144  36.711  1.00  0.00    -0.237 OA
ATOM     96  O   UNL A   1      49.173  21.697  34.416  1.00  0.00    -0.744 OA
ENDBRANCH  89  93
ENDBRANCH  63  86
ENDBRANCH  37  38
ENDBRANCH  29  32
ENDBRANCH  27  28
ENDBRANCH   1  27
TORSDOF 17
ENDMDL
MODEL 2
REMARK VINA RESULT:     -12.6      4.346     10.452
REMARK SMILES Cc1ccc(S(=O)(=O)N(CC(=O)NCCCNC(=O)c2ccc(-c3c4nc(c(-c5cc(S(=O)(=O)[O-])ccc5F)c5ccc([nH]5)c(-c5cc(S(=O)(=O)[O-])ccc5F)c5nc(c(-c6cc(S(=O)(=O)[O-])ccc6F)c6ccc3[nH]6)C=C5)C=C4)cc2)c2cc(Cl)cc(Cl)c2)cc1
REMARK SMILES IDX 15 1 14 2 13 3 11 4 12 5 10 7 9 8 6 9 7 10 8 11 5 12 1 13
REMARK SMILES IDX 2 14 3 15 92 16 4 17 91 18 83 19 84 20 90 21 85 22 88 23
REMARK SMILES IDX 86 24 87 25 89 26 16 27 17 28 18 29 19 31 20 32 21 33 82 34
REMARK SMILES IDX 22 35 81 36 23 37 24 38 25 39 75 40 26 41 80 42 74 43 76 44
REMARK SMILES IDX 27 45 79 46 73 47 72 48 28 50 60 51 40 52 59 53 41 54 44 55
REMARK SMILES IDX 58 56 77 57 42 58 43 59 57 61 78 62 45 63 29 64 30 65 38 66
REMARK SMILES IDX 31 67 37 68 39 69 36 70 32 71 33 72 34 73 35 74 61 75 62 76
REMARK SMILES IDX 70 77 63 78 69 79 71 80 68 81 64 82 65 83 66 84 67 85 46 86
REMARK SMILES IDX 47 87 55 88 48 89 54 90 56 91 53 92 49 93 50 94 51 95 52 96
REMARK H PARENT 13 6 17 30 76 49 44 60
REMARK Flexibility Score: inf
ROOT
ATOM      1  C   UNL A   1      38.829  21.525  25.732  1.00  0.00     0.042 C 
ENDROOT
BRANCH   1   2
ATOM      2  C   UNL A   1      37.345  21.339  25.466  1.00  0.00     0.117 C 
BRANCH   2   3
ATOM      3  N   UNL A   1      36.491  22.143  26.320  1.00  0.00    -0.354 N 
ATOM      4  C   UNL A   1      35.264  22.686  26.084  1.00  0.00     0.240 C 
ATOM      5  O   UNL A   1      34.677  23.255  27.011  1.00  0.00    -0.273 OA
ATOM      6  H   UNL A   1      36.859  22.326  27.215  1.00  0.00     0.163 HD
BRANCH   4   7
ATOM      7  C   UNL A   1      34.555  22.557  24.742  1.00  0.00     0.235 C 
BRANCH   7   8
ATOM      8  N   UNL A   1      33.068  22.360  24.726  1.00  0.00    -0.257 N 
BRANCH   8   9
ATOM      9  S   UNL A   1      32.177  23.649  23.975  1.00  0.00     0.264 S 
ATOM     10  O   UNL A   1      30.787  23.232  23.919  1.00  0.00    -0.201 OA
ATOM     11  O   UNL A   1      32.869  24.003  22.750  1.00  0.00    -0.201 OA
BRANCH   9  12
ATOM     12  C   UNL A   1      32.210  25.110  25.010  1.00  0.00     0.088 A 
ATOM     13  C   UNL A   1      32.119  28.760  27.317  1.00  0.00     0.044 C 
ATOM     14  C   UNL A   1      32.154  27.481  26.533  1.00  0.00    -0.051 A 
ATOM     15  C   UNL A   1      31.047  26.625  26.512  1.00  0.00     0.005 A 
ATOM     16  C   UNL A   1      33.273  27.158  25.761  1.00  0.00     0.005 A 
ATOM     17  C   UNL A   1      31.077  25.437  25.770  1.00  0.00     0.022 A 
ATOM     18  C   UNL A   1      33.282  26.007  24.968  1.00  0.00     0.022 A 
ENDBRANCH   9  12
ENDBRANCH   8   9
BRANCH   8  19
ATOM     19  C   UNL A   1      32.715  20.987  24.283  1.00  0.00     0.055 A 
ATOM     20  C   UNL A   1      32.710  19.954  25.237  1.00  0.00     0.047 A 
ATOM     21  C   UNL A   1      32.498  20.629  22.944  1.00  0.00     0.047 A 
ATOM     22  C   UNL A   1      32.547  18.618  24.854  1.00  0.00     0.044 A 
ATOM     23  C   UNL A   1      32.301  19.292  22.577  1.00  0.00     0.044 A 
ATOM     24  Cl  UNL A   1      32.635  17.372  26.037  1.00  0.00    -0.084 Cl
ATOM     25  C   UNL A   1      32.343  18.279  23.525  1.00  0.00     0.041 A 
ATOM     26  Cl  UNL A   1      32.032  18.893  20.922  1.00  0.00    -0.084 Cl
ENDBRANCH   8  19
ENDBRANCH   7   8
ENDBRANCH   4   7
ENDBRANCH   2   3
ENDBRANCH   1   2
BRANCH   1  27
ATOM     27  C   UNL A   1      39.163  22.875  26.353  1.00  0.00     0.118 C 
BRANCH  27  28
ATOM     28  N   UNL A   1      40.603  23.080  26.537  1.00  0.00    -0.352 N 
ATOM     29  C   UNL A   1      41.264  24.252  26.868  1.00  0.00     0.251 C 
ATOM     30  H   UNL A   1      41.171  22.286  26.412  1.00  0.00     0.163 HD
ATOM     31  O   UNL A   1      42.475  24.309  27.009  1.00  0.00    -0.269 OA
BRANCH  29  32
ATOM     32  C   UNL A   1      40.427  25.432  27.169  1.00  0.00     0.039 A 
ATOM     33  C   UNL A   1      40.708  26.599  26.456  1.00  0.00     0.014 A 
ATOM     34  C   UNL A   1      39.667  25.458  28.336  1.00  0.00     0.014 A 
ATOM     35  C   UNL A   1      40.441  27.827  27.048  1.00  0.00     0.010 A 
ATOM     36  C   UNL A   1      39.480  26.678  28.961  1.00  0.00     0.010 A 
ATOM     37  C   UNL A   1      39.942  27.853  28.351  1.00  0.00    -0.014 A 
BRANCH  37  38
ATOM     38  C   UNL A   1      40.031  29.044  29.193  1.00  0.00     0.031 A 
ATOM     39  C   UNL A   1      39.006  30.101  29.115  1.00  0.00     0.074 A 
ATOM     40  C   UNL A   1      41.079  29.216  30.029  1.00  0.00     0.049 A 
ATOM     41  N   UNL A   1      39.209  31.336  29.435  1.00  0.00    -0.248 NA
ATOM     42  C   UNL A   1      37.685  29.864  28.552  1.00  0.00     0.031 C 
ATOM     43  C   UNL A   1      41.220  30.229  31.072  1.00  0.00     0.029 A 
ATOM     44  N   UNL A   1      42.360  28.686  29.880  1.00  0.00    -0.354 N 
ATOM     45  C   UNL A   1      37.993  31.975  29.426  1.00  0.00     0.074 A 
ATOM     46  C   UNL A   1      37.123  31.062  28.727  1.00  0.00     0.031 C 
ATOM     47  C   UNL A   1      42.525  30.459  31.275  1.00  0.00     0.029 A 
ATOM     48  C   UNL A   1      43.260  29.688  30.289  1.00  0.00     0.049 A 
ATOM     49  H   UNL A   1      42.591  27.786  29.551  1.00  0.00     0.167 HD
ATOM     50  C   UNL A   1      37.847  33.126  30.146  1.00  0.00     0.034 A 
ATOM     51  C   UNL A   1      44.222  30.172  29.456  1.00  0.00     0.034 A 
ATOM     52  C   UNL A   1      39.150  33.663  30.576  1.00  0.00     0.049 A 
ATOM     53  C   UNL A   1      44.164  31.664  29.243  1.00  0.00     0.074 A 
ATOM     54  C   UNL A   1      39.796  33.776  31.797  1.00  0.00     0.029 A 
ATOM     55  N   UNL A   1      40.105  33.993  29.613  1.00  0.00    -0.354 N 
ATOM     56  N   UNL A   1      43.173  32.431  29.604  1.00  0.00    -0.248 NA
ATOM     57  C   UNL A   1      45.209  32.399  28.543  1.00  0.00     0.031 C 
ATOM     58  C   UNL A   1      41.146  34.162  31.557  1.00  0.00     0.029 A 
ATOM     59  C   UNL A   1      41.322  34.307  30.192  1.00  0.00     0.049 A 
ATOM     60  H   UNL A   1      39.933  34.002  28.644  1.00  0.00     0.167 HD
ATOM     61  C   UNL A   1      43.392  33.716  29.164  1.00  0.00     0.074 A 
ATOM     62  C   UNL A   1      44.692  33.638  28.516  1.00  0.00     0.031 C 
ATOM     63  C   UNL A   1      42.459  34.704  29.356  1.00  0.00     0.034 A 
BRANCH  50  64
ATOM     64  C   UNL A   1      36.514  33.639  30.698  1.00  0.00     0.023 A 
ATOM     65  C   UNL A   1      35.579  34.219  29.807  1.00  0.00     0.031 A 
ATOM     66  C   UNL A   1      36.131  33.699  32.057  1.00  0.00     0.131 A 
ATOM     67  C   UNL A   1      34.414  34.871  30.269  1.00  0.00     0.055 A 
ATOM     68  C   UNL A   1      34.979  34.352  32.516  1.00  0.00     0.041 A 
ATOM     69  F   UNL A   1      36.825  33.120  33.036  1.00  0.00    -0.206 F 
ATOM     70  C   UNL A   1      34.118  34.955  31.624  1.00  0.00     0.022 A 
BRANCH  67  71
ATOM     71  S   UNL A   1      33.289  35.650  29.078  1.00  0.00     0.124 S 
ATOM     72  O   UNL A   1      34.213  36.375  28.210  1.00  0.00    -0.237 OA
ATOM     73  O   UNL A   1      32.613  34.501  28.490  1.00  0.00    -0.237 OA
ATOM     74  O   UNL A   1      32.442  36.499  29.915  1.00  0.00    -0.744 OA
ENDBRANCH  67  71
ENDBRANCH  50  64
BRANCH  51  75
ATOM     75  C   UNL A   1      44.717  29.171  28.472  1.00  0.00     0.023 A 
ATOM     76  C   UNL A   1      45.581  28.176  28.972  1.00  0.00     0.031 A 
ATOM     77  C   UNL A   1      44.084  28.936  27.245  1.00  0.00     0.131 A 
ATOM     78  C   UNL A   1      45.628  26.914  28.366  1.00  0.00     0.055 A 
ATOM     79  C   UNL A   1      44.216  27.705  26.587  1.00  0.00     0.041 A 
ATOM     80  F   UNL A   1      43.232  29.834  26.731  1.00  0.00    -0.206 F 
ATOM     81  C   UNL A   1      44.949  26.669  27.174  1.00  0.00     0.022 A 
BRANCH  78  82
ATOM     82  S   UNL A   1      46.301  25.541  29.345  1.00  0.00     0.124 S 
ATOM     83  O   UNL A   1      46.001  25.953  30.710  1.00  0.00    -0.237 OA
ATOM     84  O   UNL A   1      45.545  24.391  28.843  1.00  0.00    -0.237 OA
ATOM     85  O   UNL A   1      47.717  25.518  28.989  1.00  0.00    -0.744 OA
ENDBRANCH  78  82
ENDBRANCH  51  75
BRANCH  63  86
ATOM     86  C   UNL A   1      42.508  36.135  28.817  1.00  0.00     0.023 A 
ATOM     87  C   UNL A   1      43.064  37.228  29.500  1.00  0.00     0.031 A 
ATOM     88  C   UNL A   1      41.970  36.453  27.541  1.00  0.00     0.131 A 
ATOM     89  C   UNL A   1      43.101  38.522  28.939  1.00  0.00     0.055 A 
ATOM     90  C   UNL A   1      42.003  37.738  26.984  1.00  0.00     0.041 A 
ATOM     91  F   UNL A   1      41.394  35.528  26.762  1.00  0.00    -0.206 F 
ATOM     92  C   UNL A   1      42.576  38.786  27.681  1.00  0.00     0.022 A 
BRANCH  89  93
ATOM     93  S   UNL A   1      43.852  39.858  29.912  1.00  0.00     0.124 S 
ATOM     94  O   UNL A   1      44.904  39.155  30.640  1.00  0.00    -0.237 OA
ATOM     95  O   UNL A   1      44.308  40.776  28.873  1.00  0.00    -0.237 OA
ATOM     96  O   UNL A   1      42.749  40.350  30.735  1.00  0.00    -0.744 OA
ENDBRANCH  89  93
ENDBRANCH  63  86
ENDBRANCH  37  38
ENDBRANCH  29  32
ENDBRANCH  27  28
ENDBRANCH   1  27
TORSDOF 17
ENDMDL
MODEL 3
REMARK VINA RESULT:     -12.5      4.340     10.580
REMARK SMILES Cc1ccc(S(=O)(=O)N(CC(=O)NCCCNC(=O)c2ccc(-c3c4nc(c(-c5cc(S(=O)(=O)[O-])ccc5F)c5ccc([nH]5)c(-c5cc(S(=O)(=O)[O-])ccc5F)c5nc(c(-c6cc(S(=O)(=O)[O-])ccc6F)c6ccc3[nH]6)C=C5)C=C4)cc2)c2cc(Cl)cc(Cl)c2)cc1
REMARK SMILES IDX 15 1 14 2 13 3 11 4 12 5 10 7 9 8 6 9 7 10 8 11 5 12 1 13
REMARK SMILES IDX 2 14 3 15 92 16 4 17 91 18 83 19 84 20 90 21 85 22 88 23
REMARK SMILES IDX 86 24 87 25 89 26 16 27 17 28 18 29 19 31 20 32 21 33 82 34
REMARK SMILES IDX 22 35 81 36 23 37 24 38 25 39 75 40 26 41 80 42 74 43 76 44
REMARK SMILES IDX 27 45 79 46 73 47 72 48 28 50 60 51 40 52 59 53 41 54 44 55
REMARK SMILES IDX 58 56 77 57 42 58 43 59 57 61 78 62 45 63 29 64 30 65 38 66
REMARK SMILES IDX 31 67 37 68 39 69 36 70 32 71 33 72 34 73 35 74 61 75 62 76
REMARK SMILES IDX 70 77 63 78 69 79 71 80 68 81 64 82 65 83 66 84 67 85 46 86
REMARK SMILES IDX 47 87 55 88 48 89 54 90 56 91 53 92 49 93 50 94 51 95 52 96
REMARK H PARENT 13 6 17 30 76 49 44 60
REMARK Flexibility Score: inf
ROOT
ATOM      1  C   UNL A   1      38.121  23.693  25.334  1.00  0.00     0.042 C 
ENDROOT
BRANCH   1   2
ATOM      2  C   UNL A   1      36.700  23.302  24.966  1.00  0.00     0.117 C 
BRANCH   2   3
ATOM      3  N   UNL A   1      36.089  22.371  25.895  1.00  0.00    -0.354 N 
ATOM      4  C   UNL A   1      34.964  22.490  26.656  1.00  0.00     0.240 C 
ATOM      5  O   UNL A   1      34.578  21.512  27.304  1.00  0.00    -0.273 OA
ATOM      6  H   UNL A   1      36.564  21.514  25.992  1.00  0.00     0.163 HD
BRANCH   4   7
ATOM      7  C   UNL A   1      34.125  23.761  26.682  1.00  0.00     0.235 C 
BRANCH   7   8
ATOM      8  N   UNL A   1      33.385  24.165  25.441  1.00  0.00    -0.257 N 
BRANCH   8   9
ATOM      9  S   UNL A   1      31.814  23.443  25.270  1.00  0.00     0.264 S 
ATOM     10  O   UNL A   1      31.030  24.324  24.421  1.00  0.00    -0.201 OA
ATOM     11  O   UNL A   1      31.336  23.115  26.600  1.00  0.00    -0.201 OA
BRANCH   9  12
ATOM     12  C   UNL A   1      31.938  21.892  24.385  1.00  0.00     0.088 A 
ATOM     13  C   UNL A   1      32.519  18.160  22.290  1.00  0.00     0.044 C 
ATOM     14  C   UNL A   1      32.298  19.450  23.022  1.00  0.00    -0.051 A 
ATOM     15  C   UNL A   1      32.395  19.505  24.418  1.00  0.00     0.005 A 
ATOM     16  C   UNL A   1      32.053  20.630  22.315  1.00  0.00     0.005 A 
ATOM     17  C   UNL A   1      32.200  20.714  25.099  1.00  0.00     0.022 A 
ATOM     18  C   UNL A   1      31.923  21.849  22.986  1.00  0.00     0.022 A 
ENDBRANCH   9  12
ENDBRANCH   8   9
BRANCH   8  19
ATOM     19  C   UNL A   1      33.447  25.635  25.237  1.00  0.00     0.055 A 
ATOM     20  C   UNL A   1      33.009  26.477  26.275  1.00  0.00     0.047 A 
ATOM     21  C   UNL A   1      33.810  26.241  24.024  1.00  0.00     0.047 A 
ATOM     22  C   UNL A   1      32.890  27.857  26.083  1.00  0.00     0.044 A 
ATOM     23  C   UNL A   1      33.720  27.628  23.856  1.00  0.00     0.044 A 
ATOM     24  Cl  UNL A   1      32.265  28.846  27.345  1.00  0.00    -0.084 Cl
ATOM     25  C   UNL A   1      33.243  28.441  24.875  1.00  0.00     0.041 A 
ATOM     26  Cl  UNL A   1      34.180  28.336  22.353  1.00  0.00    -0.084 Cl
ENDBRANCH   8  19
ENDBRANCH   7   8
ENDBRANCH   4   7
ENDBRANCH   2   3
ENDBRANCH   1   2
BRANCH   1  27
ATOM     27  C   UNL A   1      38.711  22.835  26.446  1.00  0.00     0.118 C 
BRANCH  27  28
ATOM     28  N   UNL A   1      40.164  22.980  26.572  1.00  0.00    -0.352 N 
ATOM     29  C   UNL A   1      40.888  24.124  26.864  1.00  0.00     0.251 C 
ATOM     30  H   UNL A   1      40.692  22.161  26.432  1.00  0.00     0.163 HD
ATOM     31  O   UNL A   1      42.105  24.130  26.957  1.00  0.00    -0.269 OA
BRANCH  29  32
ATOM     32  C   UNL A   1      40.114  25.342  27.186  1.00  0.00     0.039 A 
ATOM     33  C   UNL A   1      40.441  26.499  26.475  1.00  0.00     0.014 A 
ATOM     34  C   UNL A   1      39.377  25.398  28.366  1.00  0.00     0.014 A 
ATOM     35  C   UNL A   1      40.244  27.735  27.077  1.00  0.00     0.010 A 
ATOM     36  C   UNL A   1      39.261  26.622  29.000  1.00  0.00     0.010 A 
ATOM     37  C   UNL A   1      39.769  27.777  28.389  1.00  0.00    -0.014 A 
BRANCH  37  38
ATOM     38  C   UNL A   1      39.930  28.957  29.235  1.00  0.00     0.031 A 
ATOM     39  C   UNL A   1      38.934  30.043  29.213  1.00  0.00     0.074 A 
ATOM     40  C   UNL A   1      41.020  29.092  30.024  1.00  0.00     0.049 A 
ATOM     41  N   UNL A   1      39.187  31.269  29.533  1.00  0.00    -0.248 NA
ATOM     42  C   UNL A   1      37.583  29.850  28.709  1.00  0.00     0.031 C 
ATOM     43  C   UNL A   1      41.238  30.090  31.068  1.00  0.00     0.029 A 
ATOM     44  N   UNL A   1      42.277  28.526  29.812  1.00  0.00    -0.354 N 
ATOM     45  C   UNL A   1      37.991  31.943  29.585  1.00  0.00     0.074 A 
ATOM     46  C   UNL A   1      37.064  31.062  28.919  1.00  0.00     0.031 C 
ATOM     47  C   UNL A   1      42.557  30.281  31.213  1.00  0.00     0.029 A 
ATOM     48  C   UNL A   1      43.224  29.499  30.189  1.00  0.00     0.049 A 
ATOM     49  H   UNL A   1      42.466  27.624  29.466  1.00  0.00     0.167 HD
ATOM     50  C   UNL A   1      37.911  33.091  30.320  1.00  0.00     0.034 A 
ATOM     51  C   UNL A   1      44.160  29.963  29.316  1.00  0.00     0.034 A 
ATOM     52  C   UNL A   1      39.248  33.586  30.694  1.00  0.00     0.049 A 
ATOM     53  C   UNL A   1      44.136  31.458  29.118  1.00  0.00     0.074 A 
ATOM     54  C   UNL A   1      39.951  33.669  31.886  1.00  0.00     0.029 A 
ATOM     55  N   UNL A   1      40.167  33.898  29.692  1.00  0.00    -0.354 N 
ATOM     56  N   UNL A   1      43.185  32.249  29.530  1.00  0.00    -0.248 NA
ATOM     57  C   UNL A   1      45.169  32.168  28.377  1.00  0.00     0.031 C 
ATOM     58  C   UNL A   1      41.299  34.018  31.588  1.00  0.00     0.029 A 
ATOM     59  C   UNL A   1      41.418  34.171  30.217  1.00  0.00     0.049 A 
ATOM     60  H   UNL A   1      39.951  33.920  28.731  1.00  0.00     0.167 HD
ATOM     61  C   UNL A   1      43.421  33.531  29.091  1.00  0.00     0.074 A 
ATOM     62  C   UNL A   1      44.687  33.422  28.384  1.00  0.00     0.031 C 
ATOM     63  C   UNL A   1      42.526  34.544  29.334  1.00  0.00     0.034 A 
BRANCH  50  64
ATOM     64  C   UNL A   1      36.620  33.636  30.937  1.00  0.00     0.023 A 
ATOM     65  C   UNL A   1      35.624  34.170  30.084  1.00  0.00     0.031 A 
ATOM     66  C   UNL A   1      36.334  33.771  32.314  1.00  0.00     0.131 A 
ATOM     67  C   UNL A   1      34.493  34.849  30.591  1.00  0.00     0.055 A 
ATOM     68  C   UNL A   1      35.217  34.450  32.818  1.00  0.00     0.041 A 
ATOM     69  F   UNL A   1      37.097  33.244  33.271  1.00  0.00    -0.206 F 
ATOM     70  C   UNL A   1      34.294  35.006  31.957  1.00  0.00     0.022 A 
BRANCH  67  71
ATOM     71  S   UNL A   1      33.286  35.565  29.442  1.00  0.00     0.124 S 
ATOM     72  O   UNL A   1      32.570  34.384  28.970  1.00  0.00    -0.237 OA
ATOM     73  O   UNL A   1      32.541  36.476  30.302  1.00  0.00    -0.237 OA
ATOM     74  O   UNL A   1      34.122  36.219  28.435  1.00  0.00    -0.744 OA
ENDBRANCH  67  71
ENDBRANCH  50  64
BRANCH  51  75
ATOM     75  C   UNL A   1      44.580  28.957  28.302  1.00  0.00     0.023 A 
ATOM     76  C   UNL A   1      45.448  27.940  28.751  1.00  0.00     0.031 A 
ATOM     77  C   UNL A   1      43.880  28.743  27.109  1.00  0.00     0.131 A 
ATOM     78  C   UNL A   1      45.435  26.682  28.138  1.00  0.00     0.055 A 
ATOM     79  C   UNL A   1      43.950  27.513  26.439  1.00  0.00     0.041 A 
ATOM     80  F   UNL A   1      43.021  29.662  26.646  1.00  0.00    -0.206 F 
ATOM     81  C   UNL A   1      44.689  26.459  26.982  1.00  0.00     0.022 A 
BRANCH  78  82
ATOM     82  S   UNL A   1      46.129  25.289  29.073  1.00  0.00     0.124 S 
ATOM     83  O   UNL A   1      46.114  24.213  28.090  1.00  0.00    -0.237 OA
ATOM     84  O   UNL A   1      47.453  25.788  29.454  1.00  0.00    -0.237 OA
ATOM     85  O   UNL A   1      45.212  25.130  30.199  1.00  0.00    -0.744 OA
ENDBRANCH  78  82
ENDBRANCH  51  75
BRANCH  63  86
ATOM     86  C   UNL A   1      42.592  35.978  28.805  1.00  0.00     0.023 A 
ATOM     87  C   UNL A   1      43.108  37.071  29.518  1.00  0.00     0.031 A 
ATOM     88  C   UNL A   1      42.114  36.299  27.506  1.00  0.00     0.131 A 
ATOM     89  C   UNL A   1      43.164  38.368  28.966  1.00  0.00     0.055 A 
ATOM     90  C   UNL A   1      42.166  37.587  26.956  1.00  0.00     0.041 A 
ATOM     91  F   UNL A   1      41.582  35.374  26.695  1.00  0.00    -0.206 F 
ATOM     92  C   UNL A   1      42.699  38.635  27.686  1.00  0.00     0.022 A 
BRANCH  89  93
ATOM     93  S   UNL A   1      43.858  39.703  29.981  1.00  0.00     0.124 S 
ATOM     94  O   UNL A   1      45.179  39.888  29.386  1.00  0.00    -0.237 OA
ATOM     95  O   UNL A   1      42.908  40.787  29.754  1.00  0.00    -0.237 OA
ATOM     96  O   UNL A   1      43.858  39.149  31.332  1.00  0.00    -0.744 OA
ENDBRANCH  89  93
ENDBRANCH  63  86
ENDBRANCH  37  38
ENDBRANCH  29  32
ENDBRANCH  27  28
ENDBRANCH   1  27
TORSDOF 17
ENDMDL
