MODEL 1
REMARK VINA RESULT:      -9.2      0.000      0.000
REMARK SMILES CC/C=C/C/C=C/C/C=C/C/C=C/CCSCCCC(=O)NCCCNC(=O)c1ccc(-c2c3nc(c(-c4cc(S(=O)(=O)[O-])ccc4F)c4ccc([nH]4)c(-c4cc(S(=O)(=O)[O-])ccc4F)c4nc(c(-c5cc(S(=O)(=O)[O-])ccc5F)c5ccc2[nH]5)C=C4)C=C3)cc1
REMARK SMILES IDX 17 1 16 2 15 3 14 4 13 5 12 6 11 7 10 8 9 9 8 10 7 11 6 12
REMARK SMILES IDX 5 13 4 14 3 15 2 16 1 17 18 18 19 19 20 20 21 21 22 22 23 24
REMARK SMILES IDX 24 25 25 26 26 27 27 28 28 30 29 31 30 32 91 33 31 34 90 35
REMARK SMILES IDX 32 36 33 37 34 38 84 39 35 40 89 41 83 42 85 43 36 44 88 45
REMARK SMILES IDX 82 46 81 47 37 49 69 50 49 51 68 52 50 53 53 54 67 55 86 56
REMARK SMILES IDX 51 57 52 58 66 60 87 61 54 62 38 63 39 64 47 65 40 66 46 67
REMARK SMILES IDX 48 68 45 69 41 70 42 71 43 72 44 73 70 74 71 75 79 76 72 77
REMARK SMILES IDX 78 78 80 79 77 80 73 81 74 82 75 83 76 84 55 85 56 86 64 87
REMARK SMILES IDX 57 88 63 89 65 90 62 91 58 92 59 93 60 94 61 95
REMARK H PARENT 22 23 26 29 85 48 53 59
REMARK Flexibility Score: inf
ROOT
ATOM      1  C   UNL A   1      32.089  22.688  27.384  1.00  0.00     0.070 C 
ENDROOT
BRANCH   1   2
ATOM      2  S   UNL A   1      33.686  21.765  27.246  1.00  0.00    -0.162 SA
BRANCH   2   3
ATOM      3  C   UNL A   1      33.426  20.103  26.489  1.00  0.00     0.073 C 
BRANCH   3   4
ATOM      4  C   UNL A   1      33.880  19.857  25.023  1.00  0.00     0.038 C 
BRANCH   4   5
ATOM      5  C   UNL A   1      33.483  20.929  24.035  1.00  0.00    -0.030 C 
ATOM      6  C   UNL A   1      32.342  20.994  23.325  1.00  0.00    -0.027 C 
BRANCH   6   7
ATOM      7  C   UNL A   1      31.837  22.253  22.641  1.00  0.00     0.054 C 
BRANCH   7   8
ATOM      8  C   UNL A   1      32.562  23.528  22.973  1.00  0.00    -0.027 C 
ATOM      9  C   UNL A   1      33.033  24.363  22.031  1.00  0.00    -0.027 C 
BRANCH   9  10
ATOM     10  C   UNL A   1      33.815  25.614  22.316  1.00  0.00     0.054 C 
BRANCH  10  11
ATOM     11  C   UNL A   1      32.846  26.744  22.509  1.00  0.00    -0.027 C 
ATOM     12  C   UNL A   1      33.180  28.044  22.507  1.00  0.00    -0.027 C 
BRANCH  12  13
ATOM     13  C   UNL A   1      32.238  29.137  22.922  1.00  0.00     0.054 C 
BRANCH  13  14
ATOM     14  C   UNL A   1      30.830  28.731  22.588  1.00  0.00    -0.027 C 
ATOM     15  C   UNL A   1      29.889  28.444  23.500  1.00  0.00    -0.031 C 
BRANCH  15  16
ATOM     16  C   UNL A   1      28.522  27.935  23.147  1.00  0.00     0.023 C 
ATOM     17  C   UNL A   1      28.218  26.652  23.906  1.00  0.00     0.008 C 
ENDBRANCH  15  16
ENDBRANCH  13  14
ENDBRANCH  12  13
ENDBRANCH  10  11
ENDBRANCH   9  10
ENDBRANCH   7   8
ENDBRANCH   6   7
ENDBRANCH   4   5
ENDBRANCH   3   4
ENDBRANCH   2   3
ENDBRANCH   1   2
BRANCH   1  18
ATOM     18  C   UNL A   1      31.374  23.460  26.275  1.00  0.00     0.021 C 
BRANCH  18  19
ATOM     19  C   UNL A   1      31.413  24.974  26.254  1.00  0.00     0.101 C 
BRANCH  19  20
ATOM     20  C   UNL A   1      32.753  25.681  26.126  1.00  0.00     0.220 C 
ATOM     21  O   UNL A   1      33.757  25.031  25.820  1.00  0.00    -0.275 OA
ATOM     22  N   UNL A   1      32.906  27.023  26.256  1.00  0.00    -0.356 N 
ATOM     23  H   UNL A   1      33.844  27.321  26.288  1.00  0.00     0.163 HD
BRANCH  22  24
ATOM     24  C   UNL A   1      31.939  28.094  26.354  1.00  0.00     0.117 C 
BRANCH  24  25
ATOM     25  C   UNL A   1      32.380  29.205  27.288  1.00  0.00     0.042 C 
BRANCH  25  26
ATOM     26  C   UNL A   1      33.251  30.208  26.555  1.00  0.00     0.118 C 
BRANCH  26  27
ATOM     27  N   UNL A   1      33.082  31.574  27.045  1.00  0.00    -0.352 N 
ATOM     28  C   UNL A   1      33.906  32.274  27.906  1.00  0.00     0.251 C 
ATOM     29  H   UNL A   1      32.284  32.053  26.724  1.00  0.00     0.163 HD
ATOM     30  O   UNL A   1      33.570  33.363  28.341  1.00  0.00    -0.269 OA
BRANCH  28  31
ATOM     31  C   UNL A   1      35.182  31.644  28.319  1.00  0.00     0.039 A 
ATOM     32  C   UNL A   1      36.380  32.340  28.159  1.00  0.00     0.014 A 
ATOM     33  C   UNL A   1      35.166  30.403  28.959  1.00  0.00     0.014 A 
ATOM     34  C   UNL A   1      37.554  31.814  28.706  1.00  0.00     0.010 A 
ATOM     35  C   UNL A   1      36.300  29.957  29.619  1.00  0.00     0.010 A 
ATOM     36  C   UNL A   1      37.517  30.638  29.475  1.00  0.00    -0.014 A 
BRANCH  36  37
ATOM     37  C   UNL A   1      38.744  30.056  30.078  1.00  0.00     0.031 A 
ATOM     38  C   UNL A   1      39.180  30.517  31.447  1.00  0.00     0.074 A 
ATOM     39  C   UNL A   1      39.493  29.176  29.386  1.00  0.00     0.049 A 
ATOM     40  N   UNL A   1      40.260  30.216  32.121  1.00  0.00    -0.248 NA
ATOM     41  C   UNL A   1      38.311  31.496  32.120  1.00  0.00     0.031 C 
ATOM     42  C   UNL A   1      39.215  28.709  28.024  1.00  0.00     0.029 A 
ATOM     43  N   UNL A   1      40.646  28.516  29.729  1.00  0.00    -0.354 N 
ATOM     44  C   UNL A   1      40.206  30.986  33.279  1.00  0.00     0.074 A 
ATOM     45  C   UNL A   1      39.049  31.844  33.159  1.00  0.00     0.031 C 
ATOM     46  C   UNL A   1      40.147  27.811  27.666  1.00  0.00     0.029 A 
ATOM     47  C   UNL A   1      41.112  27.666  28.752  1.00  0.00     0.049 A 
ATOM     48  H   UNL A   1      41.099  28.639  30.594  1.00  0.00     0.167 HD
ATOM     49  C   UNL A   1      41.013  30.946  34.369  1.00  0.00     0.034 A 
ATOM     50  C   UNL A   1      42.191  26.859  28.738  1.00  0.00     0.034 A 
ATOM     51  C   UNL A   1      42.142  30.058  34.480  1.00  0.00     0.049 A 
ATOM     52  C   UNL A   1      43.066  26.808  29.966  1.00  0.00     0.074 A 
ATOM     53  C   UNL A   1      43.012  29.893  35.543  1.00  0.00     0.029 A 
ATOM     54  N   UNL A   1      42.554  29.175  33.489  1.00  0.00    -0.354 N 
ATOM     55  N   UNL A   1      42.973  27.503  31.077  1.00  0.00    -0.248 NA
ATOM     56  C   UNL A   1      44.173  25.844  29.949  1.00  0.00     0.031 C 
ATOM     57  C   UNL A   1      43.980  28.953  35.172  1.00  0.00     0.029 A 
ATOM     58  C   UNL A   1      43.671  28.472  33.911  1.00  0.00     0.049 A 
ATOM     59  H   UNL A   1      42.115  29.064  32.615  1.00  0.00     0.167 HD
ATOM     60  C   UNL A   1      43.991  27.036  31.904  1.00  0.00     0.074 A 
ATOM     61  C   UNL A   1      44.670  25.988  31.168  1.00  0.00     0.031 C 
ATOM     62  C   UNL A   1      44.335  27.433  33.158  1.00  0.00     0.034 A 
BRANCH  49  63
ATOM     63  C   UNL A   1      40.690  31.897  35.500  1.00  0.00     0.023 A 
ATOM     64  C   UNL A   1      39.613  31.660  36.375  1.00  0.00     0.031 A 
ATOM     65  C   UNL A   1      41.418  33.087  35.669  1.00  0.00     0.131 A 
ATOM     66  C   UNL A   1      39.226  32.642  37.298  1.00  0.00     0.055 A 
ATOM     67  C   UNL A   1      41.090  34.016  36.661  1.00  0.00     0.041 A 
ATOM     68  F   UNL A   1      42.444  33.384  34.857  1.00  0.00    -0.206 F 
ATOM     69  C   UNL A   1      39.975  33.808  37.468  1.00  0.00     0.022 A 
BRANCH  66  70
ATOM     70  S   UNL A   1      37.627  32.457  38.136  1.00  0.00     0.124 S 
ATOM     71  O   UNL A   1      37.431  31.009  38.075  1.00  0.00    -0.237 OA
ATOM     72  O   UNL A   1      37.897  33.010  39.457  1.00  0.00    -0.237 OA
ATOM     73  O   UNL A   1      36.712  33.237  37.305  1.00  0.00    -0.744 OA
ENDBRANCH  66  70
ENDBRANCH  49  63
BRANCH  50  74
ATOM     74  C   UNL A   1      42.500  26.028  27.538  1.00  0.00     0.023 A 
ATOM     75  C   UNL A   1      42.069  24.695  27.444  1.00  0.00     0.031 A 
ATOM     76  C   UNL A   1      43.257  26.550  26.473  1.00  0.00     0.131 A 
ATOM     77  C   UNL A   1      42.436  23.914  26.336  1.00  0.00     0.055 A 
ATOM     78  C   UNL A   1      43.576  25.786  25.349  1.00  0.00     0.041 A 
ATOM     79  F   UNL A   1      43.687  27.821  26.505  1.00  0.00    -0.206 F 
ATOM     80  C   UNL A   1      43.176  24.455  25.281  1.00  0.00     0.022 A 
BRANCH  77  81
ATOM     81  S   UNL A   1      42.000  22.153  26.326  1.00  0.00     0.124 S 
ATOM     82  O   UNL A   1      42.481  21.721  27.634  1.00  0.00    -0.237 OA
ATOM     83  O   UNL A   1      40.551  22.202  26.160  1.00  0.00    -0.237 OA
ATOM     84  O   UNL A   1      42.739  21.625  25.183  1.00  0.00    -0.744 OA
ENDBRANCH  77  81
ENDBRANCH  50  74
BRANCH  62  85
ATOM     85  C   UNL A   1      45.463  26.686  33.826  1.00  0.00     0.023 A 
ATOM     86  C   UNL A   1      45.247  25.483  34.522  1.00  0.00     0.031 A 
ATOM     87  C   UNL A   1      46.772  27.198  33.780  1.00  0.00     0.131 A 
ATOM     88  C   UNL A   1      46.310  24.872  35.202  1.00  0.00     0.055 A 
ATOM     89  C   UNL A   1      47.838  26.547  34.399  1.00  0.00     0.041 A 
ATOM     90  F   UNL A   1      47.036  28.343  33.130  1.00  0.00    -0.206 F 
ATOM     91  C   UNL A   1      47.607  25.385  35.131  1.00  0.00     0.022 A 
BRANCH  88  92
ATOM     92  S   UNL A   1      45.951  23.458  36.281  1.00  0.00     0.124 S 
ATOM     93  O   UNL A   1      44.592  23.108  35.880  1.00  0.00    -0.237 OA
ATOM     94  O   UNL A   1      46.991  22.507  35.905  1.00  0.00    -0.237 OA
ATOM     95  O   UNL A   1      46.077  24.014  37.627  1.00  0.00    -0.744 OA
ENDBRANCH  88  92
ENDBRANCH  62  85
ENDBRANCH  36  37
ENDBRANCH  28  31
ENDBRANCH  26  27
ENDBRANCH  25  26
ENDBRANCH  24  25
ENDBRANCH  22  24
ENDBRANCH  19  20
ENDBRANCH  18  19
ENDBRANCH   1  18
TORSDOF 26
ENDMDL
MODEL 2
REMARK VINA RESULT:      -8.2      2.055      2.348
REMARK SMILES CC/C=C/C/C=C/C/C=C/C/C=C/CCSCCCC(=O)NCCCNC(=O)c1ccc(-c2c3nc(c(-c4cc(S(=O)(=O)[O-])ccc4F)c4ccc([nH]4)c(-c4cc(S(=O)(=O)[O-])ccc4F)c4nc(c(-c5cc(S(=O)(=O)[O-])ccc5F)c5ccc2[nH]5)C=C4)C=C3)cc1
REMARK SMILES IDX 17 1 16 2 15 3 14 4 13 5 12 6 11 7 10 8 9 9 8 10 7 11 6 12
REMARK SMILES IDX 5 13 4 14 3 15 2 16 1 17 18 18 19 19 20 20 21 21 22 22 23 24
REMARK SMILES IDX 24 25 25 26 26 27 27 28 28 30 29 31 30 32 91 33 31 34 90 35
REMARK SMILES IDX 32 36 33 37 34 38 84 39 35 40 89 41 83 42 85 43 36 44 88 45
REMARK SMILES IDX 82 46 81 47 37 49 69 50 49 51 68 52 50 53 53 54 67 55 86 56
REMARK SMILES IDX 51 57 52 58 66 60 87 61 54 62 38 63 39 64 47 65 40 66 46 67
REMARK SMILES IDX 48 68 45 69 41 70 42 71 43 72 44 73 70 74 71 75 79 76 72 77
REMARK SMILES IDX 78 78 80 79 77 80 73 81 74 82 75 83 76 84 55 85 56 86 64 87
REMARK SMILES IDX 57 88 63 89 65 90 62 91 58 92 59 93 60 94 61 95
REMARK H PARENT 22 23 26 29 85 48 53 59
REMARK Flexibility Score: inf
ROOT
ATOM      1  C   UNL A   1      32.080  22.818  27.340  1.00  0.00     0.070 C 
ENDROOT
BRANCH   1   2
ATOM      2  S   UNL A   1      33.622  21.806  27.195  1.00  0.00    -0.162 SA
BRANCH   2   3
ATOM      3  C   UNL A   1      33.256  20.142  26.486  1.00  0.00     0.073 C 
BRANCH   3   4
ATOM      4  C   UNL A   1      33.779  19.789  25.066  1.00  0.00     0.038 C 
BRANCH   4   5
ATOM      5  C   UNL A   1      33.462  20.801  23.990  1.00  0.00    -0.030 C 
ATOM      6  C   UNL A   1      32.368  20.836  23.207  1.00  0.00    -0.027 C 
BRANCH   6   7
ATOM      7  C   UNL A   1      31.926  22.055  22.416  1.00  0.00     0.054 C 
BRANCH   7   8
ATOM      8  C   UNL A   1      32.506  23.373  22.847  1.00  0.00    -0.027 C 
ATOM      9  C   UNL A   1      33.117  24.213  21.993  1.00  0.00    -0.027 C 
BRANCH   9  10
ATOM     10  C   UNL A   1      33.762  25.511  22.390  1.00  0.00     0.054 C 
BRANCH  10  11
ATOM     11  C   UNL A   1      32.713  26.583  22.382  1.00  0.00    -0.027 C 
ATOM     12  C   UNL A   1      32.968  27.900  22.379  1.00  0.00    -0.027 C 
BRANCH  12  13
ATOM     13  C   UNL A   1      31.912  28.945  22.596  1.00  0.00     0.054 C 
BRANCH  13  14
ATOM     14  C   UNL A   1      30.558  28.298  22.548  1.00  0.00    -0.027 C 
ATOM     15  C   UNL A   1      29.523  28.648  23.327  1.00  0.00    -0.031 C 
BRANCH  15  16
ATOM     16  C   UNL A   1      28.213  27.918  23.342  1.00  0.00     0.023 C 
ATOM     17  C   UNL A   1      28.384  26.526  23.932  1.00  0.00     0.008 C 
ENDBRANCH  15  16
ENDBRANCH  13  14
ENDBRANCH  12  13
ENDBRANCH  10  11
ENDBRANCH   9  10
ENDBRANCH   7   8
ENDBRANCH   6   7
ENDBRANCH   4   5
ENDBRANCH   3   4
ENDBRANCH   2   3
ENDBRANCH   1   2
BRANCH   1  18
ATOM     18  C   UNL A   1      31.441  23.681  26.253  1.00  0.00     0.021 C 
BRANCH  18  19
ATOM     19  C   UNL A   1      31.774  25.156  26.157  1.00  0.00     0.101 C 
BRANCH  19  20
ATOM     20  C   UNL A   1      33.222  25.580  25.973  1.00  0.00     0.220 C 
ATOM     21  O   UNL A   1      34.076  24.729  25.703  1.00  0.00    -0.275 OA
ATOM     22  N   UNL A   1      33.635  26.871  26.014  1.00  0.00    -0.356 N 
ATOM     23  H   UNL A   1      34.613  26.983  26.020  1.00  0.00     0.163 HD
BRANCH  22  24
ATOM     24  C   UNL A   1      32.896  28.114  26.050  1.00  0.00     0.117 C 
BRANCH  24  25
ATOM     25  C   UNL A   1      33.393  29.067  27.120  1.00  0.00     0.042 C 
BRANCH  25  26
ATOM     26  C   UNL A   1      34.090  30.260  26.494  1.00  0.00     0.118 C 
BRANCH  26  27
ATOM     27  N   UNL A   1      33.716  31.529  27.115  1.00  0.00    -0.352 N 
ATOM     28  C   UNL A   1      34.337  32.172  28.169  1.00  0.00     0.251 C 
ATOM     29  H   UNL A   1      32.926  31.980  26.737  1.00  0.00     0.163 HD
ATOM     30  O   UNL A   1      33.834  33.161  28.677  1.00  0.00    -0.269 OA
BRANCH  28  31
ATOM     31  C   UNL A   1      35.600  31.600  28.691  1.00  0.00     0.039 A 
ATOM     32  C   UNL A   1      36.781  32.338  28.604  1.00  0.00     0.014 A 
ATOM     33  C   UNL A   1      35.582  30.373  29.357  1.00  0.00     0.014 A 
ATOM     34  C   UNL A   1      37.929  31.870  29.250  1.00  0.00     0.010 A 
ATOM     35  C   UNL A   1      36.678  29.985  30.110  1.00  0.00     0.010 A 
ATOM     36  C   UNL A   1      37.877  30.709  30.041  1.00  0.00    -0.014 A 
BRANCH  36  37
ATOM     37  C   UNL A   1      39.075  30.187  30.748  1.00  0.00     0.031 A 
ATOM     38  C   UNL A   1      39.373  30.669  32.146  1.00  0.00     0.074 A 
ATOM     39  C   UNL A   1      39.921  29.344  30.124  1.00  0.00     0.049 A 
ATOM     40  N   UNL A   1      40.405  30.421  32.910  1.00  0.00    -0.248 NA
ATOM     41  C   UNL A   1      38.404  31.605  32.740  1.00  0.00     0.031 C 
ATOM     42  C   UNL A   1      39.781  28.864  28.746  1.00  0.00     0.029 A 
ATOM     43  N   UNL A   1      41.072  28.741  30.565  1.00  0.00    -0.354 N 
ATOM     44  C   UNL A   1      40.217  31.187  34.056  1.00  0.00     0.074 A 
ATOM     45  C   UNL A   1      39.035  31.989  33.835  1.00  0.00     0.031 C 
ATOM     46  C   UNL A   1      40.782  28.012  28.471  1.00  0.00     0.029 A 
ATOM     47  C   UNL A   1      41.658  27.913  29.635  1.00  0.00     0.049 A 
ATOM     48  H   UNL A   1      41.444  28.886  31.466  1.00  0.00     0.167 HD
ATOM     49  C   UNL A   1      40.931  31.187  35.209  1.00  0.00     0.034 A 
ATOM     50  C   UNL A   1      42.773  27.160  29.715  1.00  0.00     0.034 A 
ATOM     51  C   UNL A   1      42.088  30.355  35.419  1.00  0.00     0.049 A 
ATOM     52  C   UNL A   1      43.543  27.151  31.013  1.00  0.00     0.074 A 
ATOM     53  C   UNL A   1      42.873  30.233  36.551  1.00  0.00     0.029 A 
ATOM     54  N   UNL A   1      42.623  29.492  34.469  1.00  0.00    -0.354 N 
ATOM     55  N   UNL A   1      43.324  27.842  32.108  1.00  0.00    -0.248 NA
ATOM     56  C   UNL A   1      44.692  26.243  31.093  1.00  0.00     0.031 C 
ATOM     57  C   UNL A   1      43.913  29.341  36.268  1.00  0.00     0.029 A 
ATOM     58  C   UNL A   1      43.734  28.844  34.987  1.00  0.00     0.049 A 
ATOM     59  H   UNL A   1      42.265  29.360  33.562  1.00  0.00     0.167 HD
ATOM     60  C   UNL A   1      44.290  27.424  33.020  1.00  0.00     0.074 A 
ATOM     61  C   UNL A   1      45.078  26.410  32.349  1.00  0.00     0.031 C 
ATOM     62  C   UNL A   1      44.507  27.838  34.296  1.00  0.00     0.034 A 
BRANCH  49  63
ATOM     63  C   UNL A   1      40.468  32.121  36.306  1.00  0.00     0.023 A 
ATOM     64  C   UNL A   1      39.355  31.816  37.111  1.00  0.00     0.031 A 
ATOM     65  C   UNL A   1      41.099  33.361  36.507  1.00  0.00     0.131 A 
ATOM     66  C   UNL A   1      38.841  32.777  37.994  1.00  0.00     0.055 A 
ATOM     67  C   UNL A   1      40.643  34.272  37.464  1.00  0.00     0.041 A 
ATOM     68  F   UNL A   1      42.154  33.723  35.760  1.00  0.00    -0.206 F 
ATOM     69  C   UNL A   1      39.495  33.993  38.199  1.00  0.00     0.022 A 
BRANCH  66  70
ATOM     70  S   UNL A   1      37.207  32.486  38.728  1.00  0.00     0.124 S 
ATOM     71  O   UNL A   1      37.365  33.097  40.047  1.00  0.00    -0.237 OA
ATOM     72  O   UNL A   1      36.317  33.179  37.805  1.00  0.00    -0.237 OA
ATOM     73  O   UNL A   1      37.089  31.029  38.736  1.00  0.00    -0.744 OA
ENDBRANCH  66  70
ENDBRANCH  49  63
BRANCH  50  74
ATOM     74  C   UNL A   1      43.221  26.345  28.549  1.00  0.00     0.023 A 
ATOM     75  C   UNL A   1      44.241  26.794  27.694  1.00  0.00     0.031 A 
ATOM     76  C   UNL A   1      42.615  25.110  28.255  1.00  0.00     0.131 A 
ATOM     77  C   UNL A   1      44.592  26.041  26.562  1.00  0.00     0.055 A 
ATOM     78  C   UNL A   1      43.003  24.338  27.158  1.00  0.00     0.041 A 
ATOM     79  F   UNL A   1      41.642  24.626  29.043  1.00  0.00    -0.206 F 
ATOM     80  C   UNL A   1      43.989  24.809  26.296  1.00  0.00     0.022 A 
BRANCH  77  81
ATOM     81  S   UNL A   1      45.797  26.731  25.394  1.00  0.00     0.124 S 
ATOM     82  O   UNL A   1      45.057  27.856  24.834  1.00  0.00    -0.237 OA
ATOM     83  O   UNL A   1      46.911  27.068  26.274  1.00  0.00    -0.237 OA
ATOM     84  O   UNL A   1      46.048  25.626  24.471  1.00  0.00    -0.744 OA
ENDBRANCH  77  81
ENDBRANCH  50  74
BRANCH  62  85
ATOM     85  C   UNL A   1      45.610  27.146  35.060  1.00  0.00     0.023 A 
ATOM     86  C   UNL A   1      46.929  27.633  35.063  1.00  0.00     0.031 A 
ATOM     87  C   UNL A   1      45.337  25.970  35.783  1.00  0.00     0.131 A 
ATOM     88  C   UNL A   1      47.937  26.908  35.715  1.00  0.00     0.055 A 
ATOM     89  C   UNL A   1      46.331  25.293  36.487  1.00  0.00     0.041 A 
ATOM     90  F   UNL A   1      44.095  25.460  35.814  1.00  0.00    -0.206 F 
ATOM     91  C   UNL A   1      47.644  25.751  36.441  1.00  0.00     0.022 A 
BRANCH  88  92
ATOM     92  S   UNL A   1      49.660  27.435  35.501  1.00  0.00     0.124 S 
ATOM     93  O   UNL A   1      50.281  26.228  34.961  1.00  0.00    -0.237 OA
ATOM     94  O   UNL A   1      49.531  28.553  34.573  1.00  0.00    -0.237 OA
ATOM     95  O   UNL A   1      50.078  27.796  36.853  1.00  0.00    -0.744 OA
ENDBRANCH  88  92
ENDBRANCH  62  85
ENDBRANCH  36  37
ENDBRANCH  28  31
ENDBRANCH  26  27
ENDBRANCH  25  26
ENDBRANCH  24  25
ENDBRANCH  22  24
ENDBRANCH  19  20
ENDBRANCH  18  19
ENDBRANCH   1  18
TORSDOF 26
ENDMDL
MODEL 3
REMARK VINA RESULT:      -7.9      3.417      9.204
REMARK SMILES CC/C=C/C/C=C/C/C=C/C/C=C/CCSCCCC(=O)NCCCNC(=O)c1ccc(-c2c3nc(c(-c4cc(S(=O)(=O)[O-])ccc4F)c4ccc([nH]4)c(-c4cc(S(=O)(=O)[O-])ccc4F)c4nc(c(-c5cc(S(=O)(=O)[O-])ccc5F)c5ccc2[nH]5)C=C4)C=C3)cc1
REMARK SMILES IDX 17 1 16 2 15 3 14 4 13 5 12 6 11 7 10 8 9 9 8 10 7 11 6 12
REMARK SMILES IDX 5 13 4 14 3 15 2 16 1 17 18 18 19 19 20 20 21 21 22 22 23 24
REMARK SMILES IDX 24 25 25 26 26 27 27 28 28 30 29 31 30 32 91 33 31 34 90 35
REMARK SMILES IDX 32 36 33 37 34 38 84 39 35 40 89 41 83 42 85 43 36 44 88 45
REMARK SMILES IDX 82 46 81 47 37 49 69 50 49 51 68 52 50 53 53 54 67 55 86 56
REMARK SMILES IDX 51 57 52 58 66 60 87 61 54 62 38 63 39 64 47 65 40 66 46 67
REMARK SMILES IDX 48 68 45 69 41 70 42 71 43 72 44 73 70 74 71 75 79 76 72 77
REMARK SMILES IDX 78 78 80 79 77 80 73 81 74 82 75 83 76 84 55 85 56 86 64 87
REMARK SMILES IDX 57 88 63 89 65 90 62 91 58 92 59 93 60 94 61 95
REMARK H PARENT 22 23 26 29 85 48 53 59
REMARK Flexibility Score: inf
ROOT
ATOM      1  C   UNL A   1      37.164  29.387  29.456  1.00  0.00     0.070 C 
ENDROOT
BRANCH   1   2
ATOM      2  S   UNL A   1      38.838  29.955  28.910  1.00  0.00    -0.162 SA
BRANCH   2   3
ATOM      3  C   UNL A   1      39.235  29.319  27.224  1.00  0.00     0.073 C 
BRANCH   3   4
ATOM      4  C   UNL A   1      40.618  28.659  26.967  1.00  0.00     0.038 C 
BRANCH   4   5
ATOM      5  C   UNL A   1      40.674  27.166  27.188  1.00  0.00    -0.030 C 
ATOM      6  C   UNL A   1      39.707  26.388  27.708  1.00  0.00    -0.027 C 
BRANCH   6   7
ATOM      7  C   UNL A   1      39.666  24.876  27.569  1.00  0.00     0.054 C 
BRANCH   7   8
ATOM      8  C   UNL A   1      38.734  24.330  26.522  1.00  0.00    -0.027 C 
ATOM      9  C   UNL A   1      38.538  23.012  26.340  1.00  0.00    -0.027 C 
BRANCH   9  10
ATOM     10  C   UNL A   1      37.662  22.422  25.269  1.00  0.00     0.054 C 
BRANCH  10  11
ATOM     11  C   UNL A   1      36.234  22.517  25.719  1.00  0.00    -0.027 C 
ATOM     12  C   UNL A   1      35.189  22.723  24.903  1.00  0.00    -0.027 C 
BRANCH  12  13
ATOM     13  C   UNL A   1      33.806  23.035  25.398  1.00  0.00     0.054 C 
BRANCH  13  14
ATOM     14  C   UNL A   1      33.620  24.525  25.443  1.00  0.00    -0.027 C 
ATOM     15  C   UNL A   1      32.650  25.146  26.130  1.00  0.00    -0.031 C 
BRANCH  15  16
ATOM     16  C   UNL A   1      32.413  26.627  26.074  1.00  0.00     0.023 C 
ATOM     17  C   UNL A   1      33.734  27.380  26.118  1.00  0.00     0.008 C 
ENDBRANCH  15  16
ENDBRANCH  13  14
ENDBRANCH  12  13
ENDBRANCH  10  11
ENDBRANCH   9  10
ENDBRANCH   7   8
ENDBRANCH   6   7
ENDBRANCH   4   5
ENDBRANCH   3   4
ENDBRANCH   2   3
ENDBRANCH   1   2
BRANCH   1  18
ATOM     18  C   UNL A   1      35.886  29.355  28.618  1.00  0.00     0.021 C 
BRANCH  18  19
ATOM     19  C   UNL A   1      35.704  30.324  27.468  1.00  0.00     0.101 C 
BRANCH  19  20
ATOM     20  C   UNL A   1      34.773  31.513  27.637  1.00  0.00     0.220 C 
ATOM     21  O   UNL A   1      33.554  31.354  27.516  1.00  0.00    -0.275 OA
ATOM     22  N   UNL A   1      35.197  32.751  27.995  1.00  0.00    -0.356 N 
ATOM     23  H   UNL A   1      34.508  33.450  27.928  1.00  0.00     0.163 HD
BRANCH  22  24
ATOM     24  C   UNL A   1      36.483  33.228  28.457  1.00  0.00     0.117 C 
BRANCH  24  25
ATOM     25  C   UNL A   1      36.446  33.736  29.885  1.00  0.00     0.042 C 
BRANCH  25  26
ATOM     26  C   UNL A   1      37.144  32.766  30.819  1.00  0.00     0.118 C 
BRANCH  26  27
ATOM     27  N   UNL A   1      36.669  32.860  32.197  1.00  0.00    -0.352 N 
ATOM     28  C   UNL A   1      37.215  32.274  33.324  1.00  0.00     0.251 C 
ATOM     29  H   UNL A   1      35.862  33.406  32.341  1.00  0.00     0.163 HD
ATOM     30  O   UNL A   1      36.633  32.325  34.395  1.00  0.00    -0.269 OA
BRANCH  28  31
ATOM     31  C   UNL A   1      38.497  31.546  33.182  1.00  0.00     0.039 A 
ATOM     32  C   UNL A   1      39.702  32.241  33.293  1.00  0.00     0.014 A 
ATOM     33  C   UNL A   1      38.493  30.157  33.040  1.00  0.00     0.014 A 
ATOM     34  C   UNL A   1      40.903  31.525  33.331  1.00  0.00     0.010 A 
ATOM     35  C   UNL A   1      39.669  29.446  33.220  1.00  0.00     0.010 A 
ATOM     36  C   UNL A   1      40.893  30.120  33.334  1.00  0.00    -0.014 A 
BRANCH  36  37
ATOM     37  C   UNL A   1      42.150  29.327  33.381  1.00  0.00     0.031 A 
ATOM     38  C   UNL A   1      42.780  28.870  32.089  1.00  0.00     0.074 A 
ATOM     39  C   UNL A   1      42.684  28.966  34.564  1.00  0.00     0.049 A 
ATOM     40  N   UNL A   1      43.816  28.095  31.897  1.00  0.00    -0.248 NA
ATOM     41  C   UNL A   1      42.116  29.295  30.846  1.00  0.00     0.031 C 
ATOM     42  C   UNL A   1      42.126  29.284  35.881  1.00  0.00     0.029 A 
ATOM     43  N   UNL A   1      43.816  28.247  34.854  1.00  0.00    -0.354 N 
ATOM     44  C   UNL A   1      43.908  27.925  30.519  1.00  0.00     0.074 A 
ATOM     45  C   UNL A   1      42.760  28.583  29.938  1.00  0.00     0.031 C 
ATOM     46  C   UNL A   1      42.938  28.798  36.834  1.00  0.00     0.029 A 
ATOM     47  C   UNL A   1      44.052  28.100  36.202  1.00  0.00     0.049 A 
ATOM     48  H   UNL A   1      44.406  27.872  34.160  1.00  0.00     0.167 HD
ATOM     49  C   UNL A   1      44.885  27.323  29.796  1.00  0.00     0.034 A 
ATOM     50  C   UNL A   1      45.055  27.476  36.850  1.00  0.00     0.034 A 
ATOM     51  C   UNL A   1      46.039  26.702  30.396  1.00  0.00     0.049 A 
ATOM     52  C   UNL A   1      46.148  26.832  36.032  1.00  0.00     0.074 A 
ATOM     53  C   UNL A   1      47.115  26.094  29.776  1.00  0.00     0.029 A 
ATOM     54  N   UNL A   1      46.268  26.615  31.765  1.00  0.00    -0.354 N 
ATOM     55  N   UNL A   1      46.250  26.724  34.727  1.00  0.00    -0.248 NA
ATOM     56  C   UNL A   1      47.273  26.250  36.774  1.00  0.00     0.031 C 
ATOM     57  C   UNL A   1      47.965  25.593  30.768  1.00  0.00     0.029 A 
ATOM     58  C   UNL A   1      47.461  25.955  32.007  1.00  0.00     0.049 A 
ATOM     59  H   UNL A   1      45.669  26.973  32.460  1.00  0.00     0.167 HD
ATOM     60  C   UNL A   1      47.468  26.091  34.492  1.00  0.00     0.074 A 
ATOM     61  C   UNL A   1      48.068  25.860  35.790  1.00  0.00     0.031 C 
ATOM     62  C   UNL A   1      48.040  25.733  33.312  1.00  0.00     0.034 A 
BRANCH  49  63
ATOM     63  C   UNL A   1      44.724  27.314  28.292  1.00  0.00     0.023 A 
ATOM     64  C   UNL A   1      44.259  26.175  27.608  1.00  0.00     0.031 A 
ATOM     65  C   UNL A   1      45.102  28.428  27.522  1.00  0.00     0.131 A 
ATOM     66  C   UNL A   1      44.290  26.133  26.207  1.00  0.00     0.055 A 
ATOM     67  C   UNL A   1      45.033  28.416  26.127  1.00  0.00     0.041 A 
ATOM     68  F   UNL A   1      45.573  29.539  28.110  1.00  0.00    -0.206 F 
ATOM     69  C   UNL A   1      44.646  27.257  25.460  1.00  0.00     0.022 A 
BRANCH  66  70
ATOM     70  S   UNL A   1      44.040  24.535  25.386  1.00  0.00     0.124 S 
ATOM     71  O   UNL A   1      45.198  24.478  24.496  1.00  0.00    -0.237 OA
ATOM     72  O   UNL A   1      44.047  23.600  26.504  1.00  0.00    -0.237 OA
ATOM     73  O   UNL A   1      42.753  24.694  24.711  1.00  0.00    -0.744 OA
ENDBRANCH  66  70
ENDBRANCH  49  63
BRANCH  50  74
ATOM     74  C   UNL A   1      45.086  27.439  38.341  1.00  0.00     0.023 A 
ATOM     75  C   UNL A   1      45.635  28.497  39.085  1.00  0.00     0.031 A 
ATOM     76  C   UNL A   1      44.589  26.329  39.047  1.00  0.00     0.131 A 
ATOM     77  C   UNL A   1      45.717  28.404  40.483  1.00  0.00     0.055 A 
ATOM     78  C   UNL A   1      44.625  26.263  40.441  1.00  0.00     0.041 A 
ATOM     79  F   UNL A   1      44.045  25.294  38.388  1.00  0.00    -0.206 F 
ATOM     80  C   UNL A   1      45.204  27.299  41.168  1.00  0.00     0.022 A 
BRANCH  77  81
ATOM     81  S   UNL A   1      46.577  29.715  41.396  1.00  0.00     0.124 S 
ATOM     82  O   UNL A   1      47.281  30.411  40.324  1.00  0.00    -0.237 OA
ATOM     83  O   UNL A   1      45.466  30.436  42.008  1.00  0.00    -0.237 OA
ATOM     84  O   UNL A   1      47.429  28.979  42.327  1.00  0.00    -0.744 OA
ENDBRANCH  77  81
ENDBRANCH  50  74
BRANCH  62  85
ATOM     85  C   UNL A   1      49.411  25.106  33.380  1.00  0.00     0.023 A 
ATOM     86  C   UNL A   1      49.587  23.715  33.486  1.00  0.00     0.031 A 
ATOM     87  C   UNL A   1      50.560  25.918  33.357  1.00  0.00     0.131 A 
ATOM     88  C   UNL A   1      50.877  23.186  33.636  1.00  0.00     0.055 A 
ATOM     89  C   UNL A   1      51.843  25.379  33.435  1.00  0.00     0.041 A 
ATOM     90  F   UNL A   1      50.451  27.253  33.258  1.00  0.00    -0.206 F 
ATOM     91  C   UNL A   1      52.007  24.006  33.593  1.00  0.00     0.022 A 
BRANCH  88  92
ATOM     92  S   UNL A   1      51.051  21.418  34.006  1.00  0.00     0.124 S 
ATOM     93  O   UNL A   1      52.176  21.413  34.936  1.00  0.00    -0.237 OA
ATOM     94  O   UNL A   1      49.750  21.091  34.580  1.00  0.00    -0.237 OA
ATOM     95  O   UNL A   1      51.320  20.820  32.701  1.00  0.00    -0.744 OA
ENDBRANCH  88  92
ENDBRANCH  62  85
ENDBRANCH  36  37
ENDBRANCH  28  31
ENDBRANCH  26  27
ENDBRANCH  25  26
ENDBRANCH  24  25
ENDBRANCH  22  24
ENDBRANCH  19  20
ENDBRANCH  18  19
ENDBRANCH   1  18
TORSDOF 26
ENDMDL
