MODEL 1
REMARK VINA RESULT:     -10.4      0.000      0.000
REMARK SMILES CC(C)[NH2+][C@]1(C(=O)NCCCNC(=O)c2ccc(-c3c4nc(c(-c5cc(S(=O)(=O)[O-])ccc5F)c5ccc([nH]5)c(-c5cc(S(=O)(=O)[O-])ccc5F)c5nc(c(-c6cc(S(=O)(=O)[O-])ccc6F)c6ccc3[nH]6)C=C5)C=C4)cc2)CC[C@@H]([N@@H+](C)[C@@H](C)C(C)C)C1
REMARK SMILES IDX 10 1 9 2 8 3 6 4 7 5 5 7 78 8 88 9 79 10 80 11 4 12 2 15
REMARK SMILES IDX 1 16 3 17 81 18 82 19 83 21 84 22 85 23 86 24 87 25 11 26
REMARK SMILES IDX 12 27 13 28 14 30 15 31 16 32 77 33 17 34 76 35 18 36 19 37
REMARK SMILES IDX 20 38 70 39 21 40 75 41 69 42 71 43 22 44 74 45 68 46 67 47
REMARK SMILES IDX 23 49 55 50 35 51 54 52 36 53 39 54 53 55 72 56 37 57 38 58
REMARK SMILES IDX 52 60 73 61 40 62 24 63 25 64 33 65 26 66 32 67 34 68 31 69
REMARK SMILES IDX 27 70 28 71 29 72 30 73 56 74 57 75 65 76 58 77 64 78 66 79
REMARK SMILES IDX 63 80 59 81 60 82 61 83 62 84 41 85 42 86 50 87 43 88 49 89
REMARK SMILES IDX 51 90 48 91 44 92 45 93 46 94 47 95
REMARK H PARENT 8 6 4 13 4 14 81 20 12 29 71 48 39 59
REMARK Flexibility Score: inf
ROOT
ATOM      1  C   UNL A   1      33.299  28.202  27.228  1.00  0.00     0.042 C 
ENDROOT
BRANCH   1   2
ATOM      2  C   UNL A   1      31.781  28.302  27.264  1.00  0.00     0.118 C 
BRANCH   2   3
ATOM      3  N   UNL A   1      31.119  27.015  27.137  1.00  0.00    -0.351 N 
ATOM      4  C   UNL A   1      30.829  26.163  26.125  1.00  0.00     0.281 C 
ATOM      5  O   UNL A   1      30.263  25.115  26.486  1.00  0.00    -0.268 OA
ATOM      6  H   UNL A   1      30.802  26.677  28.006  1.00  0.00     0.163 HD
BRANCH   4   7
ATOM      7  C   UNL A   1      31.096  26.378  24.600  1.00  0.00     0.181 C 
ATOM      8  C   UNL A   1      32.520  26.482  24.059  1.00  0.00     0.085 C 
ATOM      9  C   UNL A   1      30.548  25.098  23.871  1.00  0.00     0.144 C 
ATOM     10  C   UNL A   1      32.509  25.851  22.679  1.00  0.00     0.072 C 
ATOM     11  C   UNL A   1      31.592  24.636  22.832  1.00  0.00     0.191 C 
BRANCH   7  12
ATOM     12  N   UNL A   1      30.224  27.497  24.124  1.00  0.00    -0.331 N 
ATOM     13  H   UNL A   1      29.638  27.124  23.378  1.00  0.00     0.347 HD
ATOM     14  H   UNL A   1      29.739  27.809  24.966  1.00  0.00     0.347 HD
BRANCH  12  15
ATOM     15  C   UNL A   1      30.862  28.713  23.607  1.00  0.00     0.176 C 
ATOM     16  C   UNL A   1      30.258  28.957  22.218  1.00  0.00     0.075 C 
ATOM     17  C   UNL A   1      30.630  29.961  24.463  1.00  0.00     0.075 C 
ENDBRANCH  12  15
ENDBRANCH   7  12
BRANCH  11  18
ATOM     18  N   UNL A   1      32.198  23.290  22.965  1.00  0.00    -0.332 N 
ATOM     19  C   UNL A   1      33.279  23.115  21.983  1.00  0.00     0.333 C 
ATOM     20  H   UNL A   1      31.342  22.761  22.799  1.00  0.00     0.348 HD
BRANCH  18  21
ATOM     21  C   UNL A   1      32.529  22.620  24.250  1.00  0.00     0.183 C 
ATOM     22  C   UNL A   1      32.161  21.128  24.335  1.00  0.00     0.075 C 
BRANCH  21  23
ATOM     23  C   UNL A   1      33.937  22.955  24.831  1.00  0.00     0.041 C 
ATOM     24  C   UNL A   1      33.821  23.814  26.101  1.00  0.00     0.013 C 
ATOM     25  C   UNL A   1      34.796  21.728  25.165  1.00  0.00     0.013 C 
ENDBRANCH  21  23
ENDBRANCH  18  21
ENDBRANCH  11  18
ENDBRANCH   4   7
ENDBRANCH   2   3
ENDBRANCH   1   2
BRANCH   1  26
ATOM     26  C   UNL A   1      33.927  29.180  26.237  1.00  0.00     0.118 C 
BRANCH  26  27
ATOM     27  N   UNL A   1      33.870  30.555  26.724  1.00  0.00    -0.352 N 
ATOM     28  C   UNL A   1      34.567  31.180  27.727  1.00  0.00     0.251 C 
ATOM     29  H   UNL A   1      33.223  31.130  26.254  1.00  0.00     0.163 HD
ATOM     30  O   UNL A   1      34.145  32.246  28.167  1.00  0.00    -0.269 OA
BRANCH  28  31
ATOM     31  C   UNL A   1      35.807  30.587  28.274  1.00  0.00     0.039 A 
ATOM     32  C   UNL A   1      35.719  29.700  29.351  1.00  0.00     0.014 A 
ATOM     33  C   UNL A   1      37.059  30.955  27.777  1.00  0.00     0.014 A 
ATOM     34  C   UNL A   1      36.882  29.141  29.890  1.00  0.00     0.010 A 
ATOM     35  C   UNL A   1      38.208  30.335  28.257  1.00  0.00     0.010 A 
ATOM     36  C   UNL A   1      38.134  29.432  29.327  1.00  0.00    -0.014 A 
BRANCH  36  37
ATOM     37  C   UNL A   1      39.387  28.831  29.858  1.00  0.00     0.031 A 
ATOM     38  C   UNL A   1      40.026  29.403  31.095  1.00  0.00     0.074 A 
ATOM     39  C   UNL A   1      39.984  27.829  29.184  1.00  0.00     0.049 A 
ATOM     40  N   UNL A   1      41.175  29.109  31.647  1.00  0.00    -0.248 NA
ATOM     41  C   UNL A   1      39.287  30.474  31.780  1.00  0.00     0.031 C 
ATOM     42  C   UNL A   1      39.479  27.219  27.952  1.00  0.00     0.029 A 
ATOM     43  N   UNL A   1      41.154  27.157  29.431  1.00  0.00    -0.354 N 
ATOM     44  C   UNL A   1      41.310  29.975  32.727  1.00  0.00     0.074 A 
ATOM     45  C   UNL A   1      40.152  30.843  32.713  1.00  0.00     0.031 C 
ATOM     46  C   UNL A   1      40.325  26.250  27.563  1.00  0.00     0.029 A 
ATOM     47  C   UNL A   1      41.452  26.202  28.487  1.00  0.00     0.049 A 
ATOM     48  H   UNL A   1      41.727  27.340  30.211  1.00  0.00     0.167 HD
ATOM     49  C   UNL A   1      42.296  30.026  33.657  1.00  0.00     0.034 A 
ATOM     50  C   UNL A   1      42.523  25.390  28.370  1.00  0.00     0.034 A 
ATOM     51  C   UNL A   1      43.431  29.135  33.668  1.00  0.00     0.049 A 
ATOM     52  C   UNL A   1      43.610  25.468  29.412  1.00  0.00     0.074 A 
ATOM     53  C   UNL A   1      44.459  29.057  34.591  1.00  0.00     0.029 A 
ATOM     54  N   UNL A   1      43.689  28.165  32.706  1.00  0.00    -0.354 N 
ATOM     55  N   UNL A   1      43.702  26.264  30.452  1.00  0.00    -0.248 NA
ATOM     56  C   UNL A   1      44.729  24.528  29.271  1.00  0.00     0.031 C 
ATOM     57  C   UNL A   1      45.367  28.085  34.157  1.00  0.00     0.029 A 
ATOM     58  C   UNL A   1      44.871  27.503  33.001  1.00  0.00     0.049 A 
ATOM     59  H   UNL A   1      43.115  27.976  31.928  1.00  0.00     0.167 HD
ATOM     60  C   UNL A   1      44.876  25.898  31.106  1.00  0.00     0.074 A 
ATOM     61  C   UNL A   1      45.447  24.802  30.349  1.00  0.00     0.031 C 
ATOM     62  C   UNL A   1      45.430  26.417  32.231  1.00  0.00     0.034 A 
BRANCH  49  63
ATOM     63  C   UNL A   1      42.196  31.097  34.718  1.00  0.00     0.023 A 
ATOM     64  C   UNL A   1      42.724  32.386  34.520  1.00  0.00     0.031 A 
ATOM     65  C   UNL A   1      41.598  30.819  35.960  1.00  0.00     0.131 A 
ATOM     66  C   UNL A   1      42.719  33.316  35.570  1.00  0.00     0.055 A 
ATOM     67  C   UNL A   1      41.519  31.778  36.972  1.00  0.00     0.041 A 
ATOM     68  F   UNL A   1      41.094  29.601  36.218  1.00  0.00    -0.206 F 
ATOM     69  C   UNL A   1      42.097  33.029  36.787  1.00  0.00     0.022 A 
BRANCH  66  70
ATOM     70  S   UNL A   1      43.672  34.847  35.374  1.00  0.00     0.124 S 
ATOM     71  O   UNL A   1      45.039  34.333  35.294  1.00  0.00    -0.237 OA
ATOM     72  O   UNL A   1      43.126  35.403  34.142  1.00  0.00    -0.237 OA
ATOM     73  O   UNL A   1      43.367  35.599  36.590  1.00  0.00    -0.744 OA
ENDBRANCH  66  70
ENDBRANCH  49  63
BRANCH  50  74
ATOM     74  C   UNL A   1      42.628  24.441  27.227  1.00  0.00     0.023 A 
ATOM     75  C   UNL A   1      42.069  23.156  27.302  1.00  0.00     0.031 A 
ATOM     76  C   UNL A   1      43.323  24.791  26.054  1.00  0.00     0.131 A 
ATOM     77  C   UNL A   1      42.251  22.250  26.246  1.00  0.00     0.055 A 
ATOM     78  C   UNL A   1      43.457  23.904  24.985  1.00  0.00     0.041 A 
ATOM     79  F   UNL A   1      43.870  26.010  25.927  1.00  0.00    -0.206 F 
ATOM     80  C   UNL A   1      42.931  22.619  25.083  1.00  0.00     0.022 A 
BRANCH  77  81
ATOM     81  S   UNL A   1      41.653  20.550  26.448  1.00  0.00     0.124 S 
ATOM     82  O   UNL A   1      42.402  19.847  25.412  1.00  0.00    -0.237 OA
ATOM     83  O   UNL A   1      42.035  20.258  27.825  1.00  0.00    -0.237 OA
ATOM     84  O   UNL A   1      40.216  20.665  26.212  1.00  0.00    -0.744 OA
ENDBRANCH  77  81
ENDBRANCH  50  74
BRANCH  62  85
ATOM     85  C   UNL A   1      46.694  25.765  32.733  1.00  0.00     0.023 A 
ATOM     86  C   UNL A   1      46.664  24.702  33.653  1.00  0.00     0.031 A 
ATOM     87  C   UNL A   1      47.947  26.225  32.292  1.00  0.00     0.131 A 
ATOM     88  C   UNL A   1      47.866  24.171  34.144  1.00  0.00     0.055 A 
ATOM     89  C   UNL A   1      49.139  25.654  32.739  1.00  0.00     0.041 A 
ATOM     90  F   UNL A   1      48.033  27.239  31.415  1.00  0.00    -0.206 F 
ATOM     91  C   UNL A   1      49.104  24.629  33.681  1.00  0.00     0.022 A 
BRANCH  88  92
ATOM     92  S   UNL A   1      47.795  22.930  35.465  1.00  0.00     0.124 S 
ATOM     93  O   UNL A   1      46.692  22.081  35.026  1.00  0.00    -0.237 OA
ATOM     94  O   UNL A   1      49.125  22.331  35.402  1.00  0.00    -0.237 OA
ATOM     95  O   UNL A   1      47.529  23.721  36.665  1.00  0.00    -0.744 OA
ENDBRANCH  88  92
ENDBRANCH  62  85
ENDBRANCH  36  37
ENDBRANCH  28  31
ENDBRANCH  26  27
ENDBRANCH   1  26
TORSDOF 18
ENDMDL
MODEL 2
REMARK VINA RESULT:     -10.2      2.904      8.323
REMARK SMILES CC(C)[NH2+][C@]1(C(=O)NCCCNC(=O)c2ccc(-c3c4nc(c(-c5cc(S(=O)(=O)[O-])ccc5F)c5ccc([nH]5)c(-c5cc(S(=O)(=O)[O-])ccc5F)c5nc(c(-c6cc(S(=O)(=O)[O-])ccc6F)c6ccc3[nH]6)C=C5)C=C4)cc2)CC[C@@H]([N@@H+](C)[C@@H](C)C(C)C)C1
REMARK SMILES IDX 10 1 9 2 8 3 6 4 7 5 5 7 78 8 88 9 79 10 80 11 4 12 2 15
REMARK SMILES IDX 1 16 3 17 81 18 82 19 83 21 84 22 85 23 86 24 87 25 11 26
REMARK SMILES IDX 12 27 13 28 14 30 15 31 16 32 77 33 17 34 76 35 18 36 19 37
REMARK SMILES IDX 20 38 70 39 21 40 75 41 69 42 71 43 22 44 74 45 68 46 67 47
REMARK SMILES IDX 23 49 55 50 35 51 54 52 36 53 39 54 53 55 72 56 37 57 38 58
REMARK SMILES IDX 52 60 73 61 40 62 24 63 25 64 33 65 26 66 32 67 34 68 31 69
REMARK SMILES IDX 27 70 28 71 29 72 30 73 56 74 57 75 65 76 58 77 64 78 66 79
REMARK SMILES IDX 63 80 59 81 60 82 61 83 62 84 41 85 42 86 50 87 43 88 49 89
REMARK SMILES IDX 51 90 48 91 44 92 45 93 46 94 47 95
REMARK H PARENT 8 6 4 13 4 14 81 20 12 29 71 48 39 59
REMARK Flexibility Score: inf
ROOT
ATOM      1  C   UNL A   1      32.255  28.128  24.621  1.00  0.00     0.042 C 
ENDROOT
BRANCH   1   2
ATOM      2  C   UNL A   1      32.865  26.770  24.938  1.00  0.00     0.118 C 
BRANCH   2   3
ATOM      3  N   UNL A   1      33.140  25.976  23.753  1.00  0.00    -0.351 N 
ATOM      4  C   UNL A   1      33.540  24.707  23.500  1.00  0.00     0.281 C 
ATOM      5  O   UNL A   1      33.614  24.426  22.290  1.00  0.00    -0.268 OA
ATOM      6  H   UNL A   1      33.000  26.491  22.925  1.00  0.00     0.163 HD
BRANCH   4   7
ATOM      7  C   UNL A   1      33.935  23.613  24.543  1.00  0.00     0.181 C 
ATOM      8  C   UNL A   1      32.951  23.160  25.619  1.00  0.00     0.085 C 
ATOM      9  C   UNL A   1      34.178  22.292  23.727  1.00  0.00     0.144 C 
ATOM     10  C   UNL A   1      33.213  21.685  25.856  1.00  0.00     0.072 C 
ATOM     11  C   UNL A   1      33.481  21.124  24.458  1.00  0.00     0.191 C 
BRANCH   7  12
ATOM     12  N   UNL A   1      35.273  23.968  25.110  1.00  0.00    -0.331 N 
ATOM     13  H   UNL A   1      35.552  24.855  24.692  1.00  0.00     0.347 HD
ATOM     14  H   UNL A   1      35.123  23.972  26.119  1.00  0.00     0.347 HD
BRANCH  12  15
ATOM     15  C   UNL A   1      36.388  23.032  24.919  1.00  0.00     0.176 C 
ATOM     16  C   UNL A   1      36.933  23.296  23.510  1.00  0.00     0.075 C 
ATOM     17  C   UNL A   1      37.532  23.199  25.922  1.00  0.00     0.075 C 
ENDBRANCH  12  15
ENDBRANCH   7  12
BRANCH  11  18
ATOM     18  N   UNL A   1      32.406  20.376  23.764  1.00  0.00    -0.332 N 
ATOM     19  C   UNL A   1      32.023  21.062  22.521  1.00  0.00     0.333 C 
ATOM     20  H   UNL A   1      31.731  20.408  24.528  1.00  0.00     0.348 HD
BRANCH  18  21
ATOM     21  C   UNL A   1      32.357  18.899  23.597  1.00  0.00     0.183 C 
ATOM     22  C   UNL A   1      32.200  18.400  22.150  1.00  0.00     0.075 C 
BRANCH  21  23
ATOM     23  C   UNL A   1      33.409  18.102  24.427  1.00  0.00     0.041 C 
ATOM     24  C   UNL A   1      32.738  17.332  25.577  1.00  0.00     0.013 C 
ATOM     25  C   UNL A   1      34.241  17.104  23.611  1.00  0.00     0.013 C 
ENDBRANCH  21  23
ENDBRANCH  18  21
ENDBRANCH  11  18
ENDBRANCH   4   7
ENDBRANCH   2   3
ENDBRANCH   1   2
BRANCH   1  26
ATOM     26  C   UNL A   1      33.234  29.278  24.853  1.00  0.00     0.118 C 
BRANCH  26  27
ATOM     27  N   UNL A   1      32.584  30.424  25.481  1.00  0.00    -0.352 N 
ATOM     28  C   UNL A   1      32.811  31.030  26.691  1.00  0.00     0.251 C 
ATOM     29  H   UNL A   1      31.863  30.829  24.949  1.00  0.00     0.163 HD
ATOM     30  O   UNL A   1      31.952  31.779  27.149  1.00  0.00    -0.269 OA
BRANCH  28  31
ATOM     31  C   UNL A   1      34.067  30.793  27.436  1.00  0.00     0.039 A 
ATOM     32  C   UNL A   1      34.944  31.861  27.649  1.00  0.00     0.014 A 
ATOM     33  C   UNL A   1      34.418  29.510  27.864  1.00  0.00     0.014 A 
ATOM     34  C   UNL A   1      36.141  31.652  28.339  1.00  0.00     0.010 A 
ATOM     35  C   UNL A   1      35.568  29.320  28.622  1.00  0.00     0.010 A 
ATOM     36  C   UNL A   1      36.450  30.385  28.857  1.00  0.00    -0.014 A 
BRANCH  36  37
ATOM     37  C   UNL A   1      37.701  30.137  29.620  1.00  0.00     0.031 A 
ATOM     38  C   UNL A   1      38.757  29.226  29.052  1.00  0.00     0.074 A 
ATOM     39  C   UNL A   1      37.850  30.667  30.850  1.00  0.00     0.049 A 
ATOM     40  N   UNL A   1      39.856  28.783  29.605  1.00  0.00    -0.248 NA
ATOM     41  C   UNL A   1      38.522  28.718  27.692  1.00  0.00     0.031 C 
ATOM     42  C   UNL A   1      36.878  31.534  31.520  1.00  0.00     0.029 A 
ATOM     43  N   UNL A   1      38.868  30.543  31.761  1.00  0.00    -0.354 N 
ATOM     44  C   UNL A   1      40.431  27.924  28.674  1.00  0.00     0.074 A 
ATOM     45  C   UNL A   1      39.526  27.867  27.546  1.00  0.00     0.031 C 
ATOM     46  C   UNL A   1      37.357  31.878  32.728  1.00  0.00     0.029 A 
ATOM     47  C   UNL A   1      38.642  31.220  32.937  1.00  0.00     0.049 A 
ATOM     48  H   UNL A   1      39.683  30.018  31.590  1.00  0.00     0.167 HD
ATOM     49  C   UNL A   1      41.614  27.265  28.743  1.00  0.00     0.034 A 
ATOM     50  C   UNL A   1      39.380  31.289  34.063  1.00  0.00     0.034 A 
ATOM     51  C   UNL A   1      42.515  27.356  29.867  1.00  0.00     0.049 A 
ATOM     52  C   UNL A   1      40.689  30.545  34.120  1.00  0.00     0.074 A 
ATOM     53  C   UNL A   1      43.763  26.780  30.022  1.00  0.00     0.029 A 
ATOM     54  N   UNL A   1      42.262  28.069  31.032  1.00  0.00    -0.354 N 
ATOM     55  N   UNL A   1      41.239  29.770  33.214  1.00  0.00    -0.248 NA
ATOM     56  C   UNL A   1      41.482  30.694  35.347  1.00  0.00     0.031 C 
ATOM     57  C   UNL A   1      44.237  27.093  31.300  1.00  0.00     0.029 A 
ATOM     58  C   UNL A   1      43.319  27.927  31.918  1.00  0.00     0.049 A 
ATOM     59  H   UNL A   1      41.449  28.599  31.204  1.00  0.00     0.167 HD
ATOM     60  C   UNL A   1      42.458  29.366  33.751  1.00  0.00     0.074 A 
ATOM     61  C   UNL A   1      42.566  29.993  35.052  1.00  0.00     0.031 C 
ATOM     62  C   UNL A   1      43.406  28.554  33.217  1.00  0.00     0.034 A 
BRANCH  49  63
ATOM     63  C   UNL A   1      41.982  26.373  27.580  1.00  0.00     0.023 A 
ATOM     64  C   UNL A   1      41.707  24.993  27.592  1.00  0.00     0.031 A 
ATOM     65  C   UNL A   1      42.648  26.898  26.459  1.00  0.00     0.131 A 
ATOM     66  C   UNL A   1      42.170  24.176  26.549  1.00  0.00     0.055 A 
ATOM     67  C   UNL A   1      43.029  26.093  25.383  1.00  0.00     0.041 A 
ATOM     68  F   UNL A   1      42.956  28.204  26.397  1.00  0.00    -0.206 F 
ATOM     69  C   UNL A   1      42.806  24.721  25.432  1.00  0.00     0.022 A 
BRANCH  66  70
ATOM     70  S   UNL A   1      42.063  22.376  26.748  1.00  0.00     0.124 S 
ATOM     71  O   UNL A   1      42.944  22.155  27.894  1.00  0.00    -0.237 OA
ATOM     72  O   UNL A   1      40.639  22.169  26.987  1.00  0.00    -0.237 OA
ATOM     73  O   UNL A   1      42.565  21.860  25.476  1.00  0.00    -0.744 OA
ENDBRANCH  66  70
ENDBRANCH  49  63
BRANCH  50  74
ATOM     74  C   UNL A   1      38.903  32.085  35.230  1.00  0.00     0.023 A 
ATOM     75  C   UNL A   1      38.371  31.452  36.364  1.00  0.00     0.031 A 
ATOM     76  C   UNL A   1      38.937  33.491  35.212  1.00  0.00     0.131 A 
ATOM     77  C   UNL A   1      37.851  32.223  37.416  1.00  0.00     0.055 A 
ATOM     78  C   UNL A   1      38.466  34.252  36.283  1.00  0.00     0.041 A 
ATOM     79  F   UNL A   1      39.443  34.145  34.155  1.00  0.00    -0.206 F 
ATOM     80  C   UNL A   1      37.906  33.619  37.388  1.00  0.00     0.022 A 
BRANCH  77  81
ATOM     81  S   UNL A   1      37.028  31.374  38.789  1.00  0.00     0.124 S 
ATOM     82  O   UNL A   1      37.966  31.599  39.884  1.00  0.00    -0.237 OA
ATOM     83  O   UNL A   1      35.761  32.093  38.872  1.00  0.00    -0.237 OA
ATOM     84  O   UNL A   1      36.929  29.993  38.325  1.00  0.00    -0.744 OA
ENDBRANCH  77  81
ENDBRANCH  50  74
BRANCH  62  85
ATOM     85  C   UNL A   1      44.661  28.343  34.026  1.00  0.00     0.023 A 
ATOM     86  C   UNL A   1      44.778  27.291  34.951  1.00  0.00     0.031 A 
ATOM     87  C   UNL A   1      45.751  29.218  33.875  1.00  0.00     0.131 A 
ATOM     88  C   UNL A   1      45.939  27.174  35.730  1.00  0.00     0.055 A 
ATOM     89  C   UNL A   1      46.926  29.061  34.610  1.00  0.00     0.041 A 
ATOM     90  F   UNL A   1      45.692  30.241  33.006  1.00  0.00    -0.206 F 
ATOM     91  C   UNL A   1      47.020  28.042  35.554  1.00  0.00     0.022 A 
BRANCH  88  92
ATOM     92  S   UNL A   1      45.984  25.922  37.043  1.00  0.00     0.124 S 
ATOM     93  O   UNL A   1      45.411  26.647  38.173  1.00  0.00    -0.237 OA
ATOM     94  O   UNL A   1      45.159  24.855  36.485  1.00  0.00    -0.237 OA
ATOM     95  O   UNL A   1      47.406  25.606  37.166  1.00  0.00    -0.744 OA
ENDBRANCH  88  92
ENDBRANCH  62  85
ENDBRANCH  36  37
ENDBRANCH  28  31
ENDBRANCH  26  27
ENDBRANCH   1  26
TORSDOF 18
ENDMDL
MODEL 3
REMARK VINA RESULT:     -10.1      2.950      8.263
REMARK SMILES CC(C)[NH2+][C@]1(C(=O)NCCCNC(=O)c2ccc(-c3c4nc(c(-c5cc(S(=O)(=O)[O-])ccc5F)c5ccc([nH]5)c(-c5cc(S(=O)(=O)[O-])ccc5F)c5nc(c(-c6cc(S(=O)(=O)[O-])ccc6F)c6ccc3[nH]6)C=C5)C=C4)cc2)CC[C@@H]([N@@H+](C)[C@@H](C)C(C)C)C1
REMARK SMILES IDX 10 1 9 2 8 3 6 4 7 5 5 7 78 8 88 9 79 10 80 11 4 12 2 15
REMARK SMILES IDX 1 16 3 17 81 18 82 19 83 21 84 22 85 23 86 24 87 25 11 26
REMARK SMILES IDX 12 27 13 28 14 30 15 31 16 32 77 33 17 34 76 35 18 36 19 37
REMARK SMILES IDX 20 38 70 39 21 40 75 41 69 42 71 43 22 44 74 45 68 46 67 47
REMARK SMILES IDX 23 49 55 50 35 51 54 52 36 53 39 54 53 55 72 56 37 57 38 58
REMARK SMILES IDX 52 60 73 61 40 62 24 63 25 64 33 65 26 66 32 67 34 68 31 69
REMARK SMILES IDX 27 70 28 71 29 72 30 73 56 74 57 75 65 76 58 77 64 78 66 79
REMARK SMILES IDX 63 80 59 81 60 82 61 83 62 84 41 85 42 86 50 87 43 88 49 89
REMARK SMILES IDX 51 90 48 91 44 92 45 93 46 94 47 95
REMARK H PARENT 8 6 4 13 4 14 81 20 12 29 71 48 39 59
REMARK Flexibility Score: inf
ROOT
ATOM      1  C   UNL A   1      31.371  31.602  26.139  1.00  0.00     0.042 C 
ENDROOT
BRANCH   1   2
ATOM      2  C   UNL A   1      31.590  30.262  25.451  1.00  0.00     0.118 C 
BRANCH   2   3
ATOM      3  N   UNL A   1      31.356  29.125  26.324  1.00  0.00    -0.351 N 
ATOM      4  C   UNL A   1      31.712  27.818  26.342  1.00  0.00     0.281 C 
ATOM      5  O   UNL A   1      31.307  27.192  27.338  1.00  0.00    -0.268 OA
ATOM      6  H   UNL A   1      30.798  29.366  27.100  1.00  0.00     0.163 HD
BRANCH   4   7
ATOM      7  C   UNL A   1      32.523  27.044  25.254  1.00  0.00     0.181 C 
ATOM      8  C   UNL A   1      34.030  26.839  25.393  1.00  0.00     0.085 C 
ATOM      9  C   UNL A   1      31.978  25.570  25.263  1.00  0.00     0.144 C 
ATOM     10  C   UNL A   1      34.344  25.485  24.786  1.00  0.00     0.072 C 
ATOM     11  C   UNL A   1      33.177  24.599  25.227  1.00  0.00     0.191 C 
BRANCH   7  12
ATOM     12  N   UNL A   1      32.146  27.587  23.912  1.00  0.00    -0.331 N 
ATOM     13  H   UNL A   1      31.763  28.521  24.062  1.00  0.00     0.347 HD
ATOM     14  H   UNL A   1      33.009  27.535  23.370  1.00  0.00     0.347 HD
BRANCH  12  15
ATOM     15  C   UNL A   1      31.171  26.846  23.103  1.00  0.00     0.176 C 
ATOM     16  C   UNL A   1      30.023  27.822  22.812  1.00  0.00     0.075 C 
ATOM     17  C   UNL A   1      31.718  26.329  21.771  1.00  0.00     0.075 C 
ENDBRANCH  12  15
ENDBRANCH   7  12
BRANCH  11  18
ATOM     18  N   UNL A   1      33.376  23.654  26.352  1.00  0.00    -0.332 N 
ATOM     19  C   UNL A   1      32.096  23.377  27.021  1.00  0.00     0.333 C 
ATOM     20  H   UNL A   1      34.044  24.227  26.867  1.00  0.00     0.348 HD
BRANCH  18  21
ATOM     21  C   UNL A   1      34.233  22.440  26.312  1.00  0.00     0.183 C 
ATOM     22  C   UNL A   1      34.023  21.442  27.464  1.00  0.00     0.075 C 
BRANCH  21  23
ATOM     23  C   UNL A   1      34.368  21.767  24.912  1.00  0.00     0.041 C 
ATOM     24  C   UNL A   1      35.740  22.065  24.285  1.00  0.00     0.013 C 
ATOM     25  C   UNL A   1      34.168  20.245  24.915  1.00  0.00     0.013 C 
ENDBRANCH  21  23
ENDBRANCH  18  21
ENDBRANCH  11  18
ENDBRANCH   4   7
ENDBRANCH   2   3
ENDBRANCH   1   2
BRANCH   1  26
ATOM     26  C   UNL A   1      32.492  31.948  27.117  1.00  0.00     0.118 C 
BRANCH  26  27
ATOM     27  N   UNL A   1      32.547  33.380  27.394  1.00  0.00    -0.352 N 
ATOM     28  C   UNL A   1      33.303  34.090  28.292  1.00  0.00     0.251 C 
ATOM     29  H   UNL A   1      31.941  33.927  26.845  1.00  0.00     0.163 HD
ATOM     30  O   UNL A   1      32.971  35.240  28.568  1.00  0.00    -0.269 OA
BRANCH  28  31
ATOM     31  C   UNL A   1      34.501  33.490  28.918  1.00  0.00     0.039 A 
ATOM     32  C   UNL A   1      35.767  33.961  28.555  1.00  0.00     0.014 A 
ATOM     33  C   UNL A   1      34.387  32.420  29.809  1.00  0.00     0.014 A 
ATOM     34  C   UNL A   1      36.911  33.396  29.127  1.00  0.00     0.010 A 
ATOM     35  C   UNL A   1      35.520  31.915  30.439  1.00  0.00     0.010 A 
ATOM     36  C   UNL A   1      36.795  32.388  30.096  1.00  0.00    -0.014 A 
BRANCH  36  37
ATOM     37  C   UNL A   1      37.990  31.787  30.745  1.00  0.00     0.031 A 
ATOM     38  C   UNL A   1      38.784  30.732  30.022  1.00  0.00     0.074 A 
ATOM     39  C   UNL A   1      38.311  32.135  32.007  1.00  0.00     0.049 A 
ATOM     40  N   UNL A   1      39.777  29.999  30.454  1.00  0.00    -0.248 NA
ATOM     41  C   UNL A   1      38.379  30.440  28.638  1.00  0.00     0.031 C 
ATOM     42  C   UNL A   1      37.594  33.117  32.822  1.00  0.00     0.029 A 
ATOM     43  N   UNL A   1      39.314  31.689  32.830  1.00  0.00    -0.354 N 
ATOM     44  C   UNL A   1      40.099  29.141  29.407  1.00  0.00     0.074 A 
ATOM     45  C   UNL A   1      39.154  29.408  28.343  1.00  0.00     0.031 C 
ATOM     46  C   UNL A   1      38.191  33.213  34.021  1.00  0.00     0.029 A 
ATOM     47  C   UNL A   1      39.301  32.269  34.078  1.00  0.00     0.049 A 
ATOM     48  H   UNL A   1      39.980  31.019  32.555  1.00  0.00     0.167 HD
ATOM     49  C   UNL A   1      41.103  28.232  29.332  1.00  0.00     0.034 A 
ATOM     50  C   UNL A   1      40.086  32.050  35.152  1.00  0.00     0.034 A 
ATOM     51  C   UNL A   1      42.050  27.998  30.395  1.00  0.00     0.049 A 
ATOM     52  C   UNL A   1      41.192  31.032  35.048  1.00  0.00     0.074 A 
ATOM     53  C   UNL A   1      43.140  27.146  30.408  1.00  0.00     0.029 A 
ATOM     54  N   UNL A   1      42.019  28.619  31.638  1.00  0.00    -0.354 N 
ATOM     55  N   UNL A   1      41.510  30.258  34.036  1.00  0.00    -0.248 NA
ATOM     56  C   UNL A   1      42.053  30.868  36.227  1.00  0.00     0.031 C 
ATOM     57  C   UNL A   1      43.731  27.206  31.675  1.00  0.00     0.029 A 
ATOM     58  C   UNL A   1      43.055  28.151  32.432  1.00  0.00     0.049 A 
ATOM     59  H   UNL A   1      41.357  29.294  31.914  1.00  0.00     0.167 HD
ATOM     60  C   UNL A   1      42.628  29.537  34.448  1.00  0.00     0.074 A 
ATOM     61  C   UNL A   1      42.935  29.980  35.793  1.00  0.00     0.031 C 
ATOM     62  C   UNL A   1      43.341  28.598  33.775  1.00  0.00     0.034 A 
BRANCH  49  63
ATOM     63  C   UNL A   1      41.205  27.411  28.067  1.00  0.00     0.023 A 
ATOM     64  C   UNL A   1      40.810  26.061  28.028  1.00  0.00     0.031 A 
ATOM     65  C   UNL A   1      41.736  27.972  26.893  1.00  0.00     0.131 A 
ATOM     66  C   UNL A   1      41.031  25.299  26.871  1.00  0.00     0.055 A 
ATOM     67  C   UNL A   1      41.872  27.231  25.717  1.00  0.00     0.041 A 
ATOM     68  F   UNL A   1      42.149  29.250  26.872  1.00  0.00    -0.206 F 
ATOM     69  C   UNL A   1      41.536  25.882  25.706  1.00  0.00     0.022 A 
BRANCH  66  70
ATOM     70  S   UNL A   1      40.791  23.503  26.960  1.00  0.00     0.124 S 
ATOM     71  O   UNL A   1      41.682  23.036  25.899  1.00  0.00    -0.237 OA
ATOM     72  O   UNL A   1      41.206  23.197  28.324  1.00  0.00    -0.237 OA
ATOM     73  O   UNL A   1      39.366  23.334  26.687  1.00  0.00    -0.744 OA
ENDBRANCH  66  70
ENDBRANCH  49  63
BRANCH  50  74
ATOM     74  C   UNL A   1      39.856  32.800  36.419  1.00  0.00     0.023 A 
ATOM     75  C   UNL A   1      38.950  32.328  37.382  1.00  0.00     0.031 A 
ATOM     76  C   UNL A   1      40.510  34.020  36.671  1.00  0.00     0.131 A 
ATOM     77  C   UNL A   1      38.686  33.092  38.529  1.00  0.00     0.055 A 
ATOM     78  C   UNL A   1      40.284  34.750  37.837  1.00  0.00     0.041 A 
ATOM     79  F   UNL A   1      41.393  34.511  35.786  1.00  0.00    -0.206 F 
ATOM     80  C   UNL A   1      39.356  34.295  38.770  1.00  0.00     0.022 A 
BRANCH  77  81
ATOM     81  S   UNL A   1      37.393  32.530  39.668  1.00  0.00     0.124 S 
ATOM     82  O   UNL A   1      38.044  31.400  40.322  1.00  0.00    -0.237 OA
ATOM     83  O   UNL A   1      37.182  33.715  40.494  1.00  0.00    -0.237 OA
ATOM     84  O   UNL A   1      36.285  32.186  38.781  1.00  0.00    -0.744 OA
ENDBRANCH  77  81
ENDBRANCH  50  74
BRANCH  62  85
ATOM     85  C   UNL A   1      44.550  28.028  34.472  1.00  0.00     0.023 A 
ATOM     86  C   UNL A   1      44.479  26.848  35.234  1.00  0.00     0.031 A 
ATOM     87  C   UNL A   1      45.790  28.685  34.382  1.00  0.00     0.131 A 
ATOM     88  C   UNL A   1      45.614  26.391  35.920  1.00  0.00     0.055 A 
ATOM     89  C   UNL A   1      46.930  28.194  35.019  1.00  0.00     0.041 A 
ATOM     90  F   UNL A   1      45.914  29.817  33.670  1.00  0.00    -0.206 F 
ATOM     91  C   UNL A   1      46.843  27.047  35.804  1.00  0.00     0.022 A 
BRANCH  88  92
ATOM     92  S   UNL A   1      45.444  24.974  37.039  1.00  0.00     0.124 S 
ATOM     93  O   UNL A   1      46.664  24.222  36.765  1.00  0.00    -0.237 OA
ATOM     94  O   UNL A   1      45.372  25.618  38.347  1.00  0.00    -0.237 OA
ATOM     95  O   UNL A   1      44.207  24.333  36.596  1.00  0.00    -0.744 OA
ENDBRANCH  88  92
ENDBRANCH  62  85
ENDBRANCH  36  37
ENDBRANCH  28  31
ENDBRANCH  26  27
ENDBRANCH   1  26
TORSDOF 18
ENDMDL
