MODEL 1
REMARK VINA RESULT:     -13.1      0.000      0.000
REMARK SMILES Cc1cccc(C(=O)NCCCNC(=O)c2ccc(-c3c4nc(c(-c5cc(S(=O)(=O)[O-])ccc5F)c5ccc([nH]5)c(-c5cc(S(=O)(=O)[O-])ccc5F)c5nc(c(-c6cc(S(=O)(=O)[O-])ccc6F)c6ccc3[nH]6)C=C5)C=C4)cc2)c1OC[C@@H]1C[C@H]2CC[C@@H]1C2
REMARK SMILES IDX 11 1 10 2 9 3 7 4 8 5 6 7 1 8 2 9 3 10 79 11 4 12 5 13 80 14
REMARK SMILES IDX 81 15 82 16 83 17 87 18 84 19 86 20 88 21 85 22 12 23 13 24
REMARK SMILES IDX 14 25 15 27 16 28 17 29 78 30 18 31 77 32 19 33 20 34 21 35
REMARK SMILES IDX 71 36 22 37 76 38 70 39 72 40 23 41 75 42 69 43 68 44 24 46
REMARK SMILES IDX 56 47 36 48 55 49 37 50 40 51 54 52 73 53 38 54 39 55 53 57
REMARK SMILES IDX 74 58 41 59 25 60 26 61 34 62 27 63 33 64 35 65 32 66 28 67
REMARK SMILES IDX 29 68 30 69 31 70 57 71 58 72 66 73 59 74 65 75 67 76 64 77
REMARK SMILES IDX 60 78 61 79 62 80 63 81 42 82 43 83 51 84 44 85 50 86 52 87
REMARK SMILES IDX 49 88 45 89 46 90 47 91 48 92
REMARK H PARENT 9 6 13 26 72 45 40 56
REMARK Flexibility Score: inf
ROOT
ATOM      1  C   UNL A   1      33.058  31.057  27.223  1.00  0.00     0.042 C 
ENDROOT
BRANCH   1   2
ATOM      2  C   UNL A   1      32.412  30.252  26.101  1.00  0.00     0.118 C 
BRANCH   2   3
ATOM      3  N   UNL A   1      31.757  29.089  26.662  1.00  0.00    -0.352 N 
ATOM      4  C   UNL A   1      31.742  27.770  26.323  1.00  0.00     0.255 C 
ATOM      5  O   UNL A   1      30.935  27.063  26.943  1.00  0.00    -0.269 OA
ATOM      6  H   UNL A   1      31.208  29.294  27.453  1.00  0.00     0.163 HD
BRANCH   4   7
ATOM      7  C   UNL A   1      32.628  27.073  25.333  1.00  0.00     0.082 A 
ATOM      8  C   UNL A   1      32.917  25.659  21.784  1.00  0.00     0.048 C 
ATOM      9  C   UNL A   1      33.219  26.032  23.211  1.00  0.00    -0.008 A 
ATOM     10  C   UNL A   1      34.076  25.144  23.889  1.00  0.00     0.007 A 
ATOM     11  C   UNL A   1      32.581  27.080  23.919  1.00  0.00     0.134 A 
ATOM     12  C   UNL A   1      34.234  25.217  25.262  1.00  0.00     0.001 A 
ATOM     13  C   UNL A   1      33.489  26.147  25.973  1.00  0.00     0.018 A 
BRANCH  11  14
ATOM     14  O   UNL A   1      31.833  28.018  23.271  1.00  0.00    -0.492 OA
BRANCH  14  15
ATOM     15  C   UNL A   1      30.420  27.785  23.061  1.00  0.00     0.233 C 
BRANCH  15  16
ATOM     16  C   UNL A   1      29.420  28.842  23.583  1.00  0.00     0.030 C 
ATOM     17  C   UNL A   1      28.019  28.727  22.909  1.00  0.00     0.011 C 
ATOM     18  C   UNL A   1      29.843  30.267  23.131  1.00  0.00    -0.004 C 
ATOM     19  C   UNL A   1      27.838  30.081  22.197  1.00  0.00    -0.010 C 
ATOM     20  C   UNL A   1      29.011  31.306  23.895  1.00  0.00     0.004 C 
ATOM     21  C   UNL A   1      29.256  30.370  21.721  1.00  0.00     0.007 C 
ATOM     22  C   UNL A   1      27.626  31.181  23.248  1.00  0.00     0.004 C 
ENDBRANCH  15  16
ENDBRANCH  14  15
ENDBRANCH  11  14
ENDBRANCH   4   7
ENDBRANCH   2   3
ENDBRANCH   1   2
BRANCH   1  23
ATOM     23  C   UNL A   1      34.228  30.363  27.894  1.00  0.00     0.118 C 
BRANCH  23  24
ATOM     24  N   UNL A   1      35.082  31.314  28.615  1.00  0.00    -0.352 N 
ATOM     25  C   UNL A   1      36.335  31.111  29.163  1.00  0.00     0.251 C 
ATOM     26  H   UNL A   1      34.712  32.221  28.723  1.00  0.00     0.163 HD
ATOM     27  O   UNL A   1      36.940  31.968  29.784  1.00  0.00    -0.269 OA
BRANCH  25  28
ATOM     28  C   UNL A   1      36.987  29.827  28.838  1.00  0.00     0.039 A 
ATOM     29  C   UNL A   1      37.241  28.986  29.924  1.00  0.00     0.014 A 
ATOM     30  C   UNL A   1      37.688  29.714  27.641  1.00  0.00     0.014 A 
ATOM     31  C   UNL A   1      38.380  28.194  29.904  1.00  0.00     0.010 A 
ATOM     32  C   UNL A   1      38.874  29.004  27.665  1.00  0.00     0.010 A 
ATOM     33  C   UNL A   1      39.254  28.305  28.823  1.00  0.00    -0.014 A 
BRANCH  33  34
ATOM     34  C   UNL A   1      40.638  27.841  28.894  1.00  0.00     0.031 A 
ATOM     35  C   UNL A   1      40.984  26.482  28.438  1.00  0.00     0.074 A 
ATOM     36  C   UNL A   1      41.611  28.642  29.387  1.00  0.00     0.049 A 
ATOM     37  N   UNL A   1      41.997  25.804  28.862  1.00  0.00    -0.248 NA
ATOM     38  C   UNL A   1      40.155  25.744  27.493  1.00  0.00     0.031 C 
ATOM     39  C   UNL A   1      43.054  28.419  29.329  1.00  0.00     0.029 A 
ATOM     40  N   UNL A   1      41.460  29.702  30.282  1.00  0.00    -0.354 N 
ATOM     41  C   UNL A   1      42.112  24.683  28.073  1.00  0.00     0.074 A 
ATOM     42  C   UNL A   1      40.910  24.666  27.274  1.00  0.00     0.031 C 
ATOM     43  C   UNL A   1      43.638  29.100  30.326  1.00  0.00     0.029 A 
ATOM     44  C   UNL A   1      42.582  29.683  31.132  1.00  0.00     0.049 A 
ATOM     45  H   UNL A   1      40.710  30.340  30.314  1.00  0.00     0.167 HD
ATOM     46  C   UNL A   1      43.270  23.963  28.090  1.00  0.00     0.034 A 
ATOM     47  C   UNL A   1      42.454  29.554  32.484  1.00  0.00     0.034 A 
ATOM     48  C   UNL A   1      44.213  24.476  29.083  1.00  0.00     0.049 A 
ATOM     49  C   UNL A   1      43.166  28.346  33.046  1.00  0.00     0.074 A 
ATOM     50  C   UNL A   1      45.323  25.300  28.993  1.00  0.00     0.029 A 
ATOM     51  N   UNL A   1      43.907  24.376  30.436  1.00  0.00    -0.354 N 
ATOM     52  N   UNL A   1      43.590  27.344  32.325  1.00  0.00    -0.248 NA
ATOM     53  C   UNL A   1      43.440  28.161  34.467  1.00  0.00     0.031 C 
ATOM     54  C   UNL A   1      45.647  25.744  30.301  1.00  0.00     0.029 A 
ATOM     55  C   UNL A   1      44.757  25.162  31.189  1.00  0.00     0.049 A 
ATOM     56  H   UNL A   1      43.183  23.821  30.806  1.00  0.00     0.167 HD
ATOM     57  C   UNL A   1      44.153  26.392  33.139  1.00  0.00     0.074 A 
ATOM     58  C   UNL A   1      44.060  26.968  34.470  1.00  0.00     0.031 C 
ATOM     59  C   UNL A   1      44.634  25.211  32.642  1.00  0.00     0.034 A 
BRANCH  46  60
ATOM     60  C   UNL A   1      43.655  22.999  26.989  1.00  0.00     0.023 A 
ATOM     61  C   UNL A   1      43.080  21.711  26.964  1.00  0.00     0.031 A 
ATOM     62  C   UNL A   1      44.609  23.252  25.985  1.00  0.00     0.131 A 
ATOM     63  C   UNL A   1      43.536  20.722  26.073  1.00  0.00     0.055 A 
ATOM     64  C   UNL A   1      45.116  22.250  25.149  1.00  0.00     0.041 A 
ATOM     65  F   UNL A   1      45.049  24.492  25.732  1.00  0.00    -0.206 F 
ATOM     66  C   UNL A   1      44.591  20.969  25.200  1.00  0.00     0.022 A 
BRANCH  63  67
ATOM     67  S   UNL A   1      42.717  19.103  26.054  1.00  0.00     0.124 S 
ATOM     68  O   UNL A   1      41.499  19.378  25.298  1.00  0.00    -0.237 OA
ATOM     69  O   UNL A   1      43.711  18.263  25.396  1.00  0.00    -0.237 OA
ATOM     70  O   UNL A   1      42.509  18.812  27.472  1.00  0.00    -0.744 OA
ENDBRANCH  63  67
ENDBRANCH  46  60
BRANCH  47  71
ATOM     71  C   UNL A   1      41.205  30.167  33.018  1.00  0.00     0.023 A 
ATOM     72  C   UNL A   1      41.161  31.577  33.077  1.00  0.00     0.031 A 
ATOM     73  C   UNL A   1      39.992  29.470  33.068  1.00  0.00     0.131 A 
ATOM     74  C   UNL A   1      39.935  32.250  32.992  1.00  0.00     0.055 A 
ATOM     75  C   UNL A   1      38.766  30.149  33.062  1.00  0.00     0.041 A 
ATOM     76  F   UNL A   1      39.968  28.132  32.991  1.00  0.00    -0.206 F 
ATOM     77  C   UNL A   1      38.734  31.543  32.973  1.00  0.00     0.022 A 
BRANCH  74  78
ATOM     78  S   UNL A   1      39.927  34.032  32.621  1.00  0.00     0.124 S 
ATOM     79  O   UNL A   1      38.896  34.130  31.595  1.00  0.00    -0.237 OA
ATOM     80  O   UNL A   1      39.599  34.638  33.909  1.00  0.00    -0.237 OA
ATOM     81  O   UNL A   1      41.295  34.289  32.174  1.00  0.00    -0.744 OA
ENDBRANCH  74  78
ENDBRANCH  47  71
BRANCH  59  82
ATOM     82  C   UNL A   1      45.110  24.021  33.455  1.00  0.00     0.023 A 
ATOM     83  C   UNL A   1      46.423  23.872  33.926  1.00  0.00     0.031 A 
ATOM     84  C   UNL A   1      44.203  23.006  33.856  1.00  0.00     0.131 A 
ATOM     85  C   UNL A   1      46.811  22.739  34.668  1.00  0.00     0.055 A 
ATOM     86  C   UNL A   1      44.571  21.922  34.659  1.00  0.00     0.041 A 
ATOM     87  F   UNL A   1      42.913  23.024  33.491  1.00  0.00    -0.206 F 
ATOM     88  C   UNL A   1      45.889  21.773  35.059  1.00  0.00     0.022 A 
BRANCH  85  89
ATOM     89  S   UNL A   1      48.567  22.531  35.068  1.00  0.00     0.124 S 
ATOM     90  O   UNL A   1      48.861  21.236  34.456  1.00  0.00    -0.237 OA
ATOM     91  O   UNL A   1      49.177  23.688  34.422  1.00  0.00    -0.237 OA
ATOM     92  O   UNL A   1      48.595  22.547  36.528  1.00  0.00    -0.744 OA
ENDBRANCH  85  89
ENDBRANCH  59  82
ENDBRANCH  33  34
ENDBRANCH  25  28
ENDBRANCH  23  24
ENDBRANCH   1  23
TORSDOF 16
ENDMDL
MODEL 2
REMARK VINA RESULT:     -13.0      4.845     11.247
REMARK SMILES Cc1cccc(C(=O)NCCCNC(=O)c2ccc(-c3c4nc(c(-c5cc(S(=O)(=O)[O-])ccc5F)c5ccc([nH]5)c(-c5cc(S(=O)(=O)[O-])ccc5F)c5nc(c(-c6cc(S(=O)(=O)[O-])ccc6F)c6ccc3[nH]6)C=C5)C=C4)cc2)c1OC[C@@H]1C[C@H]2CC[C@@H]1C2
REMARK SMILES IDX 11 1 10 2 9 3 7 4 8 5 6 7 1 8 2 9 3 10 79 11 4 12 5 13 80 14
REMARK SMILES IDX 81 15 82 16 83 17 87 18 84 19 86 20 88 21 85 22 12 23 13 24
REMARK SMILES IDX 14 25 15 27 16 28 17 29 78 30 18 31 77 32 19 33 20 34 21 35
REMARK SMILES IDX 71 36 22 37 76 38 70 39 72 40 23 41 75 42 69 43 68 44 24 46
REMARK SMILES IDX 56 47 36 48 55 49 37 50 40 51 54 52 73 53 38 54 39 55 53 57
REMARK SMILES IDX 74 58 41 59 25 60 26 61 34 62 27 63 33 64 35 65 32 66 28 67
REMARK SMILES IDX 29 68 30 69 31 70 57 71 58 72 66 73 59 74 65 75 67 76 64 77
REMARK SMILES IDX 60 78 61 79 62 80 63 81 42 82 43 83 51 84 44 85 50 86 52 87
REMARK SMILES IDX 49 88 45 89 46 90 47 91 48 92
REMARK H PARENT 9 6 13 26 72 45 40 56
REMARK Flexibility Score: inf
ROOT
ATOM      1  C   UNL A   1      38.886  21.434  25.767  1.00  0.00     0.042 C 
ENDROOT
BRANCH   1   2
ATOM      2  C   UNL A   1      37.430  21.185  25.390  1.00  0.00     0.118 C 
BRANCH   2   3
ATOM      3  N   UNL A   1      37.114  21.923  24.185  1.00  0.00    -0.352 N 
ATOM      4  C   UNL A   1      36.082  22.739  23.831  1.00  0.00     0.255 C 
ATOM      5  O   UNL A   1      36.053  23.085  22.642  1.00  0.00    -0.269 OA
ATOM      6  H   UNL A   1      37.784  21.810  23.473  1.00  0.00     0.163 HD
BRANCH   4   7
ATOM      7  C   UNL A   1      35.023  23.310  24.727  1.00  0.00     0.082 A 
ATOM      8  C   UNL A   1      31.599  22.738  26.348  1.00  0.00     0.048 C 
ATOM      9  C   UNL A   1      32.894  23.368  25.911  1.00  0.00    -0.008 A 
ATOM     10  C   UNL A   1      32.854  24.768  25.762  1.00  0.00     0.007 A 
ATOM     11  C   UNL A   1      34.040  22.645  25.498  1.00  0.00     0.134 A 
ATOM     12  C   UNL A   1      33.880  25.445  25.127  1.00  0.00     0.001 A 
ATOM     13  C   UNL A   1      34.931  24.716  24.587  1.00  0.00     0.018 A 
BRANCH  11  14
ATOM     14  O   UNL A   1      34.151  21.305  25.728  1.00  0.00    -0.492 OA
BRANCH  14  15
ATOM     15  C   UNL A   1      33.687  20.368  24.729  1.00  0.00     0.233 C 
BRANCH  15  16
ATOM     16  C   UNL A   1      33.719  18.861  25.070  1.00  0.00     0.030 C 
ATOM     17  C   UNL A   1      34.825  18.091  24.287  1.00  0.00     0.011 C 
ATOM     18  C   UNL A   1      32.442  18.151  24.541  1.00  0.00    -0.004 C 
ATOM     19  C   UNL A   1      34.041  17.061  23.453  1.00  0.00    -0.010 C 
ATOM     20  C   UNL A   1      32.365  16.739  25.141  1.00  0.00     0.004 C 
ATOM     21  C   UNL A   1      32.794  17.853  23.082  1.00  0.00     0.007 C 
ATOM     22  C   UNL A   1      33.467  15.984  24.386  1.00  0.00     0.004 C 
ENDBRANCH  15  16
ENDBRANCH  14  15
ENDBRANCH  11  14
ENDBRANCH   4   7
ENDBRANCH   2   3
ENDBRANCH   1   2
BRANCH   1  23
ATOM     23  C   UNL A   1      39.236  22.896  25.972  1.00  0.00     0.118 C 
BRANCH  23  24
ATOM     24  N   UNL A   1      40.606  23.060  26.472  1.00  0.00    -0.352 N 
ATOM     25  C   UNL A   1      41.215  24.196  26.973  1.00  0.00     0.251 C 
ATOM     26  H   UNL A   1      41.168  22.251  26.447  1.00  0.00     0.163 HD
ATOM     27  O   UNL A   1      42.383  24.229  27.323  1.00  0.00    -0.269 OA
BRANCH  25  28
ATOM     28  C   UNL A   1      40.335  25.357  27.205  1.00  0.00     0.039 A 
ATOM     29  C   UNL A   1      40.664  26.516  26.497  1.00  0.00     0.014 A 
ATOM     30  C   UNL A   1      39.568  25.398  28.366  1.00  0.00     0.014 A 
ATOM     31  C   UNL A   1      40.443  27.749  27.093  1.00  0.00     0.010 A 
ATOM     32  C   UNL A   1      39.443  26.621  29.000  1.00  0.00     0.010 A 
ATOM     33  C   UNL A   1      39.947  27.784  28.396  1.00  0.00    -0.014 A 
BRANCH  33  34
ATOM     34  C   UNL A   1      40.062  28.973  29.239  1.00  0.00     0.031 A 
ATOM     35  C   UNL A   1      38.997  29.993  29.223  1.00  0.00     0.074 A 
ATOM     36  C   UNL A   1      41.146  29.158  30.028  1.00  0.00     0.049 A 
ATOM     37  N   UNL A   1      39.173  31.238  29.516  1.00  0.00    -0.248 NA
ATOM     38  C   UNL A   1      37.636  29.689  28.803  1.00  0.00     0.031 C 
ATOM     39  C   UNL A   1      41.316  30.164  31.074  1.00  0.00     0.029 A 
ATOM     40  N   UNL A   1      42.423  28.625  29.848  1.00  0.00    -0.354 N 
ATOM     41  C   UNL A   1      37.934  31.830  29.590  1.00  0.00     0.074 A 
ATOM     42  C   UNL A   1      37.016  30.838  29.083  1.00  0.00     0.031 C 
ATOM     43  C   UNL A   1      42.627  30.380  31.258  1.00  0.00     0.029 A 
ATOM     44  C   UNL A   1      43.340  29.614  30.254  1.00  0.00     0.049 A 
ATOM     45  H   UNL A   1      42.641  27.729  29.503  1.00  0.00     0.167 HD
ATOM     46  C   UNL A   1      37.804  33.048  30.190  1.00  0.00     0.034 A 
ATOM     47  C   UNL A   1      44.282  30.108  29.400  1.00  0.00     0.034 A 
ATOM     48  C   UNL A   1      39.099  33.599  30.586  1.00  0.00     0.049 A 
ATOM     49  C   UNL A   1      44.183  31.602  29.189  1.00  0.00     0.074 A 
ATOM     50  C   UNL A   1      39.777  33.642  31.793  1.00  0.00     0.029 A 
ATOM     51  N   UNL A   1      40.017  33.966  29.608  1.00  0.00    -0.354 N 
ATOM     52  N   UNL A   1      43.140  32.318  29.508  1.00  0.00    -0.248 NA
ATOM     53  C   UNL A   1      45.242  32.402  28.586  1.00  0.00     0.031 C 
ATOM     54  C   UNL A   1      41.128  33.983  31.526  1.00  0.00     0.029 A 
ATOM     55  C   UNL A   1      41.264  34.180  30.162  1.00  0.00     0.049 A 
ATOM     56  H   UNL A   1      39.806  34.060  28.650  1.00  0.00     0.167 HD
ATOM     57  C   UNL A   1      43.350  33.627  29.150  1.00  0.00     0.074 A 
ATOM     58  C   UNL A   1      44.695  33.631  28.603  1.00  0.00     0.031 C 
ATOM     59  C   UNL A   1      42.389  34.586  29.327  1.00  0.00     0.034 A 
BRANCH  46  60
ATOM     60  C   UNL A   1      36.479  33.580  30.692  1.00  0.00     0.023 A 
ATOM     61  C   UNL A   1      35.586  34.184  29.782  1.00  0.00     0.031 A 
ATOM     62  C   UNL A   1      36.062  33.581  32.036  1.00  0.00     0.131 A 
ATOM     63  C   UNL A   1      34.429  34.852  30.225  1.00  0.00     0.055 A 
ATOM     64  C   UNL A   1      34.952  34.307  32.487  1.00  0.00     0.041 A 
ATOM     65  F   UNL A   1      36.677  32.833  32.963  1.00  0.00    -0.206 F 
ATOM     66  C   UNL A   1      34.135  34.963  31.580  1.00  0.00     0.022 A 
BRANCH  63  67
ATOM     67  S   UNL A   1      33.294  35.560  29.000  1.00  0.00     0.124 S 
ATOM     68  O   UNL A   1      34.198  36.299  28.126  1.00  0.00    -0.237 OA
ATOM     69  O   UNL A   1      32.672  34.369  28.431  1.00  0.00    -0.237 OA
ATOM     70  O   UNL A   1      32.401  36.392  29.807  1.00  0.00    -0.744 OA
ENDBRANCH  63  67
ENDBRANCH  46  60
BRANCH  47  71
ATOM     71  C   UNL A   1      44.755  29.108  28.402  1.00  0.00     0.023 A 
ATOM     72  C   UNL A   1      45.620  28.097  28.873  1.00  0.00     0.031 A 
ATOM     73  C   UNL A   1      44.092  28.893  27.188  1.00  0.00     0.131 A 
ATOM     74  C   UNL A   1      45.656  26.847  28.241  1.00  0.00     0.055 A 
ATOM     75  C   UNL A   1      44.193  27.667  26.516  1.00  0.00     0.041 A 
ATOM     76  F   UNL A   1      43.239  29.806  26.702  1.00  0.00    -0.206 F 
ATOM     77  C   UNL A   1      44.937  26.621  27.067  1.00  0.00     0.022 A 
BRANCH  74  78
ATOM     78  S   UNL A   1      46.416  25.438  29.106  1.00  0.00     0.124 S 
ATOM     79  O   UNL A   1      46.382  25.874  30.497  1.00  0.00    -0.237 OA
ATOM     80  O   UNL A   1      45.534  24.324  28.768  1.00  0.00    -0.237 OA
ATOM     81  O   UNL A   1      47.744  25.349  28.502  1.00  0.00    -0.744 OA
ENDBRANCH  74  78
ENDBRANCH  47  71
BRANCH  59  82
ATOM     82  C   UNL A   1      42.438  36.014  28.812  1.00  0.00     0.023 A 
ATOM     83  C   UNL A   1      43.016  37.079  29.519  1.00  0.00     0.031 A 
ATOM     84  C   UNL A   1      41.955  36.335  27.518  1.00  0.00     0.131 A 
ATOM     85  C   UNL A   1      43.024  38.387  28.995  1.00  0.00     0.055 A 
ATOM     86  C   UNL A   1      42.034  37.618  26.967  1.00  0.00     0.041 A 
ATOM     87  F   UNL A   1      41.389  35.415  26.723  1.00  0.00    -0.206 F 
ATOM     88  C   UNL A   1      42.558  38.661  27.713  1.00  0.00     0.022 A 
BRANCH  85  89
ATOM     89  S   UNL A   1      43.611  39.736  30.054  1.00  0.00     0.124 S 
ATOM     90  O   UNL A   1      44.807  40.177  29.340  1.00  0.00    -0.237 OA
ATOM     91  O   UNL A   1      42.485  40.664  30.036  1.00  0.00    -0.237 OA
ATOM     92  O   UNL A   1      43.860  39.086  31.338  1.00  0.00    -0.744 OA
ENDBRANCH  85  89
ENDBRANCH  59  82
ENDBRANCH  33  34
ENDBRANCH  25  28
ENDBRANCH  23  24
ENDBRANCH   1  23
TORSDOF 16
ENDMDL
MODEL 3
REMARK VINA RESULT:     -12.9      1.056      3.085
REMARK SMILES Cc1cccc(C(=O)NCCCNC(=O)c2ccc(-c3c4nc(c(-c5cc(S(=O)(=O)[O-])ccc5F)c5ccc([nH]5)c(-c5cc(S(=O)(=O)[O-])ccc5F)c5nc(c(-c6cc(S(=O)(=O)[O-])ccc6F)c6ccc3[nH]6)C=C5)C=C4)cc2)c1OC[C@@H]1C[C@H]2CC[C@@H]1C2
REMARK SMILES IDX 11 1 10 2 9 3 7 4 8 5 6 7 1 8 2 9 3 10 79 11 4 12 5 13 80 14
REMARK SMILES IDX 81 15 82 16 83 17 87 18 84 19 86 20 88 21 85 22 12 23 13 24
REMARK SMILES IDX 14 25 15 27 16 28 17 29 78 30 18 31 77 32 19 33 20 34 21 35
REMARK SMILES IDX 71 36 22 37 76 38 70 39 72 40 23 41 75 42 69 43 68 44 24 46
REMARK SMILES IDX 56 47 36 48 55 49 37 50 40 51 54 52 73 53 38 54 39 55 53 57
REMARK SMILES IDX 74 58 41 59 25 60 26 61 34 62 27 63 33 64 35 65 32 66 28 67
REMARK SMILES IDX 29 68 30 69 31 70 57 71 58 72 66 73 59 74 65 75 67 76 64 77
REMARK SMILES IDX 60 78 61 79 62 80 63 81 42 82 43 83 51 84 44 85 50 86 52 87
REMARK SMILES IDX 49 88 45 89 46 90 47 91 48 92
REMARK H PARENT 9 6 13 26 72 45 40 56
REMARK Flexibility Score: inf
ROOT
ATOM      1  C   UNL A   1      33.190  31.233  27.156  1.00  0.00     0.042 C 
ENDROOT
BRANCH   1   2
ATOM      2  C   UNL A   1      32.354  30.352  26.234  1.00  0.00     0.118 C 
BRANCH   2   3
ATOM      3  N   UNL A   1      31.946  29.162  26.950  1.00  0.00    -0.352 N 
ATOM      4  C   UNL A   1      31.481  27.944  26.552  1.00  0.00     0.255 C 
ATOM      5  O   UNL A   1      31.076  27.201  27.457  1.00  0.00    -0.269 OA
ATOM      6  H   UNL A   1      32.019  29.250  27.928  1.00  0.00     0.163 HD
BRANCH   4   7
ATOM      7  C   UNL A   1      31.463  27.386  25.160  1.00  0.00     0.082 A 
ATOM      8  C   UNL A   1      33.580  26.140  22.219  1.00  0.00     0.048 C 
ATOM      9  C   UNL A   1      32.414  26.556  23.076  1.00  0.00    -0.008 A 
ATOM     10  C   UNL A   1      31.315  27.084  22.369  1.00  0.00     0.007 A 
ATOM     11  C   UNL A   1      32.432  26.601  24.491  1.00  0.00     0.134 A 
ATOM     12  C   UNL A   1      30.291  27.737  23.032  1.00  0.00     0.001 A 
ATOM     13  C   UNL A   1      30.387  27.915  24.405  1.00  0.00     0.018 A 
BRANCH  11  14
ATOM     14  O   UNL A   1      33.429  26.003  25.204  1.00  0.00    -0.492 OA
BRANCH  14  15
ATOM     15  C   UNL A   1      33.217  24.686  25.763  1.00  0.00     0.233 C 
BRANCH  15  16
ATOM     16  C   UNL A   1      34.394  23.683  25.738  1.00  0.00     0.030 C 
ATOM     17  C   UNL A   1      35.617  24.213  24.930  1.00  0.00     0.011 C 
ATOM     18  C   UNL A   1      34.023  22.422  24.911  1.00  0.00    -0.004 C 
ATOM     19  C   UNL A   1      35.778  23.191  23.789  1.00  0.00    -0.010 C 
ATOM     20  C   UNL A   1      35.083  21.336  25.145  1.00  0.00     0.004 C 
ATOM     21  C   UNL A   1      34.327  22.852  23.473  1.00  0.00     0.007 C 
ATOM     22  C   UNL A   1      36.295  21.864  24.367  1.00  0.00     0.004 C 
ENDBRANCH  15  16
ENDBRANCH  14  15
ENDBRANCH  11  14
ENDBRANCH   4   7
ENDBRANCH   2   3
ENDBRANCH   1   2
BRANCH   1  23
ATOM     23  C   UNL A   1      34.287  30.494  27.898  1.00  0.00     0.118 C 
BRANCH  23  24
ATOM     24  N   UNL A   1      35.168  31.417  28.622  1.00  0.00    -0.352 N 
ATOM     25  C   UNL A   1      36.419  31.178  29.162  1.00  0.00     0.251 C 
ATOM     26  H   UNL A   1      34.822  32.332  28.741  1.00  0.00     0.163 HD
ATOM     27  O   UNL A   1      37.049  32.015  29.787  1.00  0.00    -0.269 OA
BRANCH  25  28
ATOM     28  C   UNL A   1      37.037  29.882  28.823  1.00  0.00     0.039 A 
ATOM     29  C   UNL A   1      37.285  29.029  29.901  1.00  0.00     0.014 A 
ATOM     30  C   UNL A   1      37.719  29.758  27.616  1.00  0.00     0.014 A 
ATOM     31  C   UNL A   1      38.405  28.211  29.862  1.00  0.00     0.010 A 
ATOM     32  C   UNL A   1      38.889  29.020  27.621  1.00  0.00     0.010 A 
ATOM     33  C   UNL A   1      39.268  28.308  28.770  1.00  0.00    -0.014 A 
BRANCH  33  34
ATOM     34  C   UNL A   1      40.642  27.812  28.820  1.00  0.00     0.031 A 
ATOM     35  C   UNL A   1      40.942  26.430  28.400  1.00  0.00     0.074 A 
ATOM     36  C   UNL A   1      41.647  28.603  29.263  1.00  0.00     0.049 A 
ATOM     37  N   UNL A   1      41.949  25.741  28.820  1.00  0.00    -0.248 NA
ATOM     38  C   UNL A   1      40.071  25.684  27.501  1.00  0.00     0.031 C 
ATOM     39  C   UNL A   1      43.082  28.342  29.175  1.00  0.00     0.029 A 
ATOM     40  N   UNL A   1      41.544  29.694  30.127  1.00  0.00    -0.354 N 
ATOM     41  C   UNL A   1      42.017  24.593  28.065  1.00  0.00     0.074 A 
ATOM     42  C   UNL A   1      40.793  24.581  27.298  1.00  0.00     0.031 C 
ATOM     43  C   UNL A   1      43.708  29.039  30.134  1.00  0.00     0.029 A 
ATOM     44  C   UNL A   1      42.688  29.674  30.947  1.00  0.00     0.049 A 
ATOM     45  H   UNL A   1      40.812  30.351  30.157  1.00  0.00     0.167 HD
ATOM     46  C   UNL A   1      43.157  23.845  28.075  1.00  0.00     0.034 A 
ATOM     47  C   UNL A   1      42.593  29.592  32.306  1.00  0.00     0.034 A 
ATOM     48  C   UNL A   1      44.138  24.365  29.027  1.00  0.00     0.049 A 
ATOM     49  C   UNL A   1      43.290  28.384  32.889  1.00  0.00     0.074 A 
ATOM     50  C   UNL A   1      45.264  25.159  28.882  1.00  0.00     0.029 A 
ATOM     51  N   UNL A   1      43.865  24.317  30.389  1.00  0.00    -0.354 N 
ATOM     52  N   UNL A   1      43.670  27.350  32.189  1.00  0.00    -0.248 NA
ATOM     53  C   UNL A   1      43.597  28.237  34.307  1.00  0.00     0.031 C 
ATOM     54  C   UNL A   1      45.633  25.635  30.166  1.00  0.00     0.029 A 
ATOM     55  C   UNL A   1      44.754  25.104  31.095  1.00  0.00     0.049 A 
ATOM     56  H   UNL A   1      43.138  23.792  30.796  1.00  0.00     0.167 HD
ATOM     57  C   UNL A   1      44.231  26.410  33.019  1.00  0.00     0.074 A 
ATOM     58  C   UNL A   1      44.187  27.030  34.333  1.00  0.00     0.031 C 
ATOM     59  C   UNL A   1      44.670  25.202  32.548  1.00  0.00     0.034 A 
BRANCH  46  60
ATOM     60  C   UNL A   1      43.489  22.838  26.997  1.00  0.00     0.023 A 
ATOM     61  C   UNL A   1      42.881  21.565  27.026  1.00  0.00     0.031 A 
ATOM     62  C   UNL A   1      44.424  23.034  25.962  1.00  0.00     0.131 A 
ATOM     63  C   UNL A   1      43.289  20.537  26.156  1.00  0.00     0.055 A 
ATOM     64  C   UNL A   1      44.884  21.993  25.146  1.00  0.00     0.041 A 
ATOM     65  F   UNL A   1      44.889  24.254  25.659  1.00  0.00    -0.206 F 
ATOM     66  C   UNL A   1      44.327  20.729  25.251  1.00  0.00     0.022 A 
BRANCH  63  67
ATOM     67  S   UNL A   1      42.428  18.941  26.209  1.00  0.00     0.124 S 
ATOM     68  O   UNL A   1      43.245  18.116  25.325  1.00  0.00    -0.237 OA
ATOM     69  O   UNL A   1      42.476  18.612  27.629  1.00  0.00    -0.237 OA
ATOM     70  O   UNL A   1      41.095  19.258  25.697  1.00  0.00    -0.744 OA
ENDBRANCH  63  67
ENDBRANCH  46  60
BRANCH  47  71
ATOM     71  C   UNL A   1      41.373  30.252  32.851  1.00  0.00     0.023 A 
ATOM     72  C   UNL A   1      41.381  31.663  32.903  1.00  0.00     0.031 A 
ATOM     73  C   UNL A   1      40.137  29.599  32.921  1.00  0.00     0.131 A 
ATOM     74  C   UNL A   1      40.179  32.379  32.828  1.00  0.00     0.055 A 
ATOM     75  C   UNL A   1      38.936  30.322  32.926  1.00  0.00     0.041 A 
ATOM     76  F   UNL A   1      40.064  28.262  32.853  1.00  0.00    -0.206 F 
ATOM     77  C   UNL A   1      38.953  31.715  32.829  1.00  0.00     0.022 A 
BRANCH  74  78
ATOM     78  S   UNL A   1      40.230  34.158  32.447  1.00  0.00     0.124 S 
ATOM     79  O   UNL A   1      38.864  34.420  32.011  1.00  0.00    -0.237 OA
ATOM     80  O   UNL A   1      40.616  34.761  33.720  1.00  0.00    -0.237 OA
ATOM     81  O   UNL A   1      41.256  34.250  31.410  1.00  0.00    -0.744 OA
ENDBRANCH  74  78
ENDBRANCH  47  71
BRANCH  59  82
ATOM     82  C   UNL A   1      45.138  24.026  33.387  1.00  0.00     0.023 A 
ATOM     83  C   UNL A   1      46.421  23.929  33.947  1.00  0.00     0.031 A 
ATOM     84  C   UNL A   1      44.250  22.972  33.719  1.00  0.00     0.131 A 
ATOM     85  C   UNL A   1      46.804  22.808  34.709  1.00  0.00     0.055 A 
ATOM     86  C   UNL A   1      44.606  21.899  34.542  1.00  0.00     0.041 A 
ATOM     87  F   UNL A   1      42.988  22.940  33.266  1.00  0.00    -0.206 F 
ATOM     88  C   UNL A   1      45.898  21.801  35.031  1.00  0.00     0.022 A 
BRANCH  85  89
ATOM     89  S   UNL A   1      48.535  22.669  35.228  1.00  0.00     0.124 S 
ATOM     90  O   UNL A   1      48.732  21.221  35.229  1.00  0.00    -0.237 OA
ATOM     91  O   UNL A   1      49.238  23.401  34.180  1.00  0.00    -0.237 OA
ATOM     92  O   UNL A   1      48.554  23.298  36.546  1.00  0.00    -0.744 OA
ENDBRANCH  85  89
ENDBRANCH  59  82
ENDBRANCH  33  34
ENDBRANCH  25  28
ENDBRANCH  23  24
ENDBRANCH   1  23
TORSDOF 16
ENDMDL
