MODEL 1
REMARK VINA RESULT:     -11.3      0.000      0.000
REMARK SMILES COCc1cccc(O[C@@H](C)c2ccc(C(=O)NCCCNC(=O)c3ccc(-c4c5nc(c(-c6cc(S(=O)(=O)[O-])ccc6F)c6ccc([nH]6)c(-c6cc(S(=O)(=O)[O-])ccc6F)c6nc(c(-c7cc(S(=O)(=O)[O-])ccc7F)c7ccc4[nH]7)C=C6)C=C5)cc3)o2)c1
REMARK SMILES IDX 19 1 18 2 16 3 17 4 15 6 12 7 13 8 88 9 14 10 10 11 11 12
REMARK SMILES IDX 9 13 8 14 4 15 5 16 89 17 6 18 7 19 3 20 2 21 1 22 20 23
REMARK SMILES IDX 21 24 22 25 23 26 24 28 25 29 26 30 87 31 27 32 86 33 28 34
REMARK SMILES IDX 29 35 30 36 80 37 31 38 85 39 79 40 81 41 32 42 84 43 78 44
REMARK SMILES IDX 77 45 33 47 65 48 45 49 64 50 46 51 49 52 63 53 82 54 47 55
REMARK SMILES IDX 48 56 62 58 83 59 50 60 34 61 35 62 43 63 36 64 42 65 44 66
REMARK SMILES IDX 41 67 37 68 38 69 39 70 40 71 66 72 67 73 75 74 68 75 74 76
REMARK SMILES IDX 76 77 73 78 69 79 70 80 71 81 72 82 51 83 52 84 60 85 53 86
REMARK SMILES IDX 59 87 61 88 58 89 54 90 55 91 56 92 57 93
REMARK H PARENT 18 5 22 27 81 46 49 57
REMARK Flexibility Score: inf
ROOT
ATOM      1  C   UNL A   1      31.425  30.808  26.314  1.00  0.00     0.118 C 
ENDROOT
BRANCH   1   2
ATOM      2  N   UNL A   1      32.561  30.131  26.910  1.00  0.00    -0.349 N 
ATOM      3  C   UNL A   1      32.998  28.828  26.800  1.00  0.00     0.286 C 
ATOM      4  O   UNL A   1      34.104  28.591  27.287  1.00  0.00    -0.266 OA
ATOM      5  H   UNL A   1      33.115  30.700  27.492  1.00  0.00     0.163 HD
BRANCH   3   6
ATOM      6  C   UNL A   1      32.201  27.821  26.120  1.00  0.00     0.191 A 
ATOM      7  C   UNL A   1      31.266  26.941  24.304  1.00  0.00     0.145 A 
ATOM      8  C   UNL A   1      30.919  26.129  25.363  1.00  0.00     0.050 A 
ATOM      9  O   UNL A   1      32.058  27.958  24.756  1.00  0.00    -0.452 OA
ATOM     10  C   UNL A   1      31.520  26.685  26.517  1.00  0.00     0.057 A 
BRANCH   7  11
ATOM     11  C   UNL A   1      30.971  26.885  22.830  1.00  0.00     0.236 C 
ATOM     12  C   UNL A   1      31.802  25.910  22.001  1.00  0.00     0.062 C 
BRANCH  11  13
ATOM     13  O   UNL A   1      30.922  28.200  22.226  1.00  0.00    -0.483 OA
BRANCH  13  14
ATOM     14  C   UNL A   1      29.787  28.959  22.261  1.00  0.00     0.120 A 
ATOM     15  C   UNL A   1      28.480  30.984  21.879  1.00  0.00    -0.019 A 
ATOM     16  C   UNL A   1      27.439  30.436  22.639  1.00  0.00     0.006 A 
ATOM     17  C   UNL A   1      29.631  30.209  21.667  1.00  0.00     0.052 A 
ATOM     18  C   UNL A   1      27.555  29.155  23.180  1.00  0.00     0.004 A 
ATOM     19  C   UNL A   1      28.728  28.423  22.993  1.00  0.00     0.046 A 
BRANCH  15  20
ATOM     20  C   UNL A   1      28.369  32.405  21.367  1.00  0.00     0.195 C 
BRANCH  20  21
ATOM     21  O   UNL A   1      28.136  33.376  22.391  1.00  0.00    -0.380 OA
ATOM     22  C   UNL A   1      29.254  33.551  23.255  1.00  0.00     0.195 C 
ENDBRANCH  20  21
ENDBRANCH  15  20
ENDBRANCH  13  14
ENDBRANCH  11  13
ENDBRANCH   7  11
ENDBRANCH   3   6
ENDBRANCH   1   2
BRANCH   1  23
ATOM     23  C   UNL A   1      31.421  32.305  26.616  1.00  0.00     0.042 C 
BRANCH  23  24
ATOM     24  C   UNL A   1      32.723  32.812  27.236  1.00  0.00     0.118 C 
BRANCH  24  25
ATOM     25  N   UNL A   1      32.608  34.183  27.718  1.00  0.00    -0.352 N 
ATOM     26  C   UNL A   1      33.260  34.829  28.740  1.00  0.00     0.251 C 
ATOM     27  H   UNL A   1      31.956  34.737  27.231  1.00  0.00     0.163 HD
ATOM     28  O   UNL A   1      32.835  35.918  29.117  1.00  0.00    -0.269 OA
BRANCH  26  29
ATOM     29  C   UNL A   1      34.444  34.226  29.395  1.00  0.00     0.039 A 
ATOM     30  C   UNL A   1      34.252  33.381  30.492  1.00  0.00     0.014 A 
ATOM     31  C   UNL A   1      35.742  34.523  28.969  1.00  0.00     0.014 A 
ATOM     32  C   UNL A   1      35.351  32.784  31.115  1.00  0.00     0.010 A 
ATOM     33  C   UNL A   1      36.831  33.867  29.540  1.00  0.00     0.010 A 
ATOM     34  C   UNL A   1      36.650  32.990  30.620  1.00  0.00    -0.014 A 
BRANCH  34  35
ATOM     35  C   UNL A   1      37.824  32.297  31.217  1.00  0.00     0.031 A 
ATOM     36  C   UNL A   1      38.547  31.225  30.445  1.00  0.00     0.074 A 
ATOM     37  C   UNL A   1      38.203  32.594  32.476  1.00  0.00     0.049 A 
ATOM     38  N   UNL A   1      39.534  30.454  30.824  1.00  0.00    -0.248 NA
ATOM     39  C   UNL A   1      38.077  30.970  29.074  1.00  0.00     0.031 C 
ATOM     40  C   UNL A   1      37.563  33.593  33.336  1.00  0.00     0.029 A 
ATOM     41  N   UNL A   1      39.210  32.083  33.257  1.00  0.00    -0.354 N 
ATOM     42  C   UNL A   1      39.801  29.619  29.743  1.00  0.00     0.074 A 
ATOM     43  C   UNL A   1      38.824  29.934  28.723  1.00  0.00     0.031 C 
ATOM     44  C   UNL A   1      38.210  33.640  34.511  1.00  0.00     0.029 A 
ATOM     45  C   UNL A   1      39.272  32.640  34.515  1.00  0.00     0.049 A 
ATOM     46  H   UNL A   1      39.831  31.385  32.947  1.00  0.00     0.167 HD
ATOM     47  C   UNL A   1      40.784  28.694  29.606  1.00  0.00     0.034 A 
ATOM     48  C   UNL A   1      40.079  32.363  35.559  1.00  0.00     0.034 A 
ATOM     49  C   UNL A   1      41.750  28.393  30.635  1.00  0.00     0.049 A 
ATOM     50  C   UNL A   1      41.131  31.293  35.401  1.00  0.00     0.074 A 
ATOM     51  C   UNL A   1      42.809  27.501  30.589  1.00  0.00     0.029 A 
ATOM     52  N   UNL A   1      41.773  28.967  31.901  1.00  0.00    -0.354 N 
ATOM     53  N   UNL A   1      41.396  30.541  34.356  1.00  0.00    -0.248 NA
ATOM     54  C   UNL A   1      41.998  31.040  36.559  1.00  0.00     0.031 C 
ATOM     55  C   UNL A   1      43.421  27.481  31.847  1.00  0.00     0.029 A 
ATOM     56  C   UNL A   1      42.804  28.424  32.652  1.00  0.00     0.049 A 
ATOM     57  H   UNL A   1      41.147  29.658  32.217  1.00  0.00     0.167 HD
ATOM     58  C   UNL A   1      42.486  29.755  34.722  1.00  0.00     0.074 A 
ATOM     59  C   UNL A   1      42.836  30.136  36.075  1.00  0.00     0.031 C 
ATOM     60  C   UNL A   1      43.140  28.807  34.004  1.00  0.00     0.034 A 
BRANCH  47  61
ATOM     61  C   UNL A   1      40.843  27.929  28.303  1.00  0.00     0.023 A 
ATOM     62  C   UNL A   1      40.248  26.663  28.165  1.00  0.00     0.031 A 
ATOM     63  C   UNL A   1      41.519  28.460  27.191  1.00  0.00     0.131 A 
ATOM     64  C   UNL A   1      40.408  25.937  26.975  1.00  0.00     0.055 A 
ATOM     65  C   UNL A   1      41.599  27.771  25.979  1.00  0.00     0.041 A 
ATOM     66  F   UNL A   1      42.126  29.655  27.265  1.00  0.00    -0.206 F 
ATOM     67  C   UNL A   1      41.055  26.493  25.870  1.00  0.00     0.022 A 
BRANCH  64  68
ATOM     68  S   UNL A   1      39.893  24.198  26.948  1.00  0.00     0.124 S 
ATOM     69  O   UNL A   1      39.820  23.891  28.375  1.00  0.00    -0.237 OA
ATOM     70  O   UNL A   1      38.619  24.257  26.241  1.00  0.00    -0.237 OA
ATOM     71  O   UNL A   1      40.978  23.532  26.229  1.00  0.00    -0.744 OA
ENDBRANCH  64  68
ENDBRANCH  47  61
BRANCH  48  72
ATOM     72  C   UNL A   1      39.926  33.093  36.852  1.00  0.00     0.023 A 
ATOM     73  C   UNL A   1      39.081  32.605  37.862  1.00  0.00     0.031 A 
ATOM     74  C   UNL A   1      40.576  34.320  37.076  1.00  0.00     0.131 A 
ATOM     75  C   UNL A   1      38.864  33.366  39.022  1.00  0.00     0.055 A 
ATOM     76  C   UNL A   1      40.408  35.041  38.259  1.00  0.00     0.041 A 
ATOM     77  F   UNL A   1      41.398  34.834  36.146  1.00  0.00    -0.206 F 
ATOM     78  C   UNL A   1      39.533  34.573  39.234  1.00  0.00     0.022 A 
BRANCH  75  79
ATOM     79  S   UNL A   1      37.607  32.805  40.203  1.00  0.00     0.124 S 
ATOM     80  O   UNL A   1      38.265  31.655  40.811  1.00  0.00    -0.237 OA
ATOM     81  O   UNL A   1      37.448  33.979  41.055  1.00  0.00    -0.237 OA
ATOM     82  O   UNL A   1      36.460  32.492  39.354  1.00  0.00    -0.744 OA
ENDBRANCH  75  79
ENDBRANCH  48  72
BRANCH  60  83
ATOM     83  C   UNL A   1      44.339  28.156  34.654  1.00  0.00     0.023 A 
ATOM     84  C   UNL A   1      44.208  27.069  35.536  1.00  0.00     0.031 A 
ATOM     85  C   UNL A   1      45.633  28.642  34.394  1.00  0.00     0.131 A 
ATOM     86  C   UNL A   1      45.343  26.543  36.171  1.00  0.00     0.055 A 
ATOM     87  C   UNL A   1      46.765  28.070  34.975  1.00  0.00     0.041 A 
ATOM     88  F   UNL A   1      45.819  29.681  33.564  1.00  0.00    -0.206 F 
ATOM     89  C   UNL A   1      46.622  27.024  35.881  1.00  0.00     0.022 A 
BRANCH  86  90
ATOM     90  S   UNL A   1      45.116  25.289  37.462  1.00  0.00     0.124 S 
ATOM     91  O   UNL A   1      44.142  25.930  38.339  1.00  0.00    -0.237 OA
ATOM     92  O   UNL A   1      44.631  24.142  36.701  1.00  0.00    -0.237 OA
ATOM     93  O   UNL A   1      46.455  25.135  38.030  1.00  0.00    -0.744 OA
ENDBRANCH  86  90
ENDBRANCH  60  83
ENDBRANCH  34  35
ENDBRANCH  26  29
ENDBRANCH  24  25
ENDBRANCH  23  24
ENDBRANCH   1  23
TORSDOF 18
ENDMDL
MODEL 2
REMARK VINA RESULT:     -11.2      2.786      4.513
REMARK SMILES COCc1cccc(O[C@@H](C)c2ccc(C(=O)NCCCNC(=O)c3ccc(-c4c5nc(c(-c6cc(S(=O)(=O)[O-])ccc6F)c6ccc([nH]6)c(-c6cc(S(=O)(=O)[O-])ccc6F)c6nc(c(-c7cc(S(=O)(=O)[O-])ccc7F)c7ccc4[nH]7)C=C6)C=C5)cc3)o2)c1
REMARK SMILES IDX 19 1 18 2 16 3 17 4 15 6 12 7 13 8 88 9 14 10 10 11 11 12
REMARK SMILES IDX 9 13 8 14 4 15 5 16 89 17 6 18 7 19 3 20 2 21 1 22 20 23
REMARK SMILES IDX 21 24 22 25 23 26 24 28 25 29 26 30 87 31 27 32 86 33 28 34
REMARK SMILES IDX 29 35 30 36 80 37 31 38 85 39 79 40 81 41 32 42 84 43 78 44
REMARK SMILES IDX 77 45 33 47 65 48 45 49 64 50 46 51 49 52 63 53 82 54 47 55
REMARK SMILES IDX 48 56 62 58 83 59 50 60 34 61 35 62 43 63 36 64 42 65 44 66
REMARK SMILES IDX 41 67 37 68 38 69 39 70 40 71 66 72 67 73 75 74 68 75 74 76
REMARK SMILES IDX 76 77 73 78 69 79 70 80 71 81 72 82 51 83 52 84 60 85 53 86
REMARK SMILES IDX 59 87 61 88 58 89 54 90 55 91 56 92 57 93
REMARK H PARENT 18 5 22 27 81 46 49 57
REMARK Flexibility Score: inf
ROOT
ATOM      1  C   UNL A   1      31.677  30.425  25.742  1.00  0.00     0.118 C 
ENDROOT
BRANCH   1   2
ATOM      2  N   UNL A   1      30.764  30.329  24.618  1.00  0.00    -0.349 N 
ATOM      3  C   UNL A   1      30.315  29.237  23.906  1.00  0.00     0.286 C 
ATOM      4  O   UNL A   1      29.399  29.453  23.113  1.00  0.00    -0.266 OA
ATOM      5  H   UNL A   1      30.403  31.192  24.311  1.00  0.00     0.163 HD
BRANCH   3   6
ATOM      6  C   UNL A   1      30.881  27.915  24.119  1.00  0.00     0.191 A 
ATOM      7  C   UNL A   1      32.000  26.115  23.443  1.00  0.00     0.145 A 
ATOM      8  C   UNL A   1      31.624  25.882  24.749  1.00  0.00     0.050 A 
ATOM      9  O   UNL A   1      31.566  27.353  23.064  1.00  0.00    -0.452 OA
ATOM     10  C   UNL A   1      30.919  27.030  25.181  1.00  0.00     0.057 A 
BRANCH   7  11
ATOM     11  C   UNL A   1      32.780  25.309  22.442  1.00  0.00     0.236 C 
ATOM     12  C   UNL A   1      32.702  25.762  20.987  1.00  0.00     0.062 C 
BRANCH  11  13
ATOM     13  O   UNL A   1      32.548  23.886  22.577  1.00  0.00    -0.483 OA
BRANCH  13  14
ATOM     14  C   UNL A   1      33.470  23.065  23.162  1.00  0.00     0.120 A 
ATOM     15  C   UNL A   1      34.184  21.107  24.430  1.00  0.00    -0.019 A 
ATOM     16  C   UNL A   1      35.476  21.644  24.501  1.00  0.00     0.006 A 
ATOM     17  C   UNL A   1      33.205  21.816  23.717  1.00  0.00     0.052 A 
ATOM     18  C   UNL A   1      35.772  22.861  23.887  1.00  0.00     0.004 A 
ATOM     19  C   UNL A   1      34.769  23.570  23.223  1.00  0.00     0.046 A 
BRANCH  15  20
ATOM     20  C   UNL A   1      33.861  19.825  25.169  1.00  0.00     0.195 C 
BRANCH  20  21
ATOM     21  O   UNL A   1      33.556  18.721  24.312  1.00  0.00    -0.380 OA
ATOM     22  C   UNL A   1      32.441  17.960  24.762  1.00  0.00     0.195 C 
ENDBRANCH  20  21
ENDBRANCH  15  20
ENDBRANCH  13  14
ENDBRANCH  11  13
ENDBRANCH   7  11
ENDBRANCH   3   6
ENDBRANCH   1   2
BRANCH   1  23
ATOM     23  C   UNL A   1      31.465  31.701  26.551  1.00  0.00     0.042 C 
BRANCH  23  24
ATOM     24  C   UNL A   1      32.756  32.299  27.110  1.00  0.00     0.118 C 
BRANCH  24  25
ATOM     25  N   UNL A   1      32.612  33.711  27.444  1.00  0.00    -0.352 N 
ATOM     26  C   UNL A   1      33.221  34.466  28.417  1.00  0.00     0.251 C 
ATOM     27  H   UNL A   1      31.974  34.204  26.879  1.00  0.00     0.163 HD
ATOM     28  O   UNL A   1      32.773  35.583  28.664  1.00  0.00    -0.269 OA
BRANCH  26  29
ATOM     29  C   UNL A   1      34.384  33.948  29.173  1.00  0.00     0.039 A 
ATOM     30  C   UNL A   1      34.158  33.113  30.272  1.00  0.00     0.014 A 
ATOM     31  C   UNL A   1      35.691  34.314  28.840  1.00  0.00     0.014 A 
ATOM     32  C   UNL A   1      35.239  32.594  30.989  1.00  0.00     0.010 A 
ATOM     33  C   UNL A   1      36.770  33.736  29.507  1.00  0.00     0.010 A 
ATOM     34  C   UNL A   1      36.557  32.869  30.589  1.00  0.00    -0.014 A 
BRANCH  34  35
ATOM     35  C   UNL A   1      37.721  32.259  31.289  1.00  0.00     0.031 A 
ATOM     36  C   UNL A   1      38.453  31.096  30.674  1.00  0.00     0.074 A 
ATOM     37  C   UNL A   1      38.082  32.717  32.505  1.00  0.00     0.049 A 
ATOM     38  N   UNL A   1      39.432  30.380  31.165  1.00  0.00    -0.248 NA
ATOM     39  C   UNL A   1      38.004  30.665  29.341  1.00  0.00     0.031 C 
ATOM     40  C   UNL A   1      37.431  33.819  33.218  1.00  0.00     0.029 A 
ATOM     41  N   UNL A   1      39.075  32.312  33.361  1.00  0.00    -0.354 N 
ATOM     42  C   UNL A   1      39.714  29.411  30.206  1.00  0.00     0.074 A 
ATOM     43  C   UNL A   1      38.753  29.592  29.138  1.00  0.00     0.031 C 
ATOM     44  C   UNL A   1      38.060  34.018  34.387  1.00  0.00     0.029 A 
ATOM     45  C   UNL A   1      39.119  33.026  34.536  1.00  0.00     0.049 A 
ATOM     46  H   UNL A   1      39.699  31.579  33.153  1.00  0.00     0.167 HD
ATOM     47  C   UNL A   1      40.697  28.477  30.205  1.00  0.00     0.034 A 
ATOM     48  C   UNL A   1      39.910  32.888  35.620  1.00  0.00     0.034 A 
ATOM     49  C   UNL A   1      41.647  28.311  31.279  1.00  0.00     0.049 A 
ATOM     50  C   UNL A   1      40.962  31.805  35.618  1.00  0.00     0.074 A 
ATOM     51  C   UNL A   1      42.704  27.421  31.366  1.00  0.00     0.029 A 
ATOM     52  N   UNL A   1      41.652  29.044  32.460  1.00  0.00    -0.354 N 
ATOM     53  N   UNL A   1      41.240  30.924  34.684  1.00  0.00    -0.248 NA
ATOM     54  C   UNL A   1      41.810  31.705  36.812  1.00  0.00     0.031 C 
ATOM     55  C   UNL A   1      43.297  27.563  32.624  1.00  0.00     0.029 A 
ATOM     56  C   UNL A   1      42.670  28.603  33.290  1.00  0.00     0.049 A 
ATOM     57  H   UNL A   1      41.023  29.771  32.674  1.00  0.00     0.167 HD
ATOM     58  C   UNL A   1      42.323  30.192  35.165  1.00  0.00     0.074 A 
ATOM     59  C   UNL A   1      42.654  30.745  36.462  1.00  0.00     0.031 C 
ATOM     60  C   UNL A   1      42.986  29.158  34.586  1.00  0.00     0.034 A 
BRANCH  47  61
ATOM     61  C   UNL A   1      40.774  27.549  29.013  1.00  0.00     0.023 A 
ATOM     62  C   UNL A   1      41.733  27.727  28.002  1.00  0.00     0.031 A 
ATOM     63  C   UNL A   1      39.865  26.486  28.874  1.00  0.00     0.131 A 
ATOM     64  C   UNL A   1      41.712  26.910  26.861  1.00  0.00     0.055 A 
ATOM     65  C   UNL A   1      39.905  25.620  27.779  1.00  0.00     0.041 A 
ATOM     66  F   UNL A   1      38.911  26.276  29.795  1.00  0.00    -0.206 F 
ATOM     67  C   UNL A   1      40.823  25.840  26.755  1.00  0.00     0.022 A 
BRANCH  64  68
ATOM     68  S   UNL A   1      42.760  27.366  25.452  1.00  0.00     0.124 S 
ATOM     69  O   UNL A   1      44.032  27.652  26.112  1.00  0.00    -0.237 OA
ATOM     70  O   UNL A   1      42.723  26.162  24.630  1.00  0.00    -0.237 OA
ATOM     71  O   UNL A   1      42.084  28.531  24.886  1.00  0.00    -0.744 OA
ENDBRANCH  64  68
ENDBRANCH  47  61
BRANCH  48  72
ATOM     72  C   UNL A   1      39.739  33.778  36.805  1.00  0.00     0.023 A 
ATOM     73  C   UNL A   1      40.635  34.830  37.055  1.00  0.00     0.031 A 
ATOM     74  C   UNL A   1      38.711  33.556  37.739  1.00  0.00     0.131 A 
ATOM     75  C   UNL A   1      40.521  35.582  38.236  1.00  0.00     0.055 A 
ATOM     76  C   UNL A   1      38.563  34.347  38.879  1.00  0.00     0.041 A 
ATOM     77  F   UNL A   1      37.823  32.565  37.550  1.00  0.00    -0.206 F 
ATOM     78  C   UNL A   1      39.483  35.358  39.142  1.00  0.00     0.022 A 
BRANCH  75  79
ATOM     79  S   UNL A   1      41.820  36.786  38.624  1.00  0.00     0.124 S 
ATOM     80  O   UNL A   1      41.075  37.793  39.372  1.00  0.00    -0.237 OA
ATOM     81  O   UNL A   1      42.761  35.979  39.393  1.00  0.00    -0.237 OA
ATOM     82  O   UNL A   1      42.294  37.210  37.309  1.00  0.00    -0.744 OA
ENDBRANCH  75  79
ENDBRANCH  48  72
BRANCH  60  83
ATOM     83  C   UNL A   1      44.173  28.597  35.334  1.00  0.00     0.023 A 
ATOM     84  C   UNL A   1      44.041  27.547  36.260  1.00  0.00     0.031 A 
ATOM     85  C   UNL A   1      45.457  29.131  35.122  1.00  0.00     0.131 A 
ATOM     86  C   UNL A   1      45.160  27.107  36.983  1.00  0.00     0.055 A 
ATOM     87  C   UNL A   1      46.578  28.643  35.793  1.00  0.00     0.041 A 
ATOM     88  F   UNL A   1      45.644  30.138  34.253  1.00  0.00    -0.206 F 
ATOM     89  C   UNL A   1      46.431  27.635  36.741  1.00  0.00     0.022 A 
BRANCH  86  90
ATOM     90  S   UNL A   1      44.915  25.907  38.320  1.00  0.00     0.124 S 
ATOM     91  O   UNL A   1      44.508  26.765  39.427  1.00  0.00    -0.237 OA
ATOM     92  O   UNL A   1      43.879  25.037  37.773  1.00  0.00    -0.237 OA
ATOM     93  O   UNL A   1      46.230  25.285  38.468  1.00  0.00    -0.744 OA
ENDBRANCH  86  90
ENDBRANCH  60  83
ENDBRANCH  34  35
ENDBRANCH  26  29
ENDBRANCH  24  25
ENDBRANCH  23  24
ENDBRANCH   1  23
TORSDOF 18
ENDMDL
MODEL 3
REMARK VINA RESULT:     -11.2      2.596      8.760
REMARK SMILES COCc1cccc(O[C@@H](C)c2ccc(C(=O)NCCCNC(=O)c3ccc(-c4c5nc(c(-c6cc(S(=O)(=O)[O-])ccc6F)c6ccc([nH]6)c(-c6cc(S(=O)(=O)[O-])ccc6F)c6nc(c(-c7cc(S(=O)(=O)[O-])ccc7F)c7ccc4[nH]7)C=C6)C=C5)cc3)o2)c1
REMARK SMILES IDX 19 1 18 2 16 3 17 4 15 6 12 7 13 8 88 9 14 10 10 11 11 12
REMARK SMILES IDX 9 13 8 14 4 15 5 16 89 17 6 18 7 19 3 20 2 21 1 22 20 23
REMARK SMILES IDX 21 24 22 25 23 26 24 28 25 29 26 30 87 31 27 32 86 33 28 34
REMARK SMILES IDX 29 35 30 36 80 37 31 38 85 39 79 40 81 41 32 42 84 43 78 44
REMARK SMILES IDX 77 45 33 47 65 48 45 49 64 50 46 51 49 52 63 53 82 54 47 55
REMARK SMILES IDX 48 56 62 58 83 59 50 60 34 61 35 62 43 63 36 64 42 65 44 66
REMARK SMILES IDX 41 67 37 68 38 69 39 70 40 71 66 72 67 73 75 74 68 75 74 76
REMARK SMILES IDX 76 77 73 78 69 79 70 80 71 81 72 82 51 83 52 84 60 85 53 86
REMARK SMILES IDX 59 87 61 88 58 89 54 90 55 91 56 92 57 93
REMARK H PARENT 18 5 22 27 81 46 49 57
REMARK Flexibility Score: inf
ROOT
ATOM      1  C   UNL A   1      32.271  29.202  24.500  1.00  0.00     0.118 C 
ENDROOT
BRANCH   1   2
ATOM      2  N   UNL A   1      31.250  29.309  23.474  1.00  0.00    -0.349 N 
ATOM      3  C   UNL A   1      30.783  28.387  22.562  1.00  0.00     0.286 C 
ATOM      4  O   UNL A   1      29.779  28.718  21.932  1.00  0.00    -0.266 OA
ATOM      5  H   UNL A   1      30.817  30.192  23.420  1.00  0.00     0.163 HD
BRANCH   3   6
ATOM      6  C   UNL A   1      31.432  27.097  22.396  1.00  0.00     0.191 A 
ATOM      7  C   UNL A   1      31.636  24.922  22.815  1.00  0.00     0.145 A 
ATOM      8  C   UNL A   1      32.653  25.256  21.945  1.00  0.00     0.050 A 
ATOM      9  O   UNL A   1      30.884  26.032  23.076  1.00  0.00    -0.452 OA
ATOM     10  C   UNL A   1      32.518  26.639  21.673  1.00  0.00     0.057 A 
BRANCH   7  11
ATOM     11  C   UNL A   1      31.221  23.627  23.457  1.00  0.00     0.236 C 
ATOM     12  C   UNL A   1      31.110  23.622  24.979  1.00  0.00     0.062 C 
BRANCH  11  13
ATOM     13  O   UNL A   1      31.985  22.499  22.968  1.00  0.00    -0.483 OA
BRANCH  13  14
ATOM     14  C   UNL A   1      33.070  22.023  23.648  1.00  0.00     0.120 A 
ATOM     15  C   UNL A   1      35.421  21.991  24.296  1.00  0.00    -0.019 A 
ATOM     16  C   UNL A   1      35.214  20.759  24.930  1.00  0.00     0.006 A 
ATOM     17  C   UNL A   1      34.324  22.626  23.696  1.00  0.00     0.052 A 
ATOM     18  C   UNL A   1      33.945  20.178  24.950  1.00  0.00     0.004 A 
ATOM     19  C   UNL A   1      32.879  20.808  24.306  1.00  0.00     0.046 A 
BRANCH  15  20
ATOM     20  C   UNL A   1      36.819  22.568  24.216  1.00  0.00     0.195 C 
BRANCH  20  21
ATOM     21  O   UNL A   1      36.962  23.837  24.860  1.00  0.00    -0.380 OA
ATOM     22  C   UNL A   1      37.643  23.753  26.108  1.00  0.00     0.195 C 
ENDBRANCH  20  21
ENDBRANCH  15  20
ENDBRANCH  13  14
ENDBRANCH  11  13
ENDBRANCH   7  11
ENDBRANCH   3   6
ENDBRANCH   1   2
BRANCH   1  23
ATOM     23  C   UNL A   1      31.730  29.529  25.890  1.00  0.00     0.042 C 
BRANCH  23  24
ATOM     24  C   UNL A   1      32.813  29.910  26.899  1.00  0.00     0.118 C 
BRANCH  24  25
ATOM     25  N   UNL A   1      32.956  31.355  27.035  1.00  0.00    -0.352 N 
ATOM     26  C   UNL A   1      33.891  32.101  27.709  1.00  0.00     0.251 C 
ATOM     27  H   UNL A   1      32.270  31.882  26.566  1.00  0.00     0.163 HD
ATOM     28  O   UNL A   1      33.681  33.299  27.878  1.00  0.00    -0.269 OA
BRANCH  26  29
ATOM     29  C   UNL A   1      35.126  31.481  28.243  1.00  0.00     0.039 A 
ATOM     30  C   UNL A   1      36.309  32.227  28.249  1.00  0.00     0.014 A 
ATOM     31  C   UNL A   1      35.140  30.158  28.693  1.00  0.00     0.014 A 
ATOM     32  C   UNL A   1      37.482  31.671  28.765  1.00  0.00     0.010 A 
ATOM     33  C   UNL A   1      36.291  29.631  29.278  1.00  0.00     0.010 A 
ATOM     34  C   UNL A   1      37.476  30.381  29.322  1.00  0.00    -0.014 A 
BRANCH  34  35
ATOM     35  C   UNL A   1      38.694  29.805  29.952  1.00  0.00     0.031 A 
ATOM     36  C   UNL A   1      39.156  30.293  31.300  1.00  0.00     0.074 A 
ATOM     37  C   UNL A   1      39.417  28.882  29.285  1.00  0.00     0.049 A 
ATOM     38  N   UNL A   1      40.233  29.976  31.973  1.00  0.00    -0.248 NA
ATOM     39  C   UNL A   1      38.305  31.292  31.966  1.00  0.00     0.031 C 
ATOM     40  C   UNL A   1      39.088  28.351  27.960  1.00  0.00     0.029 A 
ATOM     41  N   UNL A   1      40.578  28.232  29.622  1.00  0.00    -0.354 N 
ATOM     42  C   UNL A   1      40.194  30.737  33.136  1.00  0.00     0.074 A 
ATOM     43  C   UNL A   1      39.022  31.582  33.041  1.00  0.00     0.031 C 
ATOM     44  C   UNL A   1      40.009  27.439  27.611  1.00  0.00     0.029 A 
ATOM     45  C   UNL A   1      41.024  27.359  28.656  1.00  0.00     0.049 A 
ATOM     46  H   UNL A   1      41.048  28.377  30.475  1.00  0.00     0.167 HD
ATOM     47  C   UNL A   1      41.041  30.716  34.196  1.00  0.00     0.034 A 
ATOM     48  C   UNL A   1      42.134  26.595  28.608  1.00  0.00     0.034 A 
ATOM     49  C   UNL A   1      42.205  29.866  34.274  1.00  0.00     0.049 A 
ATOM     50  C   UNL A   1      43.090  26.628  29.774  1.00  0.00     0.074 A 
ATOM     51  C   UNL A   1      43.111  29.738  35.313  1.00  0.00     0.029 A 
ATOM     52  N   UNL A   1      42.633  29.005  33.270  1.00  0.00    -0.354 N 
ATOM     53  N   UNL A   1      43.016  27.325  30.886  1.00  0.00    -0.248 NA
ATOM     54  C   UNL A   1      44.275  25.765  29.684  1.00  0.00     0.031 C 
ATOM     55  C   UNL A   1      44.123  28.861  34.908  1.00  0.00     0.029 A 
ATOM     56  C   UNL A   1      43.804  28.370  33.653  1.00  0.00     0.049 A 
ATOM     57  H   UNL A   1      42.170  28.866  32.412  1.00  0.00     0.167 HD
ATOM     58  C   UNL A   1      44.125  26.952  31.642  1.00  0.00     0.074 A 
ATOM     59  C   UNL A   1      44.840  25.960  30.866  1.00  0.00     0.031 C 
ATOM     60  C   UNL A   1      44.514  27.387  32.867  1.00  0.00     0.034 A 
BRANCH  47  61
ATOM     61  C   UNL A   1      40.747  31.658  35.341  1.00  0.00     0.023 A 
ATOM     62  C   UNL A   1      39.638  31.469  36.184  1.00  0.00     0.031 A 
ATOM     63  C   UNL A   1      41.573  32.769  35.584  1.00  0.00     0.131 A 
ATOM     64  C   UNL A   1      39.337  32.418  37.173  1.00  0.00     0.055 A 
ATOM     65  C   UNL A   1      41.320  33.662  36.627  1.00  0.00     0.041 A 
ATOM     66  F   UNL A   1      42.635  33.016  34.802  1.00  0.00    -0.206 F 
ATOM     67  C   UNL A   1      40.186  33.499  37.420  1.00  0.00     0.022 A 
BRANCH  64  68
ATOM     68  S   UNL A   1      37.741  32.302  38.026  1.00  0.00     0.124 S 
ATOM     69  O   UNL A   1      37.447  30.875  37.907  1.00  0.00    -0.237 OA
ATOM     70  O   UNL A   1      38.063  32.779  39.365  1.00  0.00    -0.237 OA
ATOM     71  O   UNL A   1      36.870  33.177  37.242  1.00  0.00    -0.744 OA
ENDBRANCH  64  68
ENDBRANCH  47  61
BRANCH  48  72
ATOM     72  C   UNL A   1      42.419  25.743  27.416  1.00  0.00     0.023 A 
ATOM     73  C   UNL A   1      42.003  24.403  27.368  1.00  0.00     0.031 A 
ATOM     74  C   UNL A   1      43.163  26.238  26.329  1.00  0.00     0.131 A 
ATOM     75  C   UNL A   1      42.382  23.590  26.288  1.00  0.00     0.055 A 
ATOM     76  C   UNL A   1      43.482  25.444  25.227  1.00  0.00     0.041 A 
ATOM     77  F   UNL A   1      43.585  27.513  26.319  1.00  0.00    -0.206 F 
ATOM     78  C   UNL A   1      43.105  24.105  25.210  1.00  0.00     0.022 A 
BRANCH  75  79
ATOM     79  S   UNL A   1      42.009  21.817  26.366  1.00  0.00     0.124 S 
ATOM     80  O   UNL A   1      42.924  21.278  25.367  1.00  0.00    -0.237 OA
ATOM     81  O   UNL A   1      42.317  21.504  27.757  1.00  0.00    -0.237 OA
ATOM     82  O   UNL A   1      40.592  21.753  26.013  1.00  0.00    -0.744 OA
ENDBRANCH  75  79
ENDBRANCH  48  72
BRANCH  60  83
ATOM     83  C   UNL A   1      45.745  26.747  33.466  1.00  0.00     0.023 A 
ATOM     84  C   UNL A   1      45.679  25.549  34.199  1.00  0.00     0.031 A 
ATOM     85  C   UNL A   1      47.003  27.354  33.307  1.00  0.00     0.131 A 
ATOM     86  C   UNL A   1      46.838  25.030  34.796  1.00  0.00     0.055 A 
ATOM     87  C   UNL A   1      48.164  26.797  33.844  1.00  0.00     0.041 A 
ATOM     88  F   UNL A   1      47.127  28.502  32.621  1.00  0.00    -0.206 F 
ATOM     89  C   UNL A   1      48.083  25.636  34.607  1.00  0.00     0.022 A 
BRANCH  86  90
ATOM     90  S   UNL A   1      46.680  23.609  35.912  1.00  0.00     0.124 S 
ATOM     91  O   UNL A   1      47.969  23.614  36.594  1.00  0.00    -0.237 OA
ATOM     92  O   UNL A   1      45.527  23.978  36.726  1.00  0.00    -0.237 OA
ATOM     93  O   UNL A   1      46.463  22.483  35.005  1.00  0.00    -0.744 OA
ENDBRANCH  86  90
ENDBRANCH  60  83
ENDBRANCH  34  35
ENDBRANCH  26  29
ENDBRANCH  24  25
ENDBRANCH  23  24
ENDBRANCH   1  23
TORSDOF 18
ENDMDL
