MODEL 1
REMARK VINA RESULT:     -12.8      0.000      0.000
REMARK SMILES C[NH+]1CCC(NC(=O)N[C@@H]2C=C[C@H](C(=O)NCCCNC(=O)c3ccc(-c4c5nc(c(-c6cc(S(=O)(=O)[O-])ccc6F)c6ccc([nH]6)c(-c6cc(S(=O)(=O)[O-])ccc6F)c6nc(c(-c7cc(S(=O)(=O)[O-])ccc7F)c7ccc4[nH]7)C=C6)C=C5)cc3)C2)CC1
REMARK SMILES IDX 18 1 17 2 16 3 14 4 15 5 13 7 10 8 11 9 86 10 12 11 9 12
REMARK SMILES IDX 6 13 7 14 8 16 5 18 1 19 2 20 3 21 88 22 4 24 87 25 19 26
REMARK SMILES IDX 20 27 21 28 22 30 23 31 24 32 85 33 25 34 84 35 26 36 27 37
REMARK SMILES IDX 28 38 78 39 29 40 83 41 77 42 79 43 30 44 82 45 76 46 75 47
REMARK SMILES IDX 31 49 63 50 43 51 62 52 44 53 47 54 61 55 80 56 45 57 46 58
REMARK SMILES IDX 60 60 81 61 48 62 32 63 33 64 41 65 34 66 40 67 42 68 39 69
REMARK SMILES IDX 35 70 36 71 37 72 38 73 64 74 65 75 73 76 66 77 72 78 74 79
REMARK SMILES IDX 71 80 67 81 68 82 69 83 70 84 49 85 50 86 58 87 51 88 57 89
REMARK SMILES IDX 59 90 56 91 52 92 53 93 54 94 55 95
REMARK H PARENT 16 6 6 15 9 17 2 23 20 29 79 48 47 59
REMARK Flexibility Score: inf
ROOT
ATOM      1  C   UNL A   1      31.553  31.828  26.851  1.00  0.00     0.042 C 
ENDROOT
BRANCH   1   2
ATOM      2  C   UNL A   1      31.791  30.495  26.150  1.00  0.00     0.117 C 
BRANCH   2   3
ATOM      3  N   UNL A   1      31.041  30.399  24.912  1.00  0.00    -0.356 N 
ATOM      4  C   UNL A   1      30.803  29.298  24.142  1.00  0.00     0.227 C 
ATOM      5  O   UNL A   1      30.166  29.432  23.096  1.00  0.00    -0.274 OA
ATOM      6  H   UNL A   1      30.649  31.242  24.584  1.00  0.00     0.163 HD
BRANCH   4   7
ATOM      7  C   UNL A   1      31.283  27.946  24.653  1.00  0.00     0.103 C 
ATOM      8  C   UNL A   1      32.183  26.143  23.236  1.00  0.00     0.107 C 
ATOM      9  C   UNL A   1      30.725  25.970  23.515  1.00  0.00    -0.006 C 
ATOM     10  C   UNL A   1      32.544  27.463  23.922  1.00  0.00     0.047 C 
ATOM     11  C   UNL A   1      30.240  26.929  24.304  1.00  0.00    -0.016 C 
BRANCH   8  12
ATOM     12  N   UNL A   1      32.382  26.134  21.807  1.00  0.00    -0.332 N 
ATOM     13  N   UNL A   1      33.100  23.930  21.300  1.00  0.00    -0.335 N 
ATOM     14  C   UNL A   1      32.797  25.193  20.940  1.00  0.00     0.315 C 
ATOM     15  H   UNL A   1      33.393  23.359  20.552  1.00  0.00     0.165 HD
ATOM     16  O   UNL A   1      32.900  25.492  19.748  1.00  0.00    -0.249 OA
ATOM     17  H   UNL A   1      32.169  26.994  21.378  1.00  0.00     0.165 HD
BRANCH  13  18
ATOM     18  C   UNL A   1      33.076  23.255  22.581  1.00  0.00     0.095 C 
ATOM     19  C   UNL A   1      33.343  21.049  26.141  1.00  0.00     0.332 C 
ATOM     20  N   UNL A   1      33.544  21.378  24.725  1.00  0.00    -0.337 N 
ATOM     21  C   UNL A   1      34.332  22.618  24.623  1.00  0.00     0.264 C 
ATOM     22  C   UNL A   1      32.244  21.454  24.037  1.00  0.00     0.264 C 
ATOM     23  H   UNL A   1      34.075  20.644  24.256  1.00  0.00     0.347 HD
ATOM     24  C   UNL A   1      34.470  23.106  23.182  1.00  0.00     0.086 C 
ATOM     25  C   UNL A   1      32.385  21.899  22.574  1.00  0.00     0.086 C 
ENDBRANCH  13  18
ENDBRANCH   8  12
ENDBRANCH   4   7
ENDBRANCH   2   3
ENDBRANCH   1   2
BRANCH   1  26
ATOM     26  C   UNL A   1      32.841  32.537  27.261  1.00  0.00     0.118 C 
BRANCH  26  27
ATOM     27  N   UNL A   1      32.616  33.932  27.615  1.00  0.00    -0.352 N 
ATOM     28  C   UNL A   1      33.156  34.688  28.625  1.00  0.00     0.251 C 
ATOM     29  H   UNL A   1      31.975  34.408  27.038  1.00  0.00     0.163 HD
ATOM     30  O   UNL A   1      32.657  35.776  28.889  1.00  0.00    -0.269 OA
BRANCH  28  31
ATOM     31  C   UNL A   1      34.313  34.184  29.394  1.00  0.00     0.039 A 
ATOM     32  C   UNL A   1      34.080  33.445  30.556  1.00  0.00     0.014 A 
ATOM     33  C   UNL A   1      35.621  34.456  28.985  1.00  0.00     0.014 A 
ATOM     34  C   UNL A   1      35.161  32.922  31.270  1.00  0.00     0.010 A 
ATOM     35  C   UNL A   1      36.691  33.864  29.648  1.00  0.00     0.010 A 
ATOM     36  C   UNL A   1      36.473  33.095  30.801  1.00  0.00    -0.014 A 
BRANCH  36  37
ATOM     37  C   UNL A   1      37.630  32.484  31.505  1.00  0.00     0.031 A 
ATOM     38  C   UNL A   1      38.375  31.336  30.882  1.00  0.00     0.074 A 
ATOM     39  C   UNL A   1      37.970  32.927  32.732  1.00  0.00     0.049 A 
ATOM     40  N   UNL A   1      39.363  30.629  31.367  1.00  0.00    -0.248 NA
ATOM     41  C   UNL A   1      37.926  30.909  29.549  1.00  0.00     0.031 C 
ATOM     42  C   UNL A   1      37.301  34.013  33.452  1.00  0.00     0.029 A 
ATOM     43  N   UNL A   1      38.959  32.519  33.590  1.00  0.00    -0.354 N 
ATOM     44  C   UNL A   1      39.647  29.666  30.404  1.00  0.00     0.074 A 
ATOM     45  C   UNL A   1      38.676  29.838  29.345  1.00  0.00     0.031 C 
ATOM     46  C   UNL A   1      37.922  34.207  34.626  1.00  0.00     0.029 A 
ATOM     47  C   UNL A   1      38.996  33.228  34.768  1.00  0.00     0.049 A 
ATOM     48  H   UNL A   1      39.584  31.788  33.383  1.00  0.00     0.167 HD
ATOM     49  C   UNL A   1      40.644  28.746  30.392  1.00  0.00     0.034 A 
ATOM     50  C   UNL A   1      39.794  33.099  35.846  1.00  0.00     0.034 A 
ATOM     51  C   UNL A   1      41.600  28.588  31.461  1.00  0.00     0.049 A 
ATOM     52  C   UNL A   1      40.859  32.032  35.836  1.00  0.00     0.074 A 
ATOM     53  C   UNL A   1      42.675  27.720  31.537  1.00  0.00     0.029 A 
ATOM     54  N   UNL A   1      41.590  29.307  32.651  1.00  0.00    -0.354 N 
ATOM     55  N   UNL A   1      41.147  31.158  34.899  1.00  0.00    -0.248 NA
ATOM     56  C   UNL A   1      41.711  31.940  37.029  1.00  0.00     0.031 C 
ATOM     57  C   UNL A   1      43.261  27.855  32.800  1.00  0.00     0.029 A 
ATOM     58  C   UNL A   1      42.614  28.875  33.481  1.00  0.00     0.049 A 
ATOM     59  H   UNL A   1      40.949  30.022  32.873  1.00  0.00     0.167 HD
ATOM     60  C   UNL A   1      42.237  30.436  35.376  1.00  0.00     0.074 A 
ATOM     61  C   UNL A   1      42.559  30.985  36.678  1.00  0.00     0.031 C 
ATOM     62  C   UNL A   1      42.916  29.418  34.786  1.00  0.00     0.034 A 
BRANCH  49  63
ATOM     63  C   UNL A   1      40.716  27.822  29.196  1.00  0.00     0.023 A 
ATOM     64  C   UNL A   1      41.659  28.015  28.170  1.00  0.00     0.031 A 
ATOM     65  C   UNL A   1      39.798  26.766  29.049  1.00  0.00     0.131 A 
ATOM     66  C   UNL A   1      41.598  27.237  27.005  1.00  0.00     0.055 A 
ATOM     67  C   UNL A   1      39.808  25.931  27.930  1.00  0.00     0.041 A 
ATOM     68  F   UNL A   1      38.859  26.540  29.981  1.00  0.00    -0.206 F 
ATOM     69  C   UNL A   1      40.698  26.177  26.888  1.00  0.00     0.022 A 
BRANCH  66  70
ATOM     70  S   UNL A   1      42.585  27.754  25.572  1.00  0.00     0.124 S 
ATOM     71  O   UNL A   1      43.886  28.009  26.187  1.00  0.00    -0.237 OA
ATOM     72  O   UNL A   1      42.508  26.589  24.699  1.00  0.00    -0.237 OA
ATOM     73  O   UNL A   1      41.890  28.946  25.089  1.00  0.00    -0.744 OA
ENDBRANCH  66  70
ENDBRANCH  49  63
BRANCH  50  74
ATOM     74  C   UNL A   1      39.622  33.998  37.021  1.00  0.00     0.023 A 
ATOM     75  C   UNL A   1      39.004  33.539  38.196  1.00  0.00     0.031 A 
ATOM     76  C   UNL A   1      40.050  35.336  36.982  1.00  0.00     0.131 A 
ATOM     77  C   UNL A   1      38.796  34.420  39.267  1.00  0.00     0.055 A 
ATOM     78  C   UNL A   1      39.889  36.195  38.071  1.00  0.00     0.041 A 
ATOM     79  F   UNL A   1      40.652  35.826  35.886  1.00  0.00    -0.206 F 
ATOM     80  C   UNL A   1      39.249  35.740  39.219  1.00  0.00     0.022 A 
BRANCH  77  81
ATOM     81  S   UNL A   1      37.856  33.834  40.703  1.00  0.00     0.124 S 
ATOM     82  O   UNL A   1      38.816  32.943  41.343  1.00  0.00    -0.237 OA
ATOM     83  O   UNL A   1      37.566  35.080  41.405  1.00  0.00    -0.237 OA
ATOM     84  O   UNL A   1      36.696  33.176  40.103  1.00  0.00    -0.744 OA
ENDBRANCH  77  81
ENDBRANCH  50  74
BRANCH  62  85
ATOM     85  C   UNL A   1      44.107  28.863  35.532  1.00  0.00     0.023 A 
ATOM     86  C   UNL A   1      43.997  27.759  36.397  1.00  0.00     0.031 A 
ATOM     87  C   UNL A   1      45.374  29.456  35.380  1.00  0.00     0.131 A 
ATOM     88  C   UNL A   1      45.116  27.324  37.122  1.00  0.00     0.055 A 
ATOM     89  C   UNL A   1      46.499  28.973  36.050  1.00  0.00     0.041 A 
ATOM     90  F   UNL A   1      45.539  30.515  34.572  1.00  0.00    -0.206 F 
ATOM     91  C   UNL A   1      46.371  27.910  36.938  1.00  0.00     0.022 A 
BRANCH  88  92
ATOM     92  S   UNL A   1      44.891  26.045  38.389  1.00  0.00     0.124 S 
ATOM     93  O   UNL A   1      43.787  26.588  39.173  1.00  0.00    -0.237 OA
ATOM     94  O   UNL A   1      44.584  24.863  37.590  1.00  0.00    -0.237 OA
ATOM     95  O   UNL A   1      46.181  26.010  39.075  1.00  0.00    -0.744 OA
ENDBRANCH  88  92
ENDBRANCH  62  85
ENDBRANCH  36  37
ENDBRANCH  28  31
ENDBRANCH  26  27
ENDBRANCH   1  26
TORSDOF 15
ENDMDL
MODEL 2
REMARK VINA RESULT:     -12.7      6.025     12.089
REMARK SMILES C[NH+]1CCC(NC(=O)N[C@@H]2C=C[C@H](C(=O)NCCCNC(=O)c3ccc(-c4c5nc(c(-c6cc(S(=O)(=O)[O-])ccc6F)c6ccc([nH]6)c(-c6cc(S(=O)(=O)[O-])ccc6F)c6nc(c(-c7cc(S(=O)(=O)[O-])ccc7F)c7ccc4[nH]7)C=C6)C=C5)cc3)C2)CC1
REMARK SMILES IDX 18 1 17 2 16 3 14 4 15 5 13 7 10 8 11 9 86 10 12 11 9 12
REMARK SMILES IDX 6 13 7 14 8 16 5 18 1 19 2 20 3 21 88 22 4 24 87 25 19 26
REMARK SMILES IDX 20 27 21 28 22 30 23 31 24 32 85 33 25 34 84 35 26 36 27 37
REMARK SMILES IDX 28 38 78 39 29 40 83 41 77 42 79 43 30 44 82 45 76 46 75 47
REMARK SMILES IDX 31 49 63 50 43 51 62 52 44 53 47 54 61 55 80 56 45 57 46 58
REMARK SMILES IDX 60 60 81 61 48 62 32 63 33 64 41 65 34 66 40 67 42 68 39 69
REMARK SMILES IDX 35 70 36 71 37 72 38 73 64 74 65 75 73 76 66 77 72 78 74 79
REMARK SMILES IDX 71 80 67 81 68 82 69 83 70 84 49 85 50 86 58 87 51 88 57 89
REMARK SMILES IDX 59 90 56 91 52 92 53 93 54 94 55 95
REMARK H PARENT 16 6 6 15 9 17 2 23 20 29 79 48 47 59
REMARK Flexibility Score: inf
ROOT
ATOM      1  C   UNL A   1      38.140  19.760  24.959  1.00  0.00     0.042 C 
ENDROOT
BRANCH   1   2
ATOM      2  C   UNL A   1      36.910  20.654  25.064  1.00  0.00     0.117 C 
BRANCH   2   3
ATOM      3  N   UNL A   1      35.685  19.877  25.100  1.00  0.00    -0.356 N 
ATOM      4  C   UNL A   1      34.399  20.302  24.932  1.00  0.00     0.227 C 
ATOM      5  O   UNL A   1      33.485  19.484  25.036  1.00  0.00    -0.274 OA
ATOM      6  H   UNL A   1      35.796  18.912  25.268  1.00  0.00     0.163 HD
BRANCH   4   7
ATOM      7  C   UNL A   1      34.168  21.761  24.557  1.00  0.00     0.103 C 
ATOM      8  C   UNL A   1      32.318  23.154  25.395  1.00  0.00     0.107 C 
ATOM      9  C   UNL A   1      32.009  22.542  24.069  1.00  0.00    -0.006 C 
ATOM     10  C   UNL A   1      33.700  22.601  25.753  1.00  0.00     0.047 C 
ATOM     11  C   UNL A   1      33.019  21.809  23.598  1.00  0.00    -0.016 C 
BRANCH   8  12
ATOM     12  N   UNL A   1      31.270  22.800  26.321  1.00  0.00    -0.332 N 
ATOM     13  N   UNL A   1      29.915  24.740  26.490  1.00  0.00    -0.335 N 
ATOM     14  C   UNL A   1      30.222  23.473  26.829  1.00  0.00     0.315 C 
ATOM     15  H   UNL A   1      29.120  25.098  26.951  1.00  0.00     0.165 HD
ATOM     16  O   UNL A   1      29.494  22.903  27.645  1.00  0.00    -0.249 OA
ATOM     17  H   UNL A   1      31.334  21.873  26.647  1.00  0.00     0.165 HD
BRANCH  13  18
ATOM     18  C   UNL A   1      30.535  25.676  25.574  1.00  0.00     0.095 C 
ATOM     19  C   UNL A   1      32.055  28.695  23.088  1.00  0.00     0.332 C 
ATOM     20  N   UNL A   1      31.118  28.021  23.994  1.00  0.00    -0.337 N 
ATOM     21  C   UNL A   1      31.772  27.807  25.296  1.00  0.00     0.264 C 
ATOM     22  C   UNL A   1      30.626  26.777  23.376  1.00  0.00     0.264 C 
ATOM     23  H   UNL A   1      30.296  28.603  24.162  1.00  0.00     0.347 HD
ATOM     24  C   UNL A   1      30.912  26.987  26.255  1.00  0.00     0.086 C 
ATOM     25  C   UNL A   1      29.722  25.975  24.323  1.00  0.00     0.086 C 
ENDBRANCH  13  18
ENDBRANCH   8  12
ENDBRANCH   4   7
ENDBRANCH   2   3
ENDBRANCH   1   2
BRANCH   1  26
ATOM     26  C   UNL A   1      39.321  20.253  25.792  1.00  0.00     0.118 C 
BRANCH  26  27
ATOM     27  N   UNL A   1      40.324  19.216  25.997  1.00  0.00    -0.352 N 
ATOM     28  C   UNL A   1      41.681  19.320  26.171  1.00  0.00     0.251 C 
ATOM     29  H   UNL A   1      39.973  18.297  26.013  1.00  0.00     0.163 HD
ATOM     30  O   UNL A   1      42.373  18.310  26.095  1.00  0.00    -0.269 OA
BRANCH  28  31
ATOM     31  C   UNL A   1      42.300  20.638  26.427  1.00  0.00     0.039 A 
ATOM     32  C   UNL A   1      42.720  21.408  25.341  1.00  0.00     0.014 A 
ATOM     33  C   UNL A   1      42.486  21.102  27.732  1.00  0.00     0.014 A 
ATOM     34  C   UNL A   1      43.265  22.675  25.563  1.00  0.00     0.010 A 
ATOM     35  C   UNL A   1      42.949  22.396  27.947  1.00  0.00     0.010 A 
ATOM     36  C   UNL A   1      43.349  23.195  26.865  1.00  0.00    -0.014 A 
BRANCH  36  37
ATOM     37  C   UNL A   1      43.857  24.568  27.116  1.00  0.00     0.031 A 
ATOM     38  C   UNL A   1      42.929  25.637  27.625  1.00  0.00     0.074 A 
ATOM     39  C   UNL A   1      45.139  24.866  26.827  1.00  0.00     0.049 A 
ATOM     40  N   UNL A   1      43.165  26.905  27.841  1.00  0.00    -0.248 NA
ATOM     41  C   UNL A   1      41.544  25.227  27.900  1.00  0.00     0.031 C 
ATOM     42  C   UNL A   1      46.125  23.921  26.297  1.00  0.00     0.029 A 
ATOM     43  N   UNL A   1      45.833  26.043  26.935  1.00  0.00    -0.354 N 
ATOM     44  C   UNL A   1      41.957  27.448  28.265  1.00  0.00     0.074 A 
ATOM     45  C   UNL A   1      40.978  26.384  28.202  1.00  0.00     0.031 C 
ATOM     46  C   UNL A   1      47.304  24.549  26.162  1.00  0.00     0.029 A 
ATOM     47  C   UNL A   1      47.147  25.949  26.541  1.00  0.00     0.049 A 
ATOM     48  H   UNL A   1      45.429  26.878  27.265  1.00  0.00     0.167 HD
ATOM     49  C   UNL A   1      41.696  28.708  28.695  1.00  0.00     0.034 A 
ATOM     50  C   UNL A   1      48.114  26.886  26.480  1.00  0.00     0.034 A 
ATOM     51  C   UNL A   1      42.687  29.757  28.746  1.00  0.00     0.049 A 
ATOM     52  C   UNL A   1      47.789  28.295  26.908  1.00  0.00     0.074 A 
ATOM     53  C   UNL A   1      42.547  31.055  29.203  1.00  0.00     0.029 A 
ATOM     54  N   UNL A   1      44.003  29.631  28.314  1.00  0.00    -0.354 N 
ATOM     55  N   UNL A   1      46.654  28.783  27.351  1.00  0.00    -0.248 NA
ATOM     56  C   UNL A   1      48.880  29.274  26.834  1.00  0.00     0.031 C 
ATOM     57  C   UNL A   1      43.747  31.735  28.970  1.00  0.00     0.029 A 
ATOM     58  C   UNL A   1      44.670  30.838  28.456  1.00  0.00     0.049 A 
ATOM     59  H   UNL A   1      44.403  28.804  27.958  1.00  0.00     0.167 HD
ATOM     60  C   UNL A   1      46.905  30.121  27.642  1.00  0.00     0.074 A 
ATOM     61  C   UNL A   1      48.302  30.355  27.334  1.00  0.00     0.031 C 
ATOM     62  C   UNL A   1      46.060  31.067  28.129  1.00  0.00     0.034 A 
BRANCH  49  63
ATOM     63  C   UNL A   1      40.274  29.017  29.106  1.00  0.00     0.023 A 
ATOM     64  C   UNL A   1      39.886  29.044  30.458  1.00  0.00     0.031 A 
ATOM     65  C   UNL A   1      39.278  29.236  28.137  1.00  0.00     0.131 A 
ATOM     66  C   UNL A   1      38.532  29.180  30.798  1.00  0.00     0.055 A 
ATOM     67  C   UNL A   1      37.947  29.470  28.487  1.00  0.00     0.041 A 
ATOM     68  F   UNL A   1      39.577  29.202  26.829  1.00  0.00    -0.206 F 
ATOM     69  C   UNL A   1      37.562  29.422  29.824  1.00  0.00     0.022 A 
BRANCH  66  70
ATOM     70  S   UNL A   1      38.036  28.847  32.512  1.00  0.00     0.124 S 
ATOM     71  O   UNL A   1      38.171  27.392  32.579  1.00  0.00    -0.237 OA
ATOM     72  O   UNL A   1      39.011  29.614  33.277  1.00  0.00    -0.237 OA
ATOM     73  O   UNL A   1      36.662  29.340  32.573  1.00  0.00    -0.744 OA
ENDBRANCH  66  70
ENDBRANCH  49  63
BRANCH  50  74
ATOM     74  C   UNL A   1      49.477  26.528  25.996  1.00  0.00     0.023 A 
ATOM     75  C   UNL A   1      49.945  26.985  24.754  1.00  0.00     0.031 A 
ATOM     76  C   UNL A   1      50.326  25.705  26.757  1.00  0.00     0.131 A 
ATOM     77  C   UNL A   1      51.207  26.584  24.291  1.00  0.00     0.055 A 
ATOM     78  C   UNL A   1      51.603  25.353  26.316  1.00  0.00     0.041 A 
ATOM     79  F   UNL A   1      49.931  25.244  27.955  1.00  0.00    -0.206 F 
ATOM     80  C   UNL A   1      52.045  25.785  25.071  1.00  0.00     0.022 A 
BRANCH  77  81
ATOM     81  S   UNL A   1      51.710  27.065  22.616  1.00  0.00     0.124 S 
ATOM     82  O   UNL A   1      50.493  26.805  21.855  1.00  0.00    -0.237 OA
ATOM     83  O   UNL A   1      52.068  28.467  22.797  1.00  0.00    -0.237 OA
ATOM     84  O   UNL A   1      52.830  26.170  22.328  1.00  0.00    -0.744 OA
ENDBRANCH  77  81
ENDBRANCH  50  74
BRANCH  62  85
ATOM     85  C   UNL A   1      46.642  32.435  28.400  1.00  0.00     0.023 A 
ATOM     86  C   UNL A   1      46.749  33.412  27.395  1.00  0.00     0.031 A 
ATOM     87  C   UNL A   1      47.106  32.761  29.688  1.00  0.00     0.131 A 
ATOM     88  C   UNL A   1      47.361  34.643  27.678  1.00  0.00     0.055 A 
ATOM     89  C   UNL A   1      47.649  34.012  29.981  1.00  0.00     0.041 A 
ATOM     90  F   UNL A   1      47.035  31.866  30.687  1.00  0.00    -0.206 F 
ATOM     91  C   UNL A   1      47.793  34.957  28.970  1.00  0.00     0.022 A 
BRANCH  88  92
ATOM     92  S   UNL A   1      47.681  35.792  26.311  1.00  0.00     0.124 S 
ATOM     93  O   UNL A   1      48.842  36.527  26.800  1.00  0.00    -0.237 OA
ATOM     94  O   UNL A   1      47.924  34.887  25.192  1.00  0.00    -0.237 OA
ATOM     95  O   UNL A   1      46.447  36.570  26.221  1.00  0.00    -0.744 OA
ENDBRANCH  88  92
ENDBRANCH  62  85
ENDBRANCH  36  37
ENDBRANCH  28  31
ENDBRANCH  26  27
ENDBRANCH   1  26
TORSDOF 15
ENDMDL
MODEL 3
REMARK VINA RESULT:     -12.6      6.392     11.750
REMARK SMILES C[NH+]1CCC(NC(=O)N[C@@H]2C=C[C@H](C(=O)NCCCNC(=O)c3ccc(-c4c5nc(c(-c6cc(S(=O)(=O)[O-])ccc6F)c6ccc([nH]6)c(-c6cc(S(=O)(=O)[O-])ccc6F)c6nc(c(-c7cc(S(=O)(=O)[O-])ccc7F)c7ccc4[nH]7)C=C6)C=C5)cc3)C2)CC1
REMARK SMILES IDX 18 1 17 2 16 3 14 4 15 5 13 7 10 8 11 9 86 10 12 11 9 12
REMARK SMILES IDX 6 13 7 14 8 16 5 18 1 19 2 20 3 21 88 22 4 24 87 25 19 26
REMARK SMILES IDX 20 27 21 28 22 30 23 31 24 32 85 33 25 34 84 35 26 36 27 37
REMARK SMILES IDX 28 38 78 39 29 40 83 41 77 42 79 43 30 44 82 45 76 46 75 47
REMARK SMILES IDX 31 49 63 50 43 51 62 52 44 53 47 54 61 55 80 56 45 57 46 58
REMARK SMILES IDX 60 60 81 61 48 62 32 63 33 64 41 65 34 66 40 67 42 68 39 69
REMARK SMILES IDX 35 70 36 71 37 72 38 73 64 74 65 75 73 76 66 77 72 78 74 79
REMARK SMILES IDX 71 80 67 81 68 82 69 83 70 84 49 85 50 86 58 87 51 88 57 89
REMARK SMILES IDX 59 90 56 91 52 92 53 93 54 94 55 95
REMARK H PARENT 16 6 6 15 9 17 2 23 20 29 79 48 47 59
REMARK Flexibility Score: inf
ROOT
ATOM      1  C   UNL A   1      37.925  19.609  24.995  1.00  0.00     0.042 C 
ENDROOT
BRANCH   1   2
ATOM      2  C   UNL A   1      36.711  20.530  24.957  1.00  0.00     0.117 C 
BRANCH   2   3
ATOM      3  N   UNL A   1      35.469  19.784  25.042  1.00  0.00    -0.356 N 
ATOM      4  C   UNL A   1      34.189  20.244  24.932  1.00  0.00     0.227 C 
ATOM      5  O   UNL A   1      33.259  19.448  25.070  1.00  0.00    -0.274 OA
ATOM      6  H   UNL A   1      35.563  18.816  25.199  1.00  0.00     0.163 HD
BRANCH   4   7
ATOM      7  C   UNL A   1      33.980  21.710  24.576  1.00  0.00     0.103 C 
ATOM      8  C   UNL A   1      32.158  23.123  25.443  1.00  0.00     0.107 C 
ATOM      9  C   UNL A   1      31.831  22.532  24.111  1.00  0.00    -0.006 C 
ATOM     10  C   UNL A   1      33.533  22.543  25.785  1.00  0.00     0.047 C 
ATOM     11  C   UNL A   1      32.825  21.789  23.625  1.00  0.00    -0.016 C 
BRANCH   8  12
ATOM     12  N   UNL A   1      31.110  22.775  26.371  1.00  0.00    -0.332 N 
ATOM     13  N   UNL A   1      29.736  24.705  26.502  1.00  0.00    -0.335 N 
ATOM     14  C   UNL A   1      30.054  23.446  26.864  1.00  0.00     0.315 C 
ATOM     15  H   UNL A   1      28.936  25.062  26.954  1.00  0.00     0.165 HD
ATOM     16  O   UNL A   1      29.328  22.883  27.687  1.00  0.00    -0.249 OA
ATOM     17  H   UNL A   1      31.181  21.854  26.712  1.00  0.00     0.165 HD
BRANCH  13  18
ATOM     18  C   UNL A   1      30.350  25.630  25.572  1.00  0.00     0.095 C 
ATOM     19  C   UNL A   1      31.960  28.639  23.130  1.00  0.00     0.332 C 
ATOM     20  N   UNL A   1      31.092  28.027  24.143  1.00  0.00    -0.337 N 
ATOM     21  C   UNL A   1      31.923  27.521  25.249  1.00  0.00     0.264 C 
ATOM     22  C   UNL A   1      30.250  26.990  23.524  1.00  0.00     0.264 C 
ATOM     23  H   UNL A   1      30.454  28.719  24.537  1.00  0.00     0.347 HD
ATOM     24  C   UNL A   1      31.109  26.745  26.283  1.00  0.00     0.086 C 
ATOM     25  C   UNL A   1      29.395  26.241  24.557  1.00  0.00     0.086 C 
ENDBRANCH  13  18
ENDBRANCH   8  12
ENDBRANCH   4   7
ENDBRANCH   2   3
ENDBRANCH   1   2
BRANCH   1  26
ATOM     26  C   UNL A   1      39.097  20.181  25.788  1.00  0.00     0.118 C 
BRANCH  26  27
ATOM     27  N   UNL A   1      40.169  19.210  25.969  1.00  0.00    -0.352 N 
ATOM     28  C   UNL A   1      41.516  19.401  26.144  1.00  0.00     0.251 C 
ATOM     29  H   UNL A   1      39.880  18.269  25.965  1.00  0.00     0.163 HD
ATOM     30  O   UNL A   1      42.274  18.443  26.045  1.00  0.00    -0.269 OA
BRANCH  28  31
ATOM     31  C   UNL A   1      42.045  20.752  26.429  1.00  0.00     0.039 A 
ATOM     32  C   UNL A   1      42.210  21.648  25.371  1.00  0.00     0.014 A 
ATOM     33  C   UNL A   1      42.398  21.126  27.728  1.00  0.00     0.014 A 
ATOM     34  C   UNL A   1      42.666  22.944  25.628  1.00  0.00     0.010 A 
ATOM     35  C   UNL A   1      42.769  22.440  27.993  1.00  0.00     0.010 A 
ATOM     36  C   UNL A   1      42.913  23.362  26.946  1.00  0.00    -0.014 A 
BRANCH  36  37
ATOM     37  C   UNL A   1      43.327  24.756  27.246  1.00  0.00     0.031 A 
ATOM     38  C   UNL A   1      42.364  25.706  27.903  1.00  0.00     0.074 A 
ATOM     39  C   UNL A   1      44.550  25.182  26.874  1.00  0.00     0.049 A 
ATOM     40  N   UNL A   1      42.513  26.975  28.185  1.00  0.00    -0.248 NA
ATOM     41  C   UNL A   1      41.046  25.161  28.262  1.00  0.00     0.031 C 
ATOM     42  C   UNL A   1      45.560  24.361  26.201  1.00  0.00     0.029 A 
ATOM     43  N   UNL A   1      45.152  26.406  27.005  1.00  0.00    -0.354 N 
ATOM     44  C   UNL A   1      41.307  27.384  28.744  1.00  0.00     0.074 A 
ATOM     45  C   UNL A   1      40.416  26.244  28.689  1.00  0.00     0.031 C 
ATOM     46  C   UNL A   1      46.666  25.096  26.012  1.00  0.00     0.029 A 
ATOM     47  C   UNL A   1      46.430  26.452  26.498  1.00  0.00     0.049 A 
ATOM     48  H   UNL A   1      44.712  27.181  27.423  1.00  0.00     0.167 HD
ATOM     49  C   UNL A   1      40.983  28.587  29.279  1.00  0.00     0.034 A 
ATOM     50  C   UNL A   1      47.308  27.471  26.421  1.00  0.00     0.034 A 
ATOM     51  C   UNL A   1      41.886  29.713  29.320  1.00  0.00     0.049 A 
ATOM     52  C   UNL A   1      46.908  28.817  26.970  1.00  0.00     0.074 A 
ATOM     53  C   UNL A   1      41.680  30.964  29.874  1.00  0.00     0.029 A 
ATOM     54  N   UNL A   1      43.164  29.730  28.772  1.00  0.00    -0.354 N 
ATOM     55  N   UNL A   1      45.780  29.177  27.538  1.00  0.00    -0.248 NA
ATOM     56  C   UNL A   1      47.904  29.891  26.873  1.00  0.00     0.031 C 
ATOM     57  C   UNL A   1      42.796  31.759  29.590  1.00  0.00     0.029 A 
ATOM     58  C   UNL A   1      43.740  30.980  28.941  1.00  0.00     0.049 A 
ATOM     59  H   UNL A   1      43.597  28.964  28.329  1.00  0.00     0.167 HD
ATOM     60  C   UNL A   1      45.946  30.512  27.898  1.00  0.00     0.074 A 
ATOM     61  C   UNL A   1      47.286  30.885  27.492  1.00  0.00     0.031 C 
ATOM     62  C   UNL A   1      45.073  31.349  28.517  1.00  0.00     0.034 A 
BRANCH  49  63
ATOM     63  C   UNL A   1      39.582  28.745  29.826  1.00  0.00     0.023 A 
ATOM     64  C   UNL A   1      38.518  29.184  29.017  1.00  0.00     0.031 A 
ATOM     65  C   UNL A   1      39.312  28.505  31.186  1.00  0.00     0.131 A 
ATOM     66  C   UNL A   1      37.270  29.467  29.589  1.00  0.00     0.055 A 
ATOM     67  C   UNL A   1      38.039  28.694  31.729  1.00  0.00     0.041 A 
ATOM     68  F   UNL A   1      40.286  28.105  32.018  1.00  0.00    -0.206 F 
ATOM     69  C   UNL A   1      37.013  29.199  30.934  1.00  0.00     0.022 A 
BRANCH  66  70
ATOM     70  S   UNL A   1      36.049  30.367  28.593  1.00  0.00     0.124 S 
ATOM     71  O   UNL A   1      36.870  30.841  27.479  1.00  0.00    -0.237 OA
ATOM     72  O   UNL A   1      35.076  29.329  28.273  1.00  0.00    -0.237 OA
ATOM     73  O   UNL A   1      35.575  31.414  29.495  1.00  0.00    -0.744 OA
ENDBRANCH  66  70
ENDBRANCH  49  63
BRANCH  50  74
ATOM     74  C   UNL A   1      48.648  27.264  25.803  1.00  0.00     0.023 A 
ATOM     75  C   UNL A   1      48.857  27.508  24.437  1.00  0.00     0.031 A 
ATOM     76  C   UNL A   1      49.735  26.797  26.563  1.00  0.00     0.131 A 
ATOM     77  C   UNL A   1      50.111  27.247  23.863  1.00  0.00     0.055 A 
ATOM     78  C   UNL A   1      50.994  26.590  25.999  1.00  0.00     0.041 A 
ATOM     79  F   UNL A   1      49.591  26.552  27.876  1.00  0.00    -0.206 F 
ATOM     80  C   UNL A   1      51.185  26.805  24.639  1.00  0.00     0.022 A 
BRANCH  77  81
ATOM     81  S   UNL A   1      50.298  27.423  22.068  1.00  0.00     0.124 S 
ATOM     82  O   UNL A   1      50.211  28.870  21.902  1.00  0.00    -0.237 OA
ATOM     83  O   UNL A   1      51.609  26.827  21.840  1.00  0.00    -0.237 OA
ATOM     84  O   UNL A   1      49.169  26.664  21.533  1.00  0.00    -0.744 OA
ENDBRANCH  77  81
ENDBRANCH  50  74
BRANCH  62  85
ATOM     85  C   UNL A   1      45.562  32.742  28.832  1.00  0.00     0.023 A 
ATOM     86  C   UNL A   1      45.308  33.832  27.981  1.00  0.00     0.031 A 
ATOM     87  C   UNL A   1      46.305  32.981  30.003  1.00  0.00     0.131 A 
ATOM     88  C   UNL A   1      45.843  35.094  28.281  1.00  0.00     0.055 A 
ATOM     89  C   UNL A   1      46.775  34.253  30.332  1.00  0.00     0.041 A 
ATOM     90  F   UNL A   1      46.584  31.978  30.851  1.00  0.00    -0.206 F 
ATOM     91  C   UNL A   1      46.557  35.316  29.461  1.00  0.00     0.022 A 
BRANCH  88  92
ATOM     92  S   UNL A   1      45.683  36.422  27.055  1.00  0.00     0.124 S 
ATOM     93  O   UNL A   1      44.237  36.491  26.872  1.00  0.00    -0.237 OA
ATOM     94  O   UNL A   1      46.293  37.556  27.742  1.00  0.00    -0.237 OA
ATOM     95  O   UNL A   1      46.431  35.920  25.905  1.00  0.00    -0.744 OA
ENDBRANCH  88  92
ENDBRANCH  62  85
ENDBRANCH  36  37
ENDBRANCH  28  31
ENDBRANCH  26  27
ENDBRANCH   1  26
TORSDOF 15
ENDMDL
