MODEL 1
REMARK VINA RESULT:     -11.4      0.000      0.000
REMARK SMILES C[C@@H](CC(=O)NCCCNC(=O)c1ccc(-c2c3nc(c(-c4cc(S(=O)(=O)[O-])ccc4F)c4ccc([nH]4)c(-c4cc(S(=O)(=O)[O-])ccc4F)c4nc(c(-c5cc(S(=O)(=O)[O-])ccc5F)c5ccc2[nH]5)C=C4)C=C3)cc1)NC(=O)CN(C)c1ncccn1
REMARK SMILES IDX 7 1 6 2 4 3 5 4 3 6 2 7 1 8 76 9 77 10 78 12 79 13 80 14
REMARK SMILES IDX 81 15 82 16 83 17 87 18 84 19 86 20 85 21 8 22 9 23 10 24
REMARK SMILES IDX 11 25 12 27 13 28 14 29 75 30 15 31 74 32 16 33 17 34 18 35
REMARK SMILES IDX 68 36 19 37 73 38 67 39 69 40 20 41 72 42 66 43 65 44 21 46
REMARK SMILES IDX 53 47 33 48 52 49 34 50 37 51 51 52 70 53 35 54 36 55 50 57
REMARK SMILES IDX 71 58 38 59 22 60 23 61 31 62 24 63 30 64 32 65 29 66 25 67
REMARK SMILES IDX 26 68 27 69 28 70 54 71 55 72 63 73 56 74 62 75 64 76 61 77
REMARK SMILES IDX 57 78 58 79 59 80 60 81 39 82 40 83 48 84 41 85 47 86 49 87
REMARK SMILES IDX 46 88 42 89 43 90 44 91 45 92
REMARK H PARENT 6 5 76 11 10 26 69 45 37 56
REMARK Flexibility Score: inf
ROOT
ATOM      1  C   UNL A   1      31.718  30.595  26.067  1.00  0.00     0.117 C 
ENDROOT
BRANCH   1   2
ATOM      2  N   UNL A   1      32.994  30.044  26.499  1.00  0.00    -0.356 N 
ATOM      3  C   UNL A   1      33.574  28.835  26.275  1.00  0.00     0.222 C 
ATOM      4  O   UNL A   1      34.650  28.604  26.832  1.00  0.00    -0.275 OA
ATOM      5  H   UNL A   1      33.532  30.655  27.051  1.00  0.00     0.163 HD
BRANCH   3   6
ATOM      6  C   UNL A   1      32.945  27.800  25.365  1.00  0.00     0.124 C 
BRANCH   6   7
ATOM      7  C   UNL A   1      33.810  27.379  24.165  1.00  0.00     0.088 C 
ATOM      8  C   UNL A   1      33.994  28.530  23.187  1.00  0.00     0.031 C 
BRANCH   7   9
ATOM      9  N   UNL A   1      33.275  26.205  23.485  1.00  0.00    -0.352 N 
ATOM     10  C   UNL A   1      32.144  26.065  22.728  1.00  0.00     0.239 C 
ATOM     11  H   UNL A   1      33.812  25.386  23.587  1.00  0.00     0.163 HD
ATOM     12  O   UNL A   1      31.887  24.936  22.294  1.00  0.00    -0.273 OA
BRANCH  10  13
ATOM     13  C   UNL A   1      31.334  27.287  22.276  1.00  0.00     0.219 C 
BRANCH  13  14
ATOM     14  N   UNL A   1      30.001  27.434  22.852  1.00  0.00    -0.335 N 
ATOM     15  C   UNL A   1      29.600  26.635  23.987  1.00  0.00     0.147 C 
BRANCH  14  16
ATOM     16  C   UNL A   1      29.263  28.567  22.569  1.00  0.00     0.225 A 
ATOM     17  N   UNL A   1      29.744  29.442  21.668  1.00  0.00    -0.221 NA
ATOM     18  N   UNL A   1      28.139  28.794  23.263  1.00  0.00    -0.221 NA
ATOM     19  C   UNL A   1      29.054  30.584  21.471  1.00  0.00     0.117 A 
ATOM     20  C   UNL A   1      27.498  29.963  23.059  1.00  0.00     0.117 A 
ATOM     21  C   UNL A   1      27.915  30.909  22.160  1.00  0.00     0.040 A 
ENDBRANCH  14  16
ENDBRANCH  13  14
ENDBRANCH  10  13
ENDBRANCH   7   9
ENDBRANCH   6   7
ENDBRANCH   3   6
ENDBRANCH   1   2
BRANCH   1  22
ATOM     22  C   UNL A   1      31.519  32.029  26.558  1.00  0.00     0.042 C 
BRANCH  22  23
ATOM     23  C   UNL A   1      32.712  32.599  27.313  1.00  0.00     0.118 C 
BRANCH  23  24
ATOM     24  N   UNL A   1      32.522  34.002  27.643  1.00  0.00    -0.352 N 
ATOM     25  C   UNL A   1      33.103  34.753  28.633  1.00  0.00     0.251 C 
ATOM     26  H   UNL A   1      31.882  34.484  27.071  1.00  0.00     0.163 HD
ATOM     27  O   UNL A   1      32.615  35.851  28.910  1.00  0.00    -0.269 OA
BRANCH  25  28
ATOM     28  C   UNL A   1      34.281  34.255  29.384  1.00  0.00     0.039 A 
ATOM     29  C   UNL A   1      34.079  33.625  30.616  1.00  0.00     0.014 A 
ATOM     30  C   UNL A   1      35.582  34.431  28.904  1.00  0.00     0.014 A 
ATOM     31  C   UNL A   1      35.170  33.116  31.328  1.00  0.00     0.010 A 
ATOM     32  C   UNL A   1      36.659  33.850  29.573  1.00  0.00     0.010 A 
ATOM     33  C   UNL A   1      36.467  33.189  30.795  1.00  0.00    -0.014 A 
BRANCH  33  34
ATOM     34  C   UNL A   1      37.630  32.583  31.499  1.00  0.00     0.031 A 
ATOM     35  C   UNL A   1      38.374  31.427  30.885  1.00  0.00     0.074 A 
ATOM     36  C   UNL A   1      37.979  33.033  32.720  1.00  0.00     0.049 A 
ATOM     37  N   UNL A   1      39.364  30.723  31.372  1.00  0.00    -0.248 NA
ATOM     38  C   UNL A   1      37.920  30.987  29.558  1.00  0.00     0.031 C 
ATOM     39  C   UNL A   1      37.319  34.125  33.437  1.00  0.00     0.029 A 
ATOM     40  N   UNL A   1      38.971  32.626  33.577  1.00  0.00    -0.354 N 
ATOM     41  C   UNL A   1      39.647  29.752  30.418  1.00  0.00     0.074 A 
ATOM     42  C   UNL A   1      38.673  29.916  29.358  1.00  0.00     0.031 C 
ATOM     43  C   UNL A   1      37.943  34.321  34.609  1.00  0.00     0.029 A 
ATOM     44  C   UNL A   1      39.013  33.340  34.752  1.00  0.00     0.049 A 
ATOM     45  H   UNL A   1      39.593  31.892  33.371  1.00  0.00     0.167 HD
ATOM     46  C   UNL A   1      40.640  28.826  30.412  1.00  0.00     0.034 A 
ATOM     47  C   UNL A   1      39.813  33.212  35.829  1.00  0.00     0.034 A 
ATOM     48  C   UNL A   1      41.603  28.677  31.477  1.00  0.00     0.049 A 
ATOM     49  C   UNL A   1      40.869  32.138  35.831  1.00  0.00     0.074 A 
ATOM     50  C   UNL A   1      42.688  27.819  31.547  1.00  0.00     0.029 A 
ATOM     51  N   UNL A   1      41.586  29.389  32.670  1.00  0.00    -0.354 N 
ATOM     52  N   UNL A   1      41.158  31.262  34.898  1.00  0.00    -0.248 NA
ATOM     53  C   UNL A   1      41.705  32.037  37.034  1.00  0.00     0.031 C 
ATOM     54  C   UNL A   1      43.279  27.960  32.808  1.00  0.00     0.029 A 
ATOM     55  C   UNL A   1      42.612  28.958  33.500  1.00  0.00     0.049 A 
ATOM     56  H   UNL A   1      40.940  30.097  32.895  1.00  0.00     0.167 HD
ATOM     57  C   UNL A   1      42.224  30.516  35.394  1.00  0.00     0.074 A 
ATOM     58  C   UNL A   1      42.534  31.057  36.702  1.00  0.00     0.031 C 
ATOM     59  C   UNL A   1      42.890  29.482  34.817  1.00  0.00     0.034 A 
BRANCH  46  60
ATOM     60  C   UNL A   1      40.701  27.890  29.226  1.00  0.00     0.023 A 
ATOM     61  C   UNL A   1      41.630  28.078  28.185  1.00  0.00     0.031 A 
ATOM     62  C   UNL A   1      39.787  26.829  29.101  1.00  0.00     0.131 A 
ATOM     63  C   UNL A   1      41.554  27.293  27.025  1.00  0.00     0.055 A 
ATOM     64  C   UNL A   1      39.779  25.989  27.984  1.00  0.00     0.041 A 
ATOM     65  F   UNL A   1      38.865  26.605  30.051  1.00  0.00    -0.206 F 
ATOM     66  C   UNL A   1      40.651  26.233  26.927  1.00  0.00     0.022 A 
BRANCH  63  67
ATOM     67  S   UNL A   1      42.524  27.797  25.577  1.00  0.00     0.124 S 
ATOM     68  O   UNL A   1      42.419  26.615  24.724  1.00  0.00    -0.237 OA
ATOM     69  O   UNL A   1      41.810  28.983  25.117  1.00  0.00    -0.237 OA
ATOM     70  O   UNL A   1      43.856  28.043  26.125  1.00  0.00    -0.744 OA
ENDBRANCH  63  67
ENDBRANCH  46  60
BRANCH  47  71
ATOM     71  C   UNL A   1      39.644  34.120  36.998  1.00  0.00     0.023 A 
ATOM     72  C   UNL A   1      39.095  33.648  38.200  1.00  0.00     0.031 A 
ATOM     73  C   UNL A   1      40.022  35.473  36.929  1.00  0.00     0.131 A 
ATOM     74  C   UNL A   1      38.912  34.529  39.277  1.00  0.00     0.055 A 
ATOM     75  C   UNL A   1      39.878  36.334  38.017  1.00  0.00     0.041 A 
ATOM     76  F   UNL A   1      40.563  35.972  35.805  1.00  0.00    -0.206 F 
ATOM     77  C   UNL A   1      39.312  35.865  39.199  1.00  0.00     0.022 A 
BRANCH  74  78
ATOM     78  S   UNL A   1      38.098  33.913  40.776  1.00  0.00     0.124 S 
ATOM     79  O   UNL A   1      37.907  35.141  41.537  1.00  0.00    -0.237 OA
ATOM     80  O   UNL A   1      36.891  33.297  40.234  1.00  0.00    -0.237 OA
ATOM     81  O   UNL A   1      39.074  32.977  41.331  1.00  0.00    -0.744 OA
ENDBRANCH  74  78
ENDBRANCH  47  71
BRANCH  59  82
ATOM     82  C   UNL A   1      44.032  28.884  35.602  1.00  0.00     0.023 A 
ATOM     83  C   UNL A   1      43.850  27.760  36.427  1.00  0.00     0.031 A 
ATOM     84  C   UNL A   1      45.316  29.451  35.531  1.00  0.00     0.131 A 
ATOM     85  C   UNL A   1      44.923  27.269  37.186  1.00  0.00     0.055 A 
ATOM     86  C   UNL A   1      46.393  28.922  36.243  1.00  0.00     0.041 A 
ATOM     87  F   UNL A   1      45.547  30.529  34.762  1.00  0.00    -0.206 F 
ATOM     88  C   UNL A   1      46.197  27.832  37.086  1.00  0.00     0.022 A 
BRANCH  85  89
ATOM     89  S   UNL A   1      44.612  25.932  38.371  1.00  0.00     0.124 S 
ATOM     90  O   UNL A   1      44.143  26.668  39.542  1.00  0.00    -0.237 OA
ATOM     91  O   UNL A   1      43.610  25.127  37.681  1.00  0.00    -0.237 OA
ATOM     92  O   UNL A   1      45.920  25.296  38.522  1.00  0.00    -0.744 OA
ENDBRANCH  85  89
ENDBRANCH  59  82
ENDBRANCH  33  34
ENDBRANCH  25  28
ENDBRANCH  23  24
ENDBRANCH  22  23
ENDBRANCH   1  22
TORSDOF 18
ENDMDL
MODEL 2
REMARK VINA RESULT:     -11.3      5.838     10.904
REMARK SMILES C[C@@H](CC(=O)NCCCNC(=O)c1ccc(-c2c3nc(c(-c4cc(S(=O)(=O)[O-])ccc4F)c4ccc([nH]4)c(-c4cc(S(=O)(=O)[O-])ccc4F)c4nc(c(-c5cc(S(=O)(=O)[O-])ccc5F)c5ccc2[nH]5)C=C4)C=C3)cc1)NC(=O)CN(C)c1ncccn1
REMARK SMILES IDX 7 1 6 2 4 3 5 4 3 6 2 7 1 8 76 9 77 10 78 12 79 13 80 14
REMARK SMILES IDX 81 15 82 16 83 17 87 18 84 19 86 20 85 21 8 22 9 23 10 24
REMARK SMILES IDX 11 25 12 27 13 28 14 29 75 30 15 31 74 32 16 33 17 34 18 35
REMARK SMILES IDX 68 36 19 37 73 38 67 39 69 40 20 41 72 42 66 43 65 44 21 46
REMARK SMILES IDX 53 47 33 48 52 49 34 50 37 51 51 52 70 53 35 54 36 55 50 57
REMARK SMILES IDX 71 58 38 59 22 60 23 61 31 62 24 63 30 64 32 65 29 66 25 67
REMARK SMILES IDX 26 68 27 69 28 70 54 71 55 72 63 73 56 74 62 75 64 76 61 77
REMARK SMILES IDX 57 78 58 79 59 80 60 81 39 82 40 83 48 84 41 85 47 86 49 87
REMARK SMILES IDX 46 88 42 89 43 90 44 91 45 92
REMARK H PARENT 6 5 76 11 10 26 69 45 37 56
REMARK Flexibility Score: inf
ROOT
ATOM      1  C   UNL A   1      34.333  20.930  25.310  1.00  0.00     0.117 C 
ENDROOT
BRANCH   1   2
ATOM      2  N   UNL A   1      33.007  21.335  25.752  1.00  0.00    -0.356 N 
ATOM      3  C   UNL A   1      31.948  21.845  25.070  1.00  0.00     0.222 C 
ATOM      4  O   UNL A   1      30.952  22.173  25.720  1.00  0.00    -0.275 OA
ATOM      5  H   UNL A   1      32.849  21.218  26.716  1.00  0.00     0.163 HD
BRANCH   3   6
ATOM      6  C   UNL A   1      31.964  22.002  23.563  1.00  0.00     0.124 C 
BRANCH   6   7
ATOM      7  C   UNL A   1      32.220  23.434  23.063  1.00  0.00     0.088 C 
ATOM      8  C   UNL A   1      33.543  23.530  22.318  1.00  0.00     0.031 C 
BRANCH   7   9
ATOM      9  N   UNL A   1      32.165  24.413  24.143  1.00  0.00    -0.352 N 
ATOM     10  C   UNL A   1      31.947  25.763  24.097  1.00  0.00     0.239 C 
ATOM     11  H   UNL A   1      32.306  24.045  25.045  1.00  0.00     0.163 HD
ATOM     12  O   UNL A   1      31.995  26.383  25.165  1.00  0.00    -0.273 OA
BRANCH  10  13
ATOM     13  C   UNL A   1      31.475  26.449  22.808  1.00  0.00     0.219 C 
BRANCH  13  14
ATOM     14  N   UNL A   1      31.379  27.905  22.843  1.00  0.00    -0.335 N 
ATOM     15  C   UNL A   1      32.569  28.722  22.765  1.00  0.00     0.147 C 
BRANCH  14  16
ATOM     16  C   UNL A   1      30.165  28.510  22.578  1.00  0.00     0.225 A 
ATOM     17  N   UNL A   1      30.147  29.601  21.792  1.00  0.00    -0.221 NA
ATOM     18  N   UNL A   1      29.064  28.039  23.180  1.00  0.00    -0.221 NA
ATOM     19  C   UNL A   1      28.966  30.229  21.617  1.00  0.00     0.117 A 
ATOM     20  C   UNL A   1      27.912  28.717  23.005  1.00  0.00     0.117 A 
ATOM     21  C   UNL A   1      27.801  29.834  22.220  1.00  0.00     0.040 A 
ENDBRANCH  14  16
ENDBRANCH  13  14
ENDBRANCH  10  13
ENDBRANCH   7   9
ENDBRANCH   6   7
ENDBRANCH   3   6
ENDBRANCH   1   2
BRANCH   1  22
ATOM     22  C   UNL A   1      35.359  22.050  25.483  1.00  0.00     0.042 C 
BRANCH  22  23
ATOM     23  C   UNL A   1      36.621  21.872  24.650  1.00  0.00     0.118 C 
BRANCH  23  24
ATOM     24  N   UNL A   1      37.428  20.760  25.121  1.00  0.00    -0.352 N 
ATOM     25  C   UNL A   1      38.680  20.763  25.682  1.00  0.00     0.251 C 
ATOM     26  H   UNL A   1      37.015  19.871  25.024  1.00  0.00     0.163 HD
ATOM     27  O   UNL A   1      39.295  19.698  25.772  1.00  0.00    -0.269 OA
BRANCH  25  28
ATOM     28  C   UNL A   1      39.308  22.023  26.150  1.00  0.00     0.039 A 
ATOM     29  C   UNL A   1      40.462  21.952  26.935  1.00  0.00     0.014 A 
ATOM     30  C   UNL A   1      38.753  23.271  25.850  1.00  0.00     0.014 A 
ATOM     31  C   UNL A   1      41.092  23.126  27.361  1.00  0.00     0.010 A 
ATOM     32  C   UNL A   1      39.428  24.439  26.203  1.00  0.00     0.010 A 
ATOM     33  C   UNL A   1      40.603  24.382  26.966  1.00  0.00    -0.014 A 
BRANCH  33  34
ATOM     34  C   UNL A   1      41.304  25.639  27.342  1.00  0.00     0.031 A 
ATOM     35  C   UNL A   1      40.610  26.675  28.187  1.00  0.00     0.074 A 
ATOM     36  C   UNL A   1      42.545  25.878  26.872  1.00  0.00     0.049 A 
ATOM     37  N   UNL A   1      41.028  27.858  28.560  1.00  0.00    -0.248 NA
ATOM     38  C   UNL A   1      39.254  26.343  28.645  1.00  0.00     0.031 C 
ATOM     39  C   UNL A   1      43.312  24.969  26.019  1.00  0.00     0.029 A 
ATOM     40  N   UNL A   1      43.376  26.957  27.039  1.00  0.00    -0.354 N 
ATOM     41  C   UNL A   1      39.984  28.417  29.290  1.00  0.00     0.074 A 
ATOM     42  C   UNL A   1      38.890  27.469  29.241  1.00  0.00     0.031 C 
ATOM     43  C   UNL A   1      44.512  25.515  25.765  1.00  0.00     0.029 A 
ATOM     44  C   UNL A   1      44.583  26.830  26.392  1.00  0.00     0.049 A 
ATOM     45  H   UNL A   1      43.132  27.747  27.573  1.00  0.00     0.167 HD
ATOM     46  C   UNL A   1      39.948  29.598  29.958  1.00  0.00     0.034 A 
ATOM     47  C   UNL A   1      45.623  27.681  26.300  1.00  0.00     0.034 A 
ATOM     48  C   UNL A   1      41.049  30.531  29.996  1.00  0.00     0.049 A 
ATOM     49  C   UNL A   1      45.541  29.014  26.997  1.00  0.00     0.074 A 
ATOM     50  C   UNL A   1      41.147  31.724  30.693  1.00  0.00     0.029 A 
ATOM     51  N   UNL A   1      42.238  30.388  29.291  1.00  0.00    -0.354 N 
ATOM     52  N   UNL A   1      44.567  29.506  27.726  1.00  0.00    -0.248 NA
ATOM     53  C   UNL A   1      46.699  29.906  26.855  1.00  0.00     0.031 C 
ATOM     54  C   UNL A   1      42.359  32.334  30.351  1.00  0.00     0.029 A 
ATOM     55  C   UNL A   1      43.054  31.491  29.500  1.00  0.00     0.049 A 
ATOM     56  H   UNL A   1      42.468  29.616  28.726  1.00  0.00     0.167 HD
ATOM     57  C   UNL A   1      45.004  30.759  28.147  1.00  0.00     0.074 A 
ATOM     58  C   UNL A   1      46.334  30.939  27.601  1.00  0.00     0.031 C 
ATOM     59  C   UNL A   1      44.365  31.675  28.921  1.00  0.00     0.034 A 
BRANCH  46  60
ATOM     60  C   UNL A   1      38.660  29.947  30.670  1.00  0.00     0.023 A 
ATOM     61  C   UNL A   1      37.634  30.666  30.029  1.00  0.00     0.031 A 
ATOM     62  C   UNL A   1      38.475  29.611  32.023  1.00  0.00     0.131 A 
ATOM     63  C   UNL A   1      36.526  31.114  30.763  1.00  0.00     0.055 A 
ATOM     64  C   UNL A   1      37.323  29.978  32.724  1.00  0.00     0.041 A 
ATOM     65  F   UNL A   1      39.422  28.939  32.697  1.00  0.00    -0.206 F 
ATOM     66  C   UNL A   1      36.351  30.754  32.100  1.00  0.00     0.022 A 
BRANCH  63  67
ATOM     67  S   UNL A   1      35.416  32.327  29.995  1.00  0.00     0.124 S 
ATOM     68  O   UNL A   1      36.335  33.426  29.705  1.00  0.00    -0.237 OA
ATOM     69  O   UNL A   1      34.905  31.599  28.839  1.00  0.00    -0.237 OA
ATOM     70  O   UNL A   1      34.436  32.607  31.042  1.00  0.00    -0.744 OA
ENDBRANCH  63  67
ENDBRANCH  46  60
BRANCH  47  71
ATOM     71  C   UNL A   1      46.831  27.303  25.514  1.00  0.00     0.023 A 
ATOM     72  C   UNL A   1      46.989  27.736  24.188  1.00  0.00     0.031 A 
ATOM     73  C   UNL A   1      47.841  26.500  26.074  1.00  0.00     0.131 A 
ATOM     74  C   UNL A   1      48.118  27.339  23.454  1.00  0.00     0.055 A 
ATOM     75  C   UNL A   1      48.982  26.144  25.353  1.00  0.00     0.041 A 
ATOM     76  F   UNL A   1      47.744  26.069  27.342  1.00  0.00    -0.206 F 
ATOM     77  C   UNL A   1      49.121  26.557  24.032  1.00  0.00     0.022 A 
BRANCH  74  78
ATOM     78  S   UNL A   1      48.235  27.822  21.711  1.00  0.00     0.124 S 
ATOM     79  O   UNL A   1      48.499  26.542  21.064  1.00  0.00    -0.237 OA
ATOM     80  O   UNL A   1      46.920  28.407  21.469  1.00  0.00    -0.237 OA
ATOM     81  O   UNL A   1      49.347  28.771  21.696  1.00  0.00    -0.744 OA
ENDBRANCH  74  78
ENDBRANCH  47  71
BRANCH  59  82
ATOM     82  C   UNL A   1      45.115  32.947  29.231  1.00  0.00     0.023 A 
ATOM     83  C   UNL A   1      45.018  34.079  28.402  1.00  0.00     0.031 A 
ATOM     84  C   UNL A   1      45.944  33.026  30.364  1.00  0.00     0.131 A 
ATOM     85  C   UNL A   1      45.777  35.224  28.691  1.00  0.00     0.055 A 
ATOM     86  C   UNL A   1      46.650  34.188  30.678  1.00  0.00     0.041 A 
ATOM     87  F   UNL A   1      46.077  31.974  31.188  1.00  0.00    -0.206 F 
ATOM     88  C   UNL A   1      46.578  35.291  29.833  1.00  0.00     0.022 A 
BRANCH  85  89
ATOM     89  S   UNL A   1      45.765  36.598  27.508  1.00  0.00     0.124 S 
ATOM     90  O   UNL A   1      47.104  37.156  27.678  1.00  0.00    -0.237 OA
ATOM     91  O   UNL A   1      45.513  35.920  26.240  1.00  0.00    -0.237 OA
ATOM     92  O   UNL A   1      44.674  37.449  27.981  1.00  0.00    -0.744 OA
ENDBRANCH  85  89
ENDBRANCH  59  82
ENDBRANCH  33  34
ENDBRANCH  25  28
ENDBRANCH  23  24
ENDBRANCH  22  23
ENDBRANCH   1  22
TORSDOF 18
ENDMDL
MODEL 3
REMARK VINA RESULT:     -11.2      3.595      5.164
REMARK SMILES C[C@@H](CC(=O)NCCCNC(=O)c1ccc(-c2c3nc(c(-c4cc(S(=O)(=O)[O-])ccc4F)c4ccc([nH]4)c(-c4cc(S(=O)(=O)[O-])ccc4F)c4nc(c(-c5cc(S(=O)(=O)[O-])ccc5F)c5ccc2[nH]5)C=C4)C=C3)cc1)NC(=O)CN(C)c1ncccn1
REMARK SMILES IDX 7 1 6 2 4 3 5 4 3 6 2 7 1 8 76 9 77 10 78 12 79 13 80 14
REMARK SMILES IDX 81 15 82 16 83 17 87 18 84 19 86 20 85 21 8 22 9 23 10 24
REMARK SMILES IDX 11 25 12 27 13 28 14 29 75 30 15 31 74 32 16 33 17 34 18 35
REMARK SMILES IDX 68 36 19 37 73 38 67 39 69 40 20 41 72 42 66 43 65 44 21 46
REMARK SMILES IDX 53 47 33 48 52 49 34 50 37 51 51 52 70 53 35 54 36 55 50 57
REMARK SMILES IDX 71 58 38 59 22 60 23 61 31 62 24 63 30 64 32 65 29 66 25 67
REMARK SMILES IDX 26 68 27 69 28 70 54 71 55 72 63 73 56 74 62 75 64 76 61 77
REMARK SMILES IDX 57 78 58 79 59 80 60 81 39 82 40 83 48 84 41 85 47 86 49 87
REMARK SMILES IDX 46 88 42 89 43 90 44 91 45 92
REMARK H PARENT 6 5 76 11 10 26 69 45 37 56
REMARK Flexibility Score: inf
ROOT
ATOM      1  C   UNL A   1      32.429  27.162  23.693  1.00  0.00     0.117 C 
ENDROOT
BRANCH   1   2
ATOM      2  N   UNL A   1      33.596  26.411  24.132  1.00  0.00    -0.356 N 
ATOM      3  C   UNL A   1      33.808  25.076  24.268  1.00  0.00     0.222 C 
ATOM      4  O   UNL A   1      34.889  24.712  24.738  1.00  0.00    -0.275 OA
ATOM      5  H   UNL A   1      34.369  26.970  24.372  1.00  0.00     0.163 HD
BRANCH   3   6
ATOM      6  C   UNL A   1      32.771  24.052  23.851  1.00  0.00     0.124 C 
BRANCH   6   7
ATOM      7  C   UNL A   1      32.023  23.377  25.013  1.00  0.00     0.088 C 
ATOM      8  C   UNL A   1      31.031  24.332  25.660  1.00  0.00     0.031 C 
BRANCH   7   9
ATOM      9  N   UNL A   1      32.934  22.826  26.009  1.00  0.00    -0.352 N 
ATOM     10  C   UNL A   1      33.762  21.739  25.940  1.00  0.00     0.239 C 
ATOM     11  H   UNL A   1      32.956  23.312  26.865  1.00  0.00     0.163 HD
ATOM     12  O   UNL A   1      34.409  21.452  26.954  1.00  0.00    -0.273 OA
BRANCH  10  13
ATOM     13  C   UNL A   1      34.024  21.022  24.609  1.00  0.00     0.219 C 
BRANCH  13  14
ATOM     14  N   UNL A   1      33.076  19.978  24.234  1.00  0.00    -0.335 N 
ATOM     15  C   UNL A   1      32.151  20.183  23.144  1.00  0.00     0.147 C 
BRANCH  14  16
ATOM     16  C   UNL A   1      33.297  18.681  24.655  1.00  0.00     0.225 A 
ATOM     17  N   UNL A   1      34.417  18.054  24.252  1.00  0.00    -0.221 NA
ATOM     18  N   UNL A   1      32.351  18.066  25.379  1.00  0.00    -0.221 NA
ATOM     19  C   UNL A   1      34.573  16.760  24.598  1.00  0.00     0.117 A 
ATOM     20  C   UNL A   1      32.531  16.763  25.675  1.00  0.00     0.117 A 
ATOM     21  C   UNL A   1      33.641  16.049  25.308  1.00  0.00     0.040 A 
ENDBRANCH  14  16
ENDBRANCH  13  14
ENDBRANCH  10  13
ENDBRANCH   7   9
ENDBRANCH   6   7
ENDBRANCH   3   6
ENDBRANCH   1   2
BRANCH   1  22
ATOM     22  C   UNL A   1      32.005  28.211  24.720  1.00  0.00     0.042 C 
BRANCH  22  23
ATOM     23  C   UNL A   1      33.008  29.340  24.908  1.00  0.00     0.118 C 
BRANCH  23  24
ATOM     24  N   UNL A   1      32.411  30.492  25.561  1.00  0.00    -0.352 N 
ATOM     25  C   UNL A   1      32.749  31.100  26.743  1.00  0.00     0.251 C 
ATOM     26  H   UNL A   1      31.650  30.896  25.084  1.00  0.00     0.163 HD
ATOM     27  O   UNL A   1      31.957  31.898  27.250  1.00  0.00    -0.269 OA
BRANCH  25  28
ATOM     28  C   UNL A   1      34.029  30.792  27.426  1.00  0.00     0.039 A 
ATOM     29  C   UNL A   1      34.938  31.829  27.658  1.00  0.00     0.014 A 
ATOM     30  C   UNL A   1      34.356  29.488  27.811  1.00  0.00     0.014 A 
ATOM     31  C   UNL A   1      36.137  31.571  28.330  1.00  0.00     0.010 A 
ATOM     32  C   UNL A   1      35.512  29.248  28.554  1.00  0.00     0.010 A 
ATOM     33  C   UNL A   1      36.418  30.285  28.819  1.00  0.00    -0.014 A 
BRANCH  33  34
ATOM     34  C   UNL A   1      37.650  30.007  29.606  1.00  0.00     0.031 A 
ATOM     35  C   UNL A   1      38.709  29.085  29.062  1.00  0.00     0.074 A 
ATOM     36  C   UNL A   1      37.790  30.537  30.837  1.00  0.00     0.049 A 
ATOM     37  N   UNL A   1      39.815  28.668  29.624  1.00  0.00    -0.248 NA
ATOM     38  C   UNL A   1      38.473  28.537  27.719  1.00  0.00     0.031 C 
ATOM     39  C   UNL A   1      36.822  31.420  31.490  1.00  0.00     0.029 A 
ATOM     40  N   UNL A   1      38.796  30.407  31.762  1.00  0.00    -0.354 N 
ATOM     41  C   UNL A   1      40.404  27.801  28.708  1.00  0.00     0.074 A 
ATOM     42  C   UNL A   1      39.492  27.701  27.588  1.00  0.00     0.031 C 
ATOM     43  C   UNL A   1      37.296  31.777  32.694  1.00  0.00     0.029 A 
ATOM     44  C   UNL A   1      38.574  31.111  32.923  1.00  0.00     0.049 A 
ATOM     45  H   UNL A   1      39.601  29.862  31.609  1.00  0.00     0.167 HD
ATOM     46  C   UNL A   1      41.603  27.168  28.783  1.00  0.00     0.034 A 
ATOM     47  C   UNL A   1      39.307  31.201  34.049  1.00  0.00     0.034 A 
ATOM     48  C   UNL A   1      42.500  27.281  29.907  1.00  0.00     0.049 A 
ATOM     49  C   UNL A   1      40.605  30.442  34.138  1.00  0.00     0.074 A 
ATOM     50  C   UNL A   1      43.765  26.738  30.062  1.00  0.00     0.029 A 
ATOM     51  N   UNL A   1      42.220  27.967  31.083  1.00  0.00    -0.354 N 
ATOM     52  N   UNL A   1      41.173  29.669  33.242  1.00  0.00    -0.248 NA
ATOM     53  C   UNL A   1      41.359  30.568  35.392  1.00  0.00     0.031 C 
ATOM     54  C   UNL A   1      44.215  27.033  31.354  1.00  0.00     0.029 A 
ATOM     55  C   UNL A   1      43.267  27.824  31.983  1.00  0.00     0.049 A 
ATOM     56  H   UNL A   1      41.399  28.482  31.253  1.00  0.00     0.167 HD
ATOM     57  C   UNL A   1      42.363  29.231  33.818  1.00  0.00     0.074 A 
ATOM     58  C   UNL A   1      42.435  29.839  35.132  1.00  0.00     0.031 C 
ATOM     59  C   UNL A   1      43.312  28.406  33.304  1.00  0.00     0.034 A 
BRANCH  46  60
ATOM     60  C   UNL A   1      41.984  26.277  27.621  1.00  0.00     0.023 A 
ATOM     61  C   UNL A   1      41.623  24.917  27.585  1.00  0.00     0.031 A 
ATOM     62  C   UNL A   1      42.767  26.773  26.564  1.00  0.00     0.131 A 
ATOM     63  C   UNL A   1      42.129  24.083  26.578  1.00  0.00     0.055 A 
ATOM     64  C   UNL A   1      43.188  25.956  25.511  1.00  0.00     0.041 A 
ATOM     65  F   UNL A   1      43.158  28.057  26.546  1.00  0.00    -0.206 F 
ATOM     66  C   UNL A   1      42.889  24.597  25.527  1.00  0.00     0.022 A 
BRANCH  63  67
ATOM     67  S   UNL A   1      41.935  22.288  26.767  1.00  0.00     0.124 S 
ATOM     68  O   UNL A   1      42.891  21.999  27.834  1.00  0.00    -0.237 OA
ATOM     69  O   UNL A   1      40.526  22.159  27.120  1.00  0.00    -0.237 OA
ATOM     70  O   UNL A   1      42.301  21.763  25.454  1.00  0.00    -0.744 OA
ENDBRANCH  63  67
ENDBRANCH  46  60
BRANCH  47  71
ATOM     71  C   UNL A   1      38.831  32.037  35.186  1.00  0.00     0.023 A 
ATOM     72  C   UNL A   1      38.293  31.442  36.338  1.00  0.00     0.031 A 
ATOM     73  C   UNL A   1      38.901  33.441  35.137  1.00  0.00     0.131 A 
ATOM     74  C   UNL A   1      37.818  32.249  37.383  1.00  0.00     0.055 A 
ATOM     75  C   UNL A   1      38.467  34.237  36.198  1.00  0.00     0.041 A 
ATOM     76  F   UNL A   1      39.418  34.059  34.063  1.00  0.00    -0.206 F 
ATOM     77  C   UNL A   1      37.914  33.641  37.327  1.00  0.00     0.022 A 
BRANCH  74  78
ATOM     78  S   UNL A   1      37.027  31.451  38.807  1.00  0.00     0.124 S 
ATOM     79  O   UNL A   1      36.947  30.065  38.364  1.00  0.00    -0.237 OA
ATOM     80  O   UNL A   1      37.978  31.731  39.878  1.00  0.00    -0.237 OA
ATOM     81  O   UNL A   1      35.747  32.148  38.918  1.00  0.00    -0.744 OA
ENDBRANCH  74  78
ENDBRANCH  47  71
BRANCH  59  82
ATOM     82  C   UNL A   1      44.517  28.131  34.170  1.00  0.00     0.023 A 
ATOM     83  C   UNL A   1      44.569  27.020  35.030  1.00  0.00     0.031 A 
ATOM     84  C   UNL A   1      45.625  28.997  34.141  1.00  0.00     0.131 A 
ATOM     85  C   UNL A   1      45.683  26.831  35.863  1.00  0.00     0.055 A 
ATOM     86  C   UNL A   1      46.755  28.771  34.928  1.00  0.00     0.041 A 
ATOM     87  F   UNL A   1      45.629  30.076  33.341  1.00  0.00    -0.206 F 
ATOM     88  C   UNL A   1      46.783  27.690  35.804  1.00  0.00     0.022 A 
BRANCH  85  89
ATOM     89  S   UNL A   1      45.640  25.492  37.084  1.00  0.00     0.124 S 
ATOM     90  O   UNL A   1      45.796  24.309  36.242  1.00  0.00    -0.237 OA
ATOM     91  O   UNL A   1      46.773  25.815  37.945  1.00  0.00    -0.237 OA
ATOM     92  O   UNL A   1      44.327  25.639  37.709  1.00  0.00    -0.744 OA
ENDBRANCH  85  89
ENDBRANCH  59  82
ENDBRANCH  33  34
ENDBRANCH  25  28
ENDBRANCH  23  24
ENDBRANCH  22  23
ENDBRANCH   1  22
TORSDOF 18
ENDMDL
