MODEL 1
REMARK VINA RESULT:     -13.0      0.000      0.000
REMARK SMILES COc1ccc(-c2cnc(N)c(C(=O)NCCCNC(=O)c3ccc(-c4c5nc(c(-c6cc(S(=O)(=O)[O-])ccc6F)c6ccc([nH]6)c(-c6cc(S(=O)(=O)[O-])ccc6F)c6nc(c(-c7cc(S(=O)(=O)[O-])ccc7F)c7ccc4[nH]7)C=C6)C=C5)cc3)c2)c(C)c1
REMARK SMILES IDX 17 1 16 2 15 3 13 4 14 5 12 7 7 8 8 9 85 10 9 11 10 12 6 13
REMARK SMILES IDX 3 14 4 15 88 16 5 17 86 18 87 19 2 20 1 21 11 22 18 25 19 26
REMARK SMILES IDX 20 27 21 29 22 30 23 31 84 32 24 33 83 34 25 35 26 36 27 37
REMARK SMILES IDX 77 38 28 39 82 40 76 41 78 42 29 43 81 44 75 45 74 46 30 48
REMARK SMILES IDX 62 49 42 50 61 51 43 52 46 53 60 54 79 55 44 56 45 57 59 59
REMARK SMILES IDX 80 60 47 61 31 62 32 63 40 64 33 65 39 66 41 67 38 68 34 69
REMARK SMILES IDX 35 70 36 71 37 72 63 73 64 74 72 75 65 76 71 77 73 78 70 79
REMARK SMILES IDX 66 80 67 81 68 82 69 83 48 84 49 85 57 86 50 87 56 88 58 89
REMARK SMILES IDX 55 90 51 91 52 92 53 93 54 94
REMARK H PARENT 15 6 11 23 11 24 19 28 78 47 46 58
REMARK Flexibility Score: inf
ROOT
ATOM      1  C   UNL A   1      33.016  31.210  27.262  1.00  0.00     0.042 C 
ENDROOT
BRANCH   1   2
ATOM      2  C   UNL A   1      32.471  30.456  26.068  1.00  0.00     0.118 C 
BRANCH   2   3
ATOM      3  N   UNL A   1      31.277  31.057  25.487  1.00  0.00    -0.352 N 
ATOM      4  C   UNL A   1      30.415  30.551  24.540  1.00  0.00     0.255 C 
ATOM      5  O   UNL A   1      29.490  31.250  24.129  1.00  0.00    -0.269 OA
ATOM      6  H   UNL A   1      31.054  31.955  25.821  1.00  0.00     0.163 HD
BRANCH   4   7
ATOM      7  C   UNL A   1      30.609  29.212  23.932  1.00  0.00     0.082 A 
ATOM      8  C   UNL A   1      30.980  26.838  24.316  1.00  0.00     0.001 A 
ATOM      9  C   UNL A   1      30.806  26.692  22.941  1.00  0.00     0.122 A 
ATOM     10  C   UNL A   1      30.819  28.132  24.813  1.00  0.00     0.028 A 
ATOM     11  N   UNL A   1      30.692  27.710  22.062  1.00  0.00    -0.238 NA
ATOM     12  C   UNL A   1      30.698  28.962  22.561  1.00  0.00     0.136 A 
BRANCH   8  13
ATOM     13  C   UNL A   1      31.487  25.709  25.117  1.00  0.00    -0.014 A 
ATOM     14  C   UNL A   1      32.169  23.439  26.674  1.00  0.00     0.119 A 
ATOM     15  C   UNL A   1      30.838  23.795  26.523  1.00  0.00     0.047 A 
ATOM     16  C   UNL A   1      33.158  24.223  26.076  1.00  0.00     0.050 A 
ATOM     17  C   UNL A   1      30.509  24.903  25.747  1.00  0.00     0.013 A 
ATOM     18  C   UNL A   1      32.839  25.357  25.293  1.00  0.00    -0.040 A 
ATOM     19  C   UNL A   1      33.986  26.093  24.654  1.00  0.00     0.045 C 
BRANCH  14  20
ATOM     20  O   UNL A   1      32.602  22.366  27.406  1.00  0.00    -0.497 OA
ATOM     21  C   UNL A   1      33.981  22.412  27.763  1.00  0.00     0.278 C 
ENDBRANCH  14  20
ENDBRANCH   8  13
BRANCH  12  22
ATOM     22  N   UNL A   1      30.792  29.935  21.592  1.00  0.00    -0.383 N 
ATOM     23  H   UNL A   1      30.870  30.882  21.851  1.00  0.00     0.158 HD
ATOM     24  H   UNL A   1      30.782  29.684  20.640  1.00  0.00     0.158 HD
ENDBRANCH  12  22
ENDBRANCH   4   7
ENDBRANCH   2   3
ENDBRANCH   1   2
BRANCH   1  25
ATOM     25  C   UNL A   1      34.166  30.485  27.942  1.00  0.00     0.118 C 
BRANCH  25  26
ATOM     26  N   UNL A   1      34.969  31.370  28.797  1.00  0.00    -0.352 N 
ATOM     27  C   UNL A   1      36.202  31.147  29.408  1.00  0.00     0.251 C 
ATOM     28  H   UNL A   1      34.577  32.258  28.962  1.00  0.00     0.163 HD
ATOM     29  O   UNL A   1      36.775  32.001  30.039  1.00  0.00    -0.269 OA
BRANCH  27  30
ATOM     30  C   UNL A   1      36.834  29.825  29.190  1.00  0.00     0.039 A 
ATOM     31  C   UNL A   1      37.119  29.049  30.317  1.00  0.00     0.014 A 
ATOM     32  C   UNL A   1      37.448  29.582  27.972  1.00  0.00     0.014 A 
ATOM     33  C   UNL A   1      38.236  28.218  30.291  1.00  0.00     0.010 A 
ATOM     34  C   UNL A   1      38.641  28.889  28.000  1.00  0.00     0.010 A 
ATOM     35  C   UNL A   1      39.071  28.255  29.175  1.00  0.00    -0.014 A 
BRANCH  35  36
ATOM     36  C   UNL A   1      40.459  27.794  29.195  1.00  0.00     0.031 A 
ATOM     37  C   UNL A   1      40.802  26.441  28.709  1.00  0.00     0.074 A 
ATOM     38  C   UNL A   1      41.462  28.614  29.590  1.00  0.00     0.049 A 
ATOM     39  N   UNL A   1      41.860  25.795  29.065  1.00  0.00    -0.248 NA
ATOM     40  C   UNL A   1      39.955  25.683  27.794  1.00  0.00     0.031 C 
ATOM     41  C   UNL A   1      42.898  28.397  29.422  1.00  0.00     0.029 A 
ATOM     42  N   UNL A   1      41.381  29.713  30.448  1.00  0.00    -0.354 N 
ATOM     43  C   UNL A   1      41.985  24.708  28.237  1.00  0.00     0.074 A 
ATOM     44  C   UNL A   1      40.751  24.656  27.491  1.00  0.00     0.031 C 
ATOM     45  C   UNL A   1      43.557  29.112  30.346  1.00  0.00     0.029 A 
ATOM     46  C   UNL A   1      42.569  29.719  31.214  1.00  0.00     0.049 A 
ATOM     47  H   UNL A   1      40.640  30.358  30.508  1.00  0.00     0.167 HD
ATOM     48  C   UNL A   1      43.164  24.032  28.181  1.00  0.00     0.034 A 
ATOM     49  C   UNL A   1      42.529  29.623  32.575  1.00  0.00     0.034 A 
ATOM     50  C   UNL A   1      44.156  24.570  29.108  1.00  0.00     0.049 A 
ATOM     51  C   UNL A   1      43.204  28.380  33.126  1.00  0.00     0.074 A 
ATOM     52  C   UNL A   1      45.277  25.374  28.985  1.00  0.00     0.029 A 
ATOM     53  N   UNL A   1      43.896  24.493  30.463  1.00  0.00    -0.354 N 
ATOM     54  N   UNL A   1      43.800  27.477  32.393  1.00  0.00    -0.248 NA
ATOM     55  C   UNL A   1      43.184  28.006  34.541  1.00  0.00     0.031 C 
ATOM     56  C   UNL A   1      45.678  25.781  30.294  1.00  0.00     0.029 A 
ATOM     57  C   UNL A   1      44.811  25.208  31.206  1.00  0.00     0.049 A 
ATOM     58  H   UNL A   1      43.146  23.988  30.852  1.00  0.00     0.167 HD
ATOM     59  C   UNL A   1      44.137  26.400  33.172  1.00  0.00     0.074 A 
ATOM     60  C   UNL A   1      43.750  26.786  34.515  1.00  0.00     0.031 C 
ATOM     61  C   UNL A   1      44.653  25.247  32.652  1.00  0.00     0.034 A 
BRANCH  48  62
ATOM     62  C   UNL A   1      43.483  23.026  27.108  1.00  0.00     0.023 A 
ATOM     63  C   UNL A   1      42.893  21.750  27.168  1.00  0.00     0.031 A 
ATOM     64  C   UNL A   1      44.364  23.242  26.030  1.00  0.00     0.131 A 
ATOM     65  C   UNL A   1      43.258  20.735  26.268  1.00  0.00     0.055 A 
ATOM     66  C   UNL A   1      44.784  22.213  25.178  1.00  0.00     0.041 A 
ATOM     67  F   UNL A   1      44.815  24.469  25.728  1.00  0.00    -0.206 F 
ATOM     68  C   UNL A   1      44.240  20.944  25.304  1.00  0.00     0.022 A 
BRANCH  65  69
ATOM     69  S   UNL A   1      42.411  19.137  26.369  1.00  0.00     0.124 S 
ATOM     70  O   UNL A   1      41.167  19.399  25.653  1.00  0.00    -0.237 OA
ATOM     71  O   UNL A   1      43.360  18.247  25.711  1.00  0.00    -0.237 OA
ATOM     72  O   UNL A   1      42.262  18.925  27.808  1.00  0.00    -0.744 OA
ENDBRANCH  65  69
ENDBRANCH  48  62
BRANCH  49  73
ATOM     73  C   UNL A   1      41.339  30.323  33.144  1.00  0.00     0.023 A 
ATOM     74  C   UNL A   1      41.372  31.737  33.134  1.00  0.00     0.031 A 
ATOM     75  C   UNL A   1      40.091  29.699  33.257  1.00  0.00     0.131 A 
ATOM     76  C   UNL A   1      40.182  32.470  33.030  1.00  0.00     0.055 A 
ATOM     77  C   UNL A   1      38.903  30.443  33.244  1.00  0.00     0.041 A 
ATOM     78  F   UNL A   1      39.988  28.362  33.231  1.00  0.00    -0.206 F 
ATOM     79  C   UNL A   1      38.945  31.829  33.076  1.00  0.00     0.022 A 
BRANCH  76  80
ATOM     80  S   UNL A   1      40.279  34.214  32.514  1.00  0.00     0.124 S 
ATOM     81  O   UNL A   1      38.994  34.737  32.961  1.00  0.00    -0.237 OA
ATOM     82  O   UNL A   1      41.455  34.699  33.233  1.00  0.00    -0.237 OA
ATOM     83  O   UNL A   1      40.460  34.135  31.067  1.00  0.00    -0.744 OA
ENDBRANCH  76  80
ENDBRANCH  49  73
BRANCH  61  84
ATOM     84  C   UNL A   1      45.021  24.036  33.475  1.00  0.00     0.023 A 
ATOM     85  C   UNL A   1      46.355  23.700  33.750  1.00  0.00     0.031 A 
ATOM     86  C   UNL A   1      44.040  23.124  33.933  1.00  0.00     0.131 A 
ATOM     87  C   UNL A   1      46.665  22.545  34.491  1.00  0.00     0.055 A 
ATOM     88  C   UNL A   1      44.357  21.934  34.591  1.00  0.00     0.041 A 
ATOM     89  F   UNL A   1      42.729  23.369  33.803  1.00  0.00    -0.206 F 
ATOM     90  C   UNL A   1      45.678  21.641  34.884  1.00  0.00     0.022 A 
BRANCH  87  91
ATOM     91  S   UNL A   1      48.382  22.276  35.003  1.00  0.00     0.124 S 
ATOM     92  O   UNL A   1      49.109  23.260  34.210  1.00  0.00    -0.237 OA
ATOM     93  O   UNL A   1      48.307  22.546  36.437  1.00  0.00    -0.237 OA
ATOM     94  O   UNL A   1      48.634  20.881  34.649  1.00  0.00    -0.744 OA
ENDBRANCH  87  91
ENDBRANCH  61  84
ENDBRANCH  35  36
ENDBRANCH  27  30
ENDBRANCH  25  26
ENDBRANCH   1  25
TORSDOF 16
ENDMDL
MODEL 2
REMARK VINA RESULT:     -13.0      1.436      2.050
REMARK SMILES COc1ccc(-c2cnc(N)c(C(=O)NCCCNC(=O)c3ccc(-c4c5nc(c(-c6cc(S(=O)(=O)[O-])ccc6F)c6ccc([nH]6)c(-c6cc(S(=O)(=O)[O-])ccc6F)c6nc(c(-c7cc(S(=O)(=O)[O-])ccc7F)c7ccc4[nH]7)C=C6)C=C5)cc3)c2)c(C)c1
REMARK SMILES IDX 17 1 16 2 15 3 13 4 14 5 12 7 7 8 8 9 85 10 9 11 10 12 6 13
REMARK SMILES IDX 3 14 4 15 88 16 5 17 86 18 87 19 2 20 1 21 11 22 18 25 19 26
REMARK SMILES IDX 20 27 21 29 22 30 23 31 84 32 24 33 83 34 25 35 26 36 27 37
REMARK SMILES IDX 77 38 28 39 82 40 76 41 78 42 29 43 81 44 75 45 74 46 30 48
REMARK SMILES IDX 62 49 42 50 61 51 43 52 46 53 60 54 79 55 44 56 45 57 59 59
REMARK SMILES IDX 80 60 47 61 31 62 32 63 40 64 33 65 39 66 41 67 38 68 34 69
REMARK SMILES IDX 35 70 36 71 37 72 63 73 64 74 72 75 65 76 71 77 73 78 70 79
REMARK SMILES IDX 66 80 67 81 68 82 69 83 48 84 49 85 57 86 50 87 56 88 58 89
REMARK SMILES IDX 55 90 51 91 52 92 53 93 54 94
REMARK H PARENT 15 6 11 23 11 24 19 28 78 47 46 58
REMARK Flexibility Score: inf
ROOT
ATOM      1  C   UNL A   1      32.435  30.715  27.080  1.00  0.00     0.042 C 
ENDROOT
BRANCH   1   2
ATOM      2  C   UNL A   1      31.815  29.790  26.055  1.00  0.00     0.118 C 
BRANCH   2   3
ATOM      3  N   UNL A   1      32.427  29.878  24.735  1.00  0.00    -0.352 N 
ATOM      4  C   UNL A   1      32.788  28.871  23.870  1.00  0.00     0.255 C 
ATOM      5  O   UNL A   1      33.358  29.153  22.817  1.00  0.00    -0.269 OA
ATOM      6  H   UNL A   1      32.608  30.791  24.417  1.00  0.00     0.163 HD
BRANCH   4   7
ATOM      7  C   UNL A   1      32.587  27.438  24.198  1.00  0.00     0.082 A 
ATOM      8  C   UNL A   1      33.634  25.314  24.760  1.00  0.00     0.001 A 
ATOM      9  C   UNL A   1      32.338  24.848  24.970  1.00  0.00     0.122 A 
ATOM     10  C   UNL A   1      33.744  26.663  24.418  1.00  0.00     0.028 A 
ATOM     11  N   UNL A   1      31.211  25.533  24.684  1.00  0.00    -0.238 NA
ATOM     12  C   UNL A   1      31.353  26.784  24.204  1.00  0.00     0.136 A 
BRANCH   8  13
ATOM     13  C   UNL A   1      34.761  24.365  24.725  1.00  0.00    -0.014 A 
ATOM     14  C   UNL A   1      36.992  22.629  24.947  1.00  0.00     0.119 A 
ATOM     15  C   UNL A   1      36.783  23.606  25.907  1.00  0.00     0.047 A 
ATOM     16  C   UNL A   1      36.112  22.532  23.867  1.00  0.00     0.050 A 
ATOM     17  C   UNL A   1      35.679  24.447  25.799  1.00  0.00     0.013 A 
ATOM     18  C   UNL A   1      34.992  23.385  23.740  1.00  0.00    -0.040 A 
ATOM     19  C   UNL A   1      34.083  23.152  22.563  1.00  0.00     0.045 C 
BRANCH  14  20
ATOM     20  O   UNL A   1      38.038  21.746  24.961  1.00  0.00    -0.497 OA
ATOM     21  C   UNL A   1      38.932  21.905  26.059  1.00  0.00     0.278 C 
ENDBRANCH  14  20
ENDBRANCH   8  13
BRANCH  12  22
ATOM     22  N   UNL A   1      30.176  27.329  23.741  1.00  0.00    -0.383 N 
ATOM     23  H   UNL A   1      30.098  28.303  23.622  1.00  0.00     0.158 HD
ATOM     24  H   UNL A   1      29.413  26.743  23.530  1.00  0.00     0.158 HD
ENDBRANCH  12  22
ENDBRANCH   4   7
ENDBRANCH   2   3
ENDBRANCH   1   2
BRANCH   1  25
ATOM     25  C   UNL A   1      33.865  30.336  27.430  1.00  0.00     0.118 C 
BRANCH  25  26
ATOM     26  N   UNL A   1      34.496  31.290  28.352  1.00  0.00    -0.352 N 
ATOM     27  C   UNL A   1      35.623  31.143  29.159  1.00  0.00     0.251 C 
ATOM     28  H   UNL A   1      34.054  32.169  28.408  1.00  0.00     0.163 HD
ATOM     29  O   UNL A   1      36.063  32.047  29.825  1.00  0.00    -0.269 OA
BRANCH  27  30
ATOM     30  C   UNL A   1      36.322  29.838  29.109  1.00  0.00     0.039 A 
ATOM     31  C   UNL A   1      36.691  29.254  30.325  1.00  0.00     0.014 A 
ATOM     32  C   UNL A   1      36.906  29.449  27.914  1.00  0.00     0.014 A 
ATOM     33  C   UNL A   1      37.852  28.488  30.372  1.00  0.00     0.010 A 
ATOM     34  C   UNL A   1      38.138  28.831  27.993  1.00  0.00     0.010 A 
ATOM     35  C   UNL A   1      38.644  28.402  29.228  1.00  0.00    -0.014 A 
BRANCH  35  36
ATOM     36  C   UNL A   1      40.056  28.022  29.256  1.00  0.00     0.031 A 
ATOM     37  C   UNL A   1      40.481  26.696  28.758  1.00  0.00     0.074 A 
ATOM     38  C   UNL A   1      41.007  28.894  29.669  1.00  0.00     0.049 A 
ATOM     39  N   UNL A   1      41.572  26.109  29.117  1.00  0.00    -0.248 NA
ATOM     40  C   UNL A   1      39.688  25.902  27.827  1.00  0.00     0.031 C 
ATOM     41  C   UNL A   1      42.455  28.763  29.512  1.00  0.00     0.029 A 
ATOM     42  N   UNL A   1      40.855  29.976  30.538  1.00  0.00    -0.354 N 
ATOM     43  C   UNL A   1      41.768  25.040  28.278  1.00  0.00     0.074 A 
ATOM     44  C   UNL A   1      40.545  24.926  27.520  1.00  0.00     0.031 C 
ATOM     45  C   UNL A   1      43.064  29.503  30.449  1.00  0.00     0.029 A 
ATOM     46  C   UNL A   1      42.035  30.042  31.315  1.00  0.00     0.049 A 
ATOM     47  H   UNL A   1      40.078  30.577  30.599  1.00  0.00     0.167 HD
ATOM     48  C   UNL A   1      42.984  24.435  28.225  1.00  0.00     0.034 A 
ATOM     49  C   UNL A   1      41.988  29.929  32.674  1.00  0.00     0.034 A 
ATOM     50  C   UNL A   1      43.936  25.018  29.167  1.00  0.00     0.049 A 
ATOM     51  C   UNL A   1      42.730  28.720  33.218  1.00  0.00     0.074 A 
ATOM     52  C   UNL A   1      45.009  25.888  29.063  1.00  0.00     0.029 A 
ATOM     53  N   UNL A   1      43.668  24.911  30.519  1.00  0.00    -0.354 N 
ATOM     54  N   UNL A   1      43.383  27.862  32.481  1.00  0.00    -0.248 NA
ATOM     55  C   UNL A   1      42.719  28.329  34.628  1.00  0.00     0.031 C 
ATOM     56  C   UNL A   1      45.374  26.302  30.380  1.00  0.00     0.029 A 
ATOM     57  C   UNL A   1      44.535  25.669  31.278  1.00  0.00     0.049 A 
ATOM     58  H   UNL A   1      42.946  24.359  30.896  1.00  0.00     0.167 HD
ATOM     59  C   UNL A   1      43.776  26.797  33.250  1.00  0.00     0.074 A 
ATOM     60  C   UNL A   1      43.355  27.145  34.595  1.00  0.00     0.031 C 
ATOM     61  C   UNL A   1      44.362  25.682  32.722  1.00  0.00     0.034 A 
BRANCH  48  62
ATOM     62  C   UNL A   1      43.370  23.461  27.144  1.00  0.00     0.023 A 
ATOM     63  C   UNL A   1      42.838  22.160  27.172  1.00  0.00     0.031 A 
ATOM     64  C   UNL A   1      44.262  23.734  26.089  1.00  0.00     0.131 A 
ATOM     65  C   UNL A   1      43.266  21.176  26.265  1.00  0.00     0.055 A 
ATOM     66  C   UNL A   1      44.745  22.739  25.230  1.00  0.00     0.041 A 
ATOM     67  F   UNL A   1      44.663  24.984  25.814  1.00  0.00    -0.206 F 
ATOM     68  C   UNL A   1      44.257  21.445  25.325  1.00  0.00     0.022 A 
BRANCH  65  69
ATOM     69  S   UNL A   1      42.490  19.540  26.324  1.00  0.00     0.124 S 
ATOM     70  O   UNL A   1      42.130  19.418  27.732  1.00  0.00    -0.237 OA
ATOM     71  O   UNL A   1      41.385  19.694  25.385  1.00  0.00    -0.237 OA
ATOM     72  O   UNL A   1      43.557  18.645  25.880  1.00  0.00    -0.744 OA
ENDBRANCH  65  69
ENDBRANCH  48  62
BRANCH  49  73
ATOM     73  C   UNL A   1      40.755  30.551  33.240  1.00  0.00     0.023 A 
ATOM     74  C   UNL A   1      40.714  31.965  33.265  1.00  0.00     0.031 A 
ATOM     75  C   UNL A   1      39.539  29.861  33.318  1.00  0.00     0.131 A 
ATOM     76  C   UNL A   1      39.490  32.638  33.159  1.00  0.00     0.055 A 
ATOM     77  C   UNL A   1      38.315  30.544  33.302  1.00  0.00     0.041 A 
ATOM     78  F   UNL A   1      39.506  28.522  33.258  1.00  0.00    -0.206 F 
ATOM     79  C   UNL A   1      38.287  31.934  33.169  1.00  0.00     0.022 A 
BRANCH  76  80
ATOM     80  S   UNL A   1      39.504  34.398  32.687  1.00  0.00     0.124 S 
ATOM     81  O   UNL A   1      39.129  35.051  33.934  1.00  0.00    -0.237 OA
ATOM     82  O   UNL A   1      40.881  34.603  32.242  1.00  0.00    -0.237 OA
ATOM     83  O   UNL A   1      38.517  34.472  31.613  1.00  0.00    -0.744 OA
ENDBRANCH  76  80
ENDBRANCH  49  73
BRANCH  61  84
ATOM     84  C   UNL A   1      44.793  24.485  33.536  1.00  0.00     0.023 A 
ATOM     85  C   UNL A   1      46.144  24.156  33.717  1.00  0.00     0.031 A 
ATOM     86  C   UNL A   1      43.851  23.579  34.079  1.00  0.00     0.131 A 
ATOM     87  C   UNL A   1      46.511  23.013  34.452  1.00  0.00     0.055 A 
ATOM     88  C   UNL A   1      44.218  22.400  34.730  1.00  0.00     0.041 A 
ATOM     89  F   UNL A   1      42.533  23.820  34.041  1.00  0.00    -0.206 F 
ATOM     90  C   UNL A   1      45.558  22.115  34.931  1.00  0.00     0.022 A 
BRANCH  87  91
ATOM     91  S   UNL A   1      48.261  22.755  34.841  1.00  0.00     0.124 S 
ATOM     92  O   UNL A   1      48.482  21.378  34.416  1.00  0.00    -0.237 OA
ATOM     93  O   UNL A   1      48.899  23.782  34.022  1.00  0.00    -0.237 OA
ATOM     94  O   UNL A   1      48.332  22.981  36.283  1.00  0.00    -0.744 OA
ENDBRANCH  87  91
ENDBRANCH  61  84
ENDBRANCH  35  36
ENDBRANCH  27  30
ENDBRANCH  25  26
ENDBRANCH   1  25
TORSDOF 16
ENDMDL
MODEL 3
REMARK VINA RESULT:     -13.0      4.222     10.700
REMARK SMILES COc1ccc(-c2cnc(N)c(C(=O)NCCCNC(=O)c3ccc(-c4c5nc(c(-c6cc(S(=O)(=O)[O-])ccc6F)c6ccc([nH]6)c(-c6cc(S(=O)(=O)[O-])ccc6F)c6nc(c(-c7cc(S(=O)(=O)[O-])ccc7F)c7ccc4[nH]7)C=C6)C=C5)cc3)c2)c(C)c1
REMARK SMILES IDX 17 1 16 2 15 3 13 4 14 5 12 7 7 8 8 9 85 10 9 11 10 12 6 13
REMARK SMILES IDX 3 14 4 15 88 16 5 17 86 18 87 19 2 20 1 21 11 22 18 25 19 26
REMARK SMILES IDX 20 27 21 29 22 30 23 31 84 32 24 33 83 34 25 35 26 36 27 37
REMARK SMILES IDX 77 38 28 39 82 40 76 41 78 42 29 43 81 44 75 45 74 46 30 48
REMARK SMILES IDX 62 49 42 50 61 51 43 52 46 53 60 54 79 55 44 56 45 57 59 59
REMARK SMILES IDX 80 60 47 61 31 62 32 63 40 64 33 65 39 66 41 67 38 68 34 69
REMARK SMILES IDX 35 70 36 71 37 72 63 73 64 74 72 75 65 76 71 77 73 78 70 79
REMARK SMILES IDX 66 80 67 81 68 82 69 83 48 84 49 85 57 86 50 87 56 88 58 89
REMARK SMILES IDX 55 90 51 91 52 92 53 93 54 94
REMARK H PARENT 15 6 11 23 11 24 19 28 78 47 46 58
REMARK Flexibility Score: inf
ROOT
ATOM      1  C   UNL A   1      38.201  21.544  25.506  1.00  0.00     0.042 C 
ENDROOT
BRANCH   1   2
ATOM      2  C   UNL A   1      36.740  21.486  25.117  1.00  0.00     0.118 C 
BRANCH   2   3
ATOM      3  N   UNL A   1      35.843  21.209  26.231  1.00  0.00    -0.352 N 
ATOM      4  C   UNL A   1      34.613  21.753  26.521  1.00  0.00     0.255 C 
ATOM      5  O   UNL A   1      34.036  21.430  27.558  1.00  0.00    -0.269 OA
ATOM      6  H   UNL A   1      36.164  20.532  26.870  1.00  0.00     0.163 HD
BRANCH   4   7
ATOM      7  C   UNL A   1      33.986  22.788  25.662  1.00  0.00     0.082 A 
ATOM      8  C   UNL A   1      33.423  25.140  25.394  1.00  0.00     0.001 A 
ATOM      9  C   UNL A   1      33.018  24.791  24.106  1.00  0.00     0.122 A 
ATOM     10  C   UNL A   1      33.969  24.108  26.157  1.00  0.00     0.028 A 
ATOM     11  N   UNL A   1      32.938  23.529  23.634  1.00  0.00    -0.238 NA
ATOM     12  C   UNL A   1      33.327  22.535  24.457  1.00  0.00     0.136 A 
BRANCH   8  13
ATOM     13  C   UNL A   1      33.099  26.474  25.930  1.00  0.00    -0.014 A 
ATOM     14  C   UNL A   1      32.763  29.123  26.886  1.00  0.00     0.119 A 
ATOM     15  C   UNL A   1      34.029  28.666  26.557  1.00  0.00     0.047 A 
ATOM     16  C   UNL A   1      31.672  28.258  26.766  1.00  0.00     0.050 A 
ATOM     17  C   UNL A   1      34.186  27.369  26.076  1.00  0.00     0.013 A 
ATOM     18  C   UNL A   1      31.817  26.936  26.288  1.00  0.00    -0.040 A 
ATOM     19  C   UNL A   1      30.563  26.116  26.151  1.00  0.00     0.045 C 
BRANCH  14  20
ATOM     20  O   UNL A   1      32.496  30.379  27.359  1.00  0.00    -0.497 OA
ATOM     21  C   UNL A   1      33.649  31.188  27.573  1.00  0.00     0.278 C 
ENDBRANCH  14  20
ENDBRANCH   8  13
BRANCH  12  22
ATOM     22  N   UNL A   1      33.017  21.281  23.982  1.00  0.00    -0.383 N 
ATOM     23  H   UNL A   1      33.158  21.065  23.032  1.00  0.00     0.158 HD
ATOM     24  H   UNL A   1      32.654  20.599  24.594  1.00  0.00     0.158 HD
ENDBRANCH  12  22
ENDBRANCH   4   7
ENDBRANCH   2   3
ENDBRANCH   1   2
BRANCH   1  25
ATOM     25  C   UNL A   1      38.616  22.907  26.036  1.00  0.00     0.118 C 
BRANCH  25  26
ATOM     26  N   UNL A   1      40.060  23.000  26.294  1.00  0.00    -0.352 N 
ATOM     27  C   UNL A   1      40.837  24.102  26.649  1.00  0.00     0.251 C 
ATOM     28  H   UNL A   1      40.555  22.154  26.201  1.00  0.00     0.163 HD
ATOM     29  O   UNL A   1      42.015  24.012  26.891  1.00  0.00    -0.269 OA
BRANCH  27  30
ATOM     30  C   UNL A   1      40.137  25.400  26.800  1.00  0.00     0.039 A 
ATOM     31  C   UNL A   1      40.701  26.515  26.175  1.00  0.00     0.014 A 
ATOM     32  C   UNL A   1      39.214  25.535  27.825  1.00  0.00     0.014 A 
ATOM     33  C   UNL A   1      40.556  27.762  26.778  1.00  0.00     0.010 A 
ATOM     34  C   UNL A   1      39.209  26.734  28.507  1.00  0.00     0.010 A 
ATOM     35  C   UNL A   1      39.928  27.836  28.020  1.00  0.00    -0.014 A 
BRANCH  35  36
ATOM     36  C   UNL A   1      40.095  28.962  28.939  1.00  0.00     0.031 A 
ATOM     37  C   UNL A   1      39.047  29.999  29.045  1.00  0.00     0.074 A 
ATOM     38  C   UNL A   1      41.172  29.042  29.757  1.00  0.00     0.049 A 
ATOM     39  N   UNL A   1      39.262  31.198  29.467  1.00  0.00    -0.248 NA
ATOM     40  C   UNL A   1      37.660  29.774  28.654  1.00  0.00     0.031 C 
ATOM     41  C   UNL A   1      41.352  29.945  30.893  1.00  0.00     0.029 A 
ATOM     42  N   UNL A   1      42.433  28.474  29.569  1.00  0.00    -0.354 N 
ATOM     43  C   UNL A   1      38.043  31.794  29.676  1.00  0.00     0.074 A 
ATOM     44  C   UNL A   1      37.076  30.882  29.114  1.00  0.00     0.031 C 
ATOM     45  C   UNL A   1      42.664  30.100  31.121  1.00  0.00     0.029 A 
ATOM     46  C   UNL A   1      43.375  29.401  30.070  1.00  0.00     0.049 A 
ATOM     47  H   UNL A   1      42.628  27.598  29.165  1.00  0.00     0.167 HD
ATOM     48  C   UNL A   1      37.965  32.938  30.407  1.00  0.00     0.034 A 
ATOM     49  C   UNL A   1      44.338  29.931  29.262  1.00  0.00     0.034 A 
ATOM     50  C   UNL A   1      39.278  33.413  30.836  1.00  0.00     0.049 A 
ATOM     51  C   UNL A   1      44.240  31.437  29.091  1.00  0.00     0.074 A 
ATOM     52  C   UNL A   1      39.989  33.387  32.025  1.00  0.00     0.029 A 
ATOM     53  N   UNL A   1      40.182  33.804  29.866  1.00  0.00    -0.354 N 
ATOM     54  N   UNL A   1      43.342  32.188  29.671  1.00  0.00    -0.248 NA
ATOM     55  C   UNL A   1      45.089  32.207  28.181  1.00  0.00     0.031 C 
ATOM     56  C   UNL A   1      41.336  33.766  31.744  1.00  0.00     0.029 A 
ATOM     57  C   UNL A   1      41.434  34.038  30.392  1.00  0.00     0.049 A 
ATOM     58  H   UNL A   1      39.958  33.905  28.913  1.00  0.00     0.167 HD
ATOM     59  C   UNL A   1      43.410  33.462  29.166  1.00  0.00     0.074 A 
ATOM     60  C   UNL A   1      44.534  33.430  28.250  1.00  0.00     0.031 C 
ATOM     61  C   UNL A   1      42.504  34.432  29.488  1.00  0.00     0.034 A 
BRANCH  48  62
ATOM     62  C   UNL A   1      36.666  33.493  30.927  1.00  0.00     0.023 A 
ATOM     63  C   UNL A   1      35.772  34.100  30.027  1.00  0.00     0.031 A 
ATOM     64  C   UNL A   1      36.263  33.483  32.277  1.00  0.00     0.131 A 
ATOM     65  C   UNL A   1      34.610  34.748  30.479  1.00  0.00     0.055 A 
ATOM     66  C   UNL A   1      35.145  34.189  32.737  1.00  0.00     0.041 A 
ATOM     67  F   UNL A   1      36.905  32.746  33.196  1.00  0.00    -0.206 F 
ATOM     68  C   UNL A   1      34.317  34.841  31.837  1.00  0.00     0.022 A 
BRANCH  65  69
ATOM     69  S   UNL A   1      33.476  35.453  29.255  1.00  0.00     0.124 S 
ATOM     70  O   UNL A   1      32.681  34.295  28.864  1.00  0.00    -0.237 OA
ATOM     71  O   UNL A   1      32.787  36.477  30.033  1.00  0.00    -0.237 OA
ATOM     72  O   UNL A   1      34.373  35.965  28.220  1.00  0.00    -0.744 OA
ENDBRANCH  65  69
ENDBRANCH  48  62
BRANCH  49  73
ATOM     73  C   UNL A   1      44.815  28.944  28.248  1.00  0.00     0.023 A 
ATOM     74  C   UNL A   1      45.609  27.877  28.729  1.00  0.00     0.031 A 
ATOM     75  C   UNL A   1      44.182  28.782  27.010  1.00  0.00     0.131 A 
ATOM     76  C   UNL A   1      45.584  26.633  28.085  1.00  0.00     0.055 A 
ATOM     77  C   UNL A   1      44.234  27.562  26.323  1.00  0.00     0.041 A 
ATOM     78  F   UNL A   1      43.383  29.740  26.518  1.00  0.00    -0.206 F 
ATOM     79  C   UNL A   1      44.893  26.466  26.885  1.00  0.00     0.022 A 
BRANCH  76  80
ATOM     80  S   UNL A   1      46.191  25.173  28.989  1.00  0.00     0.124 S 
ATOM     81  O   UNL A   1      47.602  25.154  28.628  1.00  0.00    -0.237 OA
ATOM     82  O   UNL A   1      45.887  25.505  30.380  1.00  0.00    -0.237 OA
ATOM     83  O   UNL A   1      45.386  24.078  28.452  1.00  0.00    -0.744 OA
ENDBRANCH  76  80
ENDBRANCH  49  73
BRANCH  61  84
ATOM     84  C   UNL A   1      42.539  35.838  28.941  1.00  0.00     0.023 A 
ATOM     85  C   UNL A   1      43.176  36.886  29.621  1.00  0.00     0.031 A 
ATOM     86  C   UNL A   1      41.846  36.191  27.758  1.00  0.00     0.131 A 
ATOM     87  C   UNL A   1      43.158  38.194  29.100  1.00  0.00     0.055 A 
ATOM     88  C   UNL A   1      41.757  37.504  27.292  1.00  0.00     0.041 A 
ATOM     89  F   UNL A   1      41.263  35.271  26.977  1.00  0.00    -0.206 F 
ATOM     90  C   UNL A   1      42.425  38.517  27.958  1.00  0.00     0.022 A 
BRANCH  87  91
ATOM     91  S   UNL A   1      44.177  39.461  29.899  1.00  0.00     0.124 S 
ATOM     92  O   UNL A   1      43.534  40.700  29.477  1.00  0.00    -0.237 OA
ATOM     93  O   UNL A   1      44.025  39.115  31.310  1.00  0.00    -0.237 OA
ATOM     94  O   UNL A   1      45.510  39.232  29.347  1.00  0.00    -0.744 OA
ENDBRANCH  87  91
ENDBRANCH  61  84
ENDBRANCH  35  36
ENDBRANCH  27  30
ENDBRANCH  25  26
ENDBRANCH   1  25
TORSDOF 16
ENDMDL
