MODEL 1
REMARK VINA RESULT:      -9.4      0.000      0.000
REMARK SMILES CC(C)(C[NH2+]C[C@](C)(O)CO)C(=O)NCCCNC(=O)c1ccc(-c2c3nc(c(-c4cc(S(=O)(=O)[O-])ccc4F)c4ccc([nH]4)c(-c4cc(S(=O)(=O)[O-])ccc4F)c4nc(c(-c5cc(S(=O)(=O)[O-])ccc5F)c5ccc2[nH]5)C=C4)C=C3)cc1
REMARK SMILES IDX 12 1 13 2 14 3 2 5 1 6 3 7 4 8 5 9 6 12 7 13 8 14 9 15 10 17
REMARK SMILES IDX 11 18 15 20 16 21 17 22 18 23 19 24 20 26 21 27 22 28 83 29
REMARK SMILES IDX 23 30 82 31 24 32 25 33 26 34 76 35 27 36 81 37 75 38 77 39
REMARK SMILES IDX 28 40 80 41 74 42 73 43 29 45 61 46 41 47 60 48 42 49 45 50
REMARK SMILES IDX 59 51 78 52 43 53 44 54 58 56 79 57 46 58 30 59 31 60 39 61
REMARK SMILES IDX 32 62 38 63 40 64 37 65 33 66 34 67 35 68 36 69 62 70 63 71
REMARK SMILES IDX 71 72 64 73 70 74 72 75 69 76 65 77 66 78 67 79 68 80 47 81
REMARK SMILES IDX 48 82 56 83 49 84 55 85 57 86 54 87 50 88 51 89 52 90 53 91
REMARK H PARENT 14 4 5 10 5 11 9 16 11 19 18 25 77 44 45 55
REMARK Flexibility Score: inf
ROOT
ATOM      1  C   UNL A   1      32.414  23.870  26.426  1.00  0.00     0.231 C 
ATOM      2  O   UNL A   1      31.553  24.163  27.264  1.00  0.00    -0.274 OA
ATOM      3  N   UNL A   1      33.458  23.131  26.888  1.00  0.00    -0.355 N 
ATOM      4  H   UNL A   1      33.405  22.936  27.852  1.00  0.00     0.163 HD
ENDROOT
BRANCH   1   5
ATOM      5  C   UNL A   1      32.251  24.266  24.945  1.00  0.00     0.092 C 
ATOM      6  C   UNL A   1      30.755  24.558  24.668  1.00  0.00     0.027 C 
ATOM      7  C   UNL A   1      32.617  23.064  24.047  1.00  0.00     0.027 C 
BRANCH   5   8
ATOM      8  C   UNL A   1      33.093  25.509  24.558  1.00  0.00     0.277 C 
BRANCH   8   9
ATOM      9  N   UNL A   1      33.495  26.352  25.687  1.00  0.00    -0.343 N 
ATOM     10  H   UNL A   1      34.450  26.673  25.526  1.00  0.00     0.346 HD
ATOM     11  H   UNL A   1      33.412  25.784  26.530  1.00  0.00     0.346 HD
BRANCH   9  12
ATOM     12  C   UNL A   1      32.636  27.534  25.880  1.00  0.00     0.298 C 
BRANCH  12  13
ATOM     13  C   UNL A   1      33.203  28.914  25.439  1.00  0.00     0.133 C 
ATOM     14  C   UNL A   1      33.127  29.109  23.919  1.00  0.00     0.051 C 
BRANCH  13  15
ATOM     15  O   UNL A   1      34.581  29.059  25.833  1.00  0.00    -0.382 OA
ATOM     16  H   UNL A   1      34.625  29.338  26.762  1.00  0.00     0.211 HD
ENDBRANCH  13  15
BRANCH  13  17
ATOM     17  C   UNL A   1      32.432  30.036  26.167  1.00  0.00     0.196 C 
BRANCH  17  18
ATOM     18  O   UNL A   1      32.208  29.659  27.527  1.00  0.00    -0.393 OA
ATOM     19  H   UNL A   1      32.642  28.810  27.702  1.00  0.00     0.210 HD
ENDBRANCH  17  18
ENDBRANCH  13  17
ENDBRANCH  12  13
ENDBRANCH   9  12
ENDBRANCH   8   9
ENDBRANCH   5   8
ENDBRANCH   1   5
BRANCH   3  20
ATOM     20  C   UNL A   1      34.634  22.571  26.248  1.00  0.00     0.117 C 
BRANCH  20  21
ATOM     21  C   UNL A   1      35.830  23.515  26.302  1.00  0.00     0.042 C 
BRANCH  21  22
ATOM     22  C   UNL A   1      36.916  23.192  25.283  1.00  0.00     0.118 C 
BRANCH  22  23
ATOM     23  N   UNL A   1      37.934  22.297  25.819  1.00  0.00    -0.352 N 
ATOM     24  C   UNL A   1      39.126  22.576  26.438  1.00  0.00     0.251 C 
ATOM     25  H   UNL A   1      37.734  21.338  25.721  1.00  0.00     0.163 HD
ATOM     26  O   UNL A   1      39.941  21.668  26.605  1.00  0.00    -0.269 OA
BRANCH  24  27
ATOM     27  C   UNL A   1      39.442  23.950  26.884  1.00  0.00     0.039 A 
ATOM     28  C   UNL A   1      39.161  24.318  28.202  1.00  0.00     0.014 A 
ATOM     29  C   UNL A   1      39.995  24.884  26.004  1.00  0.00     0.014 A 
ATOM     30  C   UNL A   1      39.499  25.596  28.653  1.00  0.00     0.010 A 
ATOM     31  C   UNL A   1      40.414  26.124  26.478  1.00  0.00     0.010 A 
ATOM     32  C   UNL A   1      40.168  26.496  27.807  1.00  0.00    -0.014 A 
BRANCH  32  33
ATOM     33  C   UNL A   1      40.615  27.830  28.291  1.00  0.00     0.031 A 
ATOM     34  C   UNL A   1      42.083  28.156  28.354  1.00  0.00     0.074 A 
ATOM     35  C   UNL A   1      39.702  28.719  28.731  1.00  0.00     0.049 A 
ATOM     36  N   UNL A   1      42.674  29.225  28.825  1.00  0.00    -0.248 NA
ATOM     37  C   UNL A   1      43.012  27.132  27.848  1.00  0.00     0.031 C 
ATOM     38  C   UNL A   1      38.254  28.502  28.753  1.00  0.00     0.029 A 
ATOM     39  N   UNL A   1      39.853  29.980  29.253  1.00  0.00    -0.354 N 
ATOM     40  C   UNL A   1      44.039  28.998  28.684  1.00  0.00     0.074 A 
ATOM     41  C   UNL A   1      44.188  27.664  28.143  1.00  0.00     0.031 C 
ATOM     42  C   UNL A   1      37.650  29.599  29.235  1.00  0.00     0.029 A 
ATOM     43  C   UNL A   1      38.665  30.577  29.612  1.00  0.00     0.049 A 
ATOM     44  H   UNL A   1      40.729  30.416  29.360  1.00  0.00     0.167 HD
ATOM     45  C   UNL A   1      45.070  29.834  28.963  1.00  0.00     0.034 A 
ATOM     46  C   UNL A   1      38.423  31.768  30.196  1.00  0.00     0.034 A 
ATOM     47  C   UNL A   1      44.901  31.165  29.490  1.00  0.00     0.049 A 
ATOM     48  C   UNL A   1      39.590  32.664  30.526  1.00  0.00     0.074 A 
ATOM     49  C   UNL A   1      45.873  32.115  29.754  1.00  0.00     0.029 A 
ATOM     50  N   UNL A   1      43.685  31.734  29.844  1.00  0.00    -0.354 N 
ATOM     51  N   UNL A   1      40.874  32.455  30.337  1.00  0.00    -0.248 NA
ATOM     52  C   UNL A   1      39.278  33.963  31.137  1.00  0.00     0.031 C 
ATOM     53  C   UNL A   1      45.254  33.224  30.340  1.00  0.00     0.029 A 
ATOM     54  C   UNL A   1      43.886  33.007  30.358  1.00  0.00     0.049 A 
ATOM     55  H   UNL A   1      42.807  31.298  29.744  1.00  0.00     0.167 HD
ATOM     56  C   UNL A   1      41.515  33.610  30.775  1.00  0.00     0.074 A 
ATOM     57  C   UNL A   1      40.478  34.517  31.219  1.00  0.00     0.031 C 
ATOM     58  C   UNL A   1      42.841  33.899  30.804  1.00  0.00     0.034 A 
BRANCH  45  59
ATOM     59  C   UNL A   1      46.471  29.321  28.723  1.00  0.00     0.023 A 
ATOM     60  C   UNL A   1      46.971  29.107  27.427  1.00  0.00     0.031 A 
ATOM     61  C   UNL A   1      47.319  29.037  29.810  1.00  0.00     0.131 A 
ATOM     62  C   UNL A   1      48.253  28.564  27.250  1.00  0.00     0.055 A 
ATOM     63  C   UNL A   1      48.623  28.574  29.625  1.00  0.00     0.041 A 
ATOM     64  F   UNL A   1      46.891  29.199  31.071  1.00  0.00    -0.206 F 
ATOM     65  C   UNL A   1      49.093  28.322  28.339  1.00  0.00     0.022 A 
BRANCH  62  66
ATOM     66  S   UNL A   1      48.754  28.051  25.584  1.00  0.00     0.124 S 
ATOM     67  O   UNL A   1      47.654  28.568  24.774  1.00  0.00    -0.237 OA
ATOM     68  O   UNL A   1      50.038  28.721  25.420  1.00  0.00    -0.237 OA
ATOM     69  O   UNL A   1      48.816  26.594  25.679  1.00  0.00    -0.744 OA
ENDBRANCH  62  66
ENDBRANCH  45  59
BRANCH  46  70
ATOM     70  C   UNL A   1      37.028  32.184  30.528  1.00  0.00     0.023 A 
ATOM     71  C   UNL A   1      36.179  32.722  29.548  1.00  0.00     0.031 A 
ATOM     72  C   UNL A   1      36.541  32.104  31.846  1.00  0.00     0.131 A 
ATOM     73  C   UNL A   1      34.917  33.217  29.909  1.00  0.00     0.055 A 
ATOM     74  C   UNL A   1      35.260  32.538  32.188  1.00  0.00     0.041 A 
ATOM     75  F   UNL A   1      37.309  31.597  32.825  1.00  0.00    -0.206 F 
ATOM     76  C   UNL A   1      34.444  33.115  31.219  1.00  0.00     0.022 A 
BRANCH  73  77
ATOM     77  S   UNL A   1      33.943  34.103  28.660  1.00  0.00     0.124 S 
ATOM     78  O   UNL A   1      34.905  35.087  28.178  1.00  0.00    -0.237 OA
ATOM     79  O   UNL A   1      33.601  33.032  27.730  1.00  0.00    -0.237 OA
ATOM     80  O   UNL A   1      32.822  34.645  29.425  1.00  0.00    -0.744 OA
ENDBRANCH  73  77
ENDBRANCH  46  70
BRANCH  58  81
ATOM     81  C   UNL A   1      43.237  35.274  31.286  1.00  0.00     0.023 A 
ATOM     82  C   UNL A   1      43.253  35.607  32.652  1.00  0.00     0.031 A 
ATOM     83  C   UNL A   1      43.598  36.269  30.359  1.00  0.00     0.131 A 
ATOM     84  C   UNL A   1      43.565  36.917  33.047  1.00  0.00     0.055 A 
ATOM     85  C   UNL A   1      43.973  37.551  30.763  1.00  0.00     0.041 A 
ATOM     86  F   UNL A   1      43.596  36.009  29.042  1.00  0.00    -0.206 F 
ATOM     87  C   UNL A   1      43.945  37.885  32.113  1.00  0.00     0.022 A 
BRANCH  84  88
ATOM     88  S   UNL A   1      43.372  37.368  34.793  1.00  0.00     0.124 S 
ATOM     89  O   UNL A   1      41.974  37.032  35.039  1.00  0.00    -0.237 OA
ATOM     90  O   UNL A   1      44.358  36.513  35.447  1.00  0.00    -0.237 OA
ATOM     91  O   UNL A   1      43.680  38.797  34.814  1.00  0.00    -0.744 OA
ENDBRANCH  84  88
ENDBRANCH  58  81
ENDBRANCH  32  33
ENDBRANCH  24  27
ENDBRANCH  22  23
ENDBRANCH  21  22
ENDBRANCH  20  21
ENDBRANCH   3  20
TORSDOF 20
ENDMDL
MODEL 2
REMARK VINA RESULT:      -9.4      2.943      4.485
REMARK SMILES CC(C)(C[NH2+]C[C@](C)(O)CO)C(=O)NCCCNC(=O)c1ccc(-c2c3nc(c(-c4cc(S(=O)(=O)[O-])ccc4F)c4ccc([nH]4)c(-c4cc(S(=O)(=O)[O-])ccc4F)c4nc(c(-c5cc(S(=O)(=O)[O-])ccc5F)c5ccc2[nH]5)C=C4)C=C3)cc1
REMARK SMILES IDX 12 1 13 2 14 3 2 5 1 6 3 7 4 8 5 9 6 12 7 13 8 14 9 15 10 17
REMARK SMILES IDX 11 18 15 20 16 21 17 22 18 23 19 24 20 26 21 27 22 28 83 29
REMARK SMILES IDX 23 30 82 31 24 32 25 33 26 34 76 35 27 36 81 37 75 38 77 39
REMARK SMILES IDX 28 40 80 41 74 42 73 43 29 45 61 46 41 47 60 48 42 49 45 50
REMARK SMILES IDX 59 51 78 52 43 53 44 54 58 56 79 57 46 58 30 59 31 60 39 61
REMARK SMILES IDX 32 62 38 63 40 64 37 65 33 66 34 67 35 68 36 69 62 70 63 71
REMARK SMILES IDX 71 72 64 73 70 74 72 75 69 76 65 77 66 78 67 79 68 80 47 81
REMARK SMILES IDX 48 82 56 83 49 84 55 85 57 86 54 87 50 88 51 89 52 90 53 91
REMARK H PARENT 14 4 5 10 5 11 9 16 11 19 18 25 77 44 45 55
REMARK Flexibility Score: inf
ROOT
ATOM      1  C   UNL A   1      34.502  22.284  26.573  1.00  0.00     0.231 C 
ATOM      2  O   UNL A   1      34.228  22.486  27.762  1.00  0.00    -0.274 OA
ATOM      3  N   UNL A   1      35.807  22.003  26.309  1.00  0.00    -0.355 N 
ATOM      4  H   UNL A   1      36.381  22.016  27.108  1.00  0.00     0.163 HD
ENDROOT
BRANCH   1   5
ATOM      5  C   UNL A   1      33.404  22.282  25.492  1.00  0.00     0.092 C 
ATOM      6  C   UNL A   1      33.602  23.517  24.577  1.00  0.00     0.027 C 
ATOM      7  C   UNL A   1      32.024  22.473  26.159  1.00  0.00     0.027 C 
BRANCH   5   8
ATOM      8  C   UNL A   1      33.414  20.997  24.625  1.00  0.00     0.277 C 
BRANCH   8   9
ATOM      9  N   UNL A   1      33.612  19.753  25.375  1.00  0.00    -0.343 N 
ATOM     10  H   UNL A   1      32.736  19.514  25.840  1.00  0.00     0.346 HD
ATOM     11  H   UNL A   1      34.371  19.920  26.036  1.00  0.00     0.346 HD
BRANCH   9  12
ATOM     12  C   UNL A   1      34.018  18.612  24.535  1.00  0.00     0.298 C 
BRANCH  12  13
ATOM     13  C   UNL A   1      32.891  17.706  23.962  1.00  0.00     0.133 C 
ATOM     14  C   UNL A   1      32.329  18.250  22.642  1.00  0.00     0.051 C 
BRANCH  13  15
ATOM     15  O   UNL A   1      31.796  17.589  24.892  1.00  0.00    -0.382 OA
ATOM     16  H   UNL A   1      32.079  17.898  25.767  1.00  0.00     0.211 HD
ENDBRANCH  13  15
BRANCH  13  17
ATOM     17  C   UNL A   1      33.438  16.276  23.768  1.00  0.00     0.196 C 
BRANCH  17  18
ATOM     18  O   UNL A   1      34.402  16.271  22.711  1.00  0.00    -0.393 OA
ATOM     19  H   UNL A   1      34.933  15.461  22.763  1.00  0.00     0.210 HD
ENDBRANCH  17  18
ENDBRANCH  13  17
ENDBRANCH  12  13
ENDBRANCH   9  12
ENDBRANCH   8   9
ENDBRANCH   5   8
ENDBRANCH   1   5
BRANCH   3  20
ATOM     20  C   UNL A   1      36.523  21.687  25.087  1.00  0.00     0.117 C 
BRANCH  20  21
ATOM     21  C   UNL A   1      37.693  20.741  25.327  1.00  0.00     0.042 C 
BRANCH  21  22
ATOM     22  C   UNL A   1      38.980  21.444  25.742  1.00  0.00     0.118 C 
BRANCH  22  23
ATOM     23  N   UNL A   1      39.973  20.519  26.272  1.00  0.00    -0.352 N 
ATOM     24  C   UNL A   1      41.223  20.755  26.786  1.00  0.00     0.251 C 
ATOM     25  H   UNL A   1      39.704  19.572  26.259  1.00  0.00     0.163 HD
ATOM     26  O   UNL A   1      41.986  19.805  26.963  1.00  0.00    -0.269 OA
BRANCH  24  27
ATOM     27  C   UNL A   1      41.661  22.130  27.106  1.00  0.00     0.039 A 
ATOM     28  C   UNL A   1      41.807  23.055  26.069  1.00  0.00     0.014 A 
ATOM     29  C   UNL A   1      41.949  22.507  28.420  1.00  0.00     0.014 A 
ATOM     30  C   UNL A   1      42.171  24.372  26.360  1.00  0.00     0.010 A 
ATOM     31  C   UNL A   1      42.224  23.839  28.718  1.00  0.00     0.010 A 
ATOM     32  C   UNL A   1      42.341  24.787  27.691  1.00  0.00    -0.014 A 
BRANCH  32  33
ATOM     33  C   UNL A   1      42.644  26.202  28.030  1.00  0.00     0.031 A 
ATOM     34  C   UNL A   1      44.053  26.722  27.912  1.00  0.00     0.074 A 
ATOM     35  C   UNL A   1      41.665  26.999  28.504  1.00  0.00     0.049 A 
ATOM     36  N   UNL A   1      44.533  27.894  28.240  1.00  0.00    -0.248 NA
ATOM     37  C   UNL A   1      45.060  25.790  27.380  1.00  0.00     0.031 C 
ATOM     38  C   UNL A   1      40.270  26.597  28.696  1.00  0.00     0.029 A 
ATOM     39  N   UNL A   1      41.690  28.307  28.918  1.00  0.00    -0.354 N 
ATOM     40  C   UNL A   1      45.896  27.837  27.970  1.00  0.00     0.074 A 
ATOM     41  C   UNL A   1      46.174  26.493  27.508  1.00  0.00     0.031 C 
ATOM     42  C   UNL A   1      39.570  27.642  29.165  1.00  0.00     0.029 A 
ATOM     43  C   UNL A   1      40.472  28.772  29.361  1.00  0.00     0.049 A 
ATOM     44  H   UNL A   1      42.503  28.862  28.900  1.00  0.00     0.167 HD
ATOM     45  C   UNL A   1      46.824  28.820  28.076  1.00  0.00     0.034 A 
ATOM     46  C   UNL A   1      40.125  29.965  29.884  1.00  0.00     0.034 A 
ATOM     47  C   UNL A   1      46.525  30.157  28.526  1.00  0.00     0.049 A 
ATOM     48  C   UNL A   1      41.184  31.031  30.024  1.00  0.00     0.074 A 
ATOM     49  C   UNL A   1      47.377  31.244  28.617  1.00  0.00     0.029 A 
ATOM     50  N   UNL A   1      45.282  30.589  28.969  1.00  0.00    -0.354 N 
ATOM     51  N   UNL A   1      42.460  30.976  29.712  1.00  0.00    -0.248 NA
ATOM     52  C   UNL A   1      40.756  32.324  30.574  1.00  0.00     0.031 C 
ATOM     53  C   UNL A   1      46.670  32.308  29.189  1.00  0.00     0.029 A 
ATOM     54  C   UNL A   1      45.354  31.916  29.370  1.00  0.00     0.049 A 
ATOM     55  H   UNL A   1      44.467  30.036  28.995  1.00  0.00     0.167 HD
ATOM     56  C   UNL A   1      42.975  32.237  29.997  1.00  0.00     0.074 A 
ATOM     57  C   UNL A   1      41.870  33.035  30.487  1.00  0.00     0.031 C 
ATOM     58  C   UNL A   1      44.245  32.698  29.863  1.00  0.00     0.034 A 
BRANCH  45  59
ATOM     59  C   UNL A   1      48.252  28.476  27.723  1.00  0.00     0.023 A 
ATOM     60  C   UNL A   1      48.711  28.489  26.395  1.00  0.00     0.031 A 
ATOM     61  C   UNL A   1      49.169  28.126  28.731  1.00  0.00     0.131 A 
ATOM     62  C   UNL A   1      50.026  28.096  26.103  1.00  0.00     0.055 A 
ATOM     63  C   UNL A   1      50.499  27.815  28.442  1.00  0.00     0.041 A 
ATOM     64  F   UNL A   1      48.785  28.073  30.016  1.00  0.00    -0.206 F 
ATOM     65  C   UNL A   1      50.932  27.785  27.119  1.00  0.00     0.022 A 
BRANCH  62  66
ATOM     66  S   UNL A   1      50.496  27.864  24.366  1.00  0.00     0.124 S 
ATOM     67  O   UNL A   1      51.311  29.052  24.120  1.00  0.00    -0.237 OA
ATOM     68  O   UNL A   1      51.211  26.594  24.399  1.00  0.00    -0.237 OA
ATOM     69  O   UNL A   1      49.214  27.841  23.665  1.00  0.00    -0.744 OA
ENDBRANCH  62  66
ENDBRANCH  45  59
BRANCH  46  70
ATOM     70  C   UNL A   1      38.726  30.222  30.335  1.00  0.00     0.023 A 
ATOM     71  C   UNL A   1      37.849  31.008  29.570  1.00  0.00     0.031 A 
ATOM     72  C   UNL A   1      38.260  29.733  31.570  1.00  0.00     0.131 A 
ATOM     73  C   UNL A   1      36.581  31.334  30.072  1.00  0.00     0.055 A 
ATOM     74  C   UNL A   1      36.973  30.006  32.036  1.00  0.00     0.041 A 
ATOM     75  F   UNL A   1      39.054  28.975  32.344  1.00  0.00    -0.206 F 
ATOM     76  C   UNL A   1      36.130  30.827  31.292  1.00  0.00     0.022 A 
BRANCH  73  77
ATOM     77  S   UNL A   1      35.567  32.529  29.157  1.00  0.00     0.124 S 
ATOM     78  O   UNL A   1      34.268  32.367  29.799  1.00  0.00    -0.237 OA
ATOM     79  O   UNL A   1      36.263  33.783  29.426  1.00  0.00    -0.237 OA
ATOM     80  O   UNL A   1      35.647  32.057  27.777  1.00  0.00    -0.744 OA
ENDBRANCH  73  77
ENDBRANCH  46  70
BRANCH  58  81
ATOM     81  C   UNL A   1      44.491  34.148  30.203  1.00  0.00     0.023 A 
ATOM     82  C   UNL A   1      44.181  35.185  29.305  1.00  0.00     0.031 A 
ATOM     83  C   UNL A   1      45.052  34.496  31.445  1.00  0.00     0.131 A 
ATOM     84  C   UNL A   1      44.488  36.513  29.640  1.00  0.00     0.055 A 
ATOM     85  C   UNL A   1      45.291  35.824  31.800  1.00  0.00     0.041 A 
ATOM     86  F   UNL A   1      45.372  33.548  32.340  1.00  0.00    -0.206 F 
ATOM     87  C   UNL A   1      45.021  36.841  30.889  1.00  0.00     0.022 A 
BRANCH  84  88
ATOM     88  S   UNL A   1      44.270  37.800  28.380  1.00  0.00     0.124 S 
ATOM     89  O   UNL A   1      43.975  38.974  29.195  1.00  0.00    -0.237 OA
ATOM     90  O   UNL A   1      45.564  37.800  27.706  1.00  0.00    -0.237 OA
ATOM     91  O   UNL A   1      43.153  37.307  27.576  1.00  0.00    -0.744 OA
ENDBRANCH  84  88
ENDBRANCH  58  81
ENDBRANCH  32  33
ENDBRANCH  24  27
ENDBRANCH  22  23
ENDBRANCH  21  22
ENDBRANCH  20  21
ENDBRANCH   3  20
TORSDOF 20
ENDMDL
MODEL 3
REMARK VINA RESULT:      -9.2      7.830     13.556
REMARK SMILES CC(C)(C[NH2+]C[C@](C)(O)CO)C(=O)NCCCNC(=O)c1ccc(-c2c3nc(c(-c4cc(S(=O)(=O)[O-])ccc4F)c4ccc([nH]4)c(-c4cc(S(=O)(=O)[O-])ccc4F)c4nc(c(-c5cc(S(=O)(=O)[O-])ccc5F)c5ccc2[nH]5)C=C4)C=C3)cc1
REMARK SMILES IDX 12 1 13 2 14 3 2 5 1 6 3 7 4 8 5 9 6 12 7 13 8 14 9 15 10 17
REMARK SMILES IDX 11 18 15 20 16 21 17 22 18 23 19 24 20 26 21 27 22 28 83 29
REMARK SMILES IDX 23 30 82 31 24 32 25 33 26 34 76 35 27 36 81 37 75 38 77 39
REMARK SMILES IDX 28 40 80 41 74 42 73 43 29 45 61 46 41 47 60 48 42 49 45 50
REMARK SMILES IDX 59 51 78 52 43 53 44 54 58 56 79 57 46 58 30 59 31 60 39 61
REMARK SMILES IDX 32 62 38 63 40 64 37 65 33 66 34 67 35 68 36 69 62 70 63 71
REMARK SMILES IDX 71 72 64 73 70 74 72 75 69 76 65 77 66 78 67 79 68 80 47 81
REMARK SMILES IDX 48 82 56 83 49 84 55 85 57 86 54 87 50 88 51 89 52 90 53 91
REMARK H PARENT 14 4 5 10 5 11 9 16 11 19 18 25 77 44 45 55
REMARK Flexibility Score: inf
ROOT
ATOM      1  C   UNL A   1      46.065  21.344  39.391  1.00  0.00     0.231 C 
ATOM      2  O   UNL A   1      45.458  21.846  40.344  1.00  0.00    -0.274 OA
ATOM      3  N   UNL A   1      45.986  22.027  38.217  1.00  0.00    -0.355 N 
ATOM      4  H   UNL A   1      45.430  22.837  38.271  1.00  0.00     0.163 HD
ENDROOT
BRANCH   1   5
ATOM      5  C   UNL A   1      46.911  20.068  39.568  1.00  0.00     0.092 C 
ATOM      6  C   UNL A   1      48.405  20.429  39.377  1.00  0.00     0.027 C 
ATOM      7  C   UNL A   1      46.574  19.065  38.443  1.00  0.00     0.027 C 
BRANCH   5   8
ATOM      8  C   UNL A   1      46.720  19.407  40.958  1.00  0.00     0.277 C 
BRANCH   8   9
ATOM      9  N   UNL A   1      45.442  18.709  41.133  1.00  0.00    -0.343 N 
ATOM     10  H   UNL A   1      45.347  18.018  40.390  1.00  0.00     0.346 HD
ATOM     11  H   UNL A   1      44.708  19.417  41.103  1.00  0.00     0.346 HD
BRANCH   9  12
ATOM     12  C   UNL A   1      45.318  18.017  42.429  1.00  0.00     0.298 C 
BRANCH  12  13
ATOM     13  C   UNL A   1      44.509  18.731  43.549  1.00  0.00     0.133 C 
ATOM     14  C   UNL A   1      44.504  17.928  44.857  1.00  0.00     0.051 C 
BRANCH  13  15
ATOM     15  O   UNL A   1      43.139  18.935  43.152  1.00  0.00    -0.382 OA
ATOM     16  H   UNL A   1      42.693  19.499  43.803  1.00  0.00     0.211 HD
ENDBRANCH  13  15
BRANCH  13  17
ATOM     17  C   UNL A   1      45.098  20.139  43.783  1.00  0.00     0.196 C 
BRANCH  17  18
ATOM     18  O   UNL A   1      44.395  21.091  42.981  1.00  0.00    -0.393 OA
ATOM     19  H   UNL A   1      44.224  21.890  43.504  1.00  0.00     0.210 HD
ENDBRANCH  17  18
ENDBRANCH  13  17
ENDBRANCH  12  13
ENDBRANCH   9  12
ENDBRANCH   8   9
ENDBRANCH   5   8
ENDBRANCH   1   5
BRANCH   3  20
ATOM     20  C   UNL A   1      46.557  21.803  36.901  1.00  0.00     0.117 C 
BRANCH  20  21
ATOM     21  C   UNL A   1      46.035  22.791  35.866  1.00  0.00     0.042 C 
BRANCH  21  22
ATOM     22  C   UNL A   1      47.118  23.669  35.250  1.00  0.00     0.118 C 
BRANCH  22  23
ATOM     23  N   UNL A   1      47.664  24.629  36.200  1.00  0.00    -0.352 N 
ATOM     24  C   UNL A   1      47.407  25.967  36.358  1.00  0.00     0.251 C 
ATOM     25  H   UNL A   1      48.322  24.258  36.832  1.00  0.00     0.163 HD
ATOM     26  O   UNL A   1      48.150  26.639  37.075  1.00  0.00    -0.269 OA
BRANCH  24  27
ATOM     27  C   UNL A   1      46.266  26.605  35.666  1.00  0.00     0.039 A 
ATOM     28  C   UNL A   1      46.515  27.630  34.750  1.00  0.00     0.014 A 
ATOM     29  C   UNL A   1      44.952  26.213  35.931  1.00  0.00     0.014 A 
ATOM     30  C   UNL A   1      45.454  28.209  34.050  1.00  0.00     0.010 A 
ATOM     31  C   UNL A   1      43.906  26.726  35.169  1.00  0.00     0.010 A 
ATOM     32  C   UNL A   1      44.144  27.733  34.222  1.00  0.00    -0.014 A 
BRANCH  32  33
ATOM     33  C   UNL A   1      43.011  28.274  33.426  1.00  0.00     0.031 A 
ATOM     34  C   UNL A   1      42.002  29.186  34.072  1.00  0.00     0.074 A 
ATOM     35  C   UNL A   1      42.857  27.893  32.141  1.00  0.00     0.049 A 
ATOM     36  N   UNL A   1      40.902  29.689  33.572  1.00  0.00    -0.248 NA
ATOM     37  C   UNL A   1      42.248  29.557  35.474  1.00  0.00     0.031 C 
ATOM     38  C   UNL A   1      43.749  26.985  31.417  1.00  0.00     0.029 A 
ATOM     39  N   UNL A   1      41.893  28.212  31.217  1.00  0.00    -0.354 N 
ATOM     40  C   UNL A   1      40.319  30.424  34.600  1.00  0.00     0.074 A 
ATOM     41  C   UNL A   1      41.156  30.247  35.767  1.00  0.00     0.031 C 
ATOM     42  C   UNL A   1      43.307  26.842  30.158  1.00  0.00     0.029 A 
ATOM     43  C   UNL A   1      42.070  27.598  29.997  1.00  0.00     0.049 A 
ATOM     44  H   UNL A   1      41.145  28.822  31.409  1.00  0.00     0.167 HD
ATOM     45  C   UNL A   1      39.200  31.190  34.565  1.00  0.00     0.034 A 
ATOM     46  C   UNL A   1      41.312  27.627  28.882  1.00  0.00     0.034 A 
ATOM     47  C   UNL A   1      38.386  31.364  33.388  1.00  0.00     0.049 A 
ATOM     48  C   UNL A   1      40.055  28.460  28.882  1.00  0.00     0.074 A 
ATOM     49  C   UNL A   1      37.265  32.161  33.228  1.00  0.00     0.029 A 
ATOM     50  N   UNL A   1      38.594  30.724  32.173  1.00  0.00    -0.354 N 
ATOM     51  N   UNL A   1      39.546  29.192  29.848  1.00  0.00    -0.248 NA
ATOM     52  C   UNL A   1      39.274  28.482  27.637  1.00  0.00     0.031 C 
ATOM     53  C   UNL A   1      36.753  31.944  31.944  1.00  0.00     0.029 A 
ATOM     54  C   UNL A   1      37.602  31.082  31.271  1.00  0.00     0.049 A 
ATOM     55  H   UNL A   1      39.337  30.108  31.979  1.00  0.00     0.167 HD
ATOM     56  C   UNL A   1      38.407  29.786  29.313  1.00  0.00     0.074 A 
ATOM     57  C   UNL A   1      38.313  29.343  27.938  1.00  0.00     0.031 C 
ATOM     58  C   UNL A   1      37.518  30.626  29.903  1.00  0.00     0.034 A 
BRANCH  45  59
ATOM     59  C   UNL A   1      38.782  31.877  35.844  1.00  0.00     0.023 A 
ATOM     60  C   UNL A   1      38.112  31.189  36.870  1.00  0.00     0.031 A 
ATOM     61  C   UNL A   1      39.056  33.243  36.039  1.00  0.00     0.131 A 
ATOM     62  C   UNL A   1      37.679  31.881  38.013  1.00  0.00     0.055 A 
ATOM     63  C   UNL A   1      38.695  33.907  37.213  1.00  0.00     0.041 A 
ATOM     64  F   UNL A   1      39.673  33.959  35.086  1.00  0.00    -0.206 F 
ATOM     65  C   UNL A   1      37.991  33.229  38.204  1.00  0.00     0.022 A 
BRANCH  62  66
ATOM     66  S   UNL A   1      36.586  31.027  39.181  1.00  0.00     0.124 S 
ATOM     67  O   UNL A   1      35.456  31.950  39.255  1.00  0.00    -0.237 OA
ATOM     68  O   UNL A   1      36.332  29.760  38.506  1.00  0.00    -0.237 OA
ATOM     69  O   UNL A   1      37.389  30.937  40.398  1.00  0.00    -0.744 OA
ENDBRANCH  62  66
ENDBRANCH  45  59
BRANCH  46  70
ATOM     70  C   UNL A   1      41.699  26.833  27.678  1.00  0.00     0.023 A 
ATOM     71  C   UNL A   1      41.427  25.458  27.598  1.00  0.00     0.031 A 
ATOM     72  C   UNL A   1      42.400  27.426  26.613  1.00  0.00     0.131 A 
ATOM     73  C   UNL A   1      41.906  24.711  26.512  1.00  0.00     0.055 A 
ATOM     74  C   UNL A   1      42.819  26.691  25.503  1.00  0.00     0.041 A 
ATOM     75  F   UNL A   1      42.687  28.739  26.634  1.00  0.00    -0.206 F 
ATOM     76  C   UNL A   1      42.587  25.320  25.456  1.00  0.00     0.022 A 
BRANCH  73  77
ATOM     77  S   UNL A   1      41.727  22.906  26.554  1.00  0.00     0.124 S 
ATOM     78  O   UNL A   1      42.361  22.575  27.825  1.00  0.00    -0.237 OA
ATOM     79  O   UNL A   1      40.277  22.746  26.500  1.00  0.00    -0.237 OA
ATOM     80  O   UNL A   1      42.446  22.464  25.361  1.00  0.00    -0.744 OA
ENDBRANCH  73  77
ENDBRANCH  46  70
BRANCH  58  81
ATOM     81  C   UNL A   1      36.399  31.161  29.042  1.00  0.00     0.023 A 
ATOM     82  C   UNL A   1      35.355  30.337  28.584  1.00  0.00     0.031 A 
ATOM     83  C   UNL A   1      36.382  32.517  28.670  1.00  0.00     0.131 A 
ATOM     84  C   UNL A   1      34.372  30.865  27.733  1.00  0.00     0.055 A 
ATOM     85  C   UNL A   1      35.364  33.051  27.879  1.00  0.00     0.041 A 
ATOM     86  F   UNL A   1      37.354  33.350  29.074  1.00  0.00    -0.206 F 
ATOM     87  C   UNL A   1      34.358  32.220  27.394  1.00  0.00     0.022 A 
BRANCH  84  88
ATOM     88  S   UNL A   1      33.164  29.732  26.992  1.00  0.00     0.124 S 
ATOM     89  O   UNL A   1      33.413  28.499  27.732  1.00  0.00    -0.237 OA
ATOM     90  O   UNL A   1      31.897  30.399  27.273  1.00  0.00    -0.237 OA
ATOM     91  O   UNL A   1      33.547  29.697  25.581  1.00  0.00    -0.744 OA
ENDBRANCH  84  88
ENDBRANCH  58  81
ENDBRANCH  32  33
ENDBRANCH  24  27
ENDBRANCH  22  23
ENDBRANCH  21  22
ENDBRANCH  20  21
ENDBRANCH   3  20
TORSDOF 20
ENDMDL
