MODEL 1
REMARK VINA RESULT:     -12.5      0.000      0.000
REMARK SMILES CC(C)n1ccc(C[C@@H](C(=O)NCCCNC(=O)c2ccc(-c3c4nc(c(-c5cc(S(=O)(=O)[O-])ccc5F)c5ccc([nH]5)c(-c5cc(S(=O)(=O)[O-])ccc5F)c5nc(c(-c6cc(S(=O)(=O)[O-])ccc6F)c6ccc3[nH]6)C=C5)C=C4)cc2)c2cccc(Cl)c2)n1
REMARK SMILES IDX 14 1 13 2 12 3 10 4 11 5 9 7 8 8 7 9 4 10 5 11 89 12 6 13
REMARK SMILES IDX 2 14 1 15 3 16 82 17 83 18 88 19 84 20 86 21 85 22 87 23
REMARK SMILES IDX 15 24 16 25 17 26 18 28 19 29 20 30 81 31 21 32 80 33 22 34
REMARK SMILES IDX 23 35 24 36 74 37 25 38 79 39 73 40 75 41 26 42 78 43 72 44
REMARK SMILES IDX 71 45 27 47 59 48 39 49 58 50 40 51 43 52 57 53 76 54 41 55
REMARK SMILES IDX 42 56 56 58 77 59 44 60 28 61 29 62 37 63 30 64 36 65 38 66
REMARK SMILES IDX 35 67 31 68 32 69 33 70 34 71 60 72 61 73 69 74 62 75 68 76
REMARK SMILES IDX 70 77 67 78 63 79 64 80 65 81 66 82 45 83 46 84 54 85 47 86
REMARK SMILES IDX 53 87 55 88 52 89 48 90 49 91 50 92 51 93
REMARK H PARENT 12 6 16 27 75 46 43 57
REMARK Flexibility Score: inf
ROOT
ATOM      1  C   UNL A   1      34.028  29.434  26.727  1.00  0.00     0.042 C 
ENDROOT
BRANCH   1   2
ATOM      2  C   UNL A   1      33.712  28.232  25.841  1.00  0.00     0.117 C 
BRANCH   2   3
ATOM      3  N   UNL A   1      32.867  27.275  26.544  1.00  0.00    -0.355 N 
ATOM      4  C   UNL A   1      31.849  26.515  26.031  1.00  0.00     0.227 C 
ATOM      5  O   UNL A   1      30.900  26.270  26.778  1.00  0.00    -0.274 OA
ATOM      6  H   UNL A   1      33.050  27.161  27.505  1.00  0.00     0.163 HD
BRANCH   4   7
ATOM      7  C   UNL A   1      31.932  25.952  24.603  1.00  0.00     0.114 C 
BRANCH   7   8
ATOM      8  C   UNL A   1      30.568  26.077  23.886  1.00  0.00     0.076 C 
BRANCH   8   9
ATOM      9  C   UNL A   1      30.242  27.387  23.247  1.00  0.00     0.064 A 
ATOM     10  N   UNL A   1      29.124  29.077  22.594  1.00  0.00    -0.270 N 
ATOM     11  C   UNL A   1      30.423  29.373  22.283  1.00  0.00     0.109 A 
ATOM     12  N   UNL A   1      28.989  27.872  23.208  1.00  0.00    -0.178 NA
ATOM     13  C   UNL A   1      31.171  28.298  22.690  1.00  0.00     0.045 A 
BRANCH  10  14
ATOM     14  C   UNL A   1      27.957  29.924  22.354  1.00  0.00     0.101 C 
ATOM     15  C   UNL A   1      27.728  30.870  23.532  1.00  0.00     0.033 C 
ATOM     16  C   UNL A   1      28.048  30.718  21.045  1.00  0.00     0.033 C 
ENDBRANCH  10  14
ENDBRANCH   8   9
ENDBRANCH   7   8
BRANCH   7  17
ATOM     17  C   UNL A   1      32.338  24.453  24.559  1.00  0.00    -0.034 A 
ATOM     18  C   UNL A   1      33.290  23.981  25.487  1.00  0.00     0.004 A 
ATOM     19  C   UNL A   1      31.893  23.551  23.574  1.00  0.00     0.025 A 
ATOM     20  C   UNL A   1      33.831  22.695  25.385  1.00  0.00     0.002 A 
ATOM     21  C   UNL A   1      32.429  22.262  23.483  1.00  0.00     0.041 A 
ATOM     22  C   UNL A   1      33.410  21.838  24.373  1.00  0.00     0.020 A 
ATOM     23  Cl  UNL A   1      31.901  21.196  22.238  1.00  0.00    -0.084 Cl
ENDBRANCH   7  17
ENDBRANCH   4   7
ENDBRANCH   2   3
ENDBRANCH   1   2
BRANCH   1  24
ATOM     24  C   UNL A   1      35.305  29.309  27.523  1.00  0.00     0.118 C 
BRANCH  24  25
ATOM     25  N   UNL A   1      35.405  30.140  28.719  1.00  0.00    -0.352 N 
ATOM     26  C   UNL A   1      36.415  30.191  29.675  1.00  0.00     0.251 C 
ATOM     27  H   UNL A   1      34.650  30.754  28.870  1.00  0.00     0.163 HD
ATOM     28  O   UNL A   1      36.239  30.878  30.685  1.00  0.00    -0.269 OA
BRANCH  26  29
ATOM     29  C   UNL A   1      37.673  29.409  29.522  1.00  0.00     0.039 A 
ATOM     30  C   UNL A   1      37.943  28.211  30.194  1.00  0.00     0.014 A 
ATOM     31  C   UNL A   1      38.647  29.873  28.670  1.00  0.00     0.014 A 
ATOM     32  C   UNL A   1      39.216  27.631  30.047  1.00  0.00     0.010 A 
ATOM     33  C   UNL A   1      39.527  28.994  28.140  1.00  0.00     0.010 A 
ATOM     34  C   UNL A   1      40.053  28.116  29.044  1.00  0.00    -0.014 A 
BRANCH  34  35
ATOM     35  C   UNL A   1      41.450  27.776  28.821  1.00  0.00     0.031 A 
ATOM     36  C   UNL A   1      41.664  26.547  28.039  1.00  0.00     0.074 A 
ATOM     37  C   UNL A   1      42.455  28.680  28.948  1.00  0.00     0.049 A 
ATOM     38  N   UNL A   1      42.074  25.403  28.466  1.00  0.00    -0.248 NA
ATOM     39  C   UNL A   1      41.202  26.537  26.643  1.00  0.00     0.031 C 
ATOM     40  C   UNL A   1      42.373  30.107  29.292  1.00  0.00     0.029 A 
ATOM     41  N   UNL A   1      43.779  28.522  28.668  1.00  0.00    -0.354 N 
ATOM     42  C   UNL A   1      42.136  24.589  27.342  1.00  0.00     0.074 A 
ATOM     43  C   UNL A   1      41.341  25.247  26.343  1.00  0.00     0.031 C 
ATOM     44  C   UNL A   1      43.552  30.714  29.013  1.00  0.00     0.029 A 
ATOM     45  C   UNL A   1      44.517  29.702  28.616  1.00  0.00     0.049 A 
ATOM     46  H   UNL A   1      44.185  27.639  28.514  1.00  0.00     0.167 HD
ATOM     47  C   UNL A   1      43.036  23.572  27.248  1.00  0.00     0.034 A 
ATOM     48  C   UNL A   1      45.819  29.838  28.245  1.00  0.00     0.034 A 
ATOM     49  C   UNL A   1      43.687  23.350  28.524  1.00  0.00     0.049 A 
ATOM     50  C   UNL A   1      46.444  28.497  28.377  1.00  0.00     0.074 A 
ATOM     51  C   UNL A   1      43.242  23.018  29.789  1.00  0.00     0.029 A 
ATOM     52  N   UNL A   1      44.943  23.888  28.705  1.00  0.00    -0.354 N 
ATOM     53  N   UNL A   1      46.579  27.877  29.519  1.00  0.00    -0.248 NA
ATOM     54  C   UNL A   1      46.478  27.632  27.206  1.00  0.00     0.031 C 
ATOM     55  C   UNL A   1      44.021  23.822  30.676  1.00  0.00     0.029 A 
ATOM     56  C   UNL A   1      44.950  24.539  29.918  1.00  0.00     0.049 A 
ATOM     57  H   UNL A   1      45.700  23.818  28.079  1.00  0.00     0.167 HD
ATOM     58  C   UNL A   1      46.271  26.551  29.251  1.00  0.00     0.074 A 
ATOM     59  C   UNL A   1      46.338  26.439  27.795  1.00  0.00     0.031 C 
ATOM     60  C   UNL A   1      45.709  25.748  30.204  1.00  0.00     0.034 A 
BRANCH  47  61
ATOM     61  C   UNL A   1      43.574  22.984  25.961  1.00  0.00     0.023 A 
ATOM     62  C   UNL A   1      43.664  21.580  25.892  1.00  0.00     0.031 A 
ATOM     63  C   UNL A   1      44.197  23.684  24.903  1.00  0.00     0.131 A 
ATOM     64  C   UNL A   1      44.401  20.947  24.875  1.00  0.00     0.055 A 
ATOM     65  C   UNL A   1      44.867  23.047  23.854  1.00  0.00     0.041 A 
ATOM     66  F   UNL A   1      44.282  25.017  24.858  1.00  0.00    -0.206 F 
ATOM     67  C   UNL A   1      44.998  21.672  23.850  1.00  0.00     0.022 A 
BRANCH  64  68
ATOM     68  S   UNL A   1      44.705  19.169  25.017  1.00  0.00     0.124 S 
ATOM     69  O   UNL A   1      43.622  18.751  25.901  1.00  0.00    -0.237 OA
ATOM     70  O   UNL A   1      44.607  18.737  23.627  1.00  0.00    -0.237 OA
ATOM     71  O   UNL A   1      46.044  19.102  25.598  1.00  0.00    -0.744 OA
ENDBRANCH  64  68
ENDBRANCH  47  61
BRANCH  48  72
ATOM     72  C   UNL A   1      46.443  30.975  27.515  1.00  0.00     0.023 A 
ATOM     73  C   UNL A   1      45.695  31.973  26.854  1.00  0.00     0.031 A 
ATOM     74  C   UNL A   1      47.828  31.214  27.662  1.00  0.00     0.131 A 
ATOM     75  C   UNL A   1      46.336  33.142  26.375  1.00  0.00     0.055 A 
ATOM     76  C   UNL A   1      48.455  32.366  27.183  1.00  0.00     0.041 A 
ATOM     77  F   UNL A   1      48.603  30.368  28.358  1.00  0.00    -0.206 F 
ATOM     78  C   UNL A   1      47.709  33.341  26.543  1.00  0.00     0.022 A 
BRANCH  75  79
ATOM     79  S   UNL A   1      45.362  34.476  25.602  1.00  0.00     0.124 S 
ATOM     80  O   UNL A   1      44.308  34.702  26.583  1.00  0.00    -0.237 OA
ATOM     81  O   UNL A   1      46.350  35.539  25.453  1.00  0.00    -0.237 OA
ATOM     82  O   UNL A   1      44.910  33.884  24.341  1.00  0.00    -0.744 OA
ENDBRANCH  75  79
ENDBRANCH  48  72
BRANCH  60  83
ATOM     83  C   UNL A   1      45.672  26.258  31.637  1.00  0.00     0.023 A 
ATOM     84  C   UNL A   1      44.555  26.883  32.241  1.00  0.00     0.031 A 
ATOM     85  C   UNL A   1      46.778  25.979  32.459  1.00  0.00     0.131 A 
ATOM     86  C   UNL A   1      44.579  27.212  33.612  1.00  0.00     0.055 A 
ATOM     87  C   UNL A   1      46.790  26.285  33.821  1.00  0.00     0.041 A 
ATOM     88  F   UNL A   1      47.860  25.361  31.958  1.00  0.00    -0.206 F 
ATOM     89  C   UNL A   1      45.691  26.909  34.402  1.00  0.00     0.022 A 
BRANCH  86  90
ATOM     90  S   UNL A   1      43.158  28.047  34.392  1.00  0.00     0.124 S 
ATOM     91  O   UNL A   1      42.566  28.809  33.299  1.00  0.00    -0.237 OA
ATOM     92  O   UNL A   1      42.368  26.927  34.896  1.00  0.00    -0.237 OA
ATOM     93  O   UNL A   1      43.778  28.867  35.437  1.00  0.00    -0.744 OA
ENDBRANCH  86  90
ENDBRANCH  60  83
ENDBRANCH  34  35
ENDBRANCH  26  29
ENDBRANCH  24  25
ENDBRANCH   1  24
TORSDOF 17
ENDMDL
MODEL 2
REMARK VINA RESULT:     -12.5      2.987      7.853
REMARK SMILES CC(C)n1ccc(C[C@@H](C(=O)NCCCNC(=O)c2ccc(-c3c4nc(c(-c5cc(S(=O)(=O)[O-])ccc5F)c5ccc([nH]5)c(-c5cc(S(=O)(=O)[O-])ccc5F)c5nc(c(-c6cc(S(=O)(=O)[O-])ccc6F)c6ccc3[nH]6)C=C5)C=C4)cc2)c2cccc(Cl)c2)n1
REMARK SMILES IDX 14 1 13 2 12 3 10 4 11 5 9 7 8 8 7 9 4 10 5 11 89 12 6 13
REMARK SMILES IDX 2 14 1 15 3 16 82 17 83 18 88 19 84 20 86 21 85 22 87 23
REMARK SMILES IDX 15 24 16 25 17 26 18 28 19 29 20 30 81 31 21 32 80 33 22 34
REMARK SMILES IDX 23 35 24 36 74 37 25 38 79 39 73 40 75 41 26 42 78 43 72 44
REMARK SMILES IDX 71 45 27 47 59 48 39 49 58 50 40 51 43 52 57 53 76 54 41 55
REMARK SMILES IDX 42 56 56 58 77 59 44 60 28 61 29 62 37 63 30 64 36 65 38 66
REMARK SMILES IDX 35 67 31 68 32 69 33 70 34 71 60 72 61 73 69 74 62 75 68 76
REMARK SMILES IDX 70 77 67 78 63 79 64 80 65 81 66 82 45 83 46 84 54 85 47 86
REMARK SMILES IDX 53 87 55 88 52 89 48 90 49 91 50 92 51 93
REMARK H PARENT 12 6 16 27 75 46 43 57
REMARK Flexibility Score: inf
ROOT
ATOM      1  C   UNL A   1      32.476  30.483  26.874  1.00  0.00     0.042 C 
ENDROOT
BRANCH   1   2
ATOM      2  C   UNL A   1      32.369  29.184  26.080  1.00  0.00     0.117 C 
BRANCH   2   3
ATOM      3  N   UNL A   1      32.511  29.435  24.651  1.00  0.00    -0.355 N 
ATOM      4  C   UNL A   1      31.720  28.971  23.633  1.00  0.00     0.227 C 
ATOM      5  O   UNL A   1      32.271  28.742  22.555  1.00  0.00    -0.274 OA
ATOM      6  H   UNL A   1      33.267  30.006  24.386  1.00  0.00     0.163 HD
BRANCH   4   7
ATOM      7  C   UNL A   1      30.204  28.807  23.828  1.00  0.00     0.114 C 
BRANCH   7   8
ATOM      8  C   UNL A   1      29.723  27.456  23.251  1.00  0.00     0.076 C 
BRANCH   8   9
ATOM      9  C   UNL A   1      30.354  26.213  23.787  1.00  0.00     0.064 A 
ATOM     10  N   UNL A   1      31.613  24.501  23.924  1.00  0.00    -0.270 N 
ATOM     11  C   UNL A   1      30.979  24.570  25.134  1.00  0.00     0.109 A 
ATOM     12  N   UNL A   1      31.262  25.512  23.086  1.00  0.00    -0.178 NA
ATOM     13  C   UNL A   1      30.155  25.666  25.076  1.00  0.00     0.045 A 
BRANCH  10  14
ATOM     14  C   UNL A   1      32.595  23.500  23.511  1.00  0.00     0.101 C 
ATOM     15  C   UNL A   1      32.004  22.094  23.611  1.00  0.00     0.033 C 
ATOM     16  C   UNL A   1      33.147  23.744  22.101  1.00  0.00     0.033 C 
ENDBRANCH  10  14
ENDBRANCH   8   9
ENDBRANCH   7   8
BRANCH   7  17
ATOM     17  C   UNL A   1      29.375  29.924  23.137  1.00  0.00    -0.034 A 
ATOM     18  C   UNL A   1      28.630  29.600  21.985  1.00  0.00     0.004 A 
ATOM     19  C   UNL A   1      29.404  31.276  23.530  1.00  0.00     0.025 A 
ATOM     20  C   UNL A   1      28.011  30.591  21.215  1.00  0.00     0.002 A 
ATOM     21  C   UNL A   1      28.775  32.262  22.763  1.00  0.00     0.041 A 
ATOM     22  C   UNL A   1      28.094  31.927  21.597  1.00  0.00     0.020 A 
ATOM     23  Cl  UNL A   1      28.868  33.914  23.240  1.00  0.00    -0.084 Cl
ENDBRANCH   7  17
ENDBRANCH   4   7
ENDBRANCH   2   3
ENDBRANCH   1   2
BRANCH   1  24
ATOM     24  C   UNL A   1      33.880  30.846  27.298  1.00  0.00     0.118 C 
BRANCH  24  25
ATOM     25  N   UNL A   1      33.999  31.720  28.461  1.00  0.00    -0.352 N 
ATOM     26  C   UNL A   1      35.026  31.807  29.395  1.00  0.00     0.251 C 
ATOM     27  H   UNL A   1      33.245  32.337  28.604  1.00  0.00     0.163 HD
ATOM     28  O   UNL A   1      34.866  32.530  30.384  1.00  0.00    -0.269 OA
BRANCH  26  29
ATOM     29  C   UNL A   1      36.283  31.024  29.248  1.00  0.00     0.039 A 
ATOM     30  C   UNL A   1      36.376  29.802  28.571  1.00  0.00     0.014 A 
ATOM     31  C   UNL A   1      37.442  31.512  29.804  1.00  0.00     0.014 A 
ATOM     32  C   UNL A   1      37.600  29.109  28.601  1.00  0.00     0.010 A 
ATOM     33  C   UNL A   1      38.630  31.122  29.290  1.00  0.00     0.010 A 
ATOM     34  C   UNL A   1      38.729  29.778  29.067  1.00  0.00    -0.014 A 
BRANCH  34  35
ATOM     35  C   UNL A   1      40.043  29.212  29.332  1.00  0.00     0.031 A 
ATOM     36  C   UNL A   1      40.325  28.960  30.755  1.00  0.00     0.074 A 
ATOM     37  C   UNL A   1      40.783  28.593  28.377  1.00  0.00     0.049 A 
ATOM     38  N   UNL A   1      41.112  29.621  31.532  1.00  0.00    -0.248 NA
ATOM     39  C   UNL A   1      39.501  27.958  31.448  1.00  0.00     0.031 C 
ATOM     40  C   UNL A   1      40.448  28.349  26.966  1.00  0.00     0.029 A 
ATOM     41  N   UNL A   1      41.967  27.933  28.515  1.00  0.00    -0.354 N 
ATOM     42  C   UNL A   1      41.052  28.973  32.759  1.00  0.00     0.074 A 
ATOM     43  C   UNL A   1      39.867  28.163  32.712  1.00  0.00     0.031 C 
ATOM     44  C   UNL A   1      41.307  27.441  26.442  1.00  0.00     0.029 A 
ATOM     45  C   UNL A   1      42.339  27.153  27.424  1.00  0.00     0.049 A 
ATOM     46  H   UNL A   1      42.519  28.003  29.327  1.00  0.00     0.167 HD
ATOM     47  C   UNL A   1      42.113  28.965  33.613  1.00  0.00     0.034 A 
ATOM     48  C   UNL A   1      43.403  26.308  27.346  1.00  0.00     0.034 A 
ATOM     49  C   UNL A   1      43.135  29.888  33.162  1.00  0.00     0.049 A 
ATOM     50  C   UNL A   1      44.355  26.719  28.409  1.00  0.00     0.074 A 
ATOM     51  C   UNL A   1      43.169  31.248  32.920  1.00  0.00     0.029 A 
ATOM     52  N   UNL A   1      44.214  29.367  32.480  1.00  0.00    -0.354 N 
ATOM     53  N   UNL A   1      44.961  27.876  28.422  1.00  0.00    -0.248 NA
ATOM     54  C   UNL A   1      44.268  26.062  29.707  1.00  0.00     0.031 C 
ATOM     55  C   UNL A   1      43.941  31.391  31.728  1.00  0.00     0.029 A 
ATOM     56  C   UNL A   1      44.404  30.129  31.350  1.00  0.00     0.049 A 
ATOM     57  H   UNL A   1      44.753  28.590  32.754  1.00  0.00     0.167 HD
ATOM     58  C   UNL A   1      44.932  28.288  29.747  1.00  0.00     0.074 A 
ATOM     59  C   UNL A   1      44.606  27.081  30.505  1.00  0.00     0.031 C 
ATOM     60  C   UNL A   1      44.886  29.614  30.076  1.00  0.00     0.034 A 
BRANCH  47  61
ATOM     61  C   UNL A   1      42.390  27.916  34.669  1.00  0.00     0.023 A 
ATOM     62  C   UNL A   1      43.096  26.770  34.258  1.00  0.00     0.031 A 
ATOM     63  C   UNL A   1      41.836  27.853  35.968  1.00  0.00     0.131 A 
ATOM     64  C   UNL A   1      43.160  25.623  35.069  1.00  0.00     0.055 A 
ATOM     65  C   UNL A   1      41.964  26.737  36.801  1.00  0.00     0.041 A 
ATOM     66  F   UNL A   1      41.063  28.815  36.481  1.00  0.00    -0.206 F 
ATOM     67  C   UNL A   1      42.604  25.602  36.342  1.00  0.00     0.022 A 
BRANCH  64  68
ATOM     68  S   UNL A   1      43.838  24.104  34.356  1.00  0.00     0.124 S 
ATOM     69  O   UNL A   1      44.936  23.810  35.270  1.00  0.00    -0.237 OA
ATOM     70  O   UNL A   1      42.689  23.207  34.417  1.00  0.00    -0.237 OA
ATOM     71  O   UNL A   1      44.240  24.514  33.013  1.00  0.00    -0.744 OA
ENDBRANCH  64  68
ENDBRANCH  47  61
BRANCH  48  72
ATOM     72  C   UNL A   1      43.487  25.015  26.614  1.00  0.00     0.023 A 
ATOM     73  C   UNL A   1      42.692  23.893  26.931  1.00  0.00     0.031 A 
ATOM     74  C   UNL A   1      44.219  24.951  25.406  1.00  0.00     0.131 A 
ATOM     75  C   UNL A   1      42.656  22.776  26.062  1.00  0.00     0.055 A 
ATOM     76  C   UNL A   1      44.184  23.845  24.554  1.00  0.00     0.041 A 
ATOM     77  F   UNL A   1      44.928  26.005  24.973  1.00  0.00    -0.206 F 
ATOM     78  C   UNL A   1      43.394  22.753  24.875  1.00  0.00     0.022 A 
BRANCH  75  79
ATOM     79  S   UNL A   1      41.562  21.362  26.421  1.00  0.00     0.124 S 
ATOM     80  O   UNL A   1      41.790  21.146  27.844  1.00  0.00    -0.237 OA
ATOM     81  O   UNL A   1      40.251  21.878  26.044  1.00  0.00    -0.237 OA
ATOM     82  O   UNL A   1      42.073  20.303  25.550  1.00  0.00    -0.744 OA
ENDBRANCH  75  79
ENDBRANCH  48  72
BRANCH  60  83
ATOM     83  C   UNL A   1      45.134  30.632  28.974  1.00  0.00     0.023 A 
ATOM     84  C   UNL A   1      46.413  31.062  28.547  1.00  0.00     0.031 A 
ATOM     85  C   UNL A   1      44.022  31.086  28.241  1.00  0.00     0.131 A 
ATOM     86  C   UNL A   1      46.540  31.920  27.435  1.00  0.00     0.055 A 
ATOM     87  C   UNL A   1      44.154  31.917  27.127  1.00  0.00     0.041 A 
ATOM     88  F   UNL A   1      42.782  30.694  28.573  1.00  0.00    -0.206 F 
ATOM     89  C   UNL A   1      45.415  32.342  26.722  1.00  0.00     0.022 A 
BRANCH  86  90
ATOM     90  S   UNL A   1      48.181  32.506  26.897  1.00  0.00     0.124 S 
ATOM     91  O   UNL A   1      47.879  33.399  25.785  1.00  0.00    -0.237 OA
ATOM     92  O   UNL A   1      48.705  33.140  28.104  1.00  0.00    -0.237 OA
ATOM     93  O   UNL A   1      48.874  31.273  26.513  1.00  0.00    -0.744 OA
ENDBRANCH  86  90
ENDBRANCH  60  83
ENDBRANCH  34  35
ENDBRANCH  26  29
ENDBRANCH  24  25
ENDBRANCH   1  24
TORSDOF 17
ENDMDL
MODEL 3
REMARK VINA RESULT:     -12.4      2.687      7.177
REMARK SMILES CC(C)n1ccc(C[C@@H](C(=O)NCCCNC(=O)c2ccc(-c3c4nc(c(-c5cc(S(=O)(=O)[O-])ccc5F)c5ccc([nH]5)c(-c5cc(S(=O)(=O)[O-])ccc5F)c5nc(c(-c6cc(S(=O)(=O)[O-])ccc6F)c6ccc3[nH]6)C=C5)C=C4)cc2)c2cccc(Cl)c2)n1
REMARK SMILES IDX 14 1 13 2 12 3 10 4 11 5 9 7 8 8 7 9 4 10 5 11 89 12 6 13
REMARK SMILES IDX 2 14 1 15 3 16 82 17 83 18 88 19 84 20 86 21 85 22 87 23
REMARK SMILES IDX 15 24 16 25 17 26 18 28 19 29 20 30 81 31 21 32 80 33 22 34
REMARK SMILES IDX 23 35 24 36 74 37 25 38 79 39 73 40 75 41 26 42 78 43 72 44
REMARK SMILES IDX 71 45 27 47 59 48 39 49 58 50 40 51 43 52 57 53 76 54 41 55
REMARK SMILES IDX 42 56 56 58 77 59 44 60 28 61 29 62 37 63 30 64 36 65 38 66
REMARK SMILES IDX 35 67 31 68 32 69 33 70 34 71 60 72 61 73 69 74 62 75 68 76
REMARK SMILES IDX 70 77 67 78 63 79 64 80 65 81 66 82 45 83 46 84 54 85 47 86
REMARK SMILES IDX 53 87 55 88 52 89 48 90 49 91 50 92 51 93
REMARK H PARENT 12 6 16 27 75 46 43 57
REMARK Flexibility Score: inf
ROOT
ATOM      1  C   UNL A   1      33.231  29.741  26.062  1.00  0.00     0.042 C 
ENDROOT
BRANCH   1   2
ATOM      2  C   UNL A   1      33.740  28.564  25.234  1.00  0.00     0.117 C 
BRANCH   2   3
ATOM      3  N   UNL A   1      33.830  28.920  23.824  1.00  0.00    -0.355 N 
ATOM      4  C   UNL A   1      33.698  28.095  22.738  1.00  0.00     0.227 C 
ATOM      5  O   UNL A   1      34.371  28.367  21.742  1.00  0.00    -0.274 OA
ATOM      6  H   UNL A   1      34.007  29.868  23.628  1.00  0.00     0.163 HD
BRANCH   4   7
ATOM      7  C   UNL A   1      32.704  26.923  22.757  1.00  0.00     0.114 C 
BRANCH   7   8
ATOM      8  C   UNL A   1      31.676  27.098  23.898  1.00  0.00     0.076 C 
BRANCH   8   9
ATOM      9  C   UNL A   1      30.410  27.825  23.581  1.00  0.00     0.064 A 
ATOM     10  N   UNL A   1      29.085  29.393  23.018  1.00  0.00    -0.270 N 
ATOM     11  C   UNL A   1      28.293  28.282  23.116  1.00  0.00     0.109 A 
ATOM     12  N   UNL A   1      30.393  29.134  23.278  1.00  0.00    -0.178 NA
ATOM     13  C   UNL A   1      29.121  27.250  23.480  1.00  0.00     0.045 A 
BRANCH  10  14
ATOM     14  C   UNL A   1      28.652  30.740  22.652  1.00  0.00     0.101 C 
ATOM     15  C   UNL A   1      28.073  30.753  21.238  1.00  0.00     0.033 C 
ATOM     16  C   UNL A   1      27.646  31.341  23.643  1.00  0.00     0.033 C 
ENDBRANCH  10  14
ENDBRANCH   8   9
ENDBRANCH   7   8
BRANCH   7  17
ATOM     17  C   UNL A   1      33.388  25.544  22.962  1.00  0.00    -0.034 A 
ATOM     18  C   UNL A   1      32.937  24.444  22.205  1.00  0.00     0.004 A 
ATOM     19  C   UNL A   1      34.368  25.296  23.943  1.00  0.00     0.025 A 
ATOM     20  C   UNL A   1      33.383  23.145  22.470  1.00  0.00     0.002 A 
ATOM     21  C   UNL A   1      34.819  23.996  24.197  1.00  0.00     0.041 A 
ATOM     22  C   UNL A   1      34.316  22.918  23.477  1.00  0.00     0.020 A 
ATOM     23  Cl  UNL A   1      35.982  23.715  25.435  1.00  0.00    -0.084 Cl
ENDBRANCH   7  17
ENDBRANCH   4   7
ENDBRANCH   2   3
ENDBRANCH   1   2
BRANCH   1  24
ATOM     24  C   UNL A   1      33.647  29.714  27.514  1.00  0.00     0.118 C 
BRANCH  24  25
ATOM     25  N   UNL A   1      33.849  31.010  28.153  1.00  0.00    -0.352 N 
ATOM     26  C   UNL A   1      35.004  31.544  28.716  1.00  0.00     0.251 C 
ATOM     27  H   UNL A   1      33.054  31.591  28.189  1.00  0.00     0.163 HD
ATOM     28  O   UNL A   1      34.924  32.616  29.324  1.00  0.00    -0.269 OA
BRANCH  26  29
ATOM     29  C   UNL A   1      36.311  30.836  28.634  1.00  0.00     0.039 A 
ATOM     30  C   UNL A   1      36.536  29.682  27.874  1.00  0.00     0.014 A 
ATOM     31  C   UNL A   1      37.381  31.328  29.342  1.00  0.00     0.014 A 
ATOM     32  C   UNL A   1      37.787  29.046  27.972  1.00  0.00     0.010 A 
ATOM     33  C   UNL A   1      38.633  31.039  28.921  1.00  0.00     0.010 A 
ATOM     34  C   UNL A   1      38.827  29.726  28.602  1.00  0.00    -0.014 A 
BRANCH  34  35
ATOM     35  C   UNL A   1      40.139  29.201  28.953  1.00  0.00     0.031 A 
ATOM     36  C   UNL A   1      40.351  28.998  30.396  1.00  0.00     0.074 A 
ATOM     37  C   UNL A   1      40.942  28.573  28.057  1.00  0.00     0.049 A 
ATOM     38  N   UNL A   1      41.080  29.702  31.192  1.00  0.00    -0.248 NA
ATOM     39  C   UNL A   1      39.515  27.996  31.075  1.00  0.00     0.031 C 
ATOM     40  C   UNL A   1      40.688  28.279  26.639  1.00  0.00     0.029 A 
ATOM     41  N   UNL A   1      42.133  27.948  28.276  1.00  0.00    -0.354 N 
ATOM     42  C   UNL A   1      40.970  29.089  32.433  1.00  0.00     0.074 A 
ATOM     43  C   UNL A   1      39.809  28.248  32.349  1.00  0.00     0.031 C 
ATOM     44  C   UNL A   1      41.595  27.379  26.189  1.00  0.00     0.029 A 
ATOM     45  C   UNL A   1      42.580  27.145  27.231  1.00  0.00     0.049 A 
ATOM     46  H   UNL A   1      42.639  28.056  29.114  1.00  0.00     0.167 HD
ATOM     47  C   UNL A   1      41.985  29.133  33.341  1.00  0.00     0.034 A 
ATOM     48  C   UNL A   1      43.667  26.326  27.234  1.00  0.00     0.034 A 
ATOM     49  C   UNL A   1      43.007  30.068  32.916  1.00  0.00     0.049 A 
ATOM     50  C   UNL A   1      44.551  26.793  28.333  1.00  0.00     0.074 A 
ATOM     51  C   UNL A   1      43.021  31.421  32.634  1.00  0.00     0.029 A 
ATOM     52  N   UNL A   1      44.133  29.555  32.308  1.00  0.00    -0.354 N 
ATOM     53  N   UNL A   1      45.128  27.964  28.342  1.00  0.00    -0.248 NA
ATOM     54  C   UNL A   1      44.412  26.172  29.643  1.00  0.00     0.031 C 
ATOM     55  C   UNL A   1      43.852  31.548  31.481  1.00  0.00     0.029 A 
ATOM     56  C   UNL A   1      44.364  30.287  31.166  1.00  0.00     0.049 A 
ATOM     57  H   UNL A   1      44.675  28.799  32.633  1.00  0.00     0.167 HD
ATOM     58  C   UNL A   1      45.019  28.414  29.650  1.00  0.00     0.074 A 
ATOM     59  C   UNL A   1      44.682  27.222  30.427  1.00  0.00     0.031 C 
ATOM     60  C   UNL A   1      44.924  29.747  29.936  1.00  0.00     0.034 A 
BRANCH  47  61
ATOM     61  C   UNL A   1      42.230  28.123  34.441  1.00  0.00     0.023 A 
ATOM     62  C   UNL A   1      42.984  26.983  34.103  1.00  0.00     0.031 A 
ATOM     63  C   UNL A   1      41.610  28.084  35.711  1.00  0.00     0.131 A 
ATOM     64  C   UNL A   1      43.032  25.863  34.952  1.00  0.00     0.055 A 
ATOM     65  C   UNL A   1      41.720  26.997  36.584  1.00  0.00     0.041 A 
ATOM     66  F   UNL A   1      40.788  29.041  36.154  1.00  0.00    -0.206 F 
ATOM     67  C   UNL A   1      42.410  25.865  36.195  1.00  0.00     0.022 A 
BRANCH  64  68
ATOM     68  S   UNL A   1      43.782  24.341  34.322  1.00  0.00     0.124 S 
ATOM     69  O   UNL A   1      44.105  24.714  32.949  1.00  0.00    -0.237 OA
ATOM     70  O   UNL A   1      44.913  24.169  35.227  1.00  0.00    -0.237 OA
ATOM     71  O   UNL A   1      42.713  23.356  34.464  1.00  0.00    -0.744 OA
ENDBRANCH  64  68
ENDBRANCH  47  61
BRANCH  48  72
ATOM     72  C   UNL A   1      43.820  25.015  26.548  1.00  0.00     0.023 A 
ATOM     73  C   UNL A   1      43.027  23.887  26.848  1.00  0.00     0.031 A 
ATOM     74  C   UNL A   1      44.627  24.930  25.391  1.00  0.00     0.131 A 
ATOM     75  C   UNL A   1      43.066  22.745  26.012  1.00  0.00     0.055 A 
ATOM     76  C   UNL A   1      44.666  23.800  24.571  1.00  0.00     0.041 A 
ATOM     77  F   UNL A   1      45.343  25.986  24.971  1.00  0.00    -0.206 F 
ATOM     78  C   UNL A   1      43.877  22.702  24.875  1.00  0.00     0.022 A 
BRANCH  75  79
ATOM     79  S   UNL A   1      41.977  21.320  26.344  1.00  0.00     0.124 S 
ATOM     80  O   UNL A   1      42.480  20.319  25.412  1.00  0.00    -0.237 OA
ATOM     81  O   UNL A   1      42.217  21.067  27.761  1.00  0.00    -0.237 OA
ATOM     82  O   UNL A   1      40.640  21.830  26.034  1.00  0.00    -0.744 OA
ENDBRANCH  75  79
ENDBRANCH  48  72
BRANCH  60  83
ATOM     83  C   UNL A   1      45.205  30.739  28.817  1.00  0.00     0.023 A 
ATOM     84  C   UNL A   1      46.495  31.189  28.445  1.00  0.00     0.031 A 
ATOM     85  C   UNL A   1      44.124  31.142  28.012  1.00  0.00     0.131 A 
ATOM     86  C   UNL A   1      46.661  32.017  27.315  1.00  0.00     0.055 A 
ATOM     87  C   UNL A   1      44.295  31.942  26.882  1.00  0.00     0.041 A 
ATOM     88  F   UNL A   1      42.877  30.727  28.291  1.00  0.00    -0.206 F 
ATOM     89  C   UNL A   1      45.565  32.388  26.531  1.00  0.00     0.022 A 
BRANCH  86  90
ATOM     90  S   UNL A   1      48.313  32.629  26.846  1.00  0.00     0.124 S 
ATOM     91  O   UNL A   1      48.044  33.516  25.721  1.00  0.00    -0.237 OA
ATOM     92  O   UNL A   1      48.775  33.272  28.074  1.00  0.00    -0.237 OA
ATOM     93  O   UNL A   1      49.041  31.407  26.494  1.00  0.00    -0.744 OA
ENDBRANCH  86  90
ENDBRANCH  60  83
ENDBRANCH  34  35
ENDBRANCH  26  29
ENDBRANCH  24  25
ENDBRANCH   1  24
TORSDOF 17
ENDMDL
