MODEL 1
REMARK VINA RESULT:     -12.8      0.000      0.000
REMARK SMILES O=C(NCCCNC(=O)[C@H]1CCC(=O)N(CCc2ccccc2F)[C@@H]1c1cccs1)c1ccc(-c2c3nc(c(-c4cc(S(=O)(=O)[O-])ccc4F)c4ccc([nH]4)c(-c4cc(S(=O)(=O)[O-])ccc4F)c4nc(c(-c5cc(S(=O)(=O)[O-])ccc5F)c5ccc2[nH]5)C=C4)C=C3)cc1
REMARK SMILES IDX 5 1 4 2 3 3 1 4 2 5 31 7 32 8 93 9 33 10 92 11 34 12 35 13
REMARK SMILES IDX 36 14 86 15 37 16 91 17 85 18 87 19 38 20 90 21 84 22 83 23
REMARK SMILES IDX 39 25 71 26 51 27 70 28 52 29 55 30 69 31 88 32 53 33 54 34
REMARK SMILES IDX 68 36 89 37 56 38 40 39 41 40 49 41 42 42 48 43 50 44 47 45
REMARK SMILES IDX 43 46 44 47 45 48 46 49 72 50 73 51 81 52 74 53 80 54 82 55
REMARK SMILES IDX 79 56 75 57 76 58 77 59 78 60 57 61 58 62 66 63 59 64 65 65
REMARK SMILES IDX 67 66 64 67 60 68 61 69 62 70 63 71 6 72 7 73 8 74 9 76
REMARK SMILES IDX 10 77 11 78 25 79 12 80 15 81 13 82 14 83 26 84 27 85 30 86
REMARK SMILES IDX 28 87 29 88 16 89 17 90 18 91 19 92 23 93 20 94 22 95 24 96
REMARK SMILES IDX 21 97
REMARK H PARENT 3 6 87 24 55 35 7 75
REMARK Flexibility Score: inf
ROOT
ATOM      1  C   UNL A   1      33.186  28.984  24.178  1.00  0.00     0.042 C 
ENDROOT
BRANCH   1   2
ATOM      2  C   UNL A   1      32.692  29.138  25.611  1.00  0.00     0.118 C 
BRANCH   2   3
ATOM      3  N   UNL A   1      32.292  30.498  25.942  1.00  0.00    -0.352 N 
ATOM      4  O   UNL A   1      32.194  32.410  27.133  1.00  0.00    -0.269 OA
ATOM      5  C   UNL A   1      32.796  31.369  26.881  1.00  0.00     0.251 C 
ATOM      6  H   UNL A   1      31.543  30.850  25.411  1.00  0.00     0.163 HD
BRANCH   5   7
ATOM      7  C   UNL A   1      34.058  31.046  27.576  1.00  0.00     0.039 A 
ATOM      8  C   UNL A   1      34.320  29.728  27.952  1.00  0.00     0.014 A 
ATOM      9  C   UNL A   1      34.988  32.051  27.853  1.00  0.00     0.014 A 
ATOM     10  C   UNL A   1      35.403  29.446  28.768  1.00  0.00     0.010 A 
ATOM     11  C   UNL A   1      36.147  31.742  28.573  1.00  0.00     0.010 A 
ATOM     12  C   UNL A   1      36.346  30.442  29.063  1.00  0.00    -0.014 A 
BRANCH  12  13
ATOM     13  C   UNL A   1      37.565  30.067  29.821  1.00  0.00     0.031 A 
ATOM     14  C   UNL A   1      38.665  29.273  29.179  1.00  0.00     0.074 A 
ATOM     15  C   UNL A   1      37.689  30.516  31.085  1.00  0.00     0.049 A 
ATOM     16  N   UNL A   1      39.780  28.840  29.708  1.00  0.00    -0.248 NA
ATOM     17  C   UNL A   1      38.493  28.915  27.763  1.00  0.00     0.031 C 
ATOM     18  C   UNL A   1      36.692  31.331  31.789  1.00  0.00     0.029 A 
ATOM     19  N   UNL A   1      38.710  30.394  31.988  1.00  0.00    -0.354 N 
ATOM     20  C   UNL A   1      40.438  28.145  28.700  1.00  0.00     0.074 A 
ATOM     21  C   UNL A   1      39.583  28.195  27.531  1.00  0.00     0.031 C 
ATOM     22  C   UNL A   1      37.186  31.701  32.978  1.00  0.00     0.029 A 
ATOM     23  C   UNL A   1      38.486  31.073  33.163  1.00  0.00     0.049 A 
ATOM     24  H   UNL A   1      39.527  29.872  31.814  1.00  0.00     0.167 HD
ATOM     25  C   UNL A   1      41.644  27.527  28.752  1.00  0.00     0.034 A 
ATOM     26  C   UNL A   1      39.231  31.160  34.280  1.00  0.00     0.034 A 
ATOM     27  C   UNL A   1      42.476  27.491  29.931  1.00  0.00     0.049 A 
ATOM     28  C   UNL A   1      40.527  30.410  34.335  1.00  0.00     0.074 A 
ATOM     29  C   UNL A   1      43.698  26.866  30.108  1.00  0.00     0.029 A 
ATOM     30  N   UNL A   1      42.173  28.114  31.137  1.00  0.00    -0.354 N 
ATOM     31  N   UNL A   1      41.091  29.679  33.403  1.00  0.00    -0.248 NA
ATOM     32  C   UNL A   1      41.275  30.479  35.594  1.00  0.00     0.031 C 
ATOM     33  C   UNL A   1      44.108  27.067  31.431  1.00  0.00     0.029 A 
ATOM     34  C   UNL A   1      43.175  27.875  32.064  1.00  0.00     0.049 A 
ATOM     35  H   UNL A   1      41.363  28.647  31.308  1.00  0.00     0.167 HD
ATOM     36  C   UNL A   1      42.270  29.203  33.961  1.00  0.00     0.074 A 
ATOM     37  C   UNL A   1      42.340  29.742  35.307  1.00  0.00     0.031 C 
ATOM     38  C   UNL A   1      43.212  28.398  33.408  1.00  0.00     0.034 A 
BRANCH  25  39
ATOM     39  C   UNL A   1      42.108  26.798  27.515  1.00  0.00     0.023 A 
ATOM     40  C   UNL A   1      41.910  25.416  27.353  1.00  0.00     0.031 A 
ATOM     41  C   UNL A   1      42.760  27.497  26.483  1.00  0.00     0.131 A 
ATOM     42  C   UNL A   1      42.399  24.769  26.207  1.00  0.00     0.055 A 
ATOM     43  C   UNL A   1      43.187  26.859  25.317  1.00  0.00     0.041 A 
ATOM     44  F   UNL A   1      42.996  28.814  26.593  1.00  0.00    -0.206 F 
ATOM     45  C   UNL A   1      43.015  25.485  25.177  1.00  0.00     0.022 A 
BRANCH  42  46
ATOM     46  S   UNL A   1      42.305  22.960  26.120  1.00  0.00     0.124 S 
ATOM     47  O   UNL A   1      40.869  22.733  26.268  1.00  0.00    -0.237 OA
ATOM     48  O   UNL A   1      42.863  22.676  24.803  1.00  0.00    -0.237 OA
ATOM     49  O   UNL A   1      43.120  22.519  27.250  1.00  0.00    -0.744 OA
ENDBRANCH  42  46
ENDBRANCH  25  39
BRANCH  26  50
ATOM     50  C   UNL A   1      38.736  31.962  35.430  1.00  0.00     0.023 A 
ATOM     51  C   UNL A   1      38.135  31.342  36.533  1.00  0.00     0.031 A 
ATOM     52  C   UNL A   1      38.911  33.357  35.462  1.00  0.00     0.131 A 
ATOM     53  C   UNL A   1      37.726  32.117  37.628  1.00  0.00     0.055 A 
ATOM     54  C   UNL A   1      38.537  34.120  36.569  1.00  0.00     0.041 A 
ATOM     55  F   UNL A   1      39.498  33.991  34.435  1.00  0.00    -0.206 F 
ATOM     56  C   UNL A   1      37.937  33.499  37.660  1.00  0.00     0.022 A 
BRANCH  53  57
ATOM     57  S   UNL A   1      36.911  31.294  39.024  1.00  0.00     0.124 S 
ATOM     58  O   UNL A   1      36.753  29.936  38.515  1.00  0.00    -0.237 OA
ATOM     59  O   UNL A   1      37.886  31.470  40.095  1.00  0.00    -0.237 OA
ATOM     60  O   UNL A   1      35.671  32.050  39.188  1.00  0.00    -0.744 OA
ENDBRANCH  53  57
ENDBRANCH  26  50
BRANCH  38  61
ATOM     61  C   UNL A   1      44.411  28.079  34.259  1.00  0.00     0.023 A 
ATOM     62  C   UNL A   1      44.439  26.947  35.091  1.00  0.00     0.031 A 
ATOM     63  C   UNL A   1      45.535  28.921  34.236  1.00  0.00     0.131 A 
ATOM     64  C   UNL A   1      45.558  26.711  35.902  1.00  0.00     0.055 A 
ATOM     65  C   UNL A   1      46.664  28.654  35.008  1.00  0.00     0.041 A 
ATOM     66  F   UNL A   1      45.551  30.016  33.459  1.00  0.00    -0.206 F 
ATOM     67  C   UNL A   1      46.678  27.548  35.854  1.00  0.00     0.022 A 
BRANCH  64  68
ATOM     68  S   UNL A   1      45.512  25.323  37.069  1.00  0.00     0.124 S 
ATOM     69  O   UNL A   1      44.797  24.308  36.300  1.00  0.00    -0.237 OA
ATOM     70  O   UNL A   1      46.927  25.064  37.307  1.00  0.00    -0.237 OA
ATOM     71  O   UNL A   1      44.781  25.862  38.214  1.00  0.00    -0.744 OA
ENDBRANCH  64  68
ENDBRANCH  38  61
ENDBRANCH  12  13
ENDBRANCH   5   7
ENDBRANCH   2   3
ENDBRANCH   1   2
BRANCH   1  72
ATOM     72  C   UNL A   1      34.164  27.832  23.977  1.00  0.00     0.117 C 
BRANCH  72  73
ATOM     73  N   UNL A   1      33.809  27.008  22.835  1.00  0.00    -0.356 N 
ATOM     74  C   UNL A   1      33.205  25.806  22.715  1.00  0.00     0.225 C 
ATOM     75  H   UNL A   1      34.060  27.409  21.971  1.00  0.00     0.163 HD
ATOM     76  O   UNL A   1      33.167  25.346  21.568  1.00  0.00    -0.275 OA
BRANCH  74  77
ATOM     77  C   UNL A   1      32.626  25.002  23.876  1.00  0.00     0.107 C 
ATOM     78  C   UNL A   1      31.113  25.122  23.945  1.00  0.00     0.026 C 
ATOM     79  C   UNL A   1      33.067  23.520  23.965  1.00  0.00     0.138 C 
ATOM     80  C   UNL A   1      30.679  24.638  25.304  1.00  0.00     0.101 C 
ATOM     81  N   UNL A   1      32.218  22.705  24.923  1.00  0.00    -0.334 N 
ATOM     82  C   UNL A   1      31.027  23.183  25.488  1.00  0.00     0.223 C 
ATOM     83  O   UNL A   1      30.280  22.477  26.170  1.00  0.00    -0.275 OA
BRANCH  79  84
ATOM     84  C   UNL A   1      34.583  23.321  24.201  1.00  0.00     0.028 A 
ATOM     85  C   UNL A   1      35.550  22.912  23.295  1.00  0.00     0.017 A 
ATOM     86  S   UNL A   1      35.372  23.701  25.689  1.00  0.00    -0.147 S 
ATOM     87  C   UNL A   1      36.890  23.040  23.747  1.00  0.00     0.012 A 
ATOM     88  C   UNL A   1      36.934  23.557  25.016  1.00  0.00     0.065 A 
ENDBRANCH  79  84
BRANCH  81  89
ATOM     89  C   UNL A   1      32.440  21.252  25.111  1.00  0.00     0.125 C 
BRANCH  89  90
ATOM     90  C   UNL A   1      32.249  20.360  23.860  1.00  0.00     0.060 C 
BRANCH  90  91
ATOM     91  C   UNL A   1      33.030  19.070  23.883  1.00  0.00    -0.010 A 
ATOM     92  C   UNL A   1      34.119  18.887  24.752  1.00  0.00     0.007 A 
ATOM     93  C   UNL A   1      32.736  18.056  22.974  1.00  0.00     0.126 A 
ATOM     94  C   UNL A   1      34.962  17.778  24.608  1.00  0.00     0.000 A 
ATOM     95  C   UNL A   1      33.560  16.944  22.841  1.00  0.00     0.039 A 
ATOM     96  F   UNL A   1      31.683  18.182  22.153  1.00  0.00    -0.207 F 
ATOM     97  C   UNL A   1      34.698  16.820  23.631  1.00  0.00     0.003 A 
ENDBRANCH  90  91
ENDBRANCH  89  90
ENDBRANCH  81  89
ENDBRANCH  74  77
ENDBRANCH  72  73
ENDBRANCH   1  72
TORSDOF 17
ENDMDL
MODEL 2
REMARK VINA RESULT:     -12.6      5.183      8.135
REMARK SMILES O=C(NCCCNC(=O)[C@H]1CCC(=O)N(CCc2ccccc2F)[C@@H]1c1cccs1)c1ccc(-c2c3nc(c(-c4cc(S(=O)(=O)[O-])ccc4F)c4ccc([nH]4)c(-c4cc(S(=O)(=O)[O-])ccc4F)c4nc(c(-c5cc(S(=O)(=O)[O-])ccc5F)c5ccc2[nH]5)C=C4)C=C3)cc1
REMARK SMILES IDX 5 1 4 2 3 3 1 4 2 5 31 7 32 8 93 9 33 10 92 11 34 12 35 13
REMARK SMILES IDX 36 14 86 15 37 16 91 17 85 18 87 19 38 20 90 21 84 22 83 23
REMARK SMILES IDX 39 25 71 26 51 27 70 28 52 29 55 30 69 31 88 32 53 33 54 34
REMARK SMILES IDX 68 36 89 37 56 38 40 39 41 40 49 41 42 42 48 43 50 44 47 45
REMARK SMILES IDX 43 46 44 47 45 48 46 49 72 50 73 51 81 52 74 53 80 54 82 55
REMARK SMILES IDX 79 56 75 57 76 58 77 59 78 60 57 61 58 62 66 63 59 64 65 65
REMARK SMILES IDX 67 66 64 67 60 68 61 69 62 70 63 71 6 72 7 73 8 74 9 76
REMARK SMILES IDX 10 77 11 78 25 79 12 80 15 81 13 82 14 83 26 84 27 85 30 86
REMARK SMILES IDX 28 87 29 88 16 89 17 90 18 91 19 92 23 93 20 94 22 95 24 96
REMARK SMILES IDX 21 97
REMARK H PARENT 3 6 87 24 55 35 7 75
REMARK Flexibility Score: inf
ROOT
ATOM      1  C   UNL A   1      35.026  21.986  26.346  1.00  0.00     0.042 C 
ENDROOT
BRANCH   1   2
ATOM      2  C   UNL A   1      36.352  22.292  25.660  1.00  0.00     0.118 C 
BRANCH   2   3
ATOM      3  N   UNL A   1      37.298  21.187  25.713  1.00  0.00    -0.352 N 
ATOM      4  O   UNL A   1      39.305  20.161  25.745  1.00  0.00    -0.269 OA
ATOM      5  C   UNL A   1      38.657  21.189  25.924  1.00  0.00     0.251 C 
ATOM      6  H   UNL A   1      36.902  20.296  25.576  1.00  0.00     0.163 HD
BRANCH   5   7
ATOM      7  C   UNL A   1      39.326  22.429  26.368  1.00  0.00     0.039 A 
ATOM      8  C   UNL A   1      38.898  23.660  25.869  1.00  0.00     0.014 A 
ATOM      9  C   UNL A   1      40.379  22.373  27.285  1.00  0.00     0.014 A 
ATOM     10  C   UNL A   1      39.636  24.802  26.127  1.00  0.00     0.010 A 
ATOM     11  C   UNL A   1      41.047  23.548  27.642  1.00  0.00     0.010 A 
ATOM     12  C   UNL A   1      40.700  24.767  27.041  1.00  0.00    -0.014 A 
BRANCH  12  13
ATOM     13  C   UNL A   1      41.374  26.040  27.398  1.00  0.00     0.031 A 
ATOM     14  C   UNL A   1      42.744  26.366  26.878  1.00  0.00     0.074 A 
ATOM     15  C   UNL A   1      40.696  26.928  28.151  1.00  0.00     0.049 A 
ATOM     16  N   UNL A   1      43.482  27.419  27.116  1.00  0.00    -0.248 NA
ATOM     17  C   UNL A   1      43.368  25.387  25.976  1.00  0.00     0.031 C 
ATOM     18  C   UNL A   1      39.340  26.723  28.675  1.00  0.00     0.029 A 
ATOM     19  N   UNL A   1      41.023  28.188  28.572  1.00  0.00    -0.354 N 
ATOM     20  C   UNL A   1      44.664  27.226  26.410  1.00  0.00     0.074 A 
ATOM     21  C   UNL A   1      44.552  25.940  25.752  1.00  0.00     0.031 C 
ATOM     22  C   UNL A   1      38.925  27.846  29.274  1.00  0.00     0.029 A 
ATOM     23  C   UNL A   1      40.013  28.813  29.266  1.00  0.00     0.049 A 
ATOM     24  H   UNL A   1      41.896  28.607  28.395  1.00  0.00     0.167 HD
ATOM     25  C   UNL A   1      45.737  28.051  26.323  1.00  0.00     0.034 A 
ATOM     26  C   UNL A   1      39.973  30.022  29.856  1.00  0.00     0.034 A 
ATOM     27  C   UNL A   1      45.823  29.327  26.992  1.00  0.00     0.049 A 
ATOM     28  C   UNL A   1      41.198  30.883  29.803  1.00  0.00     0.074 A 
ATOM     29  C   UNL A   1      46.874  30.228  27.003  1.00  0.00     0.029 A 
ATOM     30  N   UNL A   1      44.813  29.889  27.765  1.00  0.00    -0.354 N 
ATOM     31  N   UNL A   1      42.343  30.644  29.209  1.00  0.00    -0.248 NA
ATOM     32  C   UNL A   1      41.134  32.164  30.514  1.00  0.00     0.031 C 
ATOM     33  C   UNL A   1      46.520  31.307  27.821  1.00  0.00     0.029 A 
ATOM     34  C   UNL A   1      45.222  31.114  28.269  1.00  0.00     0.049 A 
ATOM     35  H   UNL A   1      43.935  29.476  27.931  1.00  0.00     0.167 HD
ATOM     36  C   UNL A   1      43.139  31.752  29.469  1.00  0.00     0.074 A 
ATOM     37  C   UNL A   1      42.336  32.663  30.263  1.00  0.00     0.031 C 
ATOM     38  C   UNL A   1      44.417  31.994  29.081  1.00  0.00     0.034 A 
BRANCH  25  39
ATOM     39  C   UNL A   1      46.921  27.572  25.519  1.00  0.00     0.023 A 
ATOM     40  C   UNL A   1      47.103  27.947  24.177  1.00  0.00     0.031 A 
ATOM     41  C   UNL A   1      47.881  26.728  26.105  1.00  0.00     0.131 A 
ATOM     42  C   UNL A   1      48.194  27.442  23.452  1.00  0.00     0.055 A 
ATOM     43  C   UNL A   1      48.998  26.281  25.398  1.00  0.00     0.041 A 
ATOM     44  F   UNL A   1      47.747  26.321  27.377  1.00  0.00    -0.206 F 
ATOM     45  C   UNL A   1      49.155  26.630  24.060  1.00  0.00     0.022 A 
BRANCH  42  46
ATOM     46  S   UNL A   1      48.291  27.782  21.673  1.00  0.00     0.124 S 
ATOM     47  O   UNL A   1      46.939  28.257  21.390  1.00  0.00    -0.237 OA
ATOM     48  O   UNL A   1      49.349  28.783  21.599  1.00  0.00    -0.237 OA
ATOM     49  O   UNL A   1      48.622  26.481  21.092  1.00  0.00    -0.744 OA
ENDBRANCH  42  46
ENDBRANCH  25  39
BRANCH  26  50
ATOM     50  C   UNL A   1      38.739  30.450  30.565  1.00  0.00     0.023 A 
ATOM     51  C   UNL A   1      37.741  31.174  29.898  1.00  0.00     0.031 A 
ATOM     52  C   UNL A   1      38.518  30.090  31.907  1.00  0.00     0.131 A 
ATOM     53  C   UNL A   1      36.562  31.518  30.576  1.00  0.00     0.055 A 
ATOM     54  C   UNL A   1      37.329  30.402  32.566  1.00  0.00     0.041 A 
ATOM     55  F   UNL A   1      39.439  29.382  32.579  1.00  0.00    -0.206 F 
ATOM     56  C   UNL A   1      36.344  31.124  31.900  1.00  0.00     0.022 A 
BRANCH  53  57
ATOM     57  S   UNL A   1      35.307  32.492  29.703  1.00  0.00     0.124 S 
ATOM     58  O   UNL A   1      34.950  31.599  28.606  1.00  0.00    -0.237 OA
ATOM     59  O   UNL A   1      34.292  32.680  30.734  1.00  0.00    -0.237 OA
ATOM     60  O   UNL A   1      36.026  33.704  29.314  1.00  0.00    -0.744 OA
ENDBRANCH  53  57
ENDBRANCH  26  50
BRANCH  38  61
ATOM     61  C   UNL A   1      45.007  33.315  29.493  1.00  0.00     0.023 A 
ATOM     62  C   UNL A   1      44.949  34.438  28.651  1.00  0.00     0.031 A 
ATOM     63  C   UNL A   1      45.637  33.447  30.742  1.00  0.00     0.131 A 
ATOM     64  C   UNL A   1      45.551  35.638  29.054  1.00  0.00     0.055 A 
ATOM     65  C   UNL A   1      46.190  34.656  31.158  1.00  0.00     0.041 A 
ATOM     66  F   UNL A   1      45.718  32.399  31.578  1.00  0.00    -0.206 F 
ATOM     67  C   UNL A   1      46.158  35.759  30.309  1.00  0.00     0.022 A 
BRANCH  64  68
ATOM     68  S   UNL A   1      45.585  37.030  27.892  1.00  0.00     0.124 S 
ATOM     69  O   UNL A   1      46.213  36.428  26.720  1.00  0.00    -0.237 OA
ATOM     70  O   UNL A   1      44.171  37.363  27.757  1.00  0.00    -0.237 OA
ATOM     71  O   UNL A   1      46.393  38.034  28.582  1.00  0.00    -0.744 OA
ENDBRANCH  64  68
ENDBRANCH  38  61
ENDBRANCH  12  13
ENDBRANCH   5   7
ENDBRANCH   2   3
ENDBRANCH   1   2
BRANCH   1  72
ATOM     72  C   UNL A   1      34.361  23.201  26.983  1.00  0.00     0.117 C 
BRANCH  72  73
ATOM     73  N   UNL A   1      32.912  23.122  26.927  1.00  0.00    -0.356 N 
ATOM     74  C   UNL A   1      31.993  23.602  26.061  1.00  0.00     0.225 C 
ATOM     75  H   UNL A   1      32.519  22.615  27.674  1.00  0.00     0.163 HD
ATOM     76  O   UNL A   1      30.814  23.435  26.395  1.00  0.00    -0.275 OA
BRANCH  74  77
ATOM     77  C   UNL A   1      32.319  24.341  24.766  1.00  0.00     0.107 C 
ATOM     78  C   UNL A   1      32.182  23.438  23.552  1.00  0.00     0.026 C 
ATOM     79  C   UNL A   1      31.577  25.683  24.542  1.00  0.00     0.138 C 
ATOM     80  C   UNL A   1      32.879  24.114  22.400  1.00  0.00     0.101 C 
ATOM     81  N   UNL A   1      31.690  26.192  23.118  1.00  0.00    -0.334 N 
ATOM     82  C   UNL A   1      32.212  25.424  22.068  1.00  0.00     0.223 C 
ATOM     83  O   UNL A   1      32.192  25.797  20.892  1.00  0.00    -0.275 OA
BRANCH  79  84
ATOM     84  C   UNL A   1      31.905  26.773  25.590  1.00  0.00     0.028 A 
ATOM     85  C   UNL A   1      31.096  27.268  26.602  1.00  0.00     0.017 A 
ATOM     86  S   UNL A   1      33.459  27.513  25.739  1.00  0.00    -0.147 S 
ATOM     87  C   UNL A   1      31.754  28.103  27.544  1.00  0.00     0.012 A 
ATOM     88  C   UNL A   1      33.083  28.237  27.238  1.00  0.00     0.065 A 
ENDBRANCH  79  84
BRANCH  81  89
ATOM     89  C   UNL A   1      31.005  27.432  22.682  1.00  0.00     0.125 C 
BRANCH  89  90
ATOM     90  C   UNL A   1      29.548  27.621  23.171  1.00  0.00     0.060 C 
BRANCH  90  91
ATOM     91  C   UNL A   1      29.096  29.057  23.261  1.00  0.00    -0.010 A 
ATOM     92  C   UNL A   1      29.991  30.088  23.594  1.00  0.00     0.007 A 
ATOM     93  C   UNL A   1      27.752  29.381  23.096  1.00  0.00     0.126 A 
ATOM     94  C   UNL A   1      29.515  31.372  23.886  1.00  0.00     0.000 A 
ATOM     95  C   UNL A   1      27.278  30.659  23.368  1.00  0.00     0.039 A 
ATOM     96  F   UNL A   1      26.876  28.428  22.745  1.00  0.00    -0.207 F 
ATOM     97  C   UNL A   1      28.153  31.650  23.802  1.00  0.00     0.003 A 
ENDBRANCH  90  91
ENDBRANCH  89  90
ENDBRANCH  81  89
ENDBRANCH  74  77
ENDBRANCH  72  73
ENDBRANCH   1  72
TORSDOF 17
ENDMDL
MODEL 3
REMARK VINA RESULT:     -12.6      5.222     10.475
REMARK SMILES O=C(NCCCNC(=O)[C@H]1CCC(=O)N(CCc2ccccc2F)[C@@H]1c1cccs1)c1ccc(-c2c3nc(c(-c4cc(S(=O)(=O)[O-])ccc4F)c4ccc([nH]4)c(-c4cc(S(=O)(=O)[O-])ccc4F)c4nc(c(-c5cc(S(=O)(=O)[O-])ccc5F)c5ccc2[nH]5)C=C4)C=C3)cc1
REMARK SMILES IDX 5 1 4 2 3 3 1 4 2 5 31 7 32 8 93 9 33 10 92 11 34 12 35 13
REMARK SMILES IDX 36 14 86 15 37 16 91 17 85 18 87 19 38 20 90 21 84 22 83 23
REMARK SMILES IDX 39 25 71 26 51 27 70 28 52 29 55 30 69 31 88 32 53 33 54 34
REMARK SMILES IDX 68 36 89 37 56 38 40 39 41 40 49 41 42 42 48 43 50 44 47 45
REMARK SMILES IDX 43 46 44 47 45 48 46 49 72 50 73 51 81 52 74 53 80 54 82 55
REMARK SMILES IDX 79 56 75 57 76 58 77 59 78 60 57 61 58 62 66 63 59 64 65 65
REMARK SMILES IDX 67 66 64 67 60 68 61 69 62 70 63 71 6 72 7 73 8 74 9 76
REMARK SMILES IDX 10 77 11 78 25 79 12 80 15 81 13 82 14 83 26 84 27 85 30 86
REMARK SMILES IDX 28 87 29 88 16 89 17 90 18 91 19 92 23 93 20 94 22 95 24 96
REMARK SMILES IDX 21 97
REMARK H PARENT 3 6 87 24 55 35 7 75
REMARK Flexibility Score: inf
ROOT
ATOM      1  C   UNL A   1      35.136  22.800  26.646  1.00  0.00     0.042 C 
ENDROOT
BRANCH   1   2
ATOM      2  C   UNL A   1      36.056  22.607  25.447  1.00  0.00     0.118 C 
BRANCH   2   3
ATOM      3  N   UNL A   1      36.954  21.469  25.585  1.00  0.00    -0.352 N 
ATOM      4  O   UNL A   1      38.915  20.369  25.745  1.00  0.00    -0.269 OA
ATOM      5  C   UNL A   1      38.303  21.428  25.854  1.00  0.00     0.251 C 
ATOM      6  H   UNL A   1      36.528  20.589  25.467  1.00  0.00     0.163 HD
BRANCH   5   7
ATOM      7  C   UNL A   1      39.002  22.659  26.276  1.00  0.00     0.039 A 
ATOM      8  C   UNL A   1      38.587  23.893  25.776  1.00  0.00     0.014 A 
ATOM      9  C   UNL A   1      40.070  22.590  27.174  1.00  0.00     0.014 A 
ATOM     10  C   UNL A   1      39.350  25.024  26.012  1.00  0.00     0.010 A 
ATOM     11  C   UNL A   1      40.767  23.755  27.510  1.00  0.00     0.010 A 
ATOM     12  C   UNL A   1      40.430  24.976  26.905  1.00  0.00    -0.014 A 
BRANCH  12  13
ATOM     13  C   UNL A   1      41.134  26.239  27.240  1.00  0.00     0.031 A 
ATOM     14  C   UNL A   1      40.507  27.261  28.143  1.00  0.00     0.074 A 
ATOM     15  C   UNL A   1      42.383  26.415  26.765  1.00  0.00     0.049 A 
ATOM     16  N   UNL A   1      40.976  28.425  28.513  1.00  0.00    -0.248 NA
ATOM     17  C   UNL A   1      39.186  26.940  28.702  1.00  0.00     0.031 C 
ATOM     18  C   UNL A   1      43.099  25.460  25.911  1.00  0.00     0.029 A 
ATOM     19  N   UNL A   1      43.287  27.423  26.960  1.00  0.00    -0.354 N 
ATOM     20  C   UNL A   1      40.003  28.985  29.333  1.00  0.00     0.074 A 
ATOM     21  C   UNL A   1      38.907  28.040  29.389  1.00  0.00     0.031 C 
ATOM     22  C   UNL A   1      44.353  25.891  25.724  1.00  0.00     0.029 A 
ATOM     23  C   UNL A   1      44.502  27.193  26.359  1.00  0.00     0.049 A 
ATOM     24  H   UNL A   1      43.088  28.235  27.481  1.00  0.00     0.167 HD
ATOM     25  C   UNL A   1      40.031  30.178  29.979  1.00  0.00     0.034 A 
ATOM     26  C   UNL A   1      45.609  27.955  26.300  1.00  0.00     0.034 A 
ATOM     27  C   UNL A   1      41.138  31.103  29.905  1.00  0.00     0.049 A 
ATOM     28  C   UNL A   1      45.587  29.298  26.964  1.00  0.00     0.074 A 
ATOM     29  C   UNL A   1      41.259  32.353  30.488  1.00  0.00     0.029 A 
ATOM     30  N   UNL A   1      42.319  30.875  29.208  1.00  0.00    -0.354 N 
ATOM     31  N   UNL A   1      44.623  29.854  27.658  1.00  0.00    -0.248 NA
ATOM     32  C   UNL A   1      46.791  30.123  26.820  1.00  0.00     0.031 C 
ATOM     33  C   UNL A   1      42.489  32.900  30.103  1.00  0.00     0.029 A 
ATOM     34  C   UNL A   1      43.166  31.966  29.334  1.00  0.00     0.049 A 
ATOM     35  H   UNL A   1      42.524  30.059  28.698  1.00  0.00     0.167 HD
ATOM     36  C   UNL A   1      45.106  31.097  28.043  1.00  0.00     0.074 A 
ATOM     37  C   UNL A   1      46.453  31.203  27.512  1.00  0.00     0.031 C 
ATOM     38  C   UNL A   1      44.493  32.062  28.774  1.00  0.00     0.034 A 
BRANCH  25  39
ATOM     39  C   UNL A   1      38.811  30.569  30.775  1.00  0.00     0.023 A 
ATOM     40  C   UNL A   1      37.724  31.235  30.183  1.00  0.00     0.031 A 
ATOM     41  C   UNL A   1      38.736  30.272  32.148  1.00  0.00     0.131 A 
ATOM     42  C   UNL A   1      36.628  31.622  30.970  1.00  0.00     0.055 A 
ATOM     43  C   UNL A   1      37.615  30.603  32.912  1.00  0.00     0.041 A 
ATOM     44  F   UNL A   1      39.754  29.658  32.770  1.00  0.00    -0.206 F 
ATOM     45  C   UNL A   1      36.556  31.290  32.326  1.00  0.00     0.022 A 
BRANCH  42  46
ATOM     46  S   UNL A   1      35.336  32.651  30.222  1.00  0.00     0.124 S 
ATOM     47  O   UNL A   1      34.403  32.809  31.335  1.00  0.00    -0.237 OA
ATOM     48  O   UNL A   1      36.071  33.848  29.829  1.00  0.00    -0.237 OA
ATOM     49  O   UNL A   1      34.843  31.832  29.116  1.00  0.00    -0.744 OA
ENDBRANCH  42  46
ENDBRANCH  25  39
BRANCH  26  50
ATOM     50  C   UNL A   1      46.799  27.463  25.557  1.00  0.00     0.023 A 
ATOM     51  C   UNL A   1      46.998  27.804  24.212  1.00  0.00     0.031 A 
ATOM     52  C   UNL A   1      47.782  26.691  26.202  1.00  0.00     0.131 A 
ATOM     53  C   UNL A   1      48.157  27.371  23.550  1.00  0.00     0.055 A 
ATOM     54  C   UNL A   1      48.950  26.294  25.550  1.00  0.00     0.041 A 
ATOM     55  F   UNL A   1      47.641  26.355  27.494  1.00  0.00    -0.206 F 
ATOM     56  C   UNL A   1      49.140  26.632  24.214  1.00  0.00     0.022 A 
BRANCH  53  57
ATOM     57  S   UNL A   1      48.368  27.790  21.799  1.00  0.00     0.124 S 
ATOM     58  O   UNL A   1      49.594  28.580  21.828  1.00  0.00    -0.237 OA
ATOM     59  O   UNL A   1      48.466  26.474  21.178  1.00  0.00    -0.237 OA
ATOM     60  O   UNL A   1      47.151  28.534  21.478  1.00  0.00    -0.744 OA
ENDBRANCH  53  57
ENDBRANCH  26  50
BRANCH  38  61
ATOM     61  C   UNL A   1      45.294  33.303  29.061  1.00  0.00     0.023 A 
ATOM     62  C   UNL A   1      45.303  34.391  28.172  1.00  0.00     0.031 A 
ATOM     63  C   UNL A   1      46.057  33.392  30.237  1.00  0.00     0.131 A 
ATOM     64  C   UNL A   1      46.098  35.511  28.456  1.00  0.00     0.055 A 
ATOM     65  C   UNL A   1      46.807  34.528  30.537  1.00  0.00     0.041 A 
ATOM     66  F   UNL A   1      46.081  32.375  31.113  1.00  0.00    -0.206 F 
ATOM     67  C   UNL A   1      46.838  35.593  29.640  1.00  0.00     0.022 A 
BRANCH  64  68
ATOM     68  S   UNL A   1      46.201  36.840  27.227  1.00  0.00     0.124 S 
ATOM     69  O   UNL A   1      46.785  36.147  26.083  1.00  0.00    -0.237 OA
ATOM     70  O   UNL A   1      44.807  37.245  27.083  1.00  0.00    -0.237 OA
ATOM     71  O   UNL A   1      47.069  37.829  27.863  1.00  0.00    -0.744 OA
ENDBRANCH  64  68
ENDBRANCH  38  61
ENDBRANCH  12  13
ENDBRANCH   5   7
ENDBRANCH   2   3
ENDBRANCH   1   2
BRANCH   1  72
ATOM     72  C   UNL A   1      33.909  21.895  26.640  1.00  0.00     0.117 C 
BRANCH  72  73
ATOM     73  N   UNL A   1      32.713  22.595  27.074  1.00  0.00    -0.356 N 
ATOM     74  C   UNL A   1      31.981  23.595  26.535  1.00  0.00     0.225 C 
ATOM     75  H   UNL A   1      32.364  22.274  27.936  1.00  0.00     0.163 HD
ATOM     76  O   UNL A   1      31.071  24.027  27.251  1.00  0.00    -0.275 OA
BRANCH  74  77
ATOM     77  C   UNL A   1      32.233  24.218  25.165  1.00  0.00     0.107 C 
ATOM     78  C   UNL A   1      31.794  23.297  24.039  1.00  0.00     0.026 C 
ATOM     79  C   UNL A   1      31.678  25.649  24.955  1.00  0.00     0.138 C 
ATOM     80  C   UNL A   1      32.420  23.805  22.765  1.00  0.00     0.101 C 
ATOM     81  N   UNL A   1      31.669  26.074  23.499  1.00  0.00    -0.334 N 
ATOM     82  C   UNL A   1      31.918  25.189  22.441  1.00  0.00     0.223 C 
ATOM     83  O   UNL A   1      31.793  25.511  21.256  1.00  0.00    -0.275 OA
BRANCH  79  84
ATOM     84  C   UNL A   1      32.309  26.717  25.881  1.00  0.00     0.028 A 
ATOM     85  C   UNL A   1      33.641  27.091  25.983  1.00  0.00     0.017 A 
ATOM     86  S   UNL A   1      31.386  27.744  26.917  1.00  0.00    -0.147 S 
ATOM     87  C   UNL A   1      33.881  28.255  26.760  1.00  0.00     0.012 A 
ATOM     88  C   UNL A   1      32.709  28.769  27.250  1.00  0.00     0.065 A 
ENDBRANCH  79  84
BRANCH  81  89
ATOM     89  C   UNL A   1      31.126  27.387  23.078  1.00  0.00     0.125 C 
BRANCH  89  90
ATOM     90  C   UNL A   1      29.591  27.561  23.183  1.00  0.00     0.060 C 
BRANCH  90  91
ATOM     91  C   UNL A   1      29.125  28.993  23.273  1.00  0.00    -0.010 A 
ATOM     92  C   UNL A   1      30.015  30.035  23.584  1.00  0.00     0.007 A 
ATOM     93  C   UNL A   1      27.774  29.301  23.130  1.00  0.00     0.126 A 
ATOM     94  C   UNL A   1      29.530  31.316  23.877  1.00  0.00     0.000 A 
ATOM     95  C   UNL A   1      27.292  30.576  23.401  1.00  0.00     0.039 A 
ATOM     96  F   UNL A   1      26.903  28.337  22.799  1.00  0.00    -0.207 F 
ATOM     97  C   UNL A   1      28.163  31.579  23.814  1.00  0.00     0.003 A 
ENDBRANCH  90  91
ENDBRANCH  89  90
ENDBRANCH  81  89
ENDBRANCH  74  77
ENDBRANCH  72  73
ENDBRANCH   1  72
TORSDOF 17
ENDMDL
