MODEL 1
REMARK VINA RESULT:     -12.2      0.000      0.000
REMARK SMILES CO[C@@H]1C[C@@H](C(=O)NCCCNC(=O)c2ccc(-c3c4nc(c(-c5cc(S(=O)(=O)[O-])ccc5F)c5ccc([nH]5)c(-c5cc(S(=O)(=O)[O-])ccc5F)c5nc(c(-c6cc(S(=O)(=O)[O-])ccc6F)c6ccc3[nH]6)C=C5)C=C4)cc2)N(S(=O)(=O)c2ccc(Cl)cc2F)C1
REMARK SMILES IDX 10 1 9 2 8 3 6 4 7 5 5 7 3 8 4 9 90 10 78 11 2 12 1 13 79 14
REMARK SMILES IDX 80 15 81 16 82 17 83 18 88 19 84 20 87 21 89 22 85 23 86 24
REMARK SMILES IDX 11 25 12 26 13 27 14 29 15 30 16 31 77 32 17 33 76 34 18 35
REMARK SMILES IDX 19 36 20 37 70 38 21 39 75 40 69 41 71 42 22 43 74 44 68 45
REMARK SMILES IDX 67 46 23 48 55 49 35 50 54 51 36 52 39 53 53 54 72 55 37 56
REMARK SMILES IDX 38 57 52 59 73 60 40 61 24 62 25 63 33 64 26 65 32 66 34 67
REMARK SMILES IDX 31 68 27 69 28 70 29 71 30 72 56 73 57 74 65 75 58 76 64 77
REMARK SMILES IDX 66 78 63 79 59 80 60 81 61 82 62 83 41 84 42 85 50 86 43 87
REMARK SMILES IDX 49 88 51 89 48 90 44 91 45 92 46 93 47 94
REMARK H PARENT 8 6 12 28 71 47 39 58
REMARK Flexibility Score: inf
ROOT
ATOM      1  C   UNL A   1      34.723  21.408  25.211  1.00  0.00     0.042 C 
ENDROOT
BRANCH   1   2
ATOM      2  C   UNL A   1      33.530  22.017  25.965  1.00  0.00     0.117 C 
BRANCH   2   3
ATOM      3  N   UNL A   1      33.656  23.443  26.245  1.00  0.00    -0.355 N 
ATOM      4  C   UNL A   1      33.562  24.574  25.499  1.00  0.00     0.238 C 
ATOM      5  O   UNL A   1      33.974  25.606  26.052  1.00  0.00    -0.273 OA
ATOM      6  H   UNL A   1      33.856  23.628  27.192  1.00  0.00     0.163 HD
BRANCH   4   7
ATOM      7  C   UNL A   1      32.942  24.680  24.125  1.00  0.00     0.165 C 
ATOM      8  C   UNL A   1      32.892  26.233  22.253  1.00  0.00     0.135 C 
ATOM      9  C   UNL A   1      33.834  25.404  23.107  1.00  0.00     0.064 C 
ATOM     10  C   UNL A   1      31.590  25.442  22.329  1.00  0.00     0.135 C 
ATOM     11  N   UNL A   1      31.514  24.909  23.733  1.00  0.00    -0.183 NA
BRANCH   8  12
ATOM     12  O   UNL A   1      33.339  26.306  20.900  1.00  0.00    -0.380 OA
ATOM     13  C   UNL A   1      32.586  25.489  20.012  1.00  0.00     0.195 C 
ENDBRANCH   8  12
BRANCH  11  14
ATOM     14  S   UNL A   1      30.377  25.727  24.681  1.00  0.00     0.246 S 
ATOM     15  O   UNL A   1      29.240  25.996  23.838  1.00  0.00    -0.207 OA
ATOM     16  O   UNL A   1      30.190  24.895  25.859  1.00  0.00    -0.207 OA
BRANCH  14  17
ATOM     17  C   UNL A   1      31.055  27.242  25.305  1.00  0.00     0.118 A 
ATOM     18  C   UNL A   1      31.354  27.353  26.673  1.00  0.00     0.026 A 
ATOM     19  C   UNL A   1      31.109  28.391  24.537  1.00  0.00     0.144 A 
ATOM     20  C   UNL A   1      31.756  28.582  27.218  1.00  0.00     0.022 A 
ATOM     21  C   UNL A   1      31.566  29.606  25.051  1.00  0.00     0.061 A 
ATOM     22  F   UNL A   1      30.657  28.410  23.290  1.00  0.00    -0.205 F 
ATOM     23  C   UNL A   1      31.886  29.698  26.396  1.00  0.00     0.044 A 
ATOM     24  Cl  UNL A   1      32.396  31.203  27.051  1.00  0.00    -0.084 Cl
ENDBRANCH  14  17
ENDBRANCH  11  14
ENDBRANCH   4   7
ENDBRANCH   2   3
ENDBRANCH   1   2
BRANCH   1  25
ATOM     25  C   UNL A   1      36.118  21.827  25.664  1.00  0.00     0.118 C 
BRANCH  25  26
ATOM     26  N   UNL A   1      37.098  20.770  25.581  1.00  0.00    -0.352 N 
ATOM     27  C   UNL A   1      38.461  20.777  25.745  1.00  0.00     0.251 C 
ATOM     28  H   UNL A   1      36.722  19.884  25.368  1.00  0.00     0.163 HD
ATOM     29  O   UNL A   1      39.071  19.742  25.478  1.00  0.00    -0.269 OA
BRANCH  27  30
ATOM     30  C   UNL A   1      39.222  21.981  26.176  1.00  0.00     0.039 A 
ATOM     31  C   UNL A   1      38.688  23.231  25.841  1.00  0.00     0.014 A 
ATOM     32  C   UNL A   1      40.470  21.929  26.802  1.00  0.00     0.014 A 
ATOM     33  C   UNL A   1      39.371  24.410  26.166  1.00  0.00     0.010 A 
ATOM     34  C   UNL A   1      41.120  23.109  27.191  1.00  0.00     0.010 A 
ATOM     35  C   UNL A   1      40.582  24.365  26.871  1.00  0.00    -0.014 A 
BRANCH  35  36
ATOM     36  C   UNL A   1      41.289  25.620  27.259  1.00  0.00     0.031 A 
ATOM     37  C   UNL A   1      40.608  26.655  28.117  1.00  0.00     0.074 A 
ATOM     38  C   UNL A   1      42.542  25.845  26.814  1.00  0.00     0.049 A 
ATOM     39  N   UNL A   1      41.042  27.829  28.504  1.00  0.00    -0.248 NA
ATOM     40  C   UNL A   1      39.251  26.336  28.582  1.00  0.00     0.031 C 
ATOM     41  C   UNL A   1      43.310  24.940  25.957  1.00  0.00     0.029 A 
ATOM     42  N   UNL A   1      43.390  26.908  27.014  1.00  0.00    -0.354 N 
ATOM     43  C   UNL A   1      40.009  28.397  29.243  1.00  0.00     0.074 A 
ATOM     44  C   UNL A   1      38.910  27.453  29.207  1.00  0.00     0.031 C 
ATOM     45  C   UNL A   1      44.518  25.474  25.721  1.00  0.00     0.029 A 
ATOM     46  C   UNL A   1      44.598  26.781  26.368  1.00  0.00     0.049 A 
ATOM     47  H   UNL A   1      43.155  27.687  27.567  1.00  0.00     0.167 HD
ATOM     48  C   UNL A   1      39.983  29.582  29.903  1.00  0.00     0.034 A 
ATOM     49  C   UNL A   1      45.647  27.623  26.287  1.00  0.00     0.034 A 
ATOM     50  C   UNL A   1      41.090  30.509  29.950  1.00  0.00     0.049 A 
ATOM     51  C   UNL A   1      45.586  28.947  27.004  1.00  0.00     0.074 A 
ATOM     52  C   UNL A   1      41.187  31.704  30.642  1.00  0.00     0.029 A 
ATOM     53  N   UNL A   1      42.291  30.350  29.270  1.00  0.00    -0.354 N 
ATOM     54  N   UNL A   1      44.614  29.449  27.730  1.00  0.00    -0.248 NA
ATOM     55  C   UNL A   1      46.765  29.815  26.895  1.00  0.00     0.031 C 
ATOM     56  C   UNL A   1      42.417  32.296  30.333  1.00  0.00     0.029 A 
ATOM     57  C   UNL A   1      43.118  31.441  29.499  1.00  0.00     0.049 A 
ATOM     58  H   UNL A   1      42.522  29.577  28.705  1.00  0.00     0.167 HD
ATOM     59  C   UNL A   1      45.075  30.682  28.178  1.00  0.00     0.074 A 
ATOM     60  C   UNL A   1      46.417  30.840  27.658  1.00  0.00     0.031 C 
ATOM     61  C   UNL A   1      44.447  31.600  28.956  1.00  0.00     0.034 A 
BRANCH  48  62
ATOM     62  C   UNL A   1      38.699  29.957  30.607  1.00  0.00     0.023 A 
ATOM     63  C   UNL A   1      37.758  30.820  30.019  1.00  0.00     0.031 A 
ATOM     64  C   UNL A   1      38.423  29.461  31.894  1.00  0.00     0.131 A 
ATOM     65  C   UNL A   1      36.626  31.221  30.744  1.00  0.00     0.055 A 
ATOM     66  C   UNL A   1      37.255  29.804  32.580  1.00  0.00     0.041 A 
ATOM     67  F   UNL A   1      39.291  28.647  32.514  1.00  0.00    -0.206 F 
ATOM     68  C   UNL A   1      36.356  30.701  32.012  1.00  0.00     0.022 A 
BRANCH  65  69
ATOM     69  S   UNL A   1      35.585  32.541  30.064  1.00  0.00     0.124 S 
ATOM     70  O   UNL A   1      35.346  32.059  28.706  1.00  0.00    -0.237 OA
ATOM     71  O   UNL A   1      34.434  32.528  30.959  1.00  0.00    -0.237 OA
ATOM     72  O   UNL A   1      36.433  33.729  30.154  1.00  0.00    -0.744 OA
ENDBRANCH  65  69
ENDBRANCH  48  62
BRANCH  49  73
ATOM     73  C   UNL A   1      46.842  27.261  25.472  1.00  0.00     0.023 A 
ATOM     74  C   UNL A   1      46.998  27.738  24.162  1.00  0.00     0.031 A 
ATOM     75  C   UNL A   1      47.827  26.397  25.985  1.00  0.00     0.131 A 
ATOM     76  C   UNL A   1      48.093  27.316  23.392  1.00  0.00     0.055 A 
ATOM     77  C   UNL A   1      48.939  26.019  25.231  1.00  0.00     0.041 A 
ATOM     78  F   UNL A   1      47.725  25.918  27.236  1.00  0.00    -0.206 F 
ATOM     79  C   UNL A   1      49.070  26.470  23.922  1.00  0.00     0.022 A 
BRANCH  76  80
ATOM     80  S   UNL A   1      48.187  27.837  21.657  1.00  0.00     0.124 S 
ATOM     81  O   UNL A   1      46.890  28.479  21.468  1.00  0.00    -0.237 OA
ATOM     82  O   UNL A   1      49.346  28.722  21.668  1.00  0.00    -0.237 OA
ATOM     83  O   UNL A   1      48.372  26.580  20.934  1.00  0.00    -0.744 OA
ENDBRANCH  76  80
ENDBRANCH  49  73
BRANCH  61  84
ATOM     84  C   UNL A   1      45.226  32.843  29.309  1.00  0.00     0.023 A 
ATOM     85  C   UNL A   1      45.171  33.999  28.511  1.00  0.00     0.031 A 
ATOM     86  C   UNL A   1      46.051  32.862  30.446  1.00  0.00     0.131 A 
ATOM     87  C   UNL A   1      45.967  35.109  28.832  1.00  0.00     0.055 A 
ATOM     88  C   UNL A   1      46.800  33.987  30.791  1.00  0.00     0.041 A 
ATOM     89  F   UNL A   1      46.143  31.785  31.242  1.00  0.00    -0.206 F 
ATOM     90  C   UNL A   1      46.771  35.116  29.975  1.00  0.00     0.022 A 
BRANCH  87  91
ATOM     91  S   UNL A   1      46.001  36.519  27.691  1.00  0.00     0.124 S 
ATOM     92  O   UNL A   1      46.289  37.632  28.592  1.00  0.00    -0.237 OA
ATOM     93  O   UNL A   1      47.071  36.151  26.770  1.00  0.00    -0.237 OA
ATOM     94  O   UNL A   1      44.660  36.523  27.110  1.00  0.00    -0.744 OA
ENDBRANCH  87  91
ENDBRANCH  61  84
ENDBRANCH  35  36
ENDBRANCH  27  30
ENDBRANCH  25  26
ENDBRANCH   1  25
TORSDOF 16
ENDMDL
MODEL 2
REMARK VINA RESULT:     -12.1      1.206      1.645
REMARK SMILES CO[C@@H]1C[C@@H](C(=O)NCCCNC(=O)c2ccc(-c3c4nc(c(-c5cc(S(=O)(=O)[O-])ccc5F)c5ccc([nH]5)c(-c5cc(S(=O)(=O)[O-])ccc5F)c5nc(c(-c6cc(S(=O)(=O)[O-])ccc6F)c6ccc3[nH]6)C=C5)C=C4)cc2)N(S(=O)(=O)c2ccc(Cl)cc2F)C1
REMARK SMILES IDX 10 1 9 2 8 3 6 4 7 5 5 7 3 8 4 9 90 10 78 11 2 12 1 13 79 14
REMARK SMILES IDX 80 15 81 16 82 17 83 18 88 19 84 20 87 21 89 22 85 23 86 24
REMARK SMILES IDX 11 25 12 26 13 27 14 29 15 30 16 31 77 32 17 33 76 34 18 35
REMARK SMILES IDX 19 36 20 37 70 38 21 39 75 40 69 41 71 42 22 43 74 44 68 45
REMARK SMILES IDX 67 46 23 48 55 49 35 50 54 51 36 52 39 53 53 54 72 55 37 56
REMARK SMILES IDX 38 57 52 59 73 60 40 61 24 62 25 63 33 64 26 65 32 66 34 67
REMARK SMILES IDX 31 68 27 69 28 70 29 71 30 72 56 73 57 74 65 75 58 76 64 77
REMARK SMILES IDX 66 78 63 79 59 80 60 81 61 82 62 83 41 84 42 85 50 86 43 87
REMARK SMILES IDX 49 88 51 89 48 90 44 91 45 92 46 93 47 94
REMARK H PARENT 8 6 12 28 71 47 39 58
REMARK Flexibility Score: inf
ROOT
ATOM      1  C   UNL A   1      34.586  21.960  26.894  1.00  0.00     0.042 C 
ENDROOT
BRANCH   1   2
ATOM      2  C   UNL A   1      33.396  22.925  27.022  1.00  0.00     0.117 C 
BRANCH   2   3
ATOM      3  N   UNL A   1      32.090  22.298  26.853  1.00  0.00    -0.355 N 
ATOM      4  C   UNL A   1      31.071  22.440  25.966  1.00  0.00     0.238 C 
ATOM      5  O   UNL A   1      30.007  21.892  26.291  1.00  0.00    -0.273 OA
ATOM      6  H   UNL A   1      31.904  21.615  27.538  1.00  0.00     0.163 HD
BRANCH   4   7
ATOM      7  C   UNL A   1      31.157  23.126  24.621  1.00  0.00     0.165 C 
ATOM      8  C   UNL A   1      32.853  24.043  23.137  1.00  0.00     0.135 C 
ATOM      9  C   UNL A   1      32.422  22.763  23.830  1.00  0.00     0.064 C 
ATOM     10  C   UNL A   1      31.536  24.794  22.976  1.00  0.00     0.135 C 
ATOM     11  N   UNL A   1      30.745  24.510  24.223  1.00  0.00    -0.183 NA
BRANCH   8  12
ATOM     12  O   UNL A   1      33.422  23.778  21.855  1.00  0.00    -0.380 OA
ATOM     13  C   UNL A   1      33.069  24.741  20.871  1.00  0.00     0.195 C 
ENDBRANCH   8  12
BRANCH  11  14
ATOM     14  S   UNL A   1      30.684  25.834  25.273  1.00  0.00     0.246 S 
ATOM     15  O   UNL A   1      29.685  25.536  26.270  1.00  0.00    -0.207 OA
ATOM     16  O   UNL A   1      32.056  26.047  25.703  1.00  0.00    -0.207 OA
BRANCH  14  17
ATOM     17  C   UNL A   1      30.254  27.312  24.393  1.00  0.00     0.118 A 
ATOM     18  C   UNL A   1      30.992  28.487  24.614  1.00  0.00     0.026 A 
ATOM     19  C   UNL A   1      29.090  27.411  23.652  1.00  0.00     0.144 A 
ATOM     20  C   UNL A   1      30.588  29.702  24.041  1.00  0.00     0.022 A 
ATOM     21  C   UNL A   1      28.708  28.599  23.026  1.00  0.00     0.061 A 
ATOM     22  F   UNL A   1      28.240  26.397  23.563  1.00  0.00    -0.205 F 
ATOM     23  C   UNL A   1      29.461  29.746  23.226  1.00  0.00     0.044 A 
ATOM     24  Cl  UNL A   1      28.969  31.226  22.505  1.00  0.00    -0.084 Cl
ENDBRANCH  14  17
ENDBRANCH  11  14
ENDBRANCH   4   7
ENDBRANCH   2   3
ENDBRANCH   1   2
BRANCH   1  25
ATOM     25  C   UNL A   1      35.618  22.270  25.814  1.00  0.00     0.118 C 
BRANCH  25  26
ATOM     26  N   UNL A   1      36.569  21.204  25.596  1.00  0.00    -0.352 N 
ATOM     27  C   UNL A   1      37.939  21.176  25.675  1.00  0.00     0.251 C 
ATOM     28  H   UNL A   1      36.161  20.343  25.346  1.00  0.00     0.163 HD
ATOM     29  O   UNL A   1      38.509  20.152  25.298  1.00  0.00    -0.269 OA
BRANCH  27  30
ATOM     30  C   UNL A   1      38.750  22.333  26.141  1.00  0.00     0.039 A 
ATOM     31  C   UNL A   1      38.341  23.609  25.735  1.00  0.00     0.014 A 
ATOM     32  C   UNL A   1      39.937  22.209  26.868  1.00  0.00     0.014 A 
ATOM     33  C   UNL A   1      39.081  24.744  26.089  1.00  0.00     0.010 A 
ATOM     34  C   UNL A   1      40.640  23.348  27.283  1.00  0.00     0.010 A 
ATOM     35  C   UNL A   1      40.224  24.631  26.892  1.00  0.00    -0.014 A 
BRANCH  35  36
ATOM     36  C   UNL A   1      40.990  25.841  27.310  1.00  0.00     0.031 A 
ATOM     37  C   UNL A   1      40.345  26.906  28.159  1.00  0.00     0.074 A 
ATOM     38  C   UNL A   1      42.265  26.000  26.899  1.00  0.00     0.049 A 
ATOM     39  N   UNL A   1      40.834  28.051  28.567  1.00  0.00    -0.248 NA
ATOM     40  C   UNL A   1      38.960  26.660  28.586  1.00  0.00     0.031 C 
ATOM     41  C   UNL A   1      43.003  25.059  26.054  1.00  0.00     0.029 A 
ATOM     42  N   UNL A   1      43.165  27.012  27.130  1.00  0.00    -0.354 N 
ATOM     43  C   UNL A   1      39.815  28.670  29.285  1.00  0.00     0.074 A 
ATOM     44  C   UNL A   1      38.666  27.790  29.212  1.00  0.00     0.031 C 
ATOM     45  C   UNL A   1      44.245  25.527  25.854  1.00  0.00     0.029 A 
ATOM     46  C   UNL A   1      44.381  26.822  26.515  1.00  0.00     0.049 A 
ATOM     47  H   UNL A   1      42.959  27.799  27.684  1.00  0.00     0.167 HD
ATOM     48  C   UNL A   1      39.837  29.850  29.955  1.00  0.00     0.034 A 
ATOM     49  C   UNL A   1      45.477  27.606  26.468  1.00  0.00     0.034 A 
ATOM     50  C   UNL A   1      40.993  30.713  30.038  1.00  0.00     0.049 A 
ATOM     51  C   UNL A   1      45.470  28.925  27.195  1.00  0.00     0.074 A 
ATOM     52  C   UNL A   1      41.138  31.896  30.744  1.00  0.00     0.029 A 
ATOM     53  N   UNL A   1      42.200  30.493  29.388  1.00  0.00    -0.354 N 
ATOM     54  N   UNL A   1      44.509  29.475  27.900  1.00  0.00    -0.248 NA
ATOM     55  C   UNL A   1      46.698  29.727  27.124  1.00  0.00     0.031 C 
ATOM     56  C   UNL A   1      42.406  32.421  30.472  1.00  0.00     0.029 A 
ATOM     57  C   UNL A   1      43.080  31.534  29.648  1.00  0.00     0.049 A 
ATOM     58  H   UNL A   1      42.402  29.712  28.822  1.00  0.00     0.167 HD
ATOM     59  C   UNL A   1      45.026  30.678  28.371  1.00  0.00     0.074 A 
ATOM     60  C   UNL A   1      46.388  30.764  27.887  1.00  0.00     0.031 C 
ATOM     61  C   UNL A   1      44.429  31.624  29.141  1.00  0.00     0.034 A 
BRANCH  48  62
ATOM     62  C   UNL A   1      38.558  30.291  30.629  1.00  0.00     0.023 A 
ATOM     63  C   UNL A   1      37.573  31.020  29.941  1.00  0.00     0.031 A 
ATOM     64  C   UNL A   1      38.330  29.996  31.985  1.00  0.00     0.131 A 
ATOM     65  C   UNL A   1      36.445  31.495  30.627  1.00  0.00     0.055 A 
ATOM     66  C   UNL A   1      37.169  30.405  32.643  1.00  0.00     0.041 A 
ATOM     67  F   UNL A   1      39.242  29.316  32.699  1.00  0.00    -0.206 F 
ATOM     68  C   UNL A   1      36.224  31.173  31.968  1.00  0.00     0.022 A 
BRANCH  65  69
ATOM     69  S   UNL A   1      35.342  32.658  29.780  1.00  0.00     0.124 S 
ATOM     70  O   UNL A   1      36.271  33.716  29.389  1.00  0.00    -0.237 OA
ATOM     71  O   UNL A   1      34.803  31.848  28.693  1.00  0.00    -0.237 OA
ATOM     72  O   UNL A   1      34.379  33.035  30.814  1.00  0.00    -0.744 OA
ENDBRANCH  65  69
ENDBRANCH  48  62
BRANCH  49  73
ATOM     73  C   UNL A   1      46.670  27.184  25.681  1.00  0.00     0.023 A 
ATOM     74  C   UNL A   1      46.906  27.690  24.394  1.00  0.00     0.031 A 
ATOM     75  C   UNL A   1      47.571  26.234  26.195  1.00  0.00     0.131 A 
ATOM     76  C   UNL A   1      47.996  27.215  23.647  1.00  0.00     0.055 A 
ATOM     77  C   UNL A   1      48.679  25.800  25.466  1.00  0.00     0.041 A 
ATOM     78  F   UNL A   1      47.391  25.723  27.424  1.00  0.00    -0.206 F 
ATOM     79  C   UNL A   1      48.889  26.282  24.178  1.00  0.00     0.022 A 
BRANCH  76  80
ATOM     80  S   UNL A   1      48.188  27.784  21.935  1.00  0.00     0.124 S 
ATOM     81  O   UNL A   1      49.377  28.625  22.032  1.00  0.00    -0.237 OA
ATOM     82  O   UNL A   1      48.347  26.527  21.214  1.00  0.00    -0.237 OA
ATOM     83  O   UNL A   1      46.939  28.497  21.672  1.00  0.00    -0.744 OA
ENDBRANCH  76  80
ENDBRANCH  49  73
BRANCH  61  84
ATOM     84  C   UNL A   1      45.267  32.818  29.525  1.00  0.00     0.023 A 
ATOM     85  C   UNL A   1      45.286  33.987  28.743  1.00  0.00     0.031 A 
ATOM     86  C   UNL A   1      46.073  32.777  30.675  1.00  0.00     0.131 A 
ATOM     87  C   UNL A   1      46.134  35.049  29.094  1.00  0.00     0.055 A 
ATOM     88  C   UNL A   1      46.875  33.857  31.049  1.00  0.00     0.041 A 
ATOM     89  F   UNL A   1      46.095  31.685  31.456  1.00  0.00    -0.206 F 
ATOM     90  C   UNL A   1      46.918  34.997  30.250  1.00  0.00     0.022 A 
BRANCH  87  91
ATOM     91  S   UNL A   1      46.261  36.471  27.975  1.00  0.00     0.124 S 
ATOM     92  O   UNL A   1      47.707  36.622  27.839  1.00  0.00    -0.237 OA
ATOM     93  O   UNL A   1      45.555  36.001  26.789  1.00  0.00    -0.237 OA
ATOM     94  O   UNL A   1      45.592  37.545  28.708  1.00  0.00    -0.744 OA
ENDBRANCH  87  91
ENDBRANCH  61  84
ENDBRANCH  35  36
ENDBRANCH  27  30
ENDBRANCH  25  26
ENDBRANCH   1  25
TORSDOF 16
ENDMDL
MODEL 3
REMARK VINA RESULT:     -12.1      5.747     10.494
REMARK SMILES CO[C@@H]1C[C@@H](C(=O)NCCCNC(=O)c2ccc(-c3c4nc(c(-c5cc(S(=O)(=O)[O-])ccc5F)c5ccc([nH]5)c(-c5cc(S(=O)(=O)[O-])ccc5F)c5nc(c(-c6cc(S(=O)(=O)[O-])ccc6F)c6ccc3[nH]6)C=C5)C=C4)cc2)N(S(=O)(=O)c2ccc(Cl)cc2F)C1
REMARK SMILES IDX 10 1 9 2 8 3 6 4 7 5 5 7 3 8 4 9 90 10 78 11 2 12 1 13 79 14
REMARK SMILES IDX 80 15 81 16 82 17 83 18 88 19 84 20 87 21 89 22 85 23 86 24
REMARK SMILES IDX 11 25 12 26 13 27 14 29 15 30 16 31 77 32 17 33 76 34 18 35
REMARK SMILES IDX 19 36 20 37 70 38 21 39 75 40 69 41 71 42 22 43 74 44 68 45
REMARK SMILES IDX 67 46 23 48 55 49 35 50 54 51 36 52 39 53 53 54 72 55 37 56
REMARK SMILES IDX 38 57 52 59 73 60 40 61 24 62 25 63 33 64 26 65 32 66 34 67
REMARK SMILES IDX 31 68 27 69 28 70 29 71 30 72 56 73 57 74 65 75 58 76 64 77
REMARK SMILES IDX 66 78 63 79 59 80 60 81 61 82 62 83 41 84 42 85 50 86 43 87
REMARK SMILES IDX 49 88 51 89 48 90 44 91 45 92 46 93 47 94
REMARK H PARENT 8 6 12 28 71 47 39 58
REMARK Flexibility Score: inf
ROOT
ATOM      1  C   UNL A   1      31.443  31.928  26.532  1.00  0.00     0.042 C 
ENDROOT
BRANCH   1   2
ATOM      2  C   UNL A   1      31.469  30.408  26.299  1.00  0.00     0.117 C 
BRANCH   2   3
ATOM      3  N   UNL A   1      32.325  29.980  25.198  1.00  0.00    -0.355 N 
ATOM      4  C   UNL A   1      32.899  28.804  24.839  1.00  0.00     0.238 C 
ATOM      5  O   UNL A   1      33.767  28.888  23.955  1.00  0.00    -0.273 OA
ATOM      6  H   UNL A   1      32.533  30.712  24.573  1.00  0.00     0.163 HD
BRANCH   4   7
ATOM      7  C   UNL A   1      32.519  27.436  25.359  1.00  0.00     0.165 C 
ATOM      8  C   UNL A   1      33.462  25.197  25.482  1.00  0.00     0.135 C 
ATOM      9  C   UNL A   1      33.713  26.634  25.897  1.00  0.00     0.064 C 
ATOM     10  C   UNL A   1      31.941  25.135  25.398  1.00  0.00     0.135 C 
ATOM     11  N   UNL A   1      31.505  26.462  24.842  1.00  0.00    -0.183 NA
BRANCH   8  12
ATOM     12  O   UNL A   1      33.933  24.277  26.466  1.00  0.00    -0.380 OA
ATOM     13  C   UNL A   1      32.961  23.313  26.849  1.00  0.00     0.195 C 
ENDBRANCH   8  12
BRANCH  11  14
ATOM     14  S   UNL A   1      31.002  26.362  23.231  1.00  0.00     0.246 S 
ATOM     15  O   UNL A   1      32.192  26.360  22.417  1.00  0.00    -0.207 OA
ATOM     16  O   UNL A   1      30.118  25.211  23.175  1.00  0.00    -0.207 OA
BRANCH  14  17
ATOM     17  C   UNL A   1      29.970  27.742  22.810  1.00  0.00     0.118 A 
ATOM     18  C   UNL A   1      30.545  28.879  22.218  1.00  0.00     0.026 A 
ATOM     19  C   UNL A   1      28.655  27.829  23.230  1.00  0.00     0.144 A 
ATOM     20  C   UNL A   1      29.781  30.036  22.006  1.00  0.00     0.022 A 
ATOM     21  C   UNL A   1      27.866  28.950  22.972  1.00  0.00     0.061 A 
ATOM     22  F   UNL A   1      28.103  26.875  23.969  1.00  0.00    -0.205 F 
ATOM     23  C   UNL A   1      28.435  30.056  22.360  1.00  0.00     0.044 A 
ATOM     24  Cl  UNL A   1      27.487  31.463  22.087  1.00  0.00    -0.084 Cl
ENDBRANCH  14  17
ENDBRANCH  11  14
ENDBRANCH   4   7
ENDBRANCH   2   3
ENDBRANCH   1   2
BRANCH   1  25
ATOM     25  C   UNL A   1      32.742  32.583  26.989  1.00  0.00     0.118 C 
BRANCH  25  26
ATOM     26  N   UNL A   1      32.555  33.874  27.610  1.00  0.00    -0.352 N 
ATOM     27  C   UNL A   1      33.219  34.494  28.639  1.00  0.00     0.251 C 
ATOM     28  H   UNL A   1      31.819  34.405  27.226  1.00  0.00     0.163 HD
ATOM     29  O   UNL A   1      32.754  35.553  29.059  1.00  0.00    -0.269 OA
BRANCH  27  30
ATOM     30  C   UNL A   1      34.429  33.920  29.288  1.00  0.00     0.039 A 
ATOM     31  C   UNL A   1      34.229  32.928  30.255  1.00  0.00     0.014 A 
ATOM     32  C   UNL A   1      35.728  34.382  29.058  1.00  0.00     0.014 A 
ATOM     33  C   UNL A   1      35.313  32.376  30.948  1.00  0.00     0.010 A 
ATOM     34  C   UNL A   1      36.820  33.781  29.699  1.00  0.00     0.010 A 
ATOM     35  C   UNL A   1      36.626  32.774  30.659  1.00  0.00    -0.014 A 
BRANCH  35  36
ATOM     36  C   UNL A   1      37.787  32.156  31.362  1.00  0.00     0.031 A 
ATOM     37  C   UNL A   1      38.581  31.050  30.714  1.00  0.00     0.074 A 
ATOM     38  C   UNL A   1      38.114  32.569  32.603  1.00  0.00     0.049 A 
ATOM     39  N   UNL A   1      39.581  30.354  31.195  1.00  0.00    -0.248 NA
ATOM     40  C   UNL A   1      38.182  30.662  29.353  1.00  0.00     0.031 C 
ATOM     41  C   UNL A   1      37.416  33.612  33.356  1.00  0.00     0.029 A 
ATOM     42  N   UNL A   1      39.111  32.159  33.454  1.00  0.00    -0.354 N 
ATOM     43  C   UNL A   1      39.921  29.436  30.207  1.00  0.00     0.074 A 
ATOM     44  C   UNL A   1      38.986  29.636  29.118  1.00  0.00     0.031 C 
ATOM     45  C   UNL A   1      38.016  33.773  34.546  1.00  0.00     0.029 A 
ATOM     46  C   UNL A   1      39.112  32.815  34.663  1.00  0.00     0.049 A 
ATOM     47  H   UNL A   1      39.765  31.461  33.220  1.00  0.00     0.167 HD
ATOM     48  C   UNL A   1      40.927  28.525  30.198  1.00  0.00     0.034 A 
ATOM     49  C   UNL A   1      39.889  32.656  35.753  1.00  0.00     0.034 A 
ATOM     50  C   UNL A   1      41.867  28.344  31.280  1.00  0.00     0.049 A 
ATOM     51  C   UNL A   1      40.982  31.619  35.732  1.00  0.00     0.074 A 
ATOM     52  C   UNL A   1      42.959  27.495  31.342  1.00  0.00     0.029 A 
ATOM     53  N   UNL A   1      41.823  29.018  32.493  1.00  0.00    -0.354 N 
ATOM     54  N   UNL A   1      41.312  30.786  34.772  1.00  0.00    -0.248 NA
ATOM     55  C   UNL A   1      41.809  31.503  36.940  1.00  0.00     0.031 C 
ATOM     56  C   UNL A   1      43.537  27.609  32.612  1.00  0.00     0.029 A 
ATOM     57  C   UNL A   1      42.846  28.578  33.322  1.00  0.00     0.049 A 
ATOM     58  H   UNL A   1      41.162  29.707  32.733  1.00  0.00     0.167 HD
ATOM     59  C   UNL A   1      42.398  30.063  35.256  1.00  0.00     0.074 A 
ATOM     60  C   UNL A   1      42.678  30.569  36.583  1.00  0.00     0.031 C 
ATOM     61  C   UNL A   1      43.104  29.072  34.654  1.00  0.00     0.034 A 
BRANCH  48  62
ATOM     62  C   UNL A   1      41.043  27.630  28.985  1.00  0.00     0.023 A 
ATOM     63  C   UNL A   1      42.029  27.837  28.005  1.00  0.00     0.031 A 
ATOM     64  C   UNL A   1      40.140  26.568  28.796  1.00  0.00     0.131 A 
ATOM     65  C   UNL A   1      42.042  27.046  26.846  1.00  0.00     0.055 A 
ATOM     66  C   UNL A   1      40.207  25.736  27.677  1.00  0.00     0.041 A 
ATOM     67  F   UNL A   1      39.167  26.332  29.689  1.00  0.00    -0.206 F 
ATOM     68  C   UNL A   1      41.153  25.981  26.686  1.00  0.00     0.022 A 
BRANCH  65  69
ATOM     69  S   UNL A   1      43.147  27.518  25.488  1.00  0.00     0.124 S 
ATOM     70  O   UNL A   1      42.231  28.222  24.593  1.00  0.00    -0.237 OA
ATOM     71  O   UNL A   1      44.142  28.344  26.162  1.00  0.00    -0.237 OA
ATOM     72  O   UNL A   1      43.638  26.237  24.982  1.00  0.00    -0.744 OA
ENDBRANCH  65  69
ENDBRANCH  48  62
BRANCH  49  73
ATOM     73  C   UNL A   1      39.652  33.477  36.973  1.00  0.00     0.023 A 
ATOM     74  C   UNL A   1      40.423  34.619  37.240  1.00  0.00     0.031 A 
ATOM     75  C   UNL A   1      38.672  33.105  37.912  1.00  0.00     0.131 A 
ATOM     76  C   UNL A   1      40.229  35.327  38.437  1.00  0.00     0.055 A 
ATOM     77  C   UNL A   1      38.452  33.840  39.077  1.00  0.00     0.041 A 
ATOM     78  F   UNL A   1      37.906  32.023  37.699  1.00  0.00    -0.206 F 
ATOM     79  C   UNL A   1      39.242  34.952  39.351  1.00  0.00     0.022 A 
BRANCH  76  80
ATOM     80  S   UNL A   1      41.340  36.711  38.816  1.00  0.00     0.124 S 
ATOM     81  O   UNL A   1      40.395  37.758  39.190  1.00  0.00    -0.237 OA
ATOM     82  O   UNL A   1      42.151  36.161  39.896  1.00  0.00    -0.237 OA
ATOM     83  O   UNL A   1      42.049  36.932  37.556  1.00  0.00    -0.744 OA
ENDBRANCH  76  80
ENDBRANCH  49  73
BRANCH  61  84
ATOM     84  C   UNL A   1      44.266  28.497  35.425  1.00  0.00     0.023 A 
ATOM     85  C   UNL A   1      44.127  27.341  36.214  1.00  0.00     0.031 A 
ATOM     86  C   UNL A   1      45.521  29.126  35.388  1.00  0.00     0.131 A 
ATOM     87  C   UNL A   1      45.212  26.879  36.975  1.00  0.00     0.055 A 
ATOM     88  C   UNL A   1      46.612  28.632  36.105  1.00  0.00     0.041 A 
ATOM     89  F   UNL A   1      45.709  30.234  34.653  1.00  0.00    -0.206 F 
ATOM     90  C   UNL A   1      46.458  27.509  36.914  1.00  0.00     0.022 A 
BRANCH  87  91
ATOM     91  S   UNL A   1      44.954  25.488  38.110  1.00  0.00     0.124 S 
ATOM     92  O   UNL A   1      44.756  26.169  39.386  1.00  0.00    -0.237 OA
ATOM     93  O   UNL A   1      43.776  24.837  37.545  1.00  0.00    -0.237 OA
ATOM     94  O   UNL A   1      46.194  24.722  38.002  1.00  0.00    -0.744 OA
ENDBRANCH  87  91
ENDBRANCH  61  84
ENDBRANCH  35  36
ENDBRANCH  27  30
ENDBRANCH  25  26
ENDBRANCH   1  25
TORSDOF 16
ENDMDL
