MODEL 1
REMARK VINA RESULT:     -12.3      0.000      0.000
REMARK SMILES O=C(CSc1nnc(Cc2ccncc2)n1-c1ccccc1Cl)NCCCNC(=O)c1ccc(-c2c3nc(c(-c4cc(S(=O)(=O)[O-])ccc4F)c4ccc([nH]4)c(-c4cc(S(=O)(=O)[O-])ccc4F)c4nc(c(-c5cc(S(=O)(=O)[O-])ccc5F)c5ccc2[nH]5)C=C4)C=C3)cc1
REMARK SMILES IDX 25 1 24 2 1 3 2 4 3 6 4 7 5 8 6 9 16 10 7 11 8 12 17 13
REMARK SMILES IDX 18 14 22 15 19 16 21 17 23 18 20 19 9 20 10 21 11 22 15 23
REMARK SMILES IDX 12 24 14 25 13 26 26 27 27 28 28 29 29 30 30 32 31 33 32 34
REMARK SMILES IDX 93 35 33 36 92 37 34 38 35 39 36 40 86 41 37 42 91 43 85 44
REMARK SMILES IDX 87 45 38 46 90 47 84 48 83 49 39 51 71 52 51 53 70 54 52 55
REMARK SMILES IDX 55 56 69 57 88 58 53 59 54 60 68 62 89 63 56 64 40 65 41 66
REMARK SMILES IDX 49 67 42 68 48 69 50 70 47 71 43 72 44 73 45 74 46 75 72 76
REMARK SMILES IDX 73 77 81 78 74 79 80 80 82 81 79 82 75 83 76 84 77 85 78 86
REMARK SMILES IDX 57 87 58 88 66 89 59 90 65 91 67 92 64 93 60 94 61 95 62 96
REMARK SMILES IDX 63 97
REMARK H PARENT 24 5 28 31 87 50 55 61
REMARK Flexibility Score: inf
ROOT
ATOM      1  C   UNL A   1      32.276  30.052  26.182  1.00  0.00     0.117 C 
ENDROOT
BRANCH   1   2
ATOM      2  N   UNL A   1      32.491  29.588  24.823  1.00  0.00    -0.355 N 
ATOM      3  O   UNL A   1      30.272  29.487  24.256  1.00  0.00    -0.274 OA
ATOM      4  C   UNL A   1      31.456  29.410  23.929  1.00  0.00     0.230 C 
ATOM      5  H   UNL A   1      33.410  29.395  24.528  1.00  0.00     0.163 HD
BRANCH   4   6
ATOM      6  C   UNL A   1      31.857  28.974  22.531  1.00  0.00     0.178 C 
BRANCH   6   7
ATOM      7  S   UNL A   1      33.491  28.201  22.433  1.00  0.00    -0.076 SA
BRANCH   7   8
ATOM      8  C   UNL A   1      33.096  26.567  22.003  1.00  0.00     0.196 A 
ATOM      9  N   UNL A   1      33.391  26.008  20.853  1.00  0.00    -0.123 NA
ATOM     10  N   UNL A   1      32.690  25.602  22.908  1.00  0.00    -0.272 N 
ATOM     11  N   UNL A   1      33.220  24.653  20.989  1.00  0.00    -0.134 NA
ATOM     12  C   UNL A   1      32.821  24.403  22.224  1.00  0.00     0.142 A 
BRANCH  10  13
ATOM     13  C   UNL A   1      32.324  25.783  24.258  1.00  0.00     0.068 A 
ATOM     14  C   UNL A   1      33.338  25.855  25.223  1.00  0.00     0.028 A 
ATOM     15  C   UNL A   1      30.980  25.921  24.629  1.00  0.00     0.065 A 
ATOM     16  C   UNL A   1      33.003  26.089  26.557  1.00  0.00     0.002 A 
ATOM     17  C   UNL A   1      30.659  26.161  25.966  1.00  0.00     0.023 A 
ATOM     18  Cl  UNL A   1      29.673  25.682  23.527  1.00  0.00    -0.082 Cl
ATOM     19  C   UNL A   1      31.668  26.251  26.926  1.00  0.00     0.002 A 
ENDBRANCH  10  13
BRANCH  12  20
ATOM     20  C   UNL A   1      32.534  23.047  22.781  1.00  0.00     0.113 C 
BRANCH  20  21
ATOM     21  C   UNL A   1      33.607  22.531  23.712  1.00  0.00    -0.037 A 
ATOM     22  C   UNL A   1      33.275  21.723  24.804  1.00  0.00     0.024 A 
ATOM     23  C   UNL A   1      34.955  22.833  23.498  1.00  0.00     0.024 A 
ATOM     24  C   UNL A   1      34.293  21.246  25.616  1.00  0.00     0.111 A 
ATOM     25  C   UNL A   1      35.901  22.303  24.365  1.00  0.00     0.111 A 
ATOM     26  N   UNL A   1      35.602  21.509  25.414  1.00  0.00    -0.265 NA
ENDBRANCH  20  21
ENDBRANCH  12  20
ENDBRANCH   7   8
ENDBRANCH   6   7
ENDBRANCH   4   6
ENDBRANCH   1   2
BRANCH   1  27
ATOM     27  C   UNL A   1      33.399  29.671  27.148  1.00  0.00     0.042 C 
BRANCH  27  28
ATOM     28  C   UNL A   1      34.505  30.714  27.224  1.00  0.00     0.118 C 
BRANCH  28  29
ATOM     29  N   UNL A   1      34.420  31.571  28.404  1.00  0.00    -0.352 N 
ATOM     30  C   UNL A   1      35.252  31.591  29.512  1.00  0.00     0.251 C 
ATOM     31  H   UNL A   1      33.677  32.218  28.414  1.00  0.00     0.163 HD
ATOM     32  O   UNL A   1      34.892  32.138  30.541  1.00  0.00    -0.269 OA
BRANCH  30  33
ATOM     33  C   UNL A   1      36.571  30.926  29.432  1.00  0.00     0.039 A 
ATOM     34  C   UNL A   1      37.754  31.668  29.505  1.00  0.00     0.014 A 
ATOM     35  C   UNL A   1      36.619  29.540  29.296  1.00  0.00     0.014 A 
ATOM     36  C   UNL A   1      38.977  30.997  29.532  1.00  0.00     0.010 A 
ATOM     37  C   UNL A   1      37.811  28.874  29.452  1.00  0.00     0.010 A 
ATOM     38  C   UNL A   1      39.000  29.593  29.532  1.00  0.00    -0.014 A 
BRANCH  38  39
ATOM     39  C   UNL A   1      40.245  28.859  29.762  1.00  0.00     0.031 A 
ATOM     40  C   UNL A   1      40.560  28.595  31.195  1.00  0.00     0.074 A 
ATOM     41  C   UNL A   1      40.921  28.228  28.776  1.00  0.00     0.049 A 
ATOM     42  N   UNL A   1      41.584  29.002  31.869  1.00  0.00    -0.248 NA
ATOM     43  C   UNL A   1      39.557  27.899  32.019  1.00  0.00     0.031 C 
ATOM     44  C   UNL A   1      40.566  28.135  27.356  1.00  0.00     0.029 A 
ATOM     45  N   UNL A   1      42.001  27.404  28.865  1.00  0.00    -0.354 N 
ATOM     46  C   UNL A   1      41.477  28.428  33.134  1.00  0.00     0.074 A 
ATOM     47  C   UNL A   1      40.131  27.932  33.224  1.00  0.00     0.031 C 
ATOM     48  C   UNL A   1      41.242  27.112  26.790  1.00  0.00     0.029 A 
ATOM     49  C   UNL A   1      42.186  26.579  27.756  1.00  0.00     0.049 A 
ATOM     50  H   UNL A   1      42.599  27.391  29.645  1.00  0.00     0.167 HD
ATOM     51  C   UNL A   1      42.579  28.216  33.911  1.00  0.00     0.034 A 
ATOM     52  C   UNL A   1      43.018  25.506  27.653  1.00  0.00     0.034 A 
ATOM     53  C   UNL A   1      43.707  28.977  33.420  1.00  0.00     0.049 A 
ATOM     54  C   UNL A   1      44.065  25.687  28.693  1.00  0.00     0.074 A 
ATOM     55  C   UNL A   1      43.926  30.319  33.165  1.00  0.00     0.029 A 
ATOM     56  N   UNL A   1      44.697  28.311  32.727  1.00  0.00    -0.354 N 
ATOM     57  N   UNL A   1      44.925  26.669  28.675  1.00  0.00    -0.248 NA
ATOM     58  C   UNL A   1      43.838  25.089  30.001  1.00  0.00     0.031 C 
ATOM     59  C   UNL A   1      44.643  30.337  31.932  1.00  0.00     0.029 A 
ATOM     60  C   UNL A   1      44.911  29.016  31.568  1.00  0.00     0.049 A 
ATOM     61  H   UNL A   1      45.161  27.490  33.009  1.00  0.00     0.167 HD
ATOM     62  C   UNL A   1      44.998  27.104  29.990  1.00  0.00     0.074 A 
ATOM     63  C   UNL A   1      44.387  26.031  30.776  1.00  0.00     0.031 C 
ATOM     64  C   UNL A   1      45.272  28.407  30.301  1.00  0.00     0.034 A 
BRANCH  51  65
ATOM     65  C   UNL A   1      42.760  27.069  34.887  1.00  0.00     0.023 A 
ATOM     66  C   UNL A   1      43.600  26.012  34.482  1.00  0.00     0.031 A 
ATOM     67  C   UNL A   1      41.955  26.807  36.018  1.00  0.00     0.131 A 
ATOM     68  C   UNL A   1      43.520  24.747  35.088  1.00  0.00     0.055 A 
ATOM     69  C   UNL A   1      41.936  25.567  36.667  1.00  0.00     0.041 A 
ATOM     70  F   UNL A   1      41.080  27.690  36.508  1.00  0.00    -0.206 F 
ATOM     71  C   UNL A   1      42.691  24.515  36.180  1.00  0.00     0.022 A 
BRANCH  68  72
ATOM     72  S   UNL A   1      44.367  23.361  34.287  1.00  0.00     0.124 S 
ATOM     73  O   UNL A   1      43.426  23.022  33.224  1.00  0.00    -0.237 OA
ATOM     74  O   UNL A   1      45.620  23.978  33.865  1.00  0.00    -0.237 OA
ATOM     75  O   UNL A   1      44.486  22.372  35.356  1.00  0.00    -0.744 OA
ENDBRANCH  68  72
ENDBRANCH  51  65
BRANCH  52  76
ATOM     76  C   UNL A   1      42.778  24.231  26.914  1.00  0.00     0.023 A 
ATOM     77  C   UNL A   1      43.742  23.638  26.067  1.00  0.00     0.031 A 
ATOM     78  C   UNL A   1      41.646  23.440  27.219  1.00  0.00     0.131 A 
ATOM     79  C   UNL A   1      43.548  22.325  25.567  1.00  0.00     0.055 A 
ATOM     80  C   UNL A   1      41.456  22.148  26.719  1.00  0.00     0.041 A 
ATOM     81  F   UNL A   1      40.713  23.860  28.088  1.00  0.00    -0.206 F 
ATOM     82  C   UNL A   1      42.414  21.580  25.897  1.00  0.00     0.022 A 
BRANCH  79  83
ATOM     83  S   UNL A   1      44.828  21.512  24.551  1.00  0.00     0.124 S 
ATOM     84  O   UNL A   1      46.057  21.909  25.226  1.00  0.00    -0.237 OA
ATOM     85  O   UNL A   1      44.459  20.105  24.643  1.00  0.00    -0.237 OA
ATOM     86  O   UNL A   1      44.636  22.106  23.226  1.00  0.00    -0.744 OA
ENDBRANCH  79  83
ENDBRANCH  52  76
BRANCH  64  87
ATOM     87  C   UNL A   1      45.766  29.345  29.215  1.00  0.00     0.023 A 
ATOM     88  C   UNL A   1      44.939  30.162  28.409  1.00  0.00     0.031 A 
ATOM     89  C   UNL A   1      47.157  29.525  29.107  1.00  0.00     0.131 A 
ATOM     90  C   UNL A   1      45.515  31.108  27.537  1.00  0.00     0.055 A 
ATOM     91  C   UNL A   1      47.722  30.480  28.263  1.00  0.00     0.041 A 
ATOM     92  F   UNL A   1      47.999  28.800  29.862  1.00  0.00    -0.206 F 
ATOM     93  C   UNL A   1      46.903  31.273  27.470  1.00  0.00     0.022 A 
BRANCH  90  94
ATOM     94  S   UNL A   1      44.471  32.140  26.457  1.00  0.00     0.124 S 
ATOM     95  O   UNL A   1      43.377  31.251  26.087  1.00  0.00    -0.237 OA
ATOM     96  O   UNL A   1      44.121  33.259  27.327  1.00  0.00    -0.237 OA
ATOM     97  O   UNL A   1      45.367  32.491  25.352  1.00  0.00    -0.744 OA
ENDBRANCH  90  94
ENDBRANCH  64  87
ENDBRANCH  38  39
ENDBRANCH  30  33
ENDBRANCH  28  29
ENDBRANCH  27  28
ENDBRANCH   1  27
TORSDOF 18
ENDMDL
MODEL 2
REMARK VINA RESULT:     -12.1      1.343      2.192
REMARK SMILES O=C(CSc1nnc(Cc2ccncc2)n1-c1ccccc1Cl)NCCCNC(=O)c1ccc(-c2c3nc(c(-c4cc(S(=O)(=O)[O-])ccc4F)c4ccc([nH]4)c(-c4cc(S(=O)(=O)[O-])ccc4F)c4nc(c(-c5cc(S(=O)(=O)[O-])ccc5F)c5ccc2[nH]5)C=C4)C=C3)cc1
REMARK SMILES IDX 25 1 24 2 1 3 2 4 3 6 4 7 5 8 6 9 16 10 7 11 8 12 17 13
REMARK SMILES IDX 18 14 22 15 19 16 21 17 23 18 20 19 9 20 10 21 11 22 15 23
REMARK SMILES IDX 12 24 14 25 13 26 26 27 27 28 28 29 29 30 30 32 31 33 32 34
REMARK SMILES IDX 93 35 33 36 92 37 34 38 35 39 36 40 86 41 37 42 91 43 85 44
REMARK SMILES IDX 87 45 38 46 90 47 84 48 83 49 39 51 71 52 51 53 70 54 52 55
REMARK SMILES IDX 55 56 69 57 88 58 53 59 54 60 68 62 89 63 56 64 40 65 41 66
REMARK SMILES IDX 49 67 42 68 48 69 50 70 47 71 43 72 44 73 45 74 46 75 72 76
REMARK SMILES IDX 73 77 81 78 74 79 80 80 82 81 79 82 75 83 76 84 77 85 78 86
REMARK SMILES IDX 57 87 58 88 66 89 59 90 65 91 67 92 64 93 60 94 61 95 62 96
REMARK SMILES IDX 63 97
REMARK H PARENT 24 5 28 31 87 50 55 61
REMARK Flexibility Score: inf
ROOT
ATOM      1  C   UNL A   1      33.720  28.467  26.933  1.00  0.00     0.117 C 
ENDROOT
BRANCH   1   2
ATOM      2  N   UNL A   1      32.869  27.724  26.019  1.00  0.00    -0.355 N 
ATOM      3  O   UNL A   1      31.303  27.135  27.587  1.00  0.00    -0.274 OA
ATOM      4  C   UNL A   1      31.669  27.169  26.412  1.00  0.00     0.230 C 
ATOM      5  H   UNL A   1      33.160  27.612  25.086  1.00  0.00     0.163 HD
BRANCH   4   6
ATOM      6  C   UNL A   1      30.875  26.472  25.322  1.00  0.00     0.178 C 
BRANCH   6   7
ATOM      7  S   UNL A   1      31.170  24.689  25.209  1.00  0.00    -0.076 SA
BRANCH   7   8
ATOM      8  C   UNL A   1      32.497  24.610  24.093  1.00  0.00     0.196 A 
ATOM      9  N   UNL A   1      33.017  25.648  23.481  1.00  0.00    -0.123 NA
ATOM     10  N   UNL A   1      33.323  23.510  23.946  1.00  0.00    -0.272 N 
ATOM     11  N   UNL A   1      34.220  25.260  22.946  1.00  0.00    -0.134 NA
ATOM     12  C   UNL A   1      34.417  23.986  23.241  1.00  0.00     0.142 A 
BRANCH  10  13
ATOM     13  C   UNL A   1      33.145  22.218  24.481  1.00  0.00     0.068 A 
ATOM     14  C   UNL A   1      32.587  21.224  23.663  1.00  0.00     0.028 A 
ATOM     15  C   UNL A   1      33.542  21.917  25.790  1.00  0.00     0.065 A 
ATOM     16  C   UNL A   1      32.452  19.925  24.152  1.00  0.00     0.002 A 
ATOM     17  C   UNL A   1      33.408  20.611  26.265  1.00  0.00     0.023 A 
ATOM     18  Cl  UNL A   1      34.083  23.118  26.906  1.00  0.00    -0.082 Cl
ATOM     19  C   UNL A   1      32.870  19.617  25.446  1.00  0.00     0.002 A 
ENDBRANCH  10  13
BRANCH  12  20
ATOM     20  C   UNL A   1      35.618  23.186  22.851  1.00  0.00     0.113 C 
BRANCH  20  21
ATOM     21  C   UNL A   1      36.535  22.862  24.008  1.00  0.00    -0.037 A 
ATOM     22  C   UNL A   1      36.968  23.869  24.878  1.00  0.00     0.024 A 
ATOM     23  C   UNL A   1      36.961  21.553  24.248  1.00  0.00     0.024 A 
ATOM     24  C   UNL A   1      37.785  23.524  25.944  1.00  0.00     0.111 A 
ATOM     25  C   UNL A   1      37.775  21.308  25.346  1.00  0.00     0.111 A 
ATOM     26  N   UNL A   1      38.189  22.262  26.205  1.00  0.00    -0.265 NA
ENDBRANCH  20  21
ENDBRANCH  12  20
ENDBRANCH   7   8
ENDBRANCH   6   7
ENDBRANCH   4   6
ENDBRANCH   1   2
BRANCH   1  27
ATOM     27  C   UNL A   1      33.392  29.960  27.002  1.00  0.00     0.042 C 
BRANCH  27  28
ATOM     28  C   UNL A   1      34.607  30.828  27.298  1.00  0.00     0.118 C 
BRANCH  28  29
ATOM     29  N   UNL A   1      34.479  31.617  28.521  1.00  0.00    -0.352 N 
ATOM     30  C   UNL A   1      35.294  31.602  29.641  1.00  0.00     0.251 C 
ATOM     31  H   UNL A   1      33.716  32.238  28.554  1.00  0.00     0.163 HD
ATOM     32  O   UNL A   1      34.902  32.081  30.693  1.00  0.00    -0.269 OA
BRANCH  30  33
ATOM     33  C   UNL A   1      36.634  30.983  29.546  1.00  0.00     0.039 A 
ATOM     34  C   UNL A   1      37.790  31.736  29.777  1.00  0.00     0.014 A 
ATOM     35  C   UNL A   1      36.730  29.629  29.236  1.00  0.00     0.014 A 
ATOM     36  C   UNL A   1      39.029  31.096  29.782  1.00  0.00     0.010 A 
ATOM     37  C   UNL A   1      37.932  28.975  29.368  1.00  0.00     0.010 A 
ATOM     38  C   UNL A   1      39.093  29.705  29.602  1.00  0.00    -0.014 A 
BRANCH  38  39
ATOM     39  C   UNL A   1      40.346  28.976  29.802  1.00  0.00     0.031 A 
ATOM     40  C   UNL A   1      40.696  28.710  31.227  1.00  0.00     0.074 A 
ATOM     41  C   UNL A   1      41.002  28.350  28.799  1.00  0.00     0.049 A 
ATOM     42  N   UNL A   1      41.734  29.120  31.877  1.00  0.00    -0.248 NA
ATOM     43  C   UNL A   1      39.716  28.008  32.072  1.00  0.00     0.031 C 
ATOM     44  C   UNL A   1      40.615  28.259  27.387  1.00  0.00     0.029 A 
ATOM     45  N   UNL A   1      42.088  27.530  28.861  1.00  0.00    -0.354 N 
ATOM     46  C   UNL A   1      41.659  28.542  33.143  1.00  0.00     0.074 A 
ATOM     47  C   UNL A   1      40.317  28.040  33.263  1.00  0.00     0.031 C 
ATOM     48  C   UNL A   1      41.282  27.240  26.803  1.00  0.00     0.029 A 
ATOM     49  C   UNL A   1      42.251  26.709  27.746  1.00  0.00     0.049 A 
ATOM     50  H   UNL A   1      42.704  27.518  29.627  1.00  0.00     0.167 HD
ATOM     51  C   UNL A   1      42.779  28.333  33.894  1.00  0.00     0.034 A 
ATOM     52  C   UNL A   1      43.085  25.640  27.621  1.00  0.00     0.034 A 
ATOM     53  C   UNL A   1      43.893  29.101  33.379  1.00  0.00     0.049 A 
ATOM     54  C   UNL A   1      44.154  25.822  28.636  1.00  0.00     0.074 A 
ATOM     55  C   UNL A   1      44.099  30.444  33.121  1.00  0.00     0.029 A 
ATOM     56  N   UNL A   1      44.869  28.441  32.661  1.00  0.00    -0.354 N 
ATOM     57  N   UNL A   1      45.010  26.809  28.601  1.00  0.00    -0.248 NA
ATOM     58  C   UNL A   1      43.961  25.221  29.948  1.00  0.00     0.031 C 
ATOM     59  C   UNL A   1      44.788  30.469  31.872  1.00  0.00     0.029 A 
ATOM     60  C   UNL A   1      45.053  29.149  31.499  1.00  0.00     0.049 A 
ATOM     61  H   UNL A   1      45.343  27.621  32.931  1.00  0.00     0.167 HD
ATOM     62  C   UNL A   1      45.112  27.241  29.915  1.00  0.00     0.074 A 
ATOM     63  C   UNL A   1      44.523  26.163  30.712  1.00  0.00     0.031 C 
ATOM     64  C   UNL A   1      45.387  28.545  30.223  1.00  0.00     0.034 A 
BRANCH  51  65
ATOM     65  C   UNL A   1      42.988  27.186  34.863  1.00  0.00     0.023 A 
ATOM     66  C   UNL A   1      43.776  26.105  34.414  1.00  0.00     0.031 A 
ATOM     67  C   UNL A   1      42.245  26.948  36.040  1.00  0.00     0.131 A 
ATOM     68  C   UNL A   1      43.699  24.845  35.030  1.00  0.00     0.055 A 
ATOM     69  C   UNL A   1      42.233  25.711  36.695  1.00  0.00     0.041 A 
ATOM     70  F   UNL A   1      41.423  27.855  36.576  1.00  0.00    -0.206 F 
ATOM     71  C   UNL A   1      42.930  24.638  36.169  1.00  0.00     0.022 A 
BRANCH  68  72
ATOM     72  S   UNL A   1      44.462  23.435  34.186  1.00  0.00     0.124 S 
ATOM     73  O   UNL A   1      44.119  22.338  35.086  1.00  0.00    -0.237 OA
ATOM     74  O   UNL A   1      43.777  23.449  32.898  1.00  0.00    -0.237 OA
ATOM     75  O   UNL A   1      45.878  23.791  34.145  1.00  0.00    -0.744 OA
ENDBRANCH  68  72
ENDBRANCH  51  65
BRANCH  52  76
ATOM     76  C   UNL A   1      42.833  24.365  26.885  1.00  0.00     0.023 A 
ATOM     77  C   UNL A   1      43.807  23.737  26.075  1.00  0.00     0.031 A 
ATOM     78  C   UNL A   1      41.669  23.609  27.158  1.00  0.00     0.131 A 
ATOM     79  C   UNL A   1      43.593  22.426  25.580  1.00  0.00     0.055 A 
ATOM     80  C   UNL A   1      41.459  22.319  26.663  1.00  0.00     0.041 A 
ATOM     81  F   UNL A   1      40.720  24.064  27.992  1.00  0.00    -0.206 F 
ATOM     82  C   UNL A   1      42.427  21.717  25.878  1.00  0.00     0.022 A 
BRANCH  79  83
ATOM     83  S   UNL A   1      44.881  21.568  24.614  1.00  0.00     0.124 S 
ATOM     84  O   UNL A   1      44.678  20.176  24.996  1.00  0.00    -0.237 OA
ATOM     85  O   UNL A   1      44.539  21.924  23.242  1.00  0.00    -0.237 OA
ATOM     86  O   UNL A   1      46.126  22.163  25.104  1.00  0.00    -0.744 OA
ENDBRANCH  79  83
ENDBRANCH  52  76
BRANCH  64  87
ATOM     87  C   UNL A   1      45.851  29.487  29.127  1.00  0.00     0.023 A 
ATOM     88  C   UNL A   1      45.013  30.366  28.403  1.00  0.00     0.031 A 
ATOM     89  C   UNL A   1      47.239  29.601  28.926  1.00  0.00     0.131 A 
ATOM     90  C   UNL A   1      45.575  31.307  27.515  1.00  0.00     0.055 A 
ATOM     91  C   UNL A   1      47.792  30.550  28.067  1.00  0.00     0.041 A 
ATOM     92  F   UNL A   1      48.093  28.815  29.601  1.00  0.00    -0.206 F 
ATOM     93  C   UNL A   1      46.961  31.405  27.354  1.00  0.00     0.022 A 
BRANCH  90  94
ATOM     94  S   UNL A   1      44.512  32.419  26.537  1.00  0.00     0.124 S 
ATOM     95  O   UNL A   1      43.599  31.509  25.856  1.00  0.00    -0.237 OA
ATOM     96  O   UNL A   1      43.919  33.274  27.561  1.00  0.00    -0.237 OA
ATOM     97  O   UNL A   1      45.458  33.102  25.652  1.00  0.00    -0.744 OA
ENDBRANCH  90  94
ENDBRANCH  64  87
ENDBRANCH  38  39
ENDBRANCH  30  33
ENDBRANCH  28  29
ENDBRANCH  27  28
ENDBRANCH   1  27
TORSDOF 18
ENDMDL
MODEL 3
REMARK VINA RESULT:     -12.1      2.562      7.034
REMARK SMILES O=C(CSc1nnc(Cc2ccncc2)n1-c1ccccc1Cl)NCCCNC(=O)c1ccc(-c2c3nc(c(-c4cc(S(=O)(=O)[O-])ccc4F)c4ccc([nH]4)c(-c4cc(S(=O)(=O)[O-])ccc4F)c4nc(c(-c5cc(S(=O)(=O)[O-])ccc5F)c5ccc2[nH]5)C=C4)C=C3)cc1
REMARK SMILES IDX 25 1 24 2 1 3 2 4 3 6 4 7 5 8 6 9 16 10 7 11 8 12 17 13
REMARK SMILES IDX 18 14 22 15 19 16 21 17 23 18 20 19 9 20 10 21 11 22 15 23
REMARK SMILES IDX 12 24 14 25 13 26 26 27 27 28 28 29 29 30 30 32 31 33 32 34
REMARK SMILES IDX 93 35 33 36 92 37 34 38 35 39 36 40 86 41 37 42 91 43 85 44
REMARK SMILES IDX 87 45 38 46 90 47 84 48 83 49 39 51 71 52 51 53 70 54 52 55
REMARK SMILES IDX 55 56 69 57 88 58 53 59 54 60 68 62 89 63 56 64 40 65 41 66
REMARK SMILES IDX 49 67 42 68 48 69 50 70 47 71 43 72 44 73 45 74 46 75 72 76
REMARK SMILES IDX 73 77 81 78 74 79 80 80 82 81 79 82 75 83 76 84 77 85 78 86
REMARK SMILES IDX 57 87 58 88 66 89 59 90 65 91 67 92 64 93 60 94 61 95 62 96
REMARK SMILES IDX 63 97
REMARK H PARENT 24 5 28 31 87 50 55 61
REMARK Flexibility Score: inf
ROOT
ATOM      1  C   UNL A   1      32.624  28.461  26.019  1.00  0.00     0.117 C 
ENDROOT
BRANCH   1   2
ATOM      2  N   UNL A   1      32.091  27.261  25.397  1.00  0.00    -0.355 N 
ATOM      3  O   UNL A   1      30.256  28.274  24.468  1.00  0.00    -0.274 OA
ATOM      4  C   UNL A   1      30.969  27.279  24.596  1.00  0.00     0.230 C 
ATOM      5  H   UNL A   1      32.549  26.404  25.553  1.00  0.00     0.163 HD
BRANCH   4   6
ATOM      6  C   UNL A   1      30.577  25.948  23.978  1.00  0.00     0.178 C 
BRANCH   6   7
ATOM      7  S   UNL A   1      31.360  24.510  24.750  1.00  0.00    -0.076 SA
BRANCH   7   8
ATOM      8  C   UNL A   1      32.770  24.289  23.762  1.00  0.00     0.196 A 
ATOM      9  N   UNL A   1      33.365  25.246  23.092  1.00  0.00    -0.123 NA
ATOM     10  N   UNL A   1      33.576  23.165  23.799  1.00  0.00    -0.272 N 
ATOM     11  N   UNL A   1      34.597  24.782  22.702  1.00  0.00    -0.134 NA
ATOM     12  C   UNL A   1      34.736  23.543  23.142  1.00  0.00     0.142 A 
BRANCH  10  13
ATOM     13  C   UNL A   1      33.320  21.939  24.449  1.00  0.00     0.068 A 
ATOM     14  C   UNL A   1      32.766  20.888  23.704  1.00  0.00     0.028 A 
ATOM     15  C   UNL A   1      33.640  21.758  25.801  1.00  0.00     0.065 A 
ATOM     16  C   UNL A   1      32.555  19.650  24.311  1.00  0.00     0.002 A 
ATOM     17  C   UNL A   1      33.431  20.512  26.395  1.00  0.00     0.023 A 
ATOM     18  Cl  UNL A   1      34.170  23.046  26.820  1.00  0.00    -0.082 Cl
ATOM     19  C   UNL A   1      32.895  19.460  25.650  1.00  0.00     0.002 A 
ENDBRANCH  10  13
BRANCH  12  20
ATOM     20  C   UNL A   1      35.942  22.685  22.939  1.00  0.00     0.113 C 
BRANCH  20  21
ATOM     21  C   UNL A   1      36.857  22.626  24.142  1.00  0.00    -0.037 A 
ATOM     22  C   UNL A   1      37.107  23.772  24.904  1.00  0.00     0.024 A 
ATOM     23  C   UNL A   1      37.460  21.427  24.531  1.00  0.00     0.024 A 
ATOM     24  C   UNL A   1      37.928  23.668  26.016  1.00  0.00     0.111 A 
ATOM     25  C   UNL A   1      38.263  21.424  25.664  1.00  0.00     0.111 A 
ATOM     26  N   UNL A   1      38.504  22.515  26.421  1.00  0.00    -0.265 NA
ENDBRANCH  20  21
ENDBRANCH  12  20
ENDBRANCH   7   8
ENDBRANCH   6   7
ENDBRANCH   4   6
ENDBRANCH   1   2
BRANCH   1  27
ATOM     27  C   UNL A   1      33.511  28.183  27.234  1.00  0.00     0.042 C 
BRANCH  27  28
ATOM     28  C   UNL A   1      34.847  28.910  27.179  1.00  0.00     0.118 C 
BRANCH  28  29
ATOM     29  N   UNL A   1      34.995  29.942  28.203  1.00  0.00    -0.352 N 
ATOM     30  C   UNL A   1      36.051  30.138  29.078  1.00  0.00     0.251 C 
ATOM     31  H   UNL A   1      34.248  30.579  28.282  1.00  0.00     0.163 HD
ATOM     32  O   UNL A   1      35.908  30.838  30.067  1.00  0.00    -0.269 OA
BRANCH  30  33
ATOM     33  C   UNL A   1      37.344  29.473  28.804  1.00  0.00     0.039 A 
ATOM     34  C   UNL A   1      38.052  29.738  27.628  1.00  0.00     0.014 A 
ATOM     35  C   UNL A   1      37.856  28.584  29.746  1.00  0.00     0.014 A 
ATOM     36  C   UNL A   1      39.316  29.174  27.453  1.00  0.00     0.010 A 
ATOM     37  C   UNL A   1      39.150  28.133  29.635  1.00  0.00     0.010 A 
ATOM     38  C   UNL A   1      39.874  28.390  28.474  1.00  0.00    -0.014 A 
BRANCH  38  39
ATOM     39  C   UNL A   1      41.269  27.952  28.412  1.00  0.00     0.031 A 
ATOM     40  C   UNL A   1      41.494  26.682  27.664  1.00  0.00     0.074 A 
ATOM     41  C   UNL A   1      42.307  28.748  28.754  1.00  0.00     0.049 A 
ATOM     42  N   UNL A   1      41.976  25.572  28.116  1.00  0.00    -0.248 NA
ATOM     43  C   UNL A   1      41.011  26.587  26.277  1.00  0.00     0.031 C 
ATOM     44  C   UNL A   1      42.263  30.139  29.215  1.00  0.00     0.029 A 
ATOM     45  N   UNL A   1      43.643  28.525  28.617  1.00  0.00    -0.354 N 
ATOM     46  C   UNL A   1      42.073  24.711  27.023  1.00  0.00     0.074 A 
ATOM     47  C   UNL A   1      41.291  25.317  25.980  1.00  0.00     0.031 C 
ATOM     48  C   UNL A   1      43.481  30.702  29.064  1.00  0.00     0.029 A 
ATOM     49  C   UNL A   1      44.424  29.680  28.646  1.00  0.00     0.049 A 
ATOM     50  H   UNL A   1      44.026  27.625  28.508  1.00  0.00     0.167 HD
ATOM     51  C   UNL A   1      42.973  23.686  27.008  1.00  0.00     0.034 A 
ATOM     52  C   UNL A   1      45.736  29.799  28.304  1.00  0.00     0.034 A 
ATOM     53  C   UNL A   1      43.475  23.422  28.339  1.00  0.00     0.049 A 
ATOM     54  C   UNL A   1      46.325  28.440  28.421  1.00  0.00     0.074 A 
ATOM     55  C   UNL A   1      42.880  23.117  29.550  1.00  0.00     0.029 A 
ATOM     56  N   UNL A   1      44.745  23.856  28.660  1.00  0.00    -0.354 N 
ATOM     57  N   UNL A   1      46.422  27.800  29.555  1.00  0.00    -0.248 NA
ATOM     58  C   UNL A   1      46.335  27.596  27.234  1.00  0.00     0.031 C 
ATOM     59  C   UNL A   1      43.594  23.897  30.508  1.00  0.00     0.029 A 
ATOM     60  C   UNL A   1      44.642  24.541  29.846  1.00  0.00     0.049 A 
ATOM     61  H   UNL A   1      45.567  23.704  28.140  1.00  0.00     0.167 HD
ATOM     62  C   UNL A   1      46.053  26.496  29.263  1.00  0.00     0.074 A 
ATOM     63  C   UNL A   1      46.109  26.407  27.802  1.00  0.00     0.031 C 
ATOM     64  C   UNL A   1      45.453  25.693  30.193  1.00  0.00     0.034 A 
BRANCH  51  65
ATOM     65  C   UNL A   1      43.677  23.151  25.775  1.00  0.00     0.023 A 
ATOM     66  C   UNL A   1      43.661  21.754  25.586  1.00  0.00     0.031 A 
ATOM     67  C   UNL A   1      44.589  23.864  24.966  1.00  0.00     0.131 A 
ATOM     68  C   UNL A   1      44.597  21.123  24.749  1.00  0.00     0.055 A 
ATOM     69  C   UNL A   1      45.467  23.235  24.074  1.00  0.00     0.041 A 
ATOM     70  F   UNL A   1      44.753  25.188  25.047  1.00  0.00    -0.206 F 
ATOM     71  C   UNL A   1      45.503  21.855  23.991  1.00  0.00     0.022 A 
BRANCH  68  72
ATOM     72  S   UNL A   1      44.738  19.319  24.834  1.00  0.00     0.124 S 
ATOM     73  O   UNL A   1      43.610  18.981  25.696  1.00  0.00    -0.237 OA
ATOM     74  O   UNL A   1      44.611  18.942  23.430  1.00  0.00    -0.237 OA
ATOM     75  O   UNL A   1      46.059  19.110  25.421  1.00  0.00    -0.744 OA
ENDBRANCH  68  72
ENDBRANCH  51  65
BRANCH  52  76
ATOM     76  C   UNL A   1      46.402  30.948  27.620  1.00  0.00     0.023 A 
ATOM     77  C   UNL A   1      45.688  31.948  26.920  1.00  0.00     0.031 A 
ATOM     78  C   UNL A   1      47.774  31.207  27.847  1.00  0.00     0.131 A 
ATOM     79  C   UNL A   1      46.344  33.125  26.481  1.00  0.00     0.055 A 
ATOM     80  C   UNL A   1      48.418  32.367  27.406  1.00  0.00     0.041 A 
ATOM     81  F   UNL A   1      48.530  30.376  28.582  1.00  0.00    -0.206 F 
ATOM     82  C   UNL A   1      47.702  33.338  26.729  1.00  0.00     0.022 A 
BRANCH  79  83
ATOM     83  S   UNL A   1      45.414  34.464  25.661  1.00  0.00     0.124 S 
ATOM     84  O   UNL A   1      44.779  33.764  24.551  1.00  0.00    -0.237 OA
ATOM     85  O   UNL A   1      44.535  34.936  26.723  1.00  0.00    -0.237 OA
ATOM     86  O   UNL A   1      46.459  35.412  25.269  1.00  0.00    -0.744 OA
ENDBRANCH  79  83
ENDBRANCH  52  76
BRANCH  64  87
ATOM     87  C   UNL A   1      45.422  26.131  31.646  1.00  0.00     0.023 A 
ATOM     88  C   UNL A   1      44.334  26.777  32.277  1.00  0.00     0.031 A 
ATOM     89  C   UNL A   1      46.496  25.726  32.460  1.00  0.00     0.131 A 
ATOM     90  C   UNL A   1      44.355  27.000  33.669  1.00  0.00     0.055 A 
ATOM     91  C   UNL A   1      46.502  25.925  33.840  1.00  0.00     0.041 A 
ATOM     92  F   UNL A   1      47.550  25.085  31.929  1.00  0.00    -0.206 F 
ATOM     93  C   UNL A   1      45.433  26.566  34.450  1.00  0.00     0.022 A 
BRANCH  90  94
ATOM     94  S   UNL A   1      42.985  27.871  34.497  1.00  0.00     0.124 S 
ATOM     95  O   UNL A   1      42.356  28.624  33.419  1.00  0.00    -0.237 OA
ATOM     96  O   UNL A   1      42.200  26.773  35.054  1.00  0.00    -0.237 OA
ATOM     97  O   UNL A   1      43.663  28.698  35.498  1.00  0.00    -0.744 OA
ENDBRANCH  90  94
ENDBRANCH  64  87
ENDBRANCH  38  39
ENDBRANCH  30  33
ENDBRANCH  28  29
ENDBRANCH  27  28
ENDBRANCH   1  27
TORSDOF 18
ENDMDL
