MODEL 1
REMARK VINA RESULT:     -11.6      0.000      0.000
REMARK SMILES Cc1cc(F)c(-c2ccc(F)c(C(=O)NCCCNC(=O)c3ccc(-c4c5nc(c(-c6cc(S(=O)(=O)[O-])ccc6F)c6ccc([nH]6)c(-c6cc(S(=O)(=O)[O-])ccc6F)c6nc(c(-c7cc(S(=O)(=O)[O-])ccc7F)c7ccc4[nH]7)C=C6)C=C5)cc3)c2)cc1F
REMARK SMILES IDX 18 1 17 2 16 3 15 4 13 5 14 6 12 8 7 9 8 10 85 11 9 12 10 13
REMARK SMILES IDX 11 14 6 15 1 16 2 17 3 18 87 19 4 20 86 21 88 22 5 23 19 24
REMARK SMILES IDX 20 25 21 27 22 28 23 29 84 30 24 31 83 32 25 33 26 34 27 35
REMARK SMILES IDX 77 36 28 37 82 38 76 39 78 40 29 41 81 42 75 43 74 44 30 46
REMARK SMILES IDX 62 47 42 48 61 49 43 50 46 51 60 52 79 53 44 54 45 55 59 57
REMARK SMILES IDX 80 58 47 59 31 60 32 61 40 62 33 63 39 64 41 65 38 66 34 67
REMARK SMILES IDX 35 68 36 69 37 70 63 71 64 72 72 73 65 74 71 75 73 76 70 77
REMARK SMILES IDX 66 78 67 79 68 80 69 81 48 82 49 83 57 84 50 85 56 86 58 87
REMARK SMILES IDX 55 88 51 89 52 90 53 91 54 92
REMARK H PARENT 15 7 19 26 78 45 46 56
REMARK Flexibility Score: inf
ROOT
ATOM      1  C   UNL A   1      34.402  33.943  29.015  1.00  0.00     0.118 C 
ENDROOT
BRANCH   1   2
ATOM      2  C   UNL A   1      33.934  35.361  28.735  1.00  0.00     0.042 C 
BRANCH   2   3
ATOM      3  C   UNL A   1      32.615  35.733  29.394  1.00  0.00     0.118 C 
BRANCH   3   4
ATOM      4  N   UNL A   1      32.715  36.807  30.379  1.00  0.00    -0.352 N 
ATOM      5  C   UNL A   1      33.310  36.934  31.614  1.00  0.00     0.254 C 
ATOM      6  O   UNL A   1      33.236  38.036  32.158  1.00  0.00    -0.269 OA
ATOM      7  H   UNL A   1      32.250  37.627  30.094  1.00  0.00     0.163 HD
BRANCH   5   8
ATOM      8  C   UNL A   1      33.997  35.818  32.310  1.00  0.00     0.076 A 
ATOM      9  C   UNL A   1      36.046  34.624  32.924  1.00  0.00    -0.014 A 
ATOM     10  C   UNL A   1      35.260  33.566  33.406  1.00  0.00     0.012 A 
ATOM     11  C   UNL A   1      35.381  35.787  32.499  1.00  0.00     0.025 A 
ATOM     12  C   UNL A   1      33.866  33.638  33.367  1.00  0.00     0.041 A 
ATOM     13  C   UNL A   1      33.245  34.741  32.784  1.00  0.00     0.135 A 
ATOM     14  F   UNL A   1      31.910  34.712  32.675  1.00  0.00    -0.206 F 
BRANCH   9  15
ATOM     15  C   UNL A   1      37.500  34.476  32.697  1.00  0.00     0.020 A 
ATOM     16  C   UNL A   1      41.766  34.538  31.861  1.00  0.00     0.047 C 
ATOM     17  C   UNL A   1      40.296  34.496  32.150  1.00  0.00    -0.012 A 
ATOM     18  C   UNL A   1      39.826  34.572  33.465  1.00  0.00     0.046 A 
ATOM     19  C   UNL A   1      39.362  34.393  31.121  1.00  0.00     0.126 A 
ATOM     20  C   UNL A   1      38.454  34.557  33.727  1.00  0.00     0.131 A 
ATOM     21  C   UNL A   1      37.993  34.387  31.382  1.00  0.00     0.051 A 
ATOM     22  F   UNL A   1      39.769  34.322  29.846  1.00  0.00    -0.207 F 
ATOM     23  F   UNL A   1      38.061  34.656  35.006  1.00  0.00    -0.206 F 
ENDBRANCH   9  15
ENDBRANCH   5   8
ENDBRANCH   3   4
ENDBRANCH   2   3
ENDBRANCH   1   2
BRANCH   1  24
ATOM     24  N   UNL A   1      33.746  32.941  28.183  1.00  0.00    -0.352 N 
ATOM     25  C   UNL A   1      34.164  31.719  27.701  1.00  0.00     0.251 C 
ATOM     26  H   UNL A   1      32.830  33.183  27.914  1.00  0.00     0.163 HD
ATOM     27  O   UNL A   1      33.465  31.141  26.877  1.00  0.00    -0.269 OA
BRANCH  25  28
ATOM     28  C   UNL A   1      35.456  31.122  28.121  1.00  0.00     0.039 A 
ATOM     29  C   UNL A   1      35.537  29.815  28.590  1.00  0.00     0.014 A 
ATOM     30  C   UNL A   1      36.627  31.883  28.020  1.00  0.00     0.014 A 
ATOM     31  C   UNL A   1      36.713  29.356  29.171  1.00  0.00     0.010 A 
ATOM     32  C   UNL A   1      37.844  31.370  28.487  1.00  0.00     0.010 A 
ATOM     33  C   UNL A   1      37.887  30.125  29.128  1.00  0.00    -0.014 A 
BRANCH  33  34
ATOM     34  C   UNL A   1      39.131  29.588  29.751  1.00  0.00     0.031 A 
ATOM     35  C   UNL A   1      39.539  29.993  31.143  1.00  0.00     0.074 A 
ATOM     36  C   UNL A   1      39.859  28.671  29.080  1.00  0.00     0.049 A 
ATOM     37  N   UNL A   1      40.556  29.578  31.854  1.00  0.00    -0.248 NA
ATOM     38  C   UNL A   1      38.706  30.994  31.828  1.00  0.00     0.031 C 
ATOM     39  C   UNL A   1      39.563  28.204  27.724  1.00  0.00     0.029 A 
ATOM     40  N   UNL A   1      40.962  27.940  29.447  1.00  0.00    -0.354 N 
ATOM     41  C   UNL A   1      40.501  30.280  33.053  1.00  0.00     0.074 A 
ATOM     42  C   UNL A   1      39.368  31.173  32.964  1.00  0.00     0.031 C 
ATOM     43  C   UNL A   1      40.407  27.215  27.405  1.00  0.00     0.029 A 
ATOM     44  C   UNL A   1      41.364  27.032  28.494  1.00  0.00     0.049 A 
ATOM     45  H   UNL A   1      41.421  28.055  30.310  1.00  0.00     0.167 HD
ATOM     46  C   UNL A   1      41.310  30.175  34.135  1.00  0.00     0.034 A 
ATOM     47  C   UNL A   1      42.390  26.155  28.483  1.00  0.00     0.034 A 
ATOM     48  C   UNL A   1      42.417  29.257  34.224  1.00  0.00     0.049 A 
ATOM     49  C   UNL A   1      43.282  26.069  29.692  1.00  0.00     0.074 A 
ATOM     50  C   UNL A   1      43.273  29.055  35.292  1.00  0.00     0.029 A 
ATOM     51  N   UNL A   1      42.816  28.383  33.223  1.00  0.00    -0.354 N 
ATOM     52  N   UNL A   1      43.189  26.716  30.830  1.00  0.00    -0.248 NA
ATOM     53  C   UNL A   1      44.421  25.143  29.621  1.00  0.00     0.031 C 
ATOM     54  C   UNL A   1      44.224  28.106  34.917  1.00  0.00     0.029 A 
ATOM     55  C   UNL A   1      43.924  27.661  33.639  1.00  0.00     0.049 A 
ATOM     56  H   UNL A   1      42.379  28.290  32.346  1.00  0.00     0.167 HD
ATOM     57  C   UNL A   1      44.249  26.270  31.612  1.00  0.00     0.074 A 
ATOM     58  C   UNL A   1      44.951  25.272  30.831  1.00  0.00     0.031 C 
ATOM     59  C   UNL A   1      44.613  26.662  32.859  1.00  0.00     0.034 A 
BRANCH  46  60
ATOM     60  C   UNL A   1      41.043  31.058  35.330  1.00  0.00     0.023 A 
ATOM     61  C   UNL A   1      39.827  30.945  36.030  1.00  0.00     0.031 A 
ATOM     62  C   UNL A   1      41.923  32.094  35.690  1.00  0.00     0.131 A 
ATOM     63  C   UNL A   1      39.510  31.872  37.030  1.00  0.00     0.055 A 
ATOM     64  C   UNL A   1      41.619  32.993  36.713  1.00  0.00     0.041 A 
ATOM     65  F   UNL A   1      43.096  32.244  35.053  1.00  0.00    -0.206 F 
ATOM     66  C   UNL A   1      40.402  32.892  37.379  1.00  0.00     0.022 A 
BRANCH  63  67
ATOM     67  S   UNL A   1      37.904  31.834  37.874  1.00  0.00     0.124 S 
ATOM     68  O   UNL A   1      37.461  30.466  37.611  1.00  0.00    -0.237 OA
ATOM     69  O   UNL A   1      38.280  32.112  39.257  1.00  0.00    -0.237 OA
ATOM     70  O   UNL A   1      37.131  32.876  37.206  1.00  0.00    -0.744 OA
ENDBRANCH  63  67
ENDBRANCH  46  60
BRANCH  47  71
ATOM     71  C   UNL A   1      42.580  25.277  27.290  1.00  0.00     0.023 A 
ATOM     72  C   UNL A   1      42.026  23.983  27.253  1.00  0.00     0.031 A 
ATOM     73  C   UNL A   1      43.417  25.666  26.233  1.00  0.00     0.131 A 
ATOM     74  C   UNL A   1      42.390  23.096  26.231  1.00  0.00     0.055 A 
ATOM     75  C   UNL A   1      43.712  24.806  25.172  1.00  0.00     0.041 A 
ATOM     76  F   UNL A   1      43.977  26.885  26.226  1.00  0.00    -0.206 F 
ATOM     77  C   UNL A   1      43.216  23.505  25.181  1.00  0.00     0.022 A 
BRANCH  74  78
ATOM     78  S   UNL A   1      41.936  21.342  26.323  1.00  0.00     0.124 S 
ATOM     79  O   UNL A   1      42.819  20.747  25.326  1.00  0.00    -0.237 OA
ATOM     80  O   UNL A   1      42.250  21.024  27.715  1.00  0.00    -0.237 OA
ATOM     81  O   UNL A   1      40.515  21.337  25.995  1.00  0.00    -0.744 OA
ENDBRANCH  74  78
ENDBRANCH  47  71
BRANCH  59  82
ATOM     82  C   UNL A   1      45.834  26.033  33.485  1.00  0.00     0.023 A 
ATOM     83  C   UNL A   1      45.701  24.889  34.295  1.00  0.00     0.031 A 
ATOM     84  C   UNL A   1      47.093  26.652  33.407  1.00  0.00     0.131 A 
ATOM     85  C   UNL A   1      46.798  24.426  35.032  1.00  0.00     0.055 A 
ATOM     86  C   UNL A   1      48.195  26.159  34.107  1.00  0.00     0.041 A 
ATOM     87  F   UNL A   1      47.267  27.750  32.656  1.00  0.00    -0.206 F 
ATOM     88  C   UNL A   1      48.046  25.051  34.936  1.00  0.00     0.022 A 
BRANCH  85  89
ATOM     89  S   UNL A   1      46.625  23.058  36.210  1.00  0.00     0.124 S 
ATOM     90  O   UNL A   1      46.143  23.746  37.405  1.00  0.00    -0.237 OA
ATOM     91  O   UNL A   1      45.645  22.202  35.545  1.00  0.00    -0.237 OA
ATOM     92  O   UNL A   1      47.972  22.506  36.311  1.00  0.00    -0.744 OA
ENDBRANCH  85  89
ENDBRANCH  59  82
ENDBRANCH  33  34
ENDBRANCH  25  28
ENDBRANCH   1  24
TORSDOF 14
ENDMDL
MODEL 2
REMARK VINA RESULT:     -11.6      4.936     11.408
REMARK SMILES Cc1cc(F)c(-c2ccc(F)c(C(=O)NCCCNC(=O)c3ccc(-c4c5nc(c(-c6cc(S(=O)(=O)[O-])ccc6F)c6ccc([nH]6)c(-c6cc(S(=O)(=O)[O-])ccc6F)c6nc(c(-c7cc(S(=O)(=O)[O-])ccc7F)c7ccc4[nH]7)C=C6)C=C5)cc3)c2)cc1F
REMARK SMILES IDX 18 1 17 2 16 3 15 4 13 5 14 6 12 8 7 9 8 10 85 11 9 12 10 13
REMARK SMILES IDX 11 14 6 15 1 16 2 17 3 18 87 19 4 20 86 21 88 22 5 23 19 24
REMARK SMILES IDX 20 25 21 27 22 28 23 29 84 30 24 31 83 32 25 33 26 34 27 35
REMARK SMILES IDX 77 36 28 37 82 38 76 39 78 40 29 41 81 42 75 43 74 44 30 46
REMARK SMILES IDX 62 47 42 48 61 49 43 50 46 51 60 52 79 53 44 54 45 55 59 57
REMARK SMILES IDX 80 58 47 59 31 60 32 61 40 62 33 63 39 64 41 65 38 66 34 67
REMARK SMILES IDX 35 68 36 69 37 70 63 71 64 72 72 73 65 74 71 75 73 76 70 77
REMARK SMILES IDX 66 78 67 79 68 80 69 81 48 82 49 83 57 84 50 85 56 86 58 87
REMARK SMILES IDX 55 88 51 89 52 90 53 91 54 92
REMARK H PARENT 15 7 19 26 78 45 46 56
REMARK Flexibility Score: inf
ROOT
ATOM      1  C   UNL A   1      41.447  20.482  27.538  1.00  0.00     0.118 C 
ENDROOT
BRANCH   1   2
ATOM      2  C   UNL A   1      42.269  19.241  27.234  1.00  0.00     0.042 C 
BRANCH   2   3
ATOM      3  C   UNL A   1      42.516  18.993  25.755  1.00  0.00     0.118 C 
BRANCH   3   4
ATOM      4  N   UNL A   1      43.856  18.508  25.440  1.00  0.00    -0.352 N 
ATOM      5  C   UNL A   1      45.056  19.111  25.134  1.00  0.00     0.254 C 
ATOM      6  O   UNL A   1      46.027  18.373  24.973  1.00  0.00    -0.269 OA
ATOM      7  H   UNL A   1      43.916  17.525  25.447  1.00  0.00     0.163 HD
BRANCH   5   8
ATOM      8  C   UNL A   1      45.216  20.578  24.970  1.00  0.00     0.076 A 
ATOM      9  C   UNL A   1      45.564  22.807  25.924  1.00  0.00    -0.014 A 
ATOM     10  C   UNL A   1      45.255  23.367  24.675  1.00  0.00     0.012 A 
ATOM     11  C   UNL A   1      45.658  21.407  26.005  1.00  0.00     0.025 A 
ATOM     12  C   UNL A   1      44.957  22.550  23.582  1.00  0.00     0.041 A 
ATOM     13  C   UNL A   1      44.899  21.168  23.745  1.00  0.00     0.135 A 
ATOM     14  F   UNL A   1      44.504  20.438  22.693  1.00  0.00    -0.206 F 
BRANCH   9  15
ATOM     15  C   UNL A   1      45.615  23.626  27.154  1.00  0.00     0.020 A 
ATOM     16  C   UNL A   1      45.917  25.594  31.019  1.00  0.00     0.047 C 
ATOM     17  C   UNL A   1      45.801  24.931  29.680  1.00  0.00    -0.012 A 
ATOM     18  C   UNL A   1      46.779  25.131  28.700  1.00  0.00     0.046 A 
ATOM     19  C   UNL A   1      44.729  24.093  29.381  1.00  0.00     0.126 A 
ATOM     20  C   UNL A   1      46.679  24.491  27.462  1.00  0.00     0.131 A 
ATOM     21  C   UNL A   1      44.635  23.448  28.149  1.00  0.00     0.051 A 
ATOM     22  F   UNL A   1      43.773  23.871  30.293  1.00  0.00    -0.207 F 
ATOM     23  F   UNL A   1      47.658  24.703  26.569  1.00  0.00    -0.206 F 
ENDBRANCH   9  15
ENDBRANCH   5   8
ENDBRANCH   3   4
ENDBRANCH   2   3
ENDBRANCH   1   2
BRANCH   1  24
ATOM     24  N   UNL A   1      40.251  20.602  26.713  1.00  0.00    -0.352 N 
ATOM     25  C   UNL A   1      39.431  21.671  26.420  1.00  0.00     0.251 C 
ATOM     26  H   UNL A   1      39.976  19.760  26.284  1.00  0.00     0.163 HD
ATOM     27  O   UNL A   1      38.383  21.461  25.820  1.00  0.00    -0.269 OA
BRANCH  25  28
ATOM     28  C   UNL A   1      39.768  23.048  26.856  1.00  0.00     0.039 A 
ATOM     29  C   UNL A   1      39.250  24.166  26.210  1.00  0.00     0.014 A 
ATOM     30  C   UNL A   1      40.609  23.230  27.961  1.00  0.00     0.014 A 
ATOM     31  C   UNL A   1      39.745  25.431  26.502  1.00  0.00     0.010 A 
ATOM     32  C   UNL A   1      41.008  24.519  28.340  1.00  0.00     0.010 A 
ATOM     33  C   UNL A   1      40.631  25.629  27.573  1.00  0.00    -0.014 A 
BRANCH  33  34
ATOM     34  C   UNL A   1      41.127  27.005  27.861  1.00  0.00     0.031 A 
ATOM     35  C   UNL A   1      40.259  28.011  28.571  1.00  0.00     0.074 A 
ATOM     36  C   UNL A   1      42.399  27.325  27.544  1.00  0.00     0.049 A 
ATOM     37  N   UNL A   1      40.554  29.228  28.950  1.00  0.00    -0.248 NA
ATOM     38  C   UNL A   1      38.882  27.606  28.896  1.00  0.00     0.031 C 
ATOM     39  C   UNL A   1      43.333  26.435  26.853  1.00  0.00     0.029 A 
ATOM     40  N   UNL A   1      43.141  28.455  27.789  1.00  0.00    -0.354 N 
ATOM     41  C   UNL A   1      39.399  29.741  29.532  1.00  0.00     0.074 A 
ATOM     42  C   UNL A   1      38.387  28.715  29.428  1.00  0.00     0.031 C 
ATOM     43  C   UNL A   1      44.539  27.016  26.800  1.00  0.00     0.029 A 
ATOM     44  C   UNL A   1      44.450  28.357  27.373  1.00  0.00     0.049 A 
ATOM     45  H   UNL A   1      42.771  29.258  28.221  1.00  0.00     0.167 HD
ATOM     46  C   UNL A   1      39.208  30.950  30.114  1.00  0.00     0.034 A 
ATOM     47  C   UNL A   1      45.466  29.242  27.431  1.00  0.00     0.034 A 
ATOM     48  C   UNL A   1      40.237  31.951  30.241  1.00  0.00     0.049 A 
ATOM     49  C   UNL A   1      45.223  30.583  28.071  1.00  0.00     0.074 A 
ATOM     50  C   UNL A   1      40.147  33.193  30.845  1.00  0.00     0.029 A 
ATOM     51  N   UNL A   1      41.537  31.830  29.770  1.00  0.00    -0.354 N 
ATOM     52  N   UNL A   1      44.134  31.033  28.649  1.00  0.00    -0.248 NA
ATOM     53  C   UNL A   1      46.338  31.540  28.065  1.00  0.00     0.031 C 
ATOM     54  C   UNL A   1      41.370  33.845  30.688  1.00  0.00     0.029 A 
ATOM     55  C   UNL A   1      42.249  32.986  30.047  1.00  0.00     0.049 A 
ATOM     56  H   UNL A   1      41.899  31.041  29.308  1.00  0.00     0.167 HD
ATOM     57  C   UNL A   1      44.435  32.320  29.082  1.00  0.00     0.074 A 
ATOM     58  C   UNL A   1      45.818  32.565  28.731  1.00  0.00     0.031 C 
ATOM     59  C   UNL A   1      43.631  33.220  29.703  1.00  0.00     0.034 A 
BRANCH  46  60
ATOM     60  C   UNL A   1      37.847  31.277  30.679  1.00  0.00     0.023 A 
ATOM     61  C   UNL A   1      36.913  31.982  29.897  1.00  0.00     0.031 A 
ATOM     62  C   UNL A   1      37.527  31.014  32.023  1.00  0.00     0.131 A 
ATOM     63  C   UNL A   1      35.718  32.430  30.475  1.00  0.00     0.055 A 
ATOM     64  C   UNL A   1      36.318  31.430  32.583  1.00  0.00     0.041 A 
ATOM     65  F   UNL A   1      38.385  30.344  32.810  1.00  0.00    -0.206 F 
ATOM     66  C   UNL A   1      35.413  32.153  31.812  1.00  0.00     0.022 A 
BRANCH  63  67
ATOM     67  S   UNL A   1      34.541  33.443  29.537  1.00  0.00     0.124 S 
ATOM     68  O   UNL A   1      33.650  33.920  30.593  1.00  0.00    -0.237 OA
ATOM     69  O   UNL A   1      35.412  34.458  28.951  1.00  0.00    -0.237 OA
ATOM     70  O   UNL A   1      33.941  32.503  28.596  1.00  0.00    -0.744 OA
ENDBRANCH  63  67
ENDBRANCH  46  60
BRANCH  47  71
ATOM     71  C   UNL A   1      46.803  28.847  26.894  1.00  0.00     0.023 A 
ATOM     72  C   UNL A   1      46.987  28.618  25.518  1.00  0.00     0.031 A 
ATOM     73  C   UNL A   1      47.875  28.571  27.758  1.00  0.00     0.131 A 
ATOM     74  C   UNL A   1      48.178  28.043  25.058  1.00  0.00     0.055 A 
ATOM     75  C   UNL A   1      49.091  28.074  27.285  1.00  0.00     0.041 A 
ATOM     76  F   UNL A   1      47.747  28.763  29.079  1.00  0.00    -0.206 F 
ATOM     77  C   UNL A   1      49.239  27.785  25.931  1.00  0.00     0.022 A 
BRANCH  74  78
ATOM     78  S   UNL A   1      48.325  27.460  23.346  1.00  0.00     0.124 S 
ATOM     79  O   UNL A   1      48.177  26.017  23.502  1.00  0.00    -0.237 OA
ATOM     80  O   UNL A   1      47.205  28.144  22.701  1.00  0.00    -0.237 OA
ATOM     81  O   UNL A   1      49.647  27.921  22.938  1.00  0.00    -0.744 OA
ENDBRANCH  74  78
ENDBRANCH  47  71
BRANCH  59  82
ATOM     82  C   UNL A   1      44.199  34.574  30.049  1.00  0.00     0.023 A 
ATOM     83  C   UNL A   1      44.061  35.648  29.150  1.00  0.00     0.031 A 
ATOM     84  C   UNL A   1      45.005  34.757  31.186  1.00  0.00     0.131 A 
ATOM     85  C   UNL A   1      44.755  36.843  29.378  1.00  0.00     0.055 A 
ATOM     86  C   UNL A   1      45.657  35.965  31.434  1.00  0.00     0.041 A 
ATOM     87  F   UNL A   1      45.175  33.759  32.068  1.00  0.00    -0.206 F 
ATOM     88  C   UNL A   1      45.546  37.009  30.520  1.00  0.00     0.022 A 
BRANCH  85  89
ATOM     89  S   UNL A   1      44.731  38.187  28.161  1.00  0.00     0.124 S 
ATOM     90  O   UNL A   1      44.592  37.456  26.905  1.00  0.00    -0.237 OA
ATOM     91  O   UNL A   1      43.557  38.953  28.571  1.00  0.00    -0.237 OA
ATOM     92  O   UNL A   1      46.013  38.858  28.351  1.00  0.00    -0.744 OA
ENDBRANCH  85  89
ENDBRANCH  59  82
ENDBRANCH  33  34
ENDBRANCH  25  28
ENDBRANCH   1  24
TORSDOF 14
ENDMDL
MODEL 3
REMARK VINA RESULT:     -11.5      3.828      6.913
REMARK SMILES Cc1cc(F)c(-c2ccc(F)c(C(=O)NCCCNC(=O)c3ccc(-c4c5nc(c(-c6cc(S(=O)(=O)[O-])ccc6F)c6ccc([nH]6)c(-c6cc(S(=O)(=O)[O-])ccc6F)c6nc(c(-c7cc(S(=O)(=O)[O-])ccc7F)c7ccc4[nH]7)C=C6)C=C5)cc3)c2)cc1F
REMARK SMILES IDX 18 1 17 2 16 3 15 4 13 5 14 6 12 8 7 9 8 10 85 11 9 12 10 13
REMARK SMILES IDX 11 14 6 15 1 16 2 17 3 18 87 19 4 20 86 21 88 22 5 23 19 24
REMARK SMILES IDX 20 25 21 27 22 28 23 29 84 30 24 31 83 32 25 33 26 34 27 35
REMARK SMILES IDX 77 36 28 37 82 38 76 39 78 40 29 41 81 42 75 43 74 44 30 46
REMARK SMILES IDX 62 47 42 48 61 49 43 50 46 51 60 52 79 53 44 54 45 55 59 57
REMARK SMILES IDX 80 58 47 59 31 60 32 61 40 62 33 63 39 64 41 65 38 66 34 67
REMARK SMILES IDX 35 68 36 69 37 70 63 71 64 72 72 73 65 74 71 75 73 76 70 77
REMARK SMILES IDX 66 78 67 79 68 80 69 81 48 82 49 83 57 84 50 85 56 86 58 87
REMARK SMILES IDX 55 88 51 89 52 90 53 91 54 92
REMARK H PARENT 15 7 19 26 78 45 46 56
REMARK Flexibility Score: inf
ROOT
ATOM      1  C   UNL A   1      31.777  30.452  26.740  1.00  0.00     0.118 C 
ENDROOT
BRANCH   1   2
ATOM      2  C   UNL A   1      31.975  29.961  25.316  1.00  0.00     0.042 C 
BRANCH   2   3
ATOM      3  C   UNL A   1      33.323  29.308  25.054  1.00  0.00     0.118 C 
BRANCH   3   4
ATOM      4  N   UNL A   1      33.380  28.513  23.830  1.00  0.00    -0.352 N 
ATOM      5  C   UNL A   1      33.302  27.168  23.547  1.00  0.00     0.254 C 
ATOM      6  O   UNL A   1      33.336  26.844  22.360  1.00  0.00    -0.269 OA
ATOM      7  H   UNL A   1      33.502  29.065  23.024  1.00  0.00     0.163 HD
BRANCH   5   8
ATOM      8  C   UNL A   1      33.207  26.115  24.589  1.00  0.00     0.076 A 
ATOM      9  C   UNL A   1      34.074  24.092  25.665  1.00  0.00    -0.014 A 
ATOM     10  C   UNL A   1      32.876  23.990  26.390  1.00  0.00     0.012 A 
ATOM     11  C   UNL A   1      34.256  25.235  24.868  1.00  0.00     0.025 A 
ATOM     12  C   UNL A   1      31.868  24.946  26.240  1.00  0.00     0.041 A 
ATOM     13  C   UNL A   1      32.022  25.975  25.314  1.00  0.00     0.135 A 
ATOM     14  F   UNL A   1      30.983  26.803  25.132  1.00  0.00    -0.206 F 
BRANCH   9  15
ATOM     15  C   UNL A   1      35.036  22.972  25.588  1.00  0.00     0.020 A 
ATOM     16  C   UNL A   1      37.815  19.714  24.839  1.00  0.00     0.047 C 
ATOM     17  C   UNL A   1      36.856  20.831  25.116  1.00  0.00    -0.012 A 
ATOM     18  C   UNL A   1      37.323  22.093  25.499  1.00  0.00     0.046 A 
ATOM     19  C   UNL A   1      35.480  20.648  24.991  1.00  0.00     0.126 A 
ATOM     20  C   UNL A   1      36.425  23.138  25.732  1.00  0.00     0.131 A 
ATOM     21  C   UNL A   1      34.585  21.692  25.216  1.00  0.00     0.051 A 
ATOM     22  F   UNL A   1      34.990  19.456  24.624  1.00  0.00    -0.207 F 
ATOM     23  F   UNL A   1      36.932  24.332  26.074  1.00  0.00    -0.206 F 
ENDBRANCH   9  15
ENDBRANCH   5   8
ENDBRANCH   3   4
ENDBRANCH   2   3
ENDBRANCH   1   2
BRANCH   1  24
ATOM     24  N   UNL A   1      31.801  31.904  26.861  1.00  0.00    -0.352 N 
ATOM     25  C   UNL A   1      32.722  32.774  27.406  1.00  0.00     0.251 C 
ATOM     26  H   UNL A   1      31.009  32.350  26.483  1.00  0.00     0.163 HD
ATOM     27  O   UNL A   1      32.417  33.955  27.524  1.00  0.00    -0.269 OA
BRANCH  25  28
ATOM     28  C   UNL A   1      34.041  32.300  27.891  1.00  0.00     0.039 A 
ATOM     29  C   UNL A   1      34.284  30.955  28.148  1.00  0.00     0.014 A 
ATOM     30  C   UNL A   1      35.076  33.225  28.073  1.00  0.00     0.014 A 
ATOM     31  C   UNL A   1      35.451  30.569  28.798  1.00  0.00     0.010 A 
ATOM     32  C   UNL A   1      36.304  32.814  28.609  1.00  0.00     0.010 A 
ATOM     33  C   UNL A   1      36.481  31.493  29.038  1.00  0.00    -0.014 A 
BRANCH  33  34
ATOM     34  C   UNL A   1      37.722  31.034  29.726  1.00  0.00     0.031 A 
ATOM     35  C   UNL A   1      38.008  31.422  31.153  1.00  0.00     0.074 A 
ATOM     36  C   UNL A   1      38.563  30.201  29.078  1.00  0.00     0.049 A 
ATOM     37  N   UNL A   1      39.008  31.064  31.916  1.00  0.00    -0.248 NA
ATOM     38  C   UNL A   1      37.055  32.331  31.810  1.00  0.00     0.031 C 
ATOM     39  C   UNL A   1      38.392  29.758  27.693  1.00  0.00     0.029 A 
ATOM     40  N   UNL A   1      39.696  29.546  29.496  1.00  0.00    -0.354 N 
ATOM     41  C   UNL A   1      38.821  31.719  33.130  1.00  0.00     0.074 A 
ATOM     42  C   UNL A   1      37.628  32.523  32.991  1.00  0.00     0.031 C 
ATOM     43  C   UNL A   1      39.331  28.850  27.402  1.00  0.00     0.029 A 
ATOM     44  C   UNL A   1      40.229  28.705  28.545  1.00  0.00     0.049 A 
ATOM     45  H   UNL A   1      40.088  29.668  30.390  1.00  0.00     0.167 HD
ATOM     46  C   UNL A   1      39.566  31.642  34.259  1.00  0.00     0.034 A 
ATOM     47  C   UNL A   1      41.320  27.912  28.577  1.00  0.00     0.034 A 
ATOM     48  C   UNL A   1      40.735  30.810  34.394  1.00  0.00     0.049 A 
ATOM     49  C   UNL A   1      42.138  27.855  29.839  1.00  0.00     0.074 A 
ATOM     50  C   UNL A   1      41.535  30.640  35.510  1.00  0.00     0.029 A 
ATOM     51  N   UNL A   1      41.266  30.005  33.396  1.00  0.00    -0.354 N 
ATOM     52  N   UNL A   1      41.921  28.454  30.987  1.00  0.00    -0.248 NA
ATOM     53  C   UNL A   1      43.350  27.025  29.816  1.00  0.00     0.031 C 
ATOM     54  C   UNL A   1      42.581  29.781  35.171  1.00  0.00     0.029 A 
ATOM     55  C   UNL A   1      42.399  29.358  33.864  1.00  0.00     0.049 A 
ATOM     56  H   UNL A   1      40.894  29.908  32.491  1.00  0.00     0.167 HD
ATOM     57  C   UNL A   1      42.963  28.066  31.823  1.00  0.00     0.074 A 
ATOM     58  C   UNL A   1      43.791  27.154  31.061  1.00  0.00     0.031 C 
ATOM     59  C   UNL A   1      43.214  28.443  33.102  1.00  0.00     0.034 A 
BRANCH  46  60
ATOM     60  C   UNL A   1      39.153  32.460  35.459  1.00  0.00     0.023 A 
ATOM     61  C   UNL A   1      39.637  33.773  35.614  1.00  0.00     0.031 A 
ATOM     62  C   UNL A   1      38.401  31.900  36.506  1.00  0.00     0.131 A 
ATOM     63  C   UNL A   1      39.390  34.470  36.803  1.00  0.00     0.055 A 
ATOM     64  C   UNL A   1      38.126  32.613  37.674  1.00  0.00     0.041 A 
ATOM     65  F   UNL A   1      37.917  30.651  36.406  1.00  0.00    -0.206 F 
ATOM     66  C   UNL A   1      38.633  33.899  37.832  1.00  0.00     0.022 A 
BRANCH  63  67
ATOM     67  S   UNL A   1      40.094  36.117  37.091  1.00  0.00     0.124 S 
ATOM     68  O   UNL A   1      39.812  36.788  35.823  1.00  0.00    -0.237 OA
ATOM     69  O   UNL A   1      39.314  36.587  38.232  1.00  0.00    -0.237 OA
ATOM     70  O   UNL A   1      41.505  35.855  37.354  1.00  0.00    -0.744 OA
ENDBRANCH  63  67
ENDBRANCH  46  60
BRANCH  47  71
ATOM     71  C   UNL A   1      41.655  27.092  27.374  1.00  0.00     0.023 A 
ATOM     72  C   UNL A   1      41.413  25.706  27.357  1.00  0.00     0.031 A 
ATOM     73  C   UNL A   1      42.334  27.656  26.282  1.00  0.00     0.131 A 
ATOM     74  C   UNL A   1      41.927  24.919  26.319  1.00  0.00     0.055 A 
ATOM     75  C   UNL A   1      42.773  26.880  25.207  1.00  0.00     0.041 A 
ATOM     76  F   UNL A   1      42.597  28.971  26.254  1.00  0.00    -0.206 F 
ATOM     77  C   UNL A   1      42.590  25.499  25.234  1.00  0.00     0.022 A 
BRANCH  74  78
ATOM     78  S   UNL A   1      41.894  23.108  26.425  1.00  0.00     0.124 S 
ATOM     79  O   UNL A   1      42.620  22.863  27.666  1.00  0.00    -0.237 OA
ATOM     80  O   UNL A   1      40.458  22.838  26.469  1.00  0.00    -0.237 OA
ATOM     81  O   UNL A   1      42.565  22.679  25.203  1.00  0.00    -0.744 OA
ENDBRANCH  74  78
ENDBRANCH  47  71
BRANCH  59  82
ATOM     82  C   UNL A   1      44.440  27.891  33.788  1.00  0.00     0.023 A 
ATOM     83  C   UNL A   1      44.354  26.699  34.534  1.00  0.00     0.031 A 
ATOM     84  C   UNL A   1      45.640  28.620  33.834  1.00  0.00     0.131 A 
ATOM     85  C   UNL A   1      45.433  26.296  35.329  1.00  0.00     0.055 A 
ATOM     86  C   UNL A   1      46.730  28.189  34.591  1.00  0.00     0.041 A 
ATOM     87  F   UNL A   1      45.767  29.767  33.148  1.00  0.00    -0.206 F 
ATOM     88  C   UNL A   1      46.623  27.031  35.356  1.00  0.00     0.022 A 
BRANCH  85  89
ATOM     89  S   UNL A   1      45.302  24.858  36.427  1.00  0.00     0.124 S 
ATOM     90  O   UNL A   1      46.571  24.176  36.186  1.00  0.00    -0.237 OA
ATOM     91  O   UNL A   1      45.170  25.484  37.740  1.00  0.00    -0.237 OA
ATOM     92  O   UNL A   1      44.118  24.154  35.946  1.00  0.00    -0.744 OA
ENDBRANCH  85  89
ENDBRANCH  59  82
ENDBRANCH  33  34
ENDBRANCH  25  28
ENDBRANCH   1  24
TORSDOF 14
ENDMDL
