MODEL 1
REMARK VINA RESULT:     -11.5      0.000      0.000
REMARK SMILES CC(=O)c1ccc(N2/C(=[NH+]/C(=O)CCCC(=O)NCCCNC(=O)c3ccc(-c4c5nc(c(-c6cc(S(=O)(=O)[O-])ccc6F)c6ccc([nH]6)c(-c6cc(S(=O)(=O)[O-])ccc6F)c6nc(c(-c7cc(S(=O)(=O)[O-])ccc7F)c7ccc4[nH]7)C=C6)C=C5)cc3)S[C@H]3CS(=O)(=O)C[C@H]32)cc1
REMARK SMILES IDX 19 1 18 2 16 3 17 4 15 6 14 7 13 8 11 9 8 10 9 11 95 12
REMARK SMILES IDX 10 13 88 14 89 15 94 16 90 18 91 19 12 20 92 21 93 22 7 23
REMARK SMILES IDX 4 24 5 25 97 26 6 27 96 28 2 29 1 30 3 31 20 32 21 33 22 34
REMARK SMILES IDX 23 35 24 37 25 38 26 39 87 40 27 41 86 42 28 43 29 44 30 45
REMARK SMILES IDX 80 46 31 47 85 48 79 49 81 50 32 51 84 52 78 53 77 54 33 56
REMARK SMILES IDX 65 57 45 58 64 59 46 60 49 61 63 62 82 63 47 64 48 65 62 67
REMARK SMILES IDX 83 68 50 69 34 70 35 71 43 72 36 73 42 74 44 75 41 76 37 77
REMARK SMILES IDX 38 78 39 79 40 80 66 81 67 82 75 83 68 84 74 85 76 86 73 87
REMARK SMILES IDX 69 88 70 89 71 90 72 91 51 92 52 93 60 94 53 95 59 96 61 97
REMARK SMILES IDX 58 98 54 99 55 100 56 101 57 102
REMARK H PARENT 18 5 10 17 22 36 81 55 49 66
REMARK Flexibility Score: inf
ROOT
ATOM      1  C   UNL A   1      32.937  26.517  25.235  1.00  0.00     0.117 C 
ENDROOT
BRANCH   1   2
ATOM      2  N   UNL A   1      31.595  26.723  24.730  1.00  0.00    -0.356 N 
ATOM      3  C   UNL A   1      31.165  26.949  23.459  1.00  0.00     0.220 C 
ATOM      4  O   UNL A   1      29.966  27.171  23.280  1.00  0.00    -0.275 OA
ATOM      5  H   UNL A   1      30.885  26.695  25.411  1.00  0.00     0.163 HD
BRANCH   3   6
ATOM      6  C   UNL A   1      32.120  26.872  22.285  1.00  0.00     0.100 C 
BRANCH   6   7
ATOM      7  C   UNL A   1      32.029  25.611  21.422  1.00  0.00     0.022 C 
BRANCH   7   8
ATOM      8  C   UNL A   1      32.961  24.441  21.738  1.00  0.00     0.128 C 
BRANCH   8   9
ATOM      9  C   UNL A   1      32.568  23.521  22.895  1.00  0.00     0.307 C 
ATOM     10  N   UNL A   1      34.685  21.213  24.802  1.00  0.00    -0.217 N 
ATOM     11  C   UNL A   1      33.606  21.836  24.170  1.00  0.00     0.319 C 
ATOM     12  C   UNL A   1      34.491  19.791  25.151  1.00  0.00     0.212 C 
ATOM     13  N   UNL A   1      33.626  22.997  23.599  1.00  0.00    -0.204 N 
ATOM     14  S   UNL A   1      32.216  20.735  24.185  1.00  0.00    -0.029 SA
ATOM     15  C   UNL A   1      32.984  19.612  25.387  1.00  0.00     0.120 C 
ATOM     16  C   UNL A   1      34.888  18.853  24.016  1.00  0.00     0.188 C 
ATOM     17  H   UNL A   1      34.447  23.535  23.673  1.00  0.00     0.316 HD
ATOM     18  C   UNL A   1      32.580  18.164  25.172  1.00  0.00     0.156 C 
ATOM     19  S   UNL A   1      33.931  17.394  24.316  1.00  0.00     0.155 S 
ATOM     20  O   UNL A   1      31.380  23.295  23.101  1.00  0.00    -0.247 OA
ATOM     21  O   UNL A   1      33.467  16.864  23.059  1.00  0.00    -0.229 OA
ATOM     22  O   UNL A   1      34.659  16.592  25.282  1.00  0.00    -0.229 OA
BRANCH  10  23
ATOM     23  C   UNL A   1      35.893  21.821  25.201  1.00  0.00     0.128 A 
ATOM     24  C   UNL A   1      38.309  22.976  26.186  1.00  0.00     0.018 A 
ATOM     25  C   UNL A   1      38.298  21.682  25.669  1.00  0.00     0.016 A 
ATOM     26  C   UNL A   1      37.122  23.713  26.176  1.00  0.00     0.016 A 
ATOM     27  C   UNL A   1      37.108  21.116  25.195  1.00  0.00     0.052 A 
ATOM     28  C   UNL A   1      35.935  23.142  25.674  1.00  0.00     0.052 A 
BRANCH  24  29
ATOM     29  C   UNL A   1      39.599  23.492  26.730  1.00  0.00     0.159 C 
ATOM     30  C   UNL A   1      39.927  24.954  26.586  1.00  0.00     0.093 C 
ATOM     31  O   UNL A   1      40.334  22.737  27.364  1.00  0.00    -0.295 OA
ENDBRANCH  24  29
ENDBRANCH  10  23
ENDBRANCH   8   9
ENDBRANCH   7   8
ENDBRANCH   6   7
ENDBRANCH   3   6
ENDBRANCH   1   2
BRANCH   1  32
ATOM     32  C   UNL A   1      33.313  27.591  26.250  1.00  0.00     0.042 C 
BRANCH  32  33
ATOM     33  C   UNL A   1      33.905  28.837  25.615  1.00  0.00     0.118 C 
BRANCH  33  34
ATOM     34  N   UNL A   1      33.233  30.048  26.059  1.00  0.00    -0.352 N 
ATOM     35  C   UNL A   1      33.571  30.914  27.071  1.00  0.00     0.251 C 
ATOM     36  H   UNL A   1      32.416  30.282  25.561  1.00  0.00     0.163 HD
ATOM     37  O   UNL A   1      32.764  31.772  27.416  1.00  0.00    -0.269 OA
BRANCH  35  38
ATOM     38  C   UNL A   1      34.883  30.797  27.749  1.00  0.00     0.039 A 
ATOM     39  C   UNL A   1      35.750  31.893  27.753  1.00  0.00     0.014 A 
ATOM     40  C   UNL A   1      35.266  29.607  28.372  1.00  0.00     0.014 A 
ATOM     41  C   UNL A   1      36.972  31.811  28.429  1.00  0.00     0.010 A 
ATOM     42  C   UNL A   1      36.431  29.561  29.130  1.00  0.00     0.010 A 
ATOM     43  C   UNL A   1      37.308  30.655  29.152  1.00  0.00    -0.014 A 
BRANCH  43  44
ATOM     44  C   UNL A   1      38.589  30.541  29.899  1.00  0.00     0.031 A 
ATOM     45  C   UNL A   1      39.728  29.752  29.306  1.00  0.00     0.074 A 
ATOM     46  C   UNL A   1      38.706  31.083  31.127  1.00  0.00     0.049 A 
ATOM     47  N   UNL A   1      40.879  29.428  29.837  1.00  0.00    -0.248 NA
ATOM     48  C   UNL A   1      39.526  29.224  27.948  1.00  0.00     0.031 C 
ATOM     49  C   UNL A   1      37.664  31.845  31.820  1.00  0.00     0.029 A 
ATOM     50  N   UNL A   1      39.750  31.068  32.019  1.00  0.00    -0.354 N 
ATOM     51  C   UNL A   1      41.527  28.644  28.887  1.00  0.00     0.074 A 
ATOM     52  C   UNL A   1      40.609  28.483  27.781  1.00  0.00     0.031 C 
ATOM     53  C   UNL A   1      38.130  32.247  33.012  1.00  0.00     0.029 A 
ATOM     54  C   UNL A   1      39.480  31.724  33.199  1.00  0.00     0.049 A 
ATOM     55  H   UNL A   1      40.611  30.630  31.832  1.00  0.00     0.167 HD
ATOM     56  C   UNL A   1      42.781  28.129  28.924  1.00  0.00     0.034 A 
ATOM     57  C   UNL A   1      40.229  31.871  34.311  1.00  0.00     0.034 A 
ATOM     58  C   UNL A   1      43.687  28.315  30.030  1.00  0.00     0.049 A 
ATOM     59  C   UNL A   1      41.607  31.258  34.344  1.00  0.00     0.074 A 
ATOM     60  C   UNL A   1      44.995  27.883  30.153  1.00  0.00     0.029 A 
ATOM     61  N   UNL A   1      43.377  28.984  31.208  1.00  0.00    -0.354 N 
ATOM     62  N   UNL A   1      42.222  30.553  33.421  1.00  0.00    -0.248 NA
ATOM     63  C   UNL A   1      42.396  31.467  35.565  1.00  0.00     0.031 C 
ATOM     64  C   UNL A   1      45.448  28.219  31.433  1.00  0.00     0.029 A 
ATOM     65  C   UNL A   1      44.457  28.945  32.076  1.00  0.00     0.049 A 
ATOM     66  H   UNL A   1      42.516  29.422  31.399  1.00  0.00     0.167 HD
ATOM     67  C   UNL A   1      43.483  30.269  33.937  1.00  0.00     0.074 A 
ATOM     68  C   UNL A   1      43.544  30.888  35.245  1.00  0.00     0.031 C 
ATOM     69  C   UNL A   1      44.502  29.563  33.381  1.00  0.00     0.034 A 
BRANCH  56  70
ATOM     70  C   UNL A   1      43.226  27.294  27.744  1.00  0.00     0.023 A 
ATOM     71  C   UNL A   1      43.226  25.889  27.789  1.00  0.00     0.031 A 
ATOM     72  C   UNL A   1      43.685  27.912  26.566  1.00  0.00     0.131 A 
ATOM     73  C   UNL A   1      43.750  25.152  26.715  1.00  0.00     0.055 A 
ATOM     74  C   UNL A   1      44.119  27.171  25.466  1.00  0.00     0.041 A 
ATOM     75  F   UNL A   1      43.732  29.250  26.470  1.00  0.00    -0.206 F 
ATOM     76  C   UNL A   1      44.171  25.782  25.543  1.00  0.00     0.022 A 
BRANCH  73  77
ATOM     77  S   UNL A   1      44.022  23.373  26.938  1.00  0.00     0.124 S 
ATOM     78  O   UNL A   1      43.274  22.818  25.812  1.00  0.00    -0.237 OA
ATOM     79  O   UNL A   1      45.473  23.263  26.858  1.00  0.00    -0.237 OA
ATOM     80  O   UNL A   1      43.445  23.100  28.253  1.00  0.00    -0.744 OA
ENDBRANCH  73  77
ENDBRANCH  56  70
BRANCH  57  81
ATOM     81  C   UNL A   1      39.697  32.615  35.491  1.00  0.00     0.023 A 
ATOM     82  C   UNL A   1      38.975  31.953  36.497  1.00  0.00     0.031 A 
ATOM     83  C   UNL A   1      39.860  34.007  35.607  1.00  0.00     0.131 A 
ATOM     84  C   UNL A   1      38.398  32.688  37.545  1.00  0.00     0.055 A 
ATOM     85  C   UNL A   1      39.338  34.725  36.684  1.00  0.00     0.041 A 
ATOM     86  F   UNL A   1      40.542  34.691  34.675  1.00  0.00    -0.206 F 
ATOM     87  C   UNL A   1      38.588  34.067  37.655  1.00  0.00     0.022 A 
BRANCH  84  88
ATOM     88  S   UNL A   1      37.305  31.828  38.710  1.00  0.00     0.124 S 
ATOM     89  O   UNL A   1      38.084  31.879  39.941  1.00  0.00    -0.237 OA
ATOM     90  O   UNL A   1      36.107  32.661  38.672  1.00  0.00    -0.237 OA
ATOM     91  O   UNL A   1      37.156  30.499  38.119  1.00  0.00    -0.744 OA
ENDBRANCH  84  88
ENDBRANCH  57  81
BRANCH  69  92
ATOM     92  C   UNL A   1      45.790  29.476  34.163  1.00  0.00     0.023 A 
ATOM     93  C   UNL A   1      46.814  30.430  34.019  1.00  0.00     0.031 A 
ATOM     94  C   UNL A   1      45.997  28.417  35.065  1.00  0.00     0.131 A 
ATOM     95  C   UNL A   1      48.018  30.272  34.723  1.00  0.00     0.055 A 
ATOM     96  C   UNL A   1      47.169  28.305  35.814  1.00  0.00     0.041 A 
ATOM     97  F   UNL A   1      45.056  27.475  35.241  1.00  0.00    -0.206 F 
ATOM     98  C   UNL A   1      48.194  29.229  35.634  1.00  0.00     0.022 A 
BRANCH  95  99
ATOM     99  S   UNL A   1      49.395  31.394  34.352  1.00  0.00     0.124 S 
ATOM    100  O   UNL A   1      49.381  32.283  35.509  1.00  0.00    -0.237 OA
ATOM    101  O   UNL A   1      50.529  30.478  34.266  1.00  0.00    -0.237 OA
ATOM    102  O   UNL A   1      49.002  32.013  33.088  1.00  0.00    -0.744 OA
ENDBRANCH  95  99
ENDBRANCH  69  92
ENDBRANCH  43  44
ENDBRANCH  35  38
ENDBRANCH  33  34
ENDBRANCH  32  33
ENDBRANCH   1  32
TORSDOF 18
ENDMDL
MODEL 2
REMARK VINA RESULT:     -11.4      4.185     10.019
REMARK SMILES CC(=O)c1ccc(N2/C(=[NH+]/C(=O)CCCC(=O)NCCCNC(=O)c3ccc(-c4c5nc(c(-c6cc(S(=O)(=O)[O-])ccc6F)c6ccc([nH]6)c(-c6cc(S(=O)(=O)[O-])ccc6F)c6nc(c(-c7cc(S(=O)(=O)[O-])ccc7F)c7ccc4[nH]7)C=C6)C=C5)cc3)S[C@H]3CS(=O)(=O)C[C@H]32)cc1
REMARK SMILES IDX 19 1 18 2 16 3 17 4 15 6 14 7 13 8 11 9 8 10 9 11 95 12
REMARK SMILES IDX 10 13 88 14 89 15 94 16 90 18 91 19 12 20 92 21 93 22 7 23
REMARK SMILES IDX 4 24 5 25 97 26 6 27 96 28 2 29 1 30 3 31 20 32 21 33 22 34
REMARK SMILES IDX 23 35 24 37 25 38 26 39 87 40 27 41 86 42 28 43 29 44 30 45
REMARK SMILES IDX 80 46 31 47 85 48 79 49 81 50 32 51 84 52 78 53 77 54 33 56
REMARK SMILES IDX 65 57 45 58 64 59 46 60 49 61 63 62 82 63 47 64 48 65 62 67
REMARK SMILES IDX 83 68 50 69 34 70 35 71 43 72 36 73 42 74 44 75 41 76 37 77
REMARK SMILES IDX 38 78 39 79 40 80 66 81 67 82 75 83 68 84 74 85 76 86 73 87
REMARK SMILES IDX 69 88 70 89 71 90 72 91 51 92 52 93 60 94 53 95 59 96 61 97
REMARK SMILES IDX 58 98 54 99 55 100 56 101 57 102
REMARK H PARENT 18 5 10 17 22 36 81 55 49 66
REMARK Flexibility Score: inf
ROOT
ATOM      1  C   UNL A   1      34.368  24.092  24.755  1.00  0.00     0.117 C 
ENDROOT
BRANCH   1   2
ATOM      2  N   UNL A   1      33.324  23.174  24.349  1.00  0.00    -0.356 N 
ATOM      3  C   UNL A   1      32.323  22.610  25.079  1.00  0.00     0.220 C 
ATOM      4  O   UNL A   1      31.589  21.790  24.525  1.00  0.00    -0.275 OA
ATOM      5  H   UNL A   1      33.340  22.919  23.399  1.00  0.00     0.163 HD
BRANCH   3   6
ATOM      6  C   UNL A   1      32.078  23.020  26.517  1.00  0.00     0.100 C 
BRANCH   6   7
ATOM      7  C   UNL A   1      31.440  24.395  26.728  1.00  0.00     0.022 C 
BRANCH   7   8
ATOM      8  C   UNL A   1      30.203  24.761  25.905  1.00  0.00     0.128 C 
BRANCH   8   9
ATOM      9  C   UNL A   1      30.416  25.624  24.661  1.00  0.00     0.307 C 
ATOM     10  N   UNL A   1      31.254  29.188  24.464  1.00  0.00    -0.217 N 
ATOM     11  C   UNL A   1      30.767  27.905  24.200  1.00  0.00     0.319 C 
ATOM     12  C   UNL A   1      30.643  30.281  23.683  1.00  0.00     0.212 C 
ATOM     13  N   UNL A   1      31.005  26.843  24.899  1.00  0.00    -0.204 N 
ATOM     14  S   UNL A   1      29.682  27.979  22.800  1.00  0.00    -0.029 SA
ATOM     15  C   UNL A   1      30.205  29.657  22.348  1.00  0.00     0.120 C 
ATOM     16  C   UNL A   1      29.394  30.847  24.349  1.00  0.00     0.188 C 
ATOM     17  H   UNL A   1      31.645  26.912  25.643  1.00  0.00     0.316 HD
ATOM     18  C   UNL A   1      29.085  30.469  21.723  1.00  0.00     0.156 C 
ATOM     19  S   UNL A   1      28.465  31.529  23.005  1.00  0.00     0.155 S 
ATOM     20  O   UNL A   1      30.038  25.203  23.572  1.00  0.00    -0.247 OA
ATOM     21  O   UNL A   1      27.064  31.265  23.214  1.00  0.00    -0.229 OA
ATOM     22  O   UNL A   1      28.981  32.863  22.757  1.00  0.00    -0.229 OA
BRANCH  10  23
ATOM     23  C   UNL A   1      32.309  29.525  25.337  1.00  0.00     0.128 A 
ATOM     24  C   UNL A   1      34.375  30.074  27.226  1.00  0.00     0.018 A 
ATOM     25  C   UNL A   1      34.536  29.077  26.266  1.00  0.00     0.016 A 
ATOM     26  C   UNL A   1      33.199  30.827  27.222  1.00  0.00     0.016 A 
ATOM     27  C   UNL A   1      33.515  28.805  25.347  1.00  0.00     0.052 A 
ATOM     28  C   UNL A   1      32.189  30.563  26.276  1.00  0.00     0.052 A 
BRANCH  24  29
ATOM     29  C   UNL A   1      35.479  30.267  28.213  1.00  0.00     0.159 C 
ATOM     30  C   UNL A   1      36.754  29.482  28.055  1.00  0.00     0.093 C 
ATOM     31  O   UNL A   1      35.366  31.124  29.087  1.00  0.00    -0.295 OA
ENDBRANCH  24  29
ENDBRANCH  10  23
ENDBRANCH   8   9
ENDBRANCH   7   8
ENDBRANCH   6   7
ENDBRANCH   3   6
ENDBRANCH   1   2
BRANCH   1  32
ATOM     32  C   UNL A   1      35.740  23.431  24.683  1.00  0.00     0.042 C 
BRANCH  32  33
ATOM     33  C   UNL A   1      36.266  22.990  26.038  1.00  0.00     0.118 C 
BRANCH  33  34
ATOM     34  N   UNL A   1      37.112  21.811  25.938  1.00  0.00    -0.352 N 
ATOM     35  C   UNL A   1      38.478  21.704  26.049  1.00  0.00     0.251 C 
ATOM     36  H   UNL A   1      36.637  20.967  25.764  1.00  0.00     0.163 HD
ATOM     37  O   UNL A   1      39.020  20.648  25.737  1.00  0.00    -0.269 OA
BRANCH  35  38
ATOM     38  C   UNL A   1      39.283  22.854  26.521  1.00  0.00     0.039 A 
ATOM     39  C   UNL A   1      40.289  22.641  27.467  1.00  0.00     0.014 A 
ATOM     40  C   UNL A   1      39.043  24.144  26.041  1.00  0.00     0.014 A 
ATOM     41  C   UNL A   1      41.087  23.711  27.886  1.00  0.00     0.010 A 
ATOM     42  C   UNL A   1      39.902  25.183  26.378  1.00  0.00     0.010 A 
ATOM     43  C   UNL A   1      40.922  24.985  27.320  1.00  0.00    -0.014 A 
BRANCH  43  44
ATOM     44  C   UNL A   1      41.767  26.140  27.726  1.00  0.00     0.031 A 
ATOM     45  C   UNL A   1      41.200  27.186  28.651  1.00  0.00     0.074 A 
ATOM     46  C   UNL A   1      43.006  26.284  27.217  1.00  0.00     0.049 A 
ATOM     47  N   UNL A   1      41.717  28.326  29.033  1.00  0.00    -0.248 NA
ATOM     48  C   UNL A   1      39.853  26.932  29.187  1.00  0.00     0.031 C 
ATOM     49  C   UNL A   1      43.653  25.354  26.289  1.00  0.00     0.029 A 
ATOM     50  N   UNL A   1      43.940  27.275  27.396  1.00  0.00    -0.354 N 
ATOM     51  C   UNL A   1      40.752  28.931  29.834  1.00  0.00     0.074 A 
ATOM     52  C   UNL A   1      39.595  28.063  29.822  1.00  0.00     0.031 C 
ATOM     53  C   UNL A   1      44.886  25.803  26.004  1.00  0.00     0.029 A 
ATOM     54  C   UNL A   1      45.099  27.080  26.679  1.00  0.00     0.049 A 
ATOM     55  H   UNL A   1      43.795  28.051  27.983  1.00  0.00     0.167 HD
ATOM     56  C   UNL A   1      40.836  30.087  30.536  1.00  0.00     0.034 A 
ATOM     57  C   UNL A   1      46.198  27.851  26.563  1.00  0.00     0.034 A 
ATOM     58  C   UNL A   1      42.006  30.929  30.549  1.00  0.00     0.049 A 
ATOM     59  C   UNL A   1      46.254  29.153  27.324  1.00  0.00     0.074 A 
ATOM     60  C   UNL A   1      42.221  32.096  31.262  1.00  0.00     0.029 A 
ATOM     61  N   UNL A   1      43.160  30.700  29.808  1.00  0.00    -0.354 N 
ATOM     62  N   UNL A   1      45.349  29.692  28.110  1.00  0.00    -0.248 NA
ATOM     63  C   UNL A   1      47.482  29.948  27.189  1.00  0.00     0.031 C 
ATOM     64  C   UNL A   1      43.467  32.612  30.892  1.00  0.00     0.029 A 
ATOM     65  C   UNL A   1      44.073  31.721  30.020  1.00  0.00     0.049 A 
ATOM     66  H   UNL A   1      43.306  29.925  29.218  1.00  0.00     0.167 HD
ATOM     67  C   UNL A   1      45.917  30.869  28.592  1.00  0.00     0.074 A 
ATOM     68  C   UNL A   1      47.244  30.953  28.018  1.00  0.00     0.031 C 
ATOM     69  C   UNL A   1      45.392  31.795  29.436  1.00  0.00     0.034 A 
BRANCH  56  70
ATOM     70  C   UNL A   1      39.617  30.516  31.321  1.00  0.00     0.023 A 
ATOM     71  C   UNL A   1      38.787  31.564  30.886  1.00  0.00     0.031 A 
ATOM     72  C   UNL A   1      39.293  29.887  32.537  1.00  0.00     0.131 A 
ATOM     73  C   UNL A   1      37.729  32.005  31.696  1.00  0.00     0.055 A 
ATOM     74  C   UNL A   1      38.185  30.270  33.294  1.00  0.00     0.041 A 
ATOM     75  F   UNL A   1      40.060  28.895  33.018  1.00  0.00    -0.206 F 
ATOM     76  C   UNL A   1      37.405  31.347  32.884  1.00  0.00     0.022 A 
BRANCH  73  77
ATOM     77  S   UNL A   1      36.886  33.550  31.254  1.00  0.00     0.124 S 
ATOM     78  O   UNL A   1      35.488  33.201  31.499  1.00  0.00    -0.237 OA
ATOM     79  O   UNL A   1      37.477  34.508  32.179  1.00  0.00    -0.237 OA
ATOM     80  O   UNL A   1      37.234  33.740  29.847  1.00  0.00    -0.744 OA
ENDBRANCH  73  77
ENDBRANCH  56  70
BRANCH  57  81
ATOM     81  C   UNL A   1      47.332  27.431  25.687  1.00  0.00     0.023 A 
ATOM     82  C   UNL A   1      47.406  27.852  24.350  1.00  0.00     0.031 A 
ATOM     83  C   UNL A   1      48.332  26.563  26.160  1.00  0.00     0.131 A 
ATOM     84  C   UNL A   1      48.426  27.363  23.517  1.00  0.00     0.055 A 
ATOM     85  C   UNL A   1      49.380  26.129  25.345  1.00  0.00     0.041 A 
ATOM     86  F   UNL A   1      48.311  26.130  27.430  1.00  0.00    -0.206 F 
ATOM     87  C   UNL A   1      49.422  26.518  24.009  1.00  0.00     0.022 A 
BRANCH  84  88
ATOM     88  S   UNL A   1      48.370  27.766  21.749  1.00  0.00     0.124 S 
ATOM     89  O   UNL A   1      49.496  28.684  21.619  1.00  0.00    -0.237 OA
ATOM     90  O   UNL A   1      48.538  26.453  21.134  1.00  0.00    -0.237 OA
ATOM     91  O   UNL A   1      47.049  28.368  21.578  1.00  0.00    -0.744 OA
ENDBRANCH  84  88
ENDBRANCH  57  81
BRANCH  69  92
ATOM     92  C   UNL A   1      46.281  32.948  29.834  1.00  0.00     0.023 A 
ATOM     93  C   UNL A   1      46.318  34.147  29.101  1.00  0.00     0.031 A 
ATOM     94  C   UNL A   1      47.108  32.842  30.968  1.00  0.00     0.131 A 
ATOM     95  C   UNL A   1      47.207  35.167  29.475  1.00  0.00     0.055 A 
ATOM     96  C   UNL A   1      47.937  33.887  31.375  1.00  0.00     0.041 A 
ATOM     97  F   UNL A   1      47.117  31.719  31.704  1.00  0.00    -0.206 F 
ATOM     98  C   UNL A   1      48.000  35.053  30.619  1.00  0.00     0.022 A 
BRANCH  95  99
ATOM     99  S   UNL A   1      47.387  36.607  28.387  1.00  0.00     0.124 S 
ATOM    100  O   UNL A   1      46.328  37.487  28.870  1.00  0.00    -0.237 OA
ATOM    101  O   UNL A   1      48.753  37.041  28.667  1.00  0.00    -0.237 OA
ATOM    102  O   UNL A   1      47.175  36.055  27.050  1.00  0.00    -0.744 OA
ENDBRANCH  95  99
ENDBRANCH  69  92
ENDBRANCH  43  44
ENDBRANCH  35  38
ENDBRANCH  33  34
ENDBRANCH  32  33
ENDBRANCH   1  32
TORSDOF 18
ENDMDL
MODEL 3
REMARK VINA RESULT:     -11.3      1.890      7.456
REMARK SMILES CC(=O)c1ccc(N2/C(=[NH+]/C(=O)CCCC(=O)NCCCNC(=O)c3ccc(-c4c5nc(c(-c6cc(S(=O)(=O)[O-])ccc6F)c6ccc([nH]6)c(-c6cc(S(=O)(=O)[O-])ccc6F)c6nc(c(-c7cc(S(=O)(=O)[O-])ccc7F)c7ccc4[nH]7)C=C6)C=C5)cc3)S[C@H]3CS(=O)(=O)C[C@H]32)cc1
REMARK SMILES IDX 19 1 18 2 16 3 17 4 15 6 14 7 13 8 11 9 8 10 9 11 95 12
REMARK SMILES IDX 10 13 88 14 89 15 94 16 90 18 91 19 12 20 92 21 93 22 7 23
REMARK SMILES IDX 4 24 5 25 97 26 6 27 96 28 2 29 1 30 3 31 20 32 21 33 22 34
REMARK SMILES IDX 23 35 24 37 25 38 26 39 87 40 27 41 86 42 28 43 29 44 30 45
REMARK SMILES IDX 80 46 31 47 85 48 79 49 81 50 32 51 84 52 78 53 77 54 33 56
REMARK SMILES IDX 65 57 45 58 64 59 46 60 49 61 63 62 82 63 47 64 48 65 62 67
REMARK SMILES IDX 83 68 50 69 34 70 35 71 43 72 36 73 42 74 44 75 41 76 37 77
REMARK SMILES IDX 38 78 39 79 40 80 66 81 67 82 75 83 68 84 74 85 76 86 73 87
REMARK SMILES IDX 69 88 70 89 71 90 72 91 51 92 52 93 60 94 53 95 59 96 61 97
REMARK SMILES IDX 58 98 54 99 55 100 56 101 57 102
REMARK H PARENT 18 5 10 17 22 36 81 55 49 66
REMARK Flexibility Score: inf
ROOT
ATOM      1  C   UNL A   1      32.368  26.898  25.229  1.00  0.00     0.117 C 
ENDROOT
BRANCH   1   2
ATOM      2  N   UNL A   1      31.458  27.426  24.233  1.00  0.00    -0.356 N 
ATOM      3  C   UNL A   1      31.549  27.419  22.875  1.00  0.00     0.220 C 
ATOM      4  O   UNL A   1      30.676  28.002  22.230  1.00  0.00    -0.275 OA
ATOM      5  H   UNL A   1      30.650  27.857  24.594  1.00  0.00     0.163 HD
BRANCH   3   6
ATOM      6  C   UNL A   1      32.657  26.664  22.170  1.00  0.00     0.100 C 
BRANCH   6   7
ATOM      7  C   UNL A   1      32.231  25.433  21.366  1.00  0.00     0.022 C 
BRANCH   7   8
ATOM      8  C   UNL A   1      32.996  24.125  21.573  1.00  0.00     0.128 C 
BRANCH   8   9
ATOM      9  C   UNL A   1      32.580  23.246  22.754  1.00  0.00     0.307 C 
ATOM     10  N   UNL A   1      34.651  20.979  24.756  1.00  0.00    -0.217 N 
ATOM     11  C   UNL A   1      33.586  21.592  24.093  1.00  0.00     0.319 C 
ATOM     12  C   UNL A   1      34.440  19.571  25.147  1.00  0.00     0.212 C 
ATOM     13  N   UNL A   1      33.625  22.734  23.486  1.00  0.00    -0.204 N 
ATOM     14  S   UNL A   1      32.185  20.505  24.126  1.00  0.00    -0.029 SA
ATOM     15  C   UNL A   1      32.928  19.413  25.371  1.00  0.00     0.120 C 
ATOM     16  C   UNL A   1      34.840  18.594  24.048  1.00  0.00     0.188 C 
ATOM     17  H   UNL A   1      34.450  23.266  23.553  1.00  0.00     0.316 HD
ATOM     18  C   UNL A   1      32.512  17.964  25.196  1.00  0.00     0.156 C 
ATOM     19  S   UNL A   1      33.865  17.153  24.381  1.00  0.00     0.155 S 
ATOM     20  O   UNL A   1      31.388  23.039  22.952  1.00  0.00    -0.247 OA
ATOM     21  O   UNL A   1      33.411  16.589  23.136  1.00  0.00    -0.229 OA
ATOM     22  O   UNL A   1      34.574  16.375  25.381  1.00  0.00    -0.229 OA
BRANCH  10  23
ATOM     23  C   UNL A   1      35.861  21.587  25.151  1.00  0.00     0.128 A 
ATOM     24  C   UNL A   1      38.275  22.751  26.128  1.00  0.00     0.018 A 
ATOM     25  C   UNL A   1      38.256  21.436  25.667  1.00  0.00     0.016 A 
ATOM     26  C   UNL A   1      37.100  23.503  26.066  1.00  0.00     0.016 A 
ATOM     27  C   UNL A   1      37.066  20.866  25.197  1.00  0.00     0.052 A 
ATOM     28  C   UNL A   1      35.914  22.927  25.567  1.00  0.00     0.052 A 
BRANCH  24  29
ATOM     29  C   UNL A   1      39.564  23.273  26.673  1.00  0.00     0.159 C 
ATOM     30  C   UNL A   1      39.724  24.753  26.893  1.00  0.00     0.093 C 
ATOM     31  O   UNL A   1      40.440  22.482  27.016  1.00  0.00    -0.295 OA
ENDBRANCH  24  29
ENDBRANCH  10  23
ENDBRANCH   8   9
ENDBRANCH   7   8
ENDBRANCH   6   7
ENDBRANCH   3   6
ENDBRANCH   1   2
BRANCH   1  32
ATOM     32  C   UNL A   1      32.758  27.970  26.240  1.00  0.00     0.042 C 
BRANCH  32  33
ATOM     33  C   UNL A   1      33.470  29.156  25.613  1.00  0.00     0.118 C 
BRANCH  33  34
ATOM     34  N   UNL A   1      32.960  30.425  26.109  1.00  0.00    -0.352 N 
ATOM     35  C   UNL A   1      33.420  31.210  27.139  1.00  0.00     0.251 C 
ATOM     36  H   UNL A   1      32.167  30.771  25.638  1.00  0.00     0.163 HD
ATOM     37  O   UNL A   1      32.731  32.148  27.527  1.00  0.00    -0.269 OA
BRANCH  35  38
ATOM     38  C   UNL A   1      34.722  30.914  27.781  1.00  0.00     0.039 A 
ATOM     39  C   UNL A   1      35.693  31.917  27.852  1.00  0.00     0.014 A 
ATOM     40  C   UNL A   1      34.993  29.648  28.305  1.00  0.00     0.014 A 
ATOM     41  C   UNL A   1      36.908  31.664  28.497  1.00  0.00     0.010 A 
ATOM     42  C   UNL A   1      36.155  29.430  29.036  1.00  0.00     0.010 A 
ATOM     43  C   UNL A   1      37.136  30.428  29.124  1.00  0.00    -0.014 A 
BRANCH  43  44
ATOM     44  C   UNL A   1      38.407  30.133  29.837  1.00  0.00     0.031 A 
ATOM     45  C   UNL A   1      38.623  30.674  31.227  1.00  0.00     0.074 A 
ATOM     46  C   UNL A   1      39.386  29.444  29.217  1.00  0.00     0.049 A 
ATOM     47  N   UNL A   1      39.696  30.636  31.976  1.00  0.00    -0.248 NA
ATOM     48  C   UNL A   1      37.490  31.385  31.840  1.00  0.00     0.031 C 
ATOM     49  C   UNL A   1      39.307  28.895  27.862  1.00  0.00     0.029 A 
ATOM     50  N   UNL A   1      40.645  29.096  29.641  1.00  0.00    -0.354 N 
ATOM     51  C   UNL A   1      39.373  31.336  33.135  1.00  0.00     0.074 A 
ATOM     52  C   UNL A   1      38.031  31.844  32.957  1.00  0.00     0.031 C 
ATOM     53  C   UNL A   1      40.453  28.257  27.577  1.00  0.00     0.029 A 
ATOM     54  C   UNL A   1      41.373  28.400  28.702  1.00  0.00     0.049 A 
ATOM     55  H   UNL A   1      40.995  29.323  30.532  1.00  0.00     0.167 HD
ATOM     56  C   UNL A   1      40.117  31.512  34.254  1.00  0.00     0.034 A 
ATOM     57  C   UNL A   1      42.641  27.946  28.737  1.00  0.00     0.034 A 
ATOM     58  C   UNL A   1      41.448  30.982  34.419  1.00  0.00     0.049 A 
ATOM     59  C   UNL A   1      43.464  28.187  29.978  1.00  0.00     0.074 A 
ATOM     60  C   UNL A   1      42.274  31.055  35.527  1.00  0.00     0.029 A 
ATOM     61  N   UNL A   1      42.152  30.283  33.445  1.00  0.00    -0.354 N 
ATOM     62  N   UNL A   1      43.130  28.815  31.083  1.00  0.00    -0.248 NA
ATOM     63  C   UNL A   1      44.831  27.650  29.982  1.00  0.00     0.031 C 
ATOM     64  C   UNL A   1      43.502  30.474  35.196  1.00  0.00     0.029 A 
ATOM     65  C   UNL A   1      43.414  29.952  33.915  1.00  0.00     0.049 A 
ATOM     66  H   UNL A   1      41.805  30.057  32.552  1.00  0.00     0.167 HD
ATOM     67  C   UNL A   1      44.235  28.714  31.926  1.00  0.00     0.074 A 
ATOM     68  C   UNL A   1      45.236  27.955  31.206  1.00  0.00     0.031 C 
ATOM     69  C   UNL A   1      44.405  29.200  33.183  1.00  0.00     0.034 A 
BRANCH  56  70
ATOM     70  C   UNL A   1      39.514  32.336  35.370  1.00  0.00     0.023 A 
ATOM     71  C   UNL A   1      39.853  33.687  35.560  1.00  0.00     0.031 A 
ATOM     72  C   UNL A   1      38.607  31.755  36.275  1.00  0.00     0.131 A 
ATOM     73  C   UNL A   1      39.357  34.386  36.670  1.00  0.00     0.055 A 
ATOM     74  C   UNL A   1      38.045  32.483  37.325  1.00  0.00     0.041 A 
ATOM     75  F   UNL A   1      38.262  30.463  36.161  1.00  0.00    -0.206 F 
ATOM     76  C   UNL A   1      38.433  33.802  37.539  1.00  0.00     0.022 A 
BRANCH  73  77
ATOM     77  S   UNL A   1      40.060  36.015  37.053  1.00  0.00     0.124 S 
ATOM     78  O   UNL A   1      39.759  36.759  35.832  1.00  0.00    -0.237 OA
ATOM     79  O   UNL A   1      39.315  36.408  38.242  1.00  0.00    -0.237 OA
ATOM     80  O   UNL A   1      41.478  35.734  37.267  1.00  0.00    -0.744 OA
ENDBRANCH  73  77
ENDBRANCH  56  70
BRANCH  57  81
ATOM     81  C   UNL A   1      43.225  27.231  27.563  1.00  0.00     0.023 A 
ATOM     82  C   UNL A   1      43.235  25.829  27.501  1.00  0.00     0.031 A 
ATOM     83  C   UNL A   1      43.825  27.940  26.506  1.00  0.00     0.131 A 
ATOM     84  C   UNL A   1      43.879  25.178  26.436  1.00  0.00     0.055 A 
ATOM     85  C   UNL A   1      44.410  27.289  25.418  1.00  0.00     0.041 A 
ATOM     86  F   UNL A   1      43.844  29.282  26.513  1.00  0.00    -0.206 F 
ATOM     87  C   UNL A   1      44.452  25.898  25.386  1.00  0.00     0.022 A 
BRANCH  84  88
ATOM     88  S   UNL A   1      44.049  23.373  26.497  1.00  0.00     0.124 S 
ATOM     89  O   UNL A   1      43.496  23.067  27.811  1.00  0.00    -0.237 OA
ATOM     90  O   UNL A   1      43.249  22.955  25.350  1.00  0.00    -0.237 OA
ATOM     91  O   UNL A   1      45.488  23.162  26.360  1.00  0.00    -0.744 OA
ENDBRANCH  84  88
ENDBRANCH  57  81
BRANCH  69  92
ATOM     92  C   UNL A   1      45.704  28.872  33.879  1.00  0.00     0.023 A 
ATOM     93  C   UNL A   1      45.858  27.714  34.661  1.00  0.00     0.031 A 
ATOM     94  C   UNL A   1      46.806  29.739  33.761  1.00  0.00     0.131 A 
ATOM     95  C   UNL A   1      47.065  27.484  35.339  1.00  0.00     0.055 A 
ATOM     96  C   UNL A   1      48.026  29.468  34.380  1.00  0.00     0.041 A 
ATOM     97  F   UNL A   1      46.716  30.862  33.030  1.00  0.00    -0.206 F 
ATOM     98  C   UNL A   1      48.156  28.342  35.187  1.00  0.00     0.022 A 
BRANCH  95  99
ATOM     99  S   UNL A   1      47.157  26.100  36.508  1.00  0.00     0.124 S 
ATOM    100  O   UNL A   1      47.190  24.948  35.612  1.00  0.00    -0.237 OA
ATOM    101  O   UNL A   1      48.395  26.381  37.229  1.00  0.00    -0.237 OA
ATOM    102  O   UNL A   1      45.935  26.236  37.298  1.00  0.00    -0.744 OA
ENDBRANCH  95  99
ENDBRANCH  69  92
ENDBRANCH  43  44
ENDBRANCH  35  38
ENDBRANCH  33  34
ENDBRANCH  32  33
ENDBRANCH   1  32
TORSDOF 18
ENDMDL
