MODEL 1
REMARK VINA RESULT:     -12.6      0.000      0.000
REMARK SMILES O=C(NCCCNC(=O)[C@@H]1CS[C@H](c2ncc(-c3ccccc3)s2)[NH2+]1)c1ccc(-c2c3nc(c(-c4cc(S(=O)(=O)[O-])ccc4F)c4ccc([nH]4)c(-c4cc(S(=O)(=O)[O-])ccc4F)c4nc(c(-c5cc(S(=O)(=O)[O-])ccc5F)c5ccc2[nH]5)C=C4)C=C3)cc1
REMARK SMILES IDX 4 1 3 2 1 3 2 4 26 6 27 7 88 8 28 9 87 10 29 11 30 12 31 13
REMARK SMILES IDX 81 14 32 15 86 16 80 17 82 18 33 19 85 20 79 21 78 22 34 24
REMARK SMILES IDX 66 25 46 26 65 27 47 28 50 29 64 30 83 31 48 32 49 33 63 35
REMARK SMILES IDX 84 36 51 37 35 38 36 39 44 40 37 41 43 42 45 43 42 44 38 45
REMARK SMILES IDX 39 46 40 47 41 48 67 49 68 50 76 51 69 52 75 53 77 54 74 55
REMARK SMILES IDX 70 56 71 57 72 58 73 59 52 60 53 61 61 62 54 63 60 64 62 65
REMARK SMILES IDX 59 66 55 67 56 68 57 69 58 70 5 71 6 72 7 73 8 74 9 76 10 77
REMARK SMILES IDX 11 78 25 79 12 80 13 81 14 84 15 85 24 86 16 87 17 88 18 89
REMARK SMILES IDX 19 90 23 91 20 92 22 93 21 94
REMARK H PARENT 3 5 82 23 50 34 7 75 25 82 25 83
REMARK Flexibility Score: inf
ROOT
ATOM      1  C   UNL A   1      32.713  29.445  25.560  1.00  0.00     0.118 C 
ENDROOT
BRANCH   1   2
ATOM      2  N   UNL A   1      32.296  30.794  25.922  1.00  0.00    -0.352 N 
ATOM      3  O   UNL A   1      32.181  32.673  27.157  1.00  0.00    -0.269 OA
ATOM      4  C   UNL A   1      32.782  31.629  26.900  1.00  0.00     0.251 C 
ATOM      5  H   UNL A   1      31.556  31.161  25.387  1.00  0.00     0.163 HD
BRANCH   4   6
ATOM      6  C   UNL A   1      34.011  31.281  27.650  1.00  0.00     0.039 A 
ATOM      7  C   UNL A   1      34.270  29.962  28.021  1.00  0.00     0.014 A 
ATOM      8  C   UNL A   1      34.938  32.281  27.958  1.00  0.00     0.014 A 
ATOM      9  C   UNL A   1      35.373  29.665  28.816  1.00  0.00     0.010 A 
ATOM     10  C   UNL A   1      36.098  31.963  28.675  1.00  0.00     0.010 A 
ATOM     11  C   UNL A   1      36.316  30.653  29.131  1.00  0.00    -0.014 A 
BRANCH  11  12
ATOM     12  C   UNL A   1      37.548  30.282  29.883  1.00  0.00     0.031 A 
ATOM     13  C   UNL A   1      38.600  29.403  29.264  1.00  0.00     0.074 A 
ATOM     14  C   UNL A   1      37.719  30.754  31.135  1.00  0.00     0.049 A 
ATOM     15  N   UNL A   1      39.700  28.933  29.795  1.00  0.00    -0.248 NA
ATOM     16  C   UNL A   1      38.385  28.994  27.869  1.00  0.00     0.031 C 
ATOM     17  C   UNL A   1      36.777  31.629  31.841  1.00  0.00     0.029 A 
ATOM     18  N   UNL A   1      38.738  30.576  32.036  1.00  0.00    -0.354 N 
ATOM     19  C   UNL A   1      40.301  28.155  28.810  1.00  0.00     0.074 A 
ATOM     20  C   UNL A   1      39.420  28.194  27.660  1.00  0.00     0.031 C 
ATOM     21  C   UNL A   1      37.278  31.936  33.045  1.00  0.00     0.029 A 
ATOM     22  C   UNL A   1      38.530  31.216  33.237  1.00  0.00     0.049 A 
ATOM     23  H   UNL A   1      39.542  30.041  31.843  1.00  0.00     0.167 HD
ATOM     24  C   UNL A   1      41.477  27.480  28.861  1.00  0.00     0.034 A 
ATOM     25  C   UNL A   1      39.241  31.196  34.381  1.00  0.00     0.034 A 
ATOM     26  C   UNL A   1      42.341  27.453  30.019  1.00  0.00     0.049 A 
ATOM     27  C   UNL A   1      40.503  30.375  34.438  1.00  0.00     0.074 A 
ATOM     28  C   UNL A   1      43.566  26.822  30.167  1.00  0.00     0.029 A 
ATOM     29  N   UNL A   1      42.071  28.071  31.235  1.00  0.00    -0.354 N 
ATOM     30  N   UNL A   1      41.059  29.650  33.495  1.00  0.00    -0.248 NA
ATOM     31  C   UNL A   1      41.231  30.371  35.712  1.00  0.00     0.031 C 
ATOM     32  C   UNL A   1      43.992  26.988  31.489  1.00  0.00     0.029 A 
ATOM     33  C   UNL A   1      43.084  27.803  32.145  1.00  0.00     0.049 A 
ATOM     34  H   UNL A   1      41.276  28.620  31.424  1.00  0.00     0.167 HD
ATOM     35  C   UNL A   1      42.220  29.127  34.056  1.00  0.00     0.074 A 
ATOM     36  C   UNL A   1      42.292  29.637  35.410  1.00  0.00     0.031 C 
ATOM     37  C   UNL A   1      43.144  28.303  33.499  1.00  0.00     0.034 A 
BRANCH  24  38
ATOM     38  C   UNL A   1      41.874  26.671  27.648  1.00  0.00     0.023 A 
ATOM     39  C   UNL A   1      41.583  25.300  27.539  1.00  0.00     0.031 A 
ATOM     40  C   UNL A   1      42.567  27.279  26.585  1.00  0.00     0.131 A 
ATOM     41  C   UNL A   1      42.042  24.571  26.430  1.00  0.00     0.055 A 
ATOM     42  C   UNL A   1      42.949  26.566  25.446  1.00  0.00     0.041 A 
ATOM     43  F   UNL A   1      42.893  28.581  26.637  1.00  0.00    -0.206 F 
ATOM     44  C   UNL A   1      42.699  25.199  25.371  1.00  0.00     0.022 A 
BRANCH  41  45
ATOM     45  S   UNL A   1      41.901  22.763  26.464  1.00  0.00     0.124 S 
ATOM     46  O   UNL A   1      40.450  22.582  26.498  1.00  0.00    -0.237 OA
ATOM     47  O   UNL A   1      42.564  22.372  25.226  1.00  0.00    -0.237 OA
ATOM     48  O   UNL A   1      42.597  22.387  27.692  1.00  0.00    -0.744 OA
ENDBRANCH  41  45
ENDBRANCH  24  38
BRANCH  25  49
ATOM     49  C   UNL A   1      38.755  31.934  35.583  1.00  0.00     0.023 A 
ATOM     50  C   UNL A   1      38.205  31.254  36.679  1.00  0.00     0.031 A 
ATOM     51  C   UNL A   1      38.796  33.340  35.634  1.00  0.00     0.131 A 
ATOM     52  C   UNL A   1      37.674  31.979  37.756  1.00  0.00     0.055 A 
ATOM     53  C   UNL A   1      38.326  34.054  36.737  1.00  0.00     0.041 A 
ATOM     54  F   UNL A   1      39.312  34.043  34.612  1.00  0.00    -0.206 F 
ATOM     55  C   UNL A   1      37.747  33.373  37.801  1.00  0.00     0.022 A 
BRANCH  52  56
ATOM     56  S   UNL A   1      36.793  31.074  39.059  1.00  0.00     0.124 S 
ATOM     57  O   UNL A   1      37.722  31.188  40.177  1.00  0.00    -0.237 OA
ATOM     58  O   UNL A   1      35.554  31.836  39.172  1.00  0.00    -0.237 OA
ATOM     59  O   UNL A   1      36.649  29.731  38.500  1.00  0.00    -0.744 OA
ENDBRANCH  52  56
ENDBRANCH  25  49
BRANCH  37  60
ATOM     60  C   UNL A   1      44.343  27.945  34.347  1.00  0.00     0.023 A 
ATOM     61  C   UNL A   1      44.331  26.847  35.226  1.00  0.00     0.031 A 
ATOM     62  C   UNL A   1      45.508  28.730  34.288  1.00  0.00     0.131 A 
ATOM     63  C   UNL A   1      45.437  26.602  36.052  1.00  0.00     0.055 A 
ATOM     64  C   UNL A   1      46.632  28.439  35.062  1.00  0.00     0.041 A 
ATOM     65  F   UNL A   1      45.574  29.795  33.473  1.00  0.00    -0.206 F 
ATOM     66  C   UNL A   1      46.595  27.378  35.962  1.00  0.00     0.022 A 
BRANCH  63  67
ATOM     67  S   UNL A   1      45.305  25.319  37.328  1.00  0.00     0.124 S 
ATOM     68  O   UNL A   1      44.457  25.967  38.323  1.00  0.00    -0.237 OA
ATOM     69  O   UNL A   1      44.698  24.212  36.596  1.00  0.00    -0.237 OA
ATOM     70  O   UNL A   1      46.691  25.101  37.741  1.00  0.00    -0.744 OA
ENDBRANCH  63  67
ENDBRANCH  37  60
ENDBRANCH  11  12
ENDBRANCH   4   6
ENDBRANCH   1   2
BRANCH   1  71
ATOM     71  C   UNL A   1      31.718  28.378  26.000  1.00  0.00     0.042 C 
BRANCH  71  72
ATOM     72  C   UNL A   1      32.359  27.077  26.460  1.00  0.00     0.118 C 
BRANCH  72  73
ATOM     73  N   UNL A   1      31.395  26.025  26.733  1.00  0.00    -0.351 N 
ATOM     74  C   UNL A   1      31.145  24.782  26.270  1.00  0.00     0.279 C 
ATOM     75  H   UNL A   1      30.759  26.286  27.438  1.00  0.00     0.163 HD
ATOM     76  O   UNL A   1      30.246  24.187  26.891  1.00  0.00    -0.268 OA
BRANCH  74  77
ATOM     77  C   UNL A   1      31.827  24.047  25.092  1.00  0.00     0.284 C 
ATOM     78  C   UNL A   1      33.192  24.405  24.547  1.00  0.00     0.151 C 
ATOM     79  N   UNL A   1      30.878  23.889  23.952  1.00  0.00    -0.319 N 
ATOM     80  S   UNL A   1      32.893  25.368  23.058  1.00  0.00    -0.085 SA
ATOM     81  C   UNL A   1      31.107  24.979  22.984  1.00  0.00     0.303 C 
ATOM     82  H   UNL A   1      29.920  23.933  24.296  1.00  0.00     0.348 HD
ATOM     83  H   UNL A   1      31.031  22.988  23.499  1.00  0.00     0.348 HD
BRANCH  81  84
ATOM     84  C   UNL A   1      30.258  26.229  23.144  1.00  0.00     0.162 A 
ATOM     85  N   UNL A   1      29.142  26.263  23.851  1.00  0.00    -0.242 NA
ATOM     86  S   UNL A   1      30.715  27.754  22.478  1.00  0.00    -0.112 S 
ATOM     87  C   UNL A   1      28.564  27.514  23.782  1.00  0.00     0.132 A 
ATOM     88  C   UNL A   1      29.237  28.443  23.014  1.00  0.00     0.055 A 
BRANCH  88  89
ATOM     89  C   UNL A   1      28.847  29.806  22.656  1.00  0.00    -0.007 A 
ATOM     90  C   UNL A   1      29.046  30.873  23.547  1.00  0.00     0.009 A 
ATOM     91  C   UNL A   1      28.336  30.083  21.382  1.00  0.00     0.009 A 
ATOM     92  C   UNL A   1      28.768  32.187  23.163  1.00  0.00     0.001 A 
ATOM     93  C   UNL A   1      28.041  31.395  21.003  1.00  0.00     0.001 A 
ATOM     94  C   UNL A   1      28.267  32.447  21.891  1.00  0.00     0.000 A 
ENDBRANCH  88  89
ENDBRANCH  81  84
ENDBRANCH  74  77
ENDBRANCH  72  73
ENDBRANCH  71  72
ENDBRANCH   1  71
TORSDOF 15
ENDMDL
MODEL 2
REMARK VINA RESULT:     -12.4      0.452      7.553
REMARK SMILES O=C(NCCCNC(=O)[C@@H]1CS[C@H](c2ncc(-c3ccccc3)s2)[NH2+]1)c1ccc(-c2c3nc(c(-c4cc(S(=O)(=O)[O-])ccc4F)c4ccc([nH]4)c(-c4cc(S(=O)(=O)[O-])ccc4F)c4nc(c(-c5cc(S(=O)(=O)[O-])ccc5F)c5ccc2[nH]5)C=C4)C=C3)cc1
REMARK SMILES IDX 4 1 3 2 1 3 2 4 26 6 27 7 88 8 28 9 87 10 29 11 30 12 31 13
REMARK SMILES IDX 81 14 32 15 86 16 80 17 82 18 33 19 85 20 79 21 78 22 34 24
REMARK SMILES IDX 66 25 46 26 65 27 47 28 50 29 64 30 83 31 48 32 49 33 63 35
REMARK SMILES IDX 84 36 51 37 35 38 36 39 44 40 37 41 43 42 45 43 42 44 38 45
REMARK SMILES IDX 39 46 40 47 41 48 67 49 68 50 76 51 69 52 75 53 77 54 74 55
REMARK SMILES IDX 70 56 71 57 72 58 73 59 52 60 53 61 61 62 54 63 60 64 62 65
REMARK SMILES IDX 59 66 55 67 56 68 57 69 58 70 5 71 6 72 7 73 8 74 9 76 10 77
REMARK SMILES IDX 11 78 25 79 12 80 13 81 14 84 15 85 24 86 16 87 17 88 18 89
REMARK SMILES IDX 19 90 23 91 20 92 22 93 21 94
REMARK H PARENT 3 5 82 23 50 34 7 75 25 82 25 83
REMARK Flexibility Score: inf
ROOT
ATOM      1  C   UNL A   1      32.637  29.209  25.580  1.00  0.00     0.118 C 
ENDROOT
BRANCH   1   2
ATOM      2  N   UNL A   1      32.280  30.581  25.923  1.00  0.00    -0.352 N 
ATOM      3  O   UNL A   1      32.258  32.483  27.127  1.00  0.00    -0.269 OA
ATOM      4  C   UNL A   1      32.813  31.411  26.882  1.00  0.00     0.251 C 
ATOM      5  H   UNL A   1      31.549  30.969  25.391  1.00  0.00     0.163 HD
BRANCH   4   6
ATOM      6  C   UNL A   1      34.035  31.024  27.623  1.00  0.00     0.039 A 
ATOM      7  C   UNL A   1      34.254  29.697  27.994  1.00  0.00     0.014 A 
ATOM      8  C   UNL A   1      34.995  31.994  27.924  1.00  0.00     0.014 A 
ATOM      9  C   UNL A   1      35.352  29.366  28.782  1.00  0.00     0.010 A 
ATOM     10  C   UNL A   1      36.149  31.640  28.634  1.00  0.00     0.010 A 
ATOM     11  C   UNL A   1      36.329  30.324  29.090  1.00  0.00    -0.014 A 
BRANCH  11  12
ATOM     12  C   UNL A   1      37.553  29.914  29.833  1.00  0.00     0.031 A 
ATOM     13  C   UNL A   1      37.804  30.389  31.237  1.00  0.00     0.074 A 
ATOM     14  C   UNL A   1      38.440  29.093  29.233  1.00  0.00     0.049 A 
ATOM     15  N   UNL A   1      38.842  30.180  32.007  1.00  0.00    -0.248 NA
ATOM     16  C   UNL A   1      36.756  31.213  31.856  1.00  0.00     0.031 C 
ATOM     17  C   UNL A   1      38.301  28.550  27.878  1.00  0.00     0.029 A 
ATOM     18  N   UNL A   1      39.626  28.566  29.677  1.00  0.00    -0.354 N 
ATOM     19  C   UNL A   1      38.586  30.861  33.193  1.00  0.00     0.074 A 
ATOM     20  C   UNL A   1      37.305  31.517  33.024  1.00  0.00     0.031 C 
ATOM     21  C   UNL A   1      39.339  27.743  27.618  1.00  0.00     0.029 A 
ATOM     22  C   UNL A   1      40.262  27.777  28.745  1.00  0.00     0.049 A 
ATOM     23  H   UNL A   1      39.989  28.736  30.576  1.00  0.00     0.167 HD
ATOM     24  C   UNL A   1      39.346  30.926  34.316  1.00  0.00     0.034 A 
ATOM     25  C   UNL A   1      41.469  27.179  28.772  1.00  0.00     0.034 A 
ATOM     26  C   UNL A   1      40.622  30.266  34.465  1.00  0.00     0.049 A 
ATOM     27  C   UNL A   1      42.327  27.332  30.001  1.00  0.00     0.074 A 
ATOM     28  C   UNL A   1      41.459  30.245  35.569  1.00  0.00     0.029 A 
ATOM     29  N   UNL A   1      41.257  29.518  33.480  1.00  0.00    -0.354 N 
ATOM     30  N   UNL A   1      42.066  27.975  31.115  1.00  0.00    -0.248 NA
ATOM     31  C   UNL A   1      43.641  26.678  29.974  1.00  0.00     0.031 C 
ATOM     32  C   UNL A   1      42.629  29.561  35.224  1.00  0.00     0.029 A 
ATOM     33  C   UNL A   1      42.488  29.069  33.938  1.00  0.00     0.049 A 
ATOM     34  H   UNL A   1      40.887  29.333  32.587  1.00  0.00     0.167 HD
ATOM     35  C   UNL A   1      43.174  27.777  31.934  1.00  0.00     0.074 A 
ATOM     36  C   UNL A   1      44.093  26.939  31.191  1.00  0.00     0.031 C 
ATOM     37  C   UNL A   1      43.407  28.244  33.187  1.00  0.00     0.034 A 
BRANCH  24  38
ATOM     38  C   UNL A   1      38.841  31.784  35.454  1.00  0.00     0.023 A 
ATOM     39  C   UNL A   1      38.314  31.224  36.630  1.00  0.00     0.031 A 
ATOM     40  C   UNL A   1      38.878  33.187  35.356  1.00  0.00     0.131 A 
ATOM     41  C   UNL A   1      37.781  32.058  37.627  1.00  0.00     0.055 A 
ATOM     42  C   UNL A   1      38.423  34.012  36.387  1.00  0.00     0.041 A 
ATOM     43  F   UNL A   1      39.351  33.783  34.250  1.00  0.00    -0.206 F 
ATOM     44  C   UNL A   1      37.856  33.448  37.525  1.00  0.00     0.022 A 
BRANCH  41  45
ATOM     45  S   UNL A   1      36.853  31.297  38.987  1.00  0.00     0.124 S 
ATOM     46  O   UNL A   1      35.661  32.143  39.039  1.00  0.00    -0.237 OA
ATOM     47  O   UNL A   1      36.650  29.935  38.508  1.00  0.00    -0.237 OA
ATOM     48  O   UNL A   1      37.752  31.429  40.131  1.00  0.00    -0.744 OA
ENDBRANCH  41  45
ENDBRANCH  24  38
BRANCH  25  49
ATOM     49  C   UNL A   1      41.962  26.424  27.585  1.00  0.00     0.023 A 
ATOM     50  C   UNL A   1      41.690  25.056  27.430  1.00  0.00     0.031 A 
ATOM     51  C   UNL A   1      42.752  27.053  26.604  1.00  0.00     0.131 A 
ATOM     52  C   UNL A   1      42.243  24.352  26.350  1.00  0.00     0.055 A 
ATOM     53  C   UNL A   1      43.246  26.362  25.497  1.00  0.00     0.041 A 
ATOM     54  F   UNL A   1      43.045  28.360  26.702  1.00  0.00    -0.206 F 
ATOM     55  C   UNL A   1      43.004  24.998  25.373  1.00  0.00     0.022 A 
BRANCH  52  56
ATOM     56  S   UNL A   1      42.035  22.551  26.293  1.00  0.00     0.124 S 
ATOM     57  O   UNL A   1      40.584  22.419  26.364  1.00  0.00    -0.237 OA
ATOM     58  O   UNL A   1      42.649  22.216  25.013  1.00  0.00    -0.237 OA
ATOM     59  O   UNL A   1      42.763  22.088  27.473  1.00  0.00    -0.744 OA
ENDBRANCH  52  56
ENDBRANCH  25  49
BRANCH  37  60
ATOM     60  C   UNL A   1      44.693  27.810  33.852  1.00  0.00     0.023 A 
ATOM     61  C   UNL A   1      44.776  26.629  34.611  1.00  0.00     0.031 A 
ATOM     62  C   UNL A   1      45.848  28.605  33.741  1.00  0.00     0.131 A 
ATOM     63  C   UNL A   1      45.968  26.308  35.277  1.00  0.00     0.055 A 
ATOM     64  C   UNL A   1      47.051  28.244  34.349  1.00  0.00     0.041 A 
ATOM     65  F   UNL A   1      45.826  29.747  33.036  1.00  0.00    -0.206 F 
ATOM     66  C   UNL A   1      47.112  27.098  35.135  1.00  0.00     0.022 A 
BRANCH  63  67
ATOM     67  S   UNL A   1      45.976  24.902  36.423  1.00  0.00     0.124 S 
ATOM     68  O   UNL A   1      46.881  25.368  37.469  1.00  0.00    -0.237 OA
ATOM     69  O   UNL A   1      44.570  24.796  36.797  1.00  0.00    -0.237 OA
ATOM     70  O   UNL A   1      46.485  23.799  35.610  1.00  0.00    -0.744 OA
ENDBRANCH  63  67
ENDBRANCH  37  60
ENDBRANCH  11  12
ENDBRANCH   4   6
ENDBRANCH   1   2
BRANCH   1  71
ATOM     71  C   UNL A   1      31.694  28.180  26.191  1.00  0.00     0.042 C 
BRANCH  71  72
ATOM     72  C   UNL A   1      32.301  26.794  26.353  1.00  0.00     0.118 C 
BRANCH  72  73
ATOM     73  N   UNL A   1      31.325  25.776  26.701  1.00  0.00    -0.351 N 
ATOM     74  C   UNL A   1      31.019  24.530  26.280  1.00  0.00     0.279 C 
ATOM     75  H   UNL A   1      30.734  26.069  27.432  1.00  0.00     0.163 HD
ATOM     76  O   UNL A   1      30.139  23.974  26.962  1.00  0.00    -0.268 OA
BRANCH  74  77
ATOM     77  C   UNL A   1      31.619  23.751  25.086  1.00  0.00     0.284 C 
ATOM     78  C   UNL A   1      33.005  23.989  24.530  1.00  0.00     0.151 C 
ATOM     79  N   UNL A   1      30.648  23.697  23.955  1.00  0.00    -0.319 N 
ATOM     80  S   UNL A   1      32.781  24.996  23.057  1.00  0.00    -0.085 SA
ATOM     81  C   UNL A   1      30.966  24.774  22.999  1.00  0.00     0.303 C 
ATOM     82  H   UNL A   1      29.701  23.824  24.310  1.00  0.00     0.348 HD
ATOM     83  H   UNL A   1      30.712  22.792  23.489  1.00  0.00     0.348 HD
BRANCH  81  84
ATOM     84  C   UNL A   1      30.238  26.095  23.183  1.00  0.00     0.162 A 
ATOM     85  N   UNL A   1      29.160  26.230  23.935  1.00  0.00    -0.242 NA
ATOM     86  S   UNL A   1      30.799  27.570  22.488  1.00  0.00    -0.112 S 
ATOM     87  C   UNL A   1      28.692  27.526  23.881  1.00  0.00     0.132 A 
ATOM     88  C   UNL A   1      29.411  28.390  23.079  1.00  0.00     0.055 A 
BRANCH  88  89
ATOM     89  C   UNL A   1      29.128  29.781  22.727  1.00  0.00    -0.007 A 
ATOM     90  C   UNL A   1      28.720  30.129  21.429  1.00  0.00     0.009 A 
ATOM     91  C   UNL A   1      29.184  30.783  23.703  1.00  0.00     0.009 A 
ATOM     92  C   UNL A   1      28.350  31.440  21.123  1.00  0.00     0.001 A 
ATOM     93  C   UNL A   1      28.831  32.099  23.394  1.00  0.00     0.001 A 
ATOM     94  C   UNL A   1      28.405  32.424  22.106  1.00  0.00     0.000 A 
ENDBRANCH  88  89
ENDBRANCH  81  84
ENDBRANCH  74  77
ENDBRANCH  72  73
ENDBRANCH  71  72
ENDBRANCH   1  71
TORSDOF 15
ENDMDL
MODEL 3
REMARK VINA RESULT:     -12.4      1.462      1.737
REMARK SMILES O=C(NCCCNC(=O)[C@@H]1CS[C@H](c2ncc(-c3ccccc3)s2)[NH2+]1)c1ccc(-c2c3nc(c(-c4cc(S(=O)(=O)[O-])ccc4F)c4ccc([nH]4)c(-c4cc(S(=O)(=O)[O-])ccc4F)c4nc(c(-c5cc(S(=O)(=O)[O-])ccc5F)c5ccc2[nH]5)C=C4)C=C3)cc1
REMARK SMILES IDX 4 1 3 2 1 3 2 4 26 6 27 7 88 8 28 9 87 10 29 11 30 12 31 13
REMARK SMILES IDX 81 14 32 15 86 16 80 17 82 18 33 19 85 20 79 21 78 22 34 24
REMARK SMILES IDX 66 25 46 26 65 27 47 28 50 29 64 30 83 31 48 32 49 33 63 35
REMARK SMILES IDX 84 36 51 37 35 38 36 39 44 40 37 41 43 42 45 43 42 44 38 45
REMARK SMILES IDX 39 46 40 47 41 48 67 49 68 50 76 51 69 52 75 53 77 54 74 55
REMARK SMILES IDX 70 56 71 57 72 58 73 59 52 60 53 61 61 62 54 63 60 64 62 65
REMARK SMILES IDX 59 66 55 67 56 68 57 69 58 70 5 71 6 72 7 73 8 74 9 76 10 77
REMARK SMILES IDX 11 78 25 79 12 80 13 81 14 84 15 85 24 86 16 87 17 88 18 89
REMARK SMILES IDX 19 90 23 91 20 92 22 93 21 94
REMARK H PARENT 3 5 82 23 50 34 7 75 25 82 25 83
REMARK Flexibility Score: inf
ROOT
ATOM      1  C   UNL A   1      32.851  29.436  25.520  1.00  0.00     0.118 C 
ENDROOT
BRANCH   1   2
ATOM      2  N   UNL A   1      32.409  30.771  25.905  1.00  0.00    -0.352 N 
ATOM      3  O   UNL A   1      32.267  32.629  27.168  1.00  0.00    -0.269 OA
ATOM      4  C   UNL A   1      32.887  31.602  26.891  1.00  0.00     0.251 C 
ATOM      5  H   UNL A   1      31.657  31.131  25.383  1.00  0.00     0.163 HD
BRANCH   4   6
ATOM      6  C   UNL A   1      34.130  31.269  27.625  1.00  0.00     0.039 A 
ATOM      7  C   UNL A   1      34.366  29.969  28.073  1.00  0.00     0.014 A 
ATOM      8  C   UNL A   1      35.091  32.260  27.840  1.00  0.00     0.014 A 
ATOM      9  C   UNL A   1      35.485  29.693  28.852  1.00  0.00     0.010 A 
ATOM     10  C   UNL A   1      36.264  31.957  28.542  1.00  0.00     0.010 A 
ATOM     11  C   UNL A   1      36.464  30.673  29.074  1.00  0.00    -0.014 A 
BRANCH  11  12
ATOM     12  C   UNL A   1      37.708  30.316  29.811  1.00  0.00     0.031 A 
ATOM     13  C   UNL A   1      38.726  29.387  29.211  1.00  0.00     0.074 A 
ATOM     14  C   UNL A   1      37.923  30.849  31.032  1.00  0.00     0.049 A 
ATOM     15  N   UNL A   1      39.832  28.922  29.736  1.00  0.00    -0.248 NA
ATOM     16  C   UNL A   1      38.465  28.910  27.845  1.00  0.00     0.031 C 
ATOM     17  C   UNL A   1      37.017  31.778  31.716  1.00  0.00     0.029 A 
ATOM     18  N   UNL A   1      38.963  30.697  31.914  1.00  0.00    -0.354 N 
ATOM     19  C   UNL A   1      40.392  28.083  28.777  1.00  0.00     0.074 A 
ATOM     20  C   UNL A   1      39.480  28.080  27.650  1.00  0.00     0.031 C 
ATOM     21  C   UNL A   1      37.557  32.136  32.889  1.00  0.00     0.029 A 
ATOM     22  C   UNL A   1      38.800  31.402  33.085  1.00  0.00     0.049 A 
ATOM     23  H   UNL A   1      39.751  30.137  31.727  1.00  0.00     0.167 HD
ATOM     24  C   UNL A   1      41.556  27.388  28.833  1.00  0.00     0.034 A 
ATOM     25  C   UNL A   1      39.542  31.427  34.209  1.00  0.00     0.034 A 
ATOM     26  C   UNL A   1      42.450  27.403  29.967  1.00  0.00     0.049 A 
ATOM     27  C   UNL A   1      40.789  30.585  34.275  1.00  0.00     0.074 A 
ATOM     28  C   UNL A   1      43.667  26.757  30.114  1.00  0.00     0.029 A 
ATOM     29  N   UNL A   1      42.226  28.089  31.155  1.00  0.00    -0.354 N 
ATOM     30  N   UNL A   1      41.305  29.802  33.356  1.00  0.00    -0.248 NA
ATOM     31  C   UNL A   1      41.552  30.632  35.527  1.00  0.00     0.031 C 
ATOM     32  C   UNL A   1      44.133  26.982  31.414  1.00  0.00     0.029 A 
ATOM     33  C   UNL A   1      43.259  27.847  32.051  1.00  0.00     0.049 A 
ATOM     34  H   UNL A   1      41.447  28.662  31.336  1.00  0.00     0.167 HD
ATOM     35  C   UNL A   1      42.472  29.285  33.913  1.00  0.00     0.074 A 
ATOM     36  C   UNL A   1      42.590  29.863  35.236  1.00  0.00     0.031 C 
ATOM     37  C   UNL A   1      43.365  28.415  33.375  1.00  0.00     0.034 A 
BRANCH  24  38
ATOM     38  C   UNL A   1      41.904  26.510  27.652  1.00  0.00     0.023 A 
ATOM     39  C   UNL A   1      41.555  25.149  27.608  1.00  0.00     0.031 A 
ATOM     40  C   UNL A   1      42.608  27.041  26.556  1.00  0.00     0.131 A 
ATOM     41  C   UNL A   1      41.971  24.353  26.529  1.00  0.00     0.055 A 
ATOM     42  C   UNL A   1      42.946  26.262  25.447  1.00  0.00     0.041 A 
ATOM     43  F   UNL A   1      42.988  28.329  26.546  1.00  0.00    -0.206 F 
ATOM     44  C   UNL A   1      42.640  24.906  25.436  1.00  0.00     0.022 A 
BRANCH  41  45
ATOM     45  S   UNL A   1      41.756  22.556  26.646  1.00  0.00     0.124 S 
ATOM     46  O   UNL A   1      42.575  22.237  27.814  1.00  0.00    -0.237 OA
ATOM     47  O   UNL A   1      40.314  22.421  26.822  1.00  0.00    -0.237 OA
ATOM     48  O   UNL A   1      42.279  22.064  25.374  1.00  0.00    -0.744 OA
ENDBRANCH  41  45
ENDBRANCH  24  38
BRANCH  25  49
ATOM     49  C   UNL A   1      39.103  32.236  35.383  1.00  0.00     0.023 A 
ATOM     50  C   UNL A   1      39.563  33.547  35.574  1.00  0.00     0.031 A 
ATOM     51  C   UNL A   1      38.247  31.690  36.359  1.00  0.00     0.131 A 
ATOM     52  C   UNL A   1      39.205  34.251  36.733  1.00  0.00     0.055 A 
ATOM     53  C   UNL A   1      37.842  32.419  37.478  1.00  0.00     0.041 A 
ATOM     54  F   UNL A   1      37.777  30.439  36.228  1.00  0.00    -0.206 F 
ATOM     55  C   UNL A   1      38.334  33.704  37.677  1.00  0.00     0.022 A 
BRANCH  52  56
ATOM     56  S   UNL A   1      39.978  35.864  37.039  1.00  0.00     0.124 S 
ATOM     57  O   UNL A   1      39.654  36.584  35.813  1.00  0.00    -0.237 OA
ATOM     58  O   UNL A   1      39.287  36.306  38.246  1.00  0.00    -0.237 OA
ATOM     59  O   UNL A   1      41.390  35.535  37.216  1.00  0.00    -0.744 OA
ENDBRANCH  52  56
ENDBRANCH  25  49
BRANCH  37  60
ATOM     60  C   UNL A   1      44.579  28.078  34.208  1.00  0.00     0.023 A 
ATOM     61  C   UNL A   1      44.592  26.988  35.097  1.00  0.00     0.031 A 
ATOM     62  C   UNL A   1      45.735  28.875  34.125  1.00  0.00     0.131 A 
ATOM     63  C   UNL A   1      45.713  26.762  35.910  1.00  0.00     0.055 A 
ATOM     64  C   UNL A   1      46.874  28.602  34.885  1.00  0.00     0.041 A 
ATOM     65  F   UNL A   1      45.778  29.933  33.300  1.00  0.00    -0.206 F 
ATOM     66  C   UNL A   1      46.861  27.550  35.795  1.00  0.00     0.022 A 
BRANCH  63  67
ATOM     67  S   UNL A   1      45.614  25.489  37.198  1.00  0.00     0.124 S 
ATOM     68  O   UNL A   1      44.796  24.467  36.553  1.00  0.00    -0.237 OA
ATOM     69  O   UNL A   1      47.017  25.145  37.407  1.00  0.00    -0.237 OA
ATOM     70  O   UNL A   1      44.974  26.181  38.316  1.00  0.00    -0.744 OA
ENDBRANCH  63  67
ENDBRANCH  37  60
ENDBRANCH  11  12
ENDBRANCH   4   6
ENDBRANCH   1   2
BRANCH   1  71
ATOM     71  C   UNL A   1      31.925  28.336  26.025  1.00  0.00     0.042 C 
BRANCH  71  72
ATOM     72  C   UNL A   1      32.599  26.983  26.200  1.00  0.00     0.118 C 
BRANCH  72  73
ATOM     73  N   UNL A   1      31.687  25.938  26.632  1.00  0.00    -0.351 N 
ATOM     74  C   UNL A   1      31.402  24.672  26.260  1.00  0.00     0.279 C 
ATOM     75  H   UNL A   1      31.134  26.227  27.395  1.00  0.00     0.163 HD
ATOM     76  O   UNL A   1      30.590  24.101  27.010  1.00  0.00    -0.268 OA
BRANCH  74  77
ATOM     77  C   UNL A   1      31.952  23.888  25.045  1.00  0.00     0.284 C 
ATOM     78  C   UNL A   1      33.271  24.189  24.370  1.00  0.00     0.151 C 
ATOM     79  N   UNL A   1      30.898  23.733  24.000  1.00  0.00    -0.319 N 
ATOM     80  S   UNL A   1      32.866  25.125  22.889  1.00  0.00    -0.085 SA
ATOM     81  C   UNL A   1      31.070  24.792  22.987  1.00  0.00     0.303 C 
ATOM     82  H   UNL A   1      29.977  23.816  24.428  1.00  0.00     0.348 HD
ATOM     83  H   UNL A   1      30.982  22.818  23.560  1.00  0.00     0.348 HD
BRANCH  81  84
ATOM     84  C   UNL A   1      30.276  26.072  23.190  1.00  0.00     0.162 A 
ATOM     85  N   UNL A   1      29.166  26.133  23.903  1.00  0.00    -0.242 NA
ATOM     86  S   UNL A   1      30.797  27.595  22.568  1.00  0.00    -0.112 S 
ATOM     87  C   UNL A   1      28.643  27.408  23.876  1.00  0.00     0.132 A 
ATOM     88  C   UNL A   1      29.352  28.331  23.133  1.00  0.00     0.055 A 
BRANCH  88  89
ATOM     89  C   UNL A   1      29.020  29.720  22.819  1.00  0.00    -0.007 A 
ATOM     90  C   UNL A   1      29.150  30.731  23.784  1.00  0.00     0.009 A 
ATOM     91  C   UNL A   1      28.638  30.079  21.520  1.00  0.00     0.009 A 
ATOM     92  C   UNL A   1      28.932  32.070  23.452  1.00  0.00     0.001 A 
ATOM     93  C   UNL A   1      28.402  31.416  21.192  1.00  0.00     0.001 A 
ATOM     94  C   UNL A   1      28.559  32.411  22.156  1.00  0.00     0.000 A 
ENDBRANCH  88  89
ENDBRANCH  81  84
ENDBRANCH  74  77
ENDBRANCH  72  73
ENDBRANCH  71  72
ENDBRANCH   1  71
TORSDOF 15
ENDMDL
