MODEL 1
REMARK VINA RESULT:     -12.5      0.000      0.000
REMARK SMILES COC(=O)C[C@@H](NC(=O)c1ccccc1C(=O)NCCCNC(=O)c1ccc(-c2c3nc(c(-c4cc(S(=O)(=O)[O-])ccc4F)c4ccc([nH]4)c(-c4cc(S(=O)(=O)[O-])ccc4F)c4nc(c(-c5cc(S(=O)(=O)[O-])ccc5F)c5ccc2[nH]5)C=C4)C=C3)cc1)c1cccc(C)c1C
REMARK SMILES IDX 19 1 18 2 16 3 17 4 15 6 10 7 11 8 12 9 14 10 13 11 8 12
REMARK SMILES IDX 7 13 9 15 6 16 5 17 3 18 4 19 2 20 1 21 88 22 89 23 94 24
REMARK SMILES IDX 90 25 92 26 95 27 91 28 93 29 20 30 21 31 22 32 23 33 24 35
REMARK SMILES IDX 25 36 26 37 87 38 27 39 86 40 28 41 29 42 30 43 80 44 31 45
REMARK SMILES IDX 85 46 79 47 81 48 32 49 84 50 78 51 77 52 33 54 65 55 45 56
REMARK SMILES IDX 64 57 46 58 49 59 63 60 82 61 47 62 48 63 62 65 83 66 50 67
REMARK SMILES IDX 34 68 35 69 43 70 36 71 42 72 44 73 41 74 37 75 38 76 39 77
REMARK SMILES IDX 40 78 66 79 67 80 75 81 68 82 74 83 76 84 73 85 69 86 70 87
REMARK SMILES IDX 71 88 72 89 51 90 52 91 60 92 53 93 59 94 61 95 58 96 54 97
REMARK SMILES IDX 55 98 56 99 57 100
REMARK H PARENT 18 5 7 14 22 34 81 53 49 64
REMARK Flexibility Score: inf
ROOT
ATOM      1  C   UNL A   1      31.984  29.628  27.287  1.00  0.00     0.118 C 
ENDROOT
BRANCH   1   2
ATOM      2  N   UNL A   1      32.740  28.444  26.917  1.00  0.00    -0.352 N 
ATOM      3  C   UNL A   1      32.561  27.485  25.969  1.00  0.00     0.252 C 
ATOM      4  O   UNL A   1      33.419  26.600  25.915  1.00  0.00    -0.269 OA
ATOM      5  H   UNL A   1      33.546  28.307  27.465  1.00  0.00     0.163 HD
BRANCH   3   6
ATOM      6  C   UNL A   1      31.401  27.406  25.054  1.00  0.00     0.052 A 
ATOM      7  C   UNL A   1      30.437  26.398  24.979  1.00  0.00     0.052 A 
ATOM      8  C   UNL A   1      29.404  26.498  24.022  1.00  0.00     0.014 A 
ATOM      9  C   UNL A   1      29.280  27.617  23.201  1.00  0.00     0.001 A 
ATOM     10  C   UNL A   1      31.251  28.540  24.222  1.00  0.00     0.014 A 
ATOM     11  C   UNL A   1      30.200  28.649  23.311  1.00  0.00     0.001 A 
BRANCH   7  12
ATOM     12  C   UNL A   1      30.370  25.170  25.788  1.00  0.00     0.252 C 
ATOM     13  N   UNL A   1      31.230  24.114  25.646  1.00  0.00    -0.345 N 
ATOM     14  H   UNL A   1      31.149  23.439  26.358  1.00  0.00     0.164 HD
ATOM     15  O   UNL A   1      29.546  25.128  26.704  1.00  0.00    -0.269 OA
BRANCH  13  16
ATOM     16  C   UNL A   1      32.247  23.791  24.642  1.00  0.00     0.124 C 
BRANCH  16  17
ATOM     17  C   UNL A   1      31.698  23.843  23.213  1.00  0.00     0.152 C 
BRANCH  17  18
ATOM     18  C   UNL A   1      32.706  24.460  22.280  1.00  0.00     0.307 C 
ATOM     19  O   UNL A   1      33.198  23.883  21.332  1.00  0.00    -0.252 OA
BRANCH  18  20
ATOM     20  O   UNL A   1      32.992  25.726  22.699  1.00  0.00    -0.469 OA
ATOM     21  C   UNL A   1      33.296  26.688  21.680  1.00  0.00     0.282 C 
ENDBRANCH  18  20
ENDBRANCH  17  18
ENDBRANCH  16  17
BRANCH  16  22
ATOM     22  C   UNL A   1      32.917  22.446  24.885  1.00  0.00    -0.022 A 
ATOM     23  C   UNL A   1      32.061  21.327  24.936  1.00  0.00     0.006 A 
ATOM     24  C   UNL A   1      34.318  22.251  24.997  1.00  0.00    -0.043 A 
ATOM     25  C   UNL A   1      32.564  20.035  24.991  1.00  0.00     0.001 A 
ATOM     26  C   UNL A   1      34.822  20.927  25.040  1.00  0.00    -0.048 A 
ATOM     27  C   UNL A   1      35.298  23.400  25.032  1.00  0.00     0.045 C 
ATOM     28  C   UNL A   1      33.936  19.837  25.017  1.00  0.00     0.004 A 
ATOM     29  C   UNL A   1      36.296  20.621  24.987  1.00  0.00     0.044 C 
ENDBRANCH  16  22
ENDBRANCH  13  16
ENDBRANCH   7  12
ENDBRANCH   3   6
ENDBRANCH   1   2
BRANCH   1  30
ATOM     30  C   UNL A   1      32.476  30.884  26.587  1.00  0.00     0.042 C 
BRANCH  30  31
ATOM     31  C   UNL A   1      33.322  31.788  27.481  1.00  0.00     0.118 C 
BRANCH  31  32
ATOM     32  N   UNL A   1      32.803  33.142  27.653  1.00  0.00    -0.352 N 
ATOM     33  C   UNL A   1      33.225  34.160  28.481  1.00  0.00     0.251 C 
ATOM     34  H   UNL A   1      32.027  33.363  27.090  1.00  0.00     0.163 HD
ATOM     35  O   UNL A   1      32.609  35.216  28.540  1.00  0.00    -0.269 OA
BRANCH  33  36
ATOM     36  C   UNL A   1      34.396  33.952  29.353  1.00  0.00     0.039 A 
ATOM     37  C   UNL A   1      34.228  33.297  30.575  1.00  0.00     0.014 A 
ATOM     38  C   UNL A   1      35.660  34.353  28.936  1.00  0.00     0.014 A 
ATOM     39  C   UNL A   1      35.354  32.927  31.313  1.00  0.00     0.010 A 
ATOM     40  C   UNL A   1      36.775  33.861  29.593  1.00  0.00     0.010 A 
ATOM     41  C   UNL A   1      36.637  33.138  30.788  1.00  0.00    -0.014 A 
BRANCH  41  42
ATOM     42  C   UNL A   1      37.869  32.642  31.453  1.00  0.00     0.031 A 
ATOM     43  C   UNL A   1      38.635  31.516  30.815  1.00  0.00     0.074 A 
ATOM     44  C   UNL A   1      38.206  33.098  32.676  1.00  0.00     0.049 A 
ATOM     45  N   UNL A   1      39.550  30.737  31.325  1.00  0.00    -0.248 NA
ATOM     46  C   UNL A   1      38.256  31.175  29.433  1.00  0.00     0.031 C 
ATOM     47  C   UNL A   1      37.507  34.154  33.415  1.00  0.00     0.029 A 
ATOM     48  N   UNL A   1      39.211  32.716  33.526  1.00  0.00    -0.354 N 
ATOM     49  C   UNL A   1      39.809  29.776  30.352  1.00  0.00     0.074 A 
ATOM     50  C   UNL A   1      38.904  30.036  29.254  1.00  0.00     0.031 C 
ATOM     51  C   UNL A   1      38.123  34.352  34.592  1.00  0.00     0.029 A 
ATOM     52  C   UNL A   1      39.217  33.399  34.721  1.00  0.00     0.049 A 
ATOM     53  H   UNL A   1      39.868  32.017  33.303  1.00  0.00     0.167 HD
ATOM     54  C   UNL A   1      40.733  28.783  30.368  1.00  0.00     0.034 A 
ATOM     55  C   UNL A   1      40.004  33.254  35.805  1.00  0.00     0.034 A 
ATOM     56  C   UNL A   1      41.665  28.595  31.452  1.00  0.00     0.049 A 
ATOM     57  C   UNL A   1      41.061  32.180  35.781  1.00  0.00     0.074 A 
ATOM     58  C   UNL A   1      42.698  27.683  31.557  1.00  0.00     0.029 A 
ATOM     59  N   UNL A   1      41.683  29.355  32.618  1.00  0.00    -0.354 N 
ATOM     60  N   UNL A   1      41.311  31.290  34.847  1.00  0.00    -0.248 NA
ATOM     61  C   UNL A   1      41.942  32.092  36.952  1.00  0.00     0.031 C 
ATOM     62  C   UNL A   1      43.313  27.862  32.802  1.00  0.00     0.029 A 
ATOM     63  C   UNL A   1      42.702  28.924  33.450  1.00  0.00     0.049 A 
ATOM     64  H   UNL A   1      41.061  30.090  32.821  1.00  0.00     0.167 HD
ATOM     65  C   UNL A   1      42.394  30.550  35.311  1.00  0.00     0.074 A 
ATOM     66  C   UNL A   1      42.758  31.109  36.598  1.00  0.00     0.031 C 
ATOM     67  C   UNL A   1      43.034  29.505  34.729  1.00  0.00     0.034 A 
BRANCH  54  68
ATOM     68  C   UNL A   1      40.755  27.836  29.191  1.00  0.00     0.023 A 
ATOM     69  C   UNL A   1      41.682  27.981  28.144  1.00  0.00     0.031 A 
ATOM     70  C   UNL A   1      39.794  26.816  29.077  1.00  0.00     0.131 A 
ATOM     71  C   UNL A   1      41.560  27.200  26.985  1.00  0.00     0.055 A 
ATOM     72  C   UNL A   1      39.740  25.975  27.963  1.00  0.00     0.041 A 
ATOM     73  F   UNL A   1      38.871  26.635  30.035  1.00  0.00    -0.206 F 
ATOM     74  C   UNL A   1      40.613  26.179  26.898  1.00  0.00     0.022 A 
BRANCH  71  75
ATOM     75  S   UNL A   1      42.544  27.658  25.531  1.00  0.00     0.124 S 
ATOM     76  O   UNL A   1      43.851  27.912  26.132  1.00  0.00    -0.237 OA
ATOM     77  O   UNL A   1      42.446  26.468  24.694  1.00  0.00    -0.237 OA
ATOM     78  O   UNL A   1      41.861  28.843  25.014  1.00  0.00    -0.744 OA
ENDBRANCH  71  75
ENDBRANCH  54  68
BRANCH  55  79
ATOM     79  C   UNL A   1      39.826  34.133  36.996  1.00  0.00     0.023 A 
ATOM     80  C   UNL A   1      39.205  33.647  38.158  1.00  0.00     0.031 A 
ATOM     81  C   UNL A   1      40.250  35.473  36.986  1.00  0.00     0.131 A 
ATOM     82  C   UNL A   1      38.990  34.505  39.248  1.00  0.00     0.055 A 
ATOM     83  C   UNL A   1      40.075  36.310  38.091  1.00  0.00     0.041 A 
ATOM     84  F   UNL A   1      40.859  35.986  35.905  1.00  0.00    -0.206 F 
ATOM     85  C   UNL A   1      39.431  35.829  39.227  1.00  0.00     0.022 A 
BRANCH  82  86
ATOM     86  S   UNL A   1      38.056  33.879  40.672  1.00  0.00     0.124 S 
ATOM     87  O   UNL A   1      39.101  33.221  41.449  1.00  0.00    -0.237 OA
ATOM     88  O   UNL A   1      37.512  35.108  41.241  1.00  0.00    -0.237 OA
ATOM     89  O   UNL A   1      37.070  32.986  40.068  1.00  0.00    -0.744 OA
ENDBRANCH  82  86
ENDBRANCH  55  79
BRANCH  67  90
ATOM     90  C   UNL A   1      44.217  28.939  35.469  1.00  0.00     0.023 A 
ATOM     91  C   UNL A   1      44.065  27.942  36.448  1.00  0.00     0.031 A 
ATOM     92  C   UNL A   1      45.513  29.404  35.184  1.00  0.00     0.131 A 
ATOM     93  C   UNL A   1      45.188  27.473  37.142  1.00  0.00     0.055 A 
ATOM     94  C   UNL A   1      46.633  28.895  35.842  1.00  0.00     0.041 A 
ATOM     95  F   UNL A   1      45.709  30.355  34.258  1.00  0.00    -0.206 F 
ATOM     96  C   UNL A   1      46.473  27.931  36.834  1.00  0.00     0.022 A 
BRANCH  93  97
ATOM     97  S   UNL A   1      44.942  26.299  38.501  1.00  0.00     0.124 S 
ATOM     98  O   UNL A   1      45.982  26.705  39.442  1.00  0.00    -0.237 OA
ATOM     99  O   UNL A   1      43.569  26.575  38.910  1.00  0.00    -0.237 OA
ATOM    100  O   UNL A   1      45.149  24.997  37.871  1.00  0.00    -0.744 OA
ENDBRANCH  93  97
ENDBRANCH  67  90
ENDBRANCH  41  42
ENDBRANCH  33  36
ENDBRANCH  31  32
ENDBRANCH  30  31
ENDBRANCH   1  30
TORSDOF 19
ENDMDL
MODEL 2
REMARK VINA RESULT:     -12.3      1.325      2.048
REMARK SMILES COC(=O)C[C@@H](NC(=O)c1ccccc1C(=O)NCCCNC(=O)c1ccc(-c2c3nc(c(-c4cc(S(=O)(=O)[O-])ccc4F)c4ccc([nH]4)c(-c4cc(S(=O)(=O)[O-])ccc4F)c4nc(c(-c5cc(S(=O)(=O)[O-])ccc5F)c5ccc2[nH]5)C=C4)C=C3)cc1)c1cccc(C)c1C
REMARK SMILES IDX 19 1 18 2 16 3 17 4 15 6 10 7 11 8 12 9 14 10 13 11 8 12
REMARK SMILES IDX 7 13 9 15 6 16 5 17 3 18 4 19 2 20 1 21 88 22 89 23 94 24
REMARK SMILES IDX 90 25 92 26 95 27 91 28 93 29 20 30 21 31 22 32 23 33 24 35
REMARK SMILES IDX 25 36 26 37 87 38 27 39 86 40 28 41 29 42 30 43 80 44 31 45
REMARK SMILES IDX 85 46 79 47 81 48 32 49 84 50 78 51 77 52 33 54 65 55 45 56
REMARK SMILES IDX 64 57 46 58 49 59 63 60 82 61 47 62 48 63 62 65 83 66 50 67
REMARK SMILES IDX 34 68 35 69 43 70 36 71 42 72 44 73 41 74 37 75 38 76 39 77
REMARK SMILES IDX 40 78 66 79 67 80 75 81 68 82 74 83 76 84 73 85 69 86 70 87
REMARK SMILES IDX 71 88 72 89 51 90 52 91 60 92 53 93 59 94 61 95 58 96 54 97
REMARK SMILES IDX 55 98 56 99 57 100
REMARK H PARENT 18 5 7 14 22 34 81 53 49 64
REMARK Flexibility Score: inf
ROOT
ATOM      1  C   UNL A   1      31.543  30.597  26.555  1.00  0.00     0.118 C 
ENDROOT
BRANCH   1   2
ATOM      2  N   UNL A   1      32.484  30.125  25.554  1.00  0.00    -0.352 N 
ATOM      3  C   UNL A   1      32.426  29.142  24.616  1.00  0.00     0.252 C 
ATOM      4  O   UNL A   1      33.423  29.009  23.899  1.00  0.00    -0.269 OA
ATOM      5  H   UNL A   1      33.336  30.617  25.555  1.00  0.00     0.163 HD
BRANCH   3   6
ATOM      6  C   UNL A   1      31.294  28.206  24.437  1.00  0.00     0.052 A 
ATOM      7  C   UNL A   1      30.969  27.097  25.220  1.00  0.00     0.052 A 
ATOM      8  C   UNL A   1      29.845  26.314  24.878  1.00  0.00     0.014 A 
ATOM      9  C   UNL A   1      29.008  26.667  23.821  1.00  0.00     0.001 A 
ATOM     10  C   UNL A   1      30.425  28.557  23.378  1.00  0.00     0.014 A 
ATOM     11  C   UNL A   1      29.291  27.802  23.077  1.00  0.00     0.001 A 
BRANCH   7  12
ATOM     12  C   UNL A   1      31.697  26.594  26.397  1.00  0.00     0.252 C 
ATOM     13  N   UNL A   1      32.516  25.497  26.376  1.00  0.00    -0.345 N 
ATOM     14  H   UNL A   1      33.044  25.382  27.199  1.00  0.00     0.164 HD
ATOM     15  O   UNL A   1      31.632  27.251  27.438  1.00  0.00    -0.269 OA
BRANCH  13  16
ATOM     16  C   UNL A   1      32.761  24.460  25.370  1.00  0.00     0.124 C 
BRANCH  16  17
ATOM     17  C   UNL A   1      32.102  23.125  25.732  1.00  0.00     0.152 C 
BRANCH  17  18
ATOM     18  C   UNL A   1      31.421  23.217  27.072  1.00  0.00     0.307 C 
ATOM     19  O   UNL A   1      30.348  23.756  27.253  1.00  0.00    -0.252 OA
BRANCH  18  20
ATOM     20  O   UNL A   1      32.215  22.644  28.021  1.00  0.00    -0.469 OA
ATOM     21  C   UNL A   1      33.380  21.953  27.554  1.00  0.00     0.282 C 
ENDBRANCH  18  20
ENDBRANCH  17  18
ENDBRANCH  16  17
BRANCH  16  22
ATOM     22  C   UNL A   1      34.241  24.241  25.088  1.00  0.00    -0.022 A 
ATOM     23  C   UNL A   1      35.127  24.579  26.132  1.00  0.00     0.006 A 
ATOM     24  C   UNL A   1      34.760  23.676  23.895  1.00  0.00    -0.043 A 
ATOM     25  C   UNL A   1      36.479  24.277  26.057  1.00  0.00     0.001 A 
ATOM     26  C   UNL A   1      36.140  23.360  23.834  1.00  0.00    -0.048 A 
ATOM     27  C   UNL A   1      33.891  23.360  22.701  1.00  0.00     0.045 C 
ATOM     28  C   UNL A   1      36.977  23.648  24.925  1.00  0.00     0.004 A 
ATOM     29  C   UNL A   1      36.745  22.604  22.680  1.00  0.00     0.044 C 
ENDBRANCH  16  22
ENDBRANCH  13  16
ENDBRANCH   7  12
ENDBRANCH   3   6
ENDBRANCH   1   2
BRANCH   1  30
ATOM     30  C   UNL A   1      31.388  32.109  26.553  1.00  0.00     0.042 C 
BRANCH  30  31
ATOM     31  C   UNL A   1      32.651  32.852  26.985  1.00  0.00     0.118 C 
BRANCH  31  32
ATOM     32  N   UNL A   1      32.419  34.013  27.840  1.00  0.00    -0.352 N 
ATOM     33  C   UNL A   1      33.151  34.499  28.902  1.00  0.00     0.251 C 
ATOM     34  H   UNL A   1      31.610  34.530  27.626  1.00  0.00     0.163 HD
ATOM     35  O   UNL A   1      32.753  35.456  29.553  1.00  0.00    -0.269 OA
BRANCH  33  36
ATOM     36  C   UNL A   1      34.398  33.819  29.298  1.00  0.00     0.039 A 
ATOM     37  C   UNL A   1      35.624  34.354  28.896  1.00  0.00     0.014 A 
ATOM     38  C   UNL A   1      34.354  32.693  30.112  1.00  0.00     0.014 A 
ATOM     39  C   UNL A   1      36.806  33.831  29.423  1.00  0.00     0.010 A 
ATOM     40  C   UNL A   1      35.511  32.271  30.744  1.00  0.00     0.010 A 
ATOM     41  C   UNL A   1      36.752  32.836  30.411  1.00  0.00    -0.014 A 
BRANCH  41  42
ATOM     42  C   UNL A   1      37.961  32.338  31.116  1.00  0.00     0.031 A 
ATOM     43  C   UNL A   1      38.751  31.217  30.498  1.00  0.00     0.074 A 
ATOM     44  C   UNL A   1      38.255  32.789  32.351  1.00  0.00     0.049 A 
ATOM     45  N   UNL A   1      39.650  30.437  31.035  1.00  0.00    -0.248 NA
ATOM     46  C   UNL A   1      38.420  30.882  29.102  1.00  0.00     0.031 C 
ATOM     47  C   UNL A   1      37.529  33.839  33.072  1.00  0.00     0.029 A 
ATOM     48  N   UNL A   1      39.232  32.403  33.234  1.00  0.00    -0.354 N 
ATOM     49  C   UNL A   1      39.943  29.482  30.067  1.00  0.00     0.074 A 
ATOM     50  C   UNL A   1      39.075  29.746  28.939  1.00  0.00     0.031 C 
ATOM     51  C   UNL A   1      38.104  34.032  34.270  1.00  0.00     0.029 A 
ATOM     52  C   UNL A   1      39.196  33.080  34.431  1.00  0.00     0.049 A 
ATOM     53  H   UNL A   1      39.897  31.707  33.029  1.00  0.00     0.167 HD
ATOM     54  C   UNL A   1      40.868  28.490  30.109  1.00  0.00     0.034 A 
ATOM     55  C   UNL A   1      39.945  32.931  35.541  1.00  0.00     0.034 A 
ATOM     56  C   UNL A   1      41.763  28.298  31.223  1.00  0.00     0.049 A 
ATOM     57  C   UNL A   1      41.005  31.859  35.548  1.00  0.00     0.074 A 
ATOM     58  C   UNL A   1      42.794  27.387  31.358  1.00  0.00     0.029 A 
ATOM     59  N   UNL A   1      41.739  29.051  32.392  1.00  0.00    -0.354 N 
ATOM     60  N   UNL A   1      41.288  30.974  34.618  1.00  0.00    -0.248 NA
ATOM     61  C   UNL A   1      41.845  31.766  36.747  1.00  0.00     0.031 C 
ATOM     62  C   UNL A   1      43.366  27.560  32.624  1.00  0.00     0.029 A 
ATOM     63  C   UNL A   1      42.731  28.618  33.257  1.00  0.00     0.049 A 
ATOM     64  H   UNL A   1      41.110  29.784  32.578  1.00  0.00     0.167 HD
ATOM     65  C   UNL A   1      42.357  30.234  35.114  1.00  0.00     0.074 A 
ATOM     66  C   UNL A   1      42.674  30.786  36.416  1.00  0.00     0.031 C 
ATOM     67  C   UNL A   1      43.018  29.192  34.549  1.00  0.00     0.034 A 
BRANCH  54  68
ATOM     68  C   UNL A   1      40.932  27.550  28.928  1.00  0.00     0.023 A 
ATOM     69  C   UNL A   1      41.922  27.674  27.937  1.00  0.00     0.031 A 
ATOM     70  C   UNL A   1      39.952  26.558  28.751  1.00  0.00     0.131 A 
ATOM     71  C   UNL A   1      41.846  26.903  26.768  1.00  0.00     0.055 A 
ATOM     72  C   UNL A   1      39.939  25.725  27.630  1.00  0.00     0.041 A 
ATOM     73  F   UNL A   1      38.969  26.398  29.652  1.00  0.00    -0.206 F 
ATOM     74  C   UNL A   1      40.877  25.910  26.618  1.00  0.00     0.022 A 
BRANCH  71  75
ATOM     75  S   UNL A   1      42.926  27.341  25.377  1.00  0.00     0.124 S 
ATOM     76  O   UNL A   1      43.024  26.066  24.672  1.00  0.00    -0.237 OA
ATOM     77  O   UNL A   1      42.165  28.387  24.703  1.00  0.00    -0.237 OA
ATOM     78  O   UNL A   1      44.158  27.785  26.026  1.00  0.00    -0.744 OA
ENDBRANCH  71  75
ENDBRANCH  54  68
BRANCH  55  79
ATOM     79  C   UNL A   1      39.725  33.803  36.730  1.00  0.00     0.023 A 
ATOM     80  C   UNL A   1      39.203  33.272  37.921  1.00  0.00     0.031 A 
ATOM     81  C   UNL A   1      40.009  35.179  36.690  1.00  0.00     0.131 A 
ATOM     82  C   UNL A   1      38.944  34.118  39.010  1.00  0.00     0.055 A 
ATOM     83  C   UNL A   1      39.793  36.009  37.794  1.00  0.00     0.041 A 
ATOM     84  F   UNL A   1      40.520  35.736  35.580  1.00  0.00    -0.206 F 
ATOM     85  C   UNL A   1      39.246  35.480  38.958  1.00  0.00     0.022 A 
BRANCH  82  86
ATOM     86  S   UNL A   1      38.135  33.420  40.477  1.00  0.00     0.124 S 
ATOM     87  O   UNL A   1      38.813  32.135  40.608  1.00  0.00    -0.237 OA
ATOM     88  O   UNL A   1      38.445  34.417  41.496  1.00  0.00    -0.237 OA
ATOM     89  O   UNL A   1      36.728  33.348  40.088  1.00  0.00    -0.744 OA
ENDBRANCH  82  86
ENDBRANCH  55  79
BRANCH  67  90
ATOM     90  C   UNL A   1      44.176  28.625  35.326  1.00  0.00     0.023 A 
ATOM     91  C   UNL A   1      44.035  27.474  36.120  1.00  0.00     0.031 A 
ATOM     92  C   UNL A   1      45.436  29.245  35.265  1.00  0.00     0.131 A 
ATOM     93  C   UNL A   1      45.128  27.003  36.859  1.00  0.00     0.055 A 
ATOM     94  C   UNL A   1      46.533  28.741  35.963  1.00  0.00     0.041 A 
ATOM     95  F   UNL A   1      45.619  30.346  34.520  1.00  0.00    -0.206 F 
ATOM     96  C   UNL A   1      46.381  27.619  36.773  1.00  0.00     0.022 A 
BRANCH  93  97
ATOM     97  S   UNL A   1      44.878  25.608  37.990  1.00  0.00     0.124 S 
ATOM     98  O   UNL A   1      45.291  26.178  39.269  1.00  0.00    -0.237 OA
ATOM     99  O   UNL A   1      43.452  25.339  37.844  1.00  0.00    -0.237 OA
ATOM    100  O   UNL A   1      45.761  24.573  37.458  1.00  0.00    -0.744 OA
ENDBRANCH  93  97
ENDBRANCH  67  90
ENDBRANCH  41  42
ENDBRANCH  33  36
ENDBRANCH  31  32
ENDBRANCH  30  31
ENDBRANCH   1  30
TORSDOF 19
ENDMDL
MODEL 3
REMARK VINA RESULT:     -12.3      2.537      8.091
REMARK SMILES COC(=O)C[C@@H](NC(=O)c1ccccc1C(=O)NCCCNC(=O)c1ccc(-c2c3nc(c(-c4cc(S(=O)(=O)[O-])ccc4F)c4ccc([nH]4)c(-c4cc(S(=O)(=O)[O-])ccc4F)c4nc(c(-c5cc(S(=O)(=O)[O-])ccc5F)c5ccc2[nH]5)C=C4)C=C3)cc1)c1cccc(C)c1C
REMARK SMILES IDX 19 1 18 2 16 3 17 4 15 6 10 7 11 8 12 9 14 10 13 11 8 12
REMARK SMILES IDX 7 13 9 15 6 16 5 17 3 18 4 19 2 20 1 21 88 22 89 23 94 24
REMARK SMILES IDX 90 25 92 26 95 27 91 28 93 29 20 30 21 31 22 32 23 33 24 35
REMARK SMILES IDX 25 36 26 37 87 38 27 39 86 40 28 41 29 42 30 43 80 44 31 45
REMARK SMILES IDX 85 46 79 47 81 48 32 49 84 50 78 51 77 52 33 54 65 55 45 56
REMARK SMILES IDX 64 57 46 58 49 59 63 60 82 61 47 62 48 63 62 65 83 66 50 67
REMARK SMILES IDX 34 68 35 69 43 70 36 71 42 72 44 73 41 74 37 75 38 76 39 77
REMARK SMILES IDX 40 78 66 79 67 80 75 81 68 82 74 83 76 84 73 85 69 86 70 87
REMARK SMILES IDX 71 88 72 89 51 90 52 91 60 92 53 93 59 94 61 95 58 96 54 97
REMARK SMILES IDX 55 98 56 99 57 100
REMARK H PARENT 18 5 7 14 22 34 81 53 49 64
REMARK Flexibility Score: inf
ROOT
ATOM      1  C   UNL A   1      31.846  27.650  27.067  1.00  0.00     0.118 C 
ENDROOT
BRANCH   1   2
ATOM      2  N   UNL A   1      33.057  26.936  26.701  1.00  0.00    -0.352 N 
ATOM      3  C   UNL A   1      33.329  25.988  25.765  1.00  0.00     0.252 C 
ATOM      4  O   UNL A   1      34.497  25.592  25.708  1.00  0.00    -0.269 OA
ATOM      5  H   UNL A   1      33.840  27.192  27.239  1.00  0.00     0.163 HD
BRANCH   3   6
ATOM      6  C   UNL A   1      32.328  25.373  24.865  1.00  0.00     0.052 A 
ATOM      7  C   UNL A   1      31.493  24.285  25.130  1.00  0.00     0.052 A 
ATOM      8  C   UNL A   1      30.604  23.836  24.130  1.00  0.00     0.014 A 
ATOM      9  C   UNL A   1      30.487  24.500  22.910  1.00  0.00     0.001 A 
ATOM     10  C   UNL A   1      32.185  26.042  23.627  1.00  0.00     0.014 A 
ATOM     11  C   UNL A   1      31.271  25.616  22.663  1.00  0.00     0.001 A 
BRANCH   7  12
ATOM     12  C   UNL A   1      31.435  23.489  26.367  1.00  0.00     0.252 C 
ATOM     13  N   UNL A   1      32.133  22.327  26.559  1.00  0.00    -0.345 N 
ATOM     14  H   UNL A   1      32.106  21.998  27.487  1.00  0.00     0.164 HD
ATOM     15  O   UNL A   1      30.789  23.941  27.314  1.00  0.00    -0.269 OA
BRANCH  13  16
ATOM     16  C   UNL A   1      32.911  21.475  25.656  1.00  0.00     0.124 C 
BRANCH  16  17
ATOM     17  C   UNL A   1      33.026  20.034  26.163  1.00  0.00     0.152 C 
BRANCH  17  18
ATOM     18  C   UNL A   1      33.006  19.064  25.011  1.00  0.00     0.307 C 
ATOM     19  O   UNL A   1      33.608  18.010  25.000  1.00  0.00    -0.252 OA
BRANCH  18  20
ATOM     20  O   UNL A   1      32.252  19.581  23.999  1.00  0.00    -0.469 OA
ATOM     21  C   UNL A   1      32.312  18.900  22.739  1.00  0.00     0.282 C 
ENDBRANCH  18  20
ENDBRANCH  17  18
ENDBRANCH  16  17
BRANCH  16  22
ATOM     22  C   UNL A   1      34.299  22.028  25.364  1.00  0.00    -0.022 A 
ATOM     23  C   UNL A   1      35.207  22.026  26.443  1.00  0.00     0.006 A 
ATOM     24  C   UNL A   1      34.738  22.474  24.091  1.00  0.00    -0.043 A 
ATOM     25  C   UNL A   1      36.543  22.354  26.263  1.00  0.00     0.001 A 
ATOM     26  C   UNL A   1      36.107  22.794  23.915  1.00  0.00    -0.048 A 
ATOM     27  C   UNL A   1      33.811  22.583  22.904  1.00  0.00     0.045 C 
ATOM     28  C   UNL A   1      36.994  22.710  25.001  1.00  0.00     0.004 A 
ATOM     29  C   UNL A   1      36.696  23.110  22.565  1.00  0.00     0.044 C 
ENDBRANCH  16  22
ENDBRANCH  13  16
ENDBRANCH   7  12
ENDBRANCH   3   6
ENDBRANCH   1   2
BRANCH   1  30
ATOM     30  C   UNL A   1      31.669  28.947  26.296  1.00  0.00     0.042 C 
BRANCH  30  31
ATOM     31  C   UNL A   1      32.952  29.769  26.183  1.00  0.00     0.118 C 
BRANCH  31  32
ATOM     32  N   UNL A   1      32.869  31.117  26.739  1.00  0.00    -0.352 N 
ATOM     33  C   UNL A   1      33.758  31.811  27.531  1.00  0.00     0.251 C 
ATOM     34  H   UNL A   1      32.047  31.608  26.513  1.00  0.00     0.163 HD
ATOM     35  O   UNL A   1      33.478  32.920  27.966  1.00  0.00    -0.269 OA
BRANCH  33  36
ATOM     36  C   UNL A   1      35.037  31.184  27.912  1.00  0.00     0.039 A 
ATOM     37  C   UNL A   1      36.185  31.974  28.000  1.00  0.00     0.014 A 
ATOM     38  C   UNL A   1      35.086  29.832  28.236  1.00  0.00     0.014 A 
ATOM     39  C   UNL A   1      37.351  31.431  28.543  1.00  0.00     0.010 A 
ATOM     40  C   UNL A   1      36.192  29.338  28.905  1.00  0.00     0.010 A 
ATOM     41  C   UNL A   1      37.338  30.131  29.071  1.00  0.00    -0.014 A 
BRANCH  41  42
ATOM     42  C   UNL A   1      38.499  29.545  29.789  1.00  0.00     0.031 A 
ATOM     43  C   UNL A   1      38.843  30.066  31.158  1.00  0.00     0.074 A 
ATOM     44  C   UNL A   1      39.308  28.668  29.162  1.00  0.00     0.049 A 
ATOM     45  N   UNL A   1      39.941  29.926  31.850  1.00  0.00    -0.248 NA
ATOM     46  C   UNL A   1      37.833  30.927  31.798  1.00  0.00     0.031 C 
ATOM     47  C   UNL A   1      39.101  28.130  27.814  1.00  0.00     0.029 A 
ATOM     48  N   UNL A   1      40.484  28.090  29.568  1.00  0.00    -0.354 N 
ATOM     49  C   UNL A   1      39.781  30.733  32.973  1.00  0.00     0.074 A 
ATOM     50  C   UNL A   1      38.509  31.406  32.828  1.00  0.00     0.031 C 
ATOM     51  C   UNL A   1      40.099  27.281  27.519  1.00  0.00     0.029 A 
ATOM     52  C   UNL A   1      41.048  27.262  28.625  1.00  0.00     0.049 A 
ATOM     53  H   UNL A   1      40.887  28.253  30.451  1.00  0.00     0.167 HD
ATOM     54  C   UNL A   1      40.612  30.879  34.035  1.00  0.00     0.034 A 
ATOM     55  C   UNL A   1      42.211  26.582  28.645  1.00  0.00     0.034 A 
ATOM     56  C   UNL A   1      41.842  30.141  34.177  1.00  0.00     0.049 A 
ATOM     57  C   UNL A   1      43.095  26.716  29.858  1.00  0.00     0.074 A 
ATOM     58  C   UNL A   1      42.731  30.136  35.236  1.00  0.00     0.029 A 
ATOM     59  N   UNL A   1      42.346  29.257  33.229  1.00  0.00    -0.354 N 
ATOM     60  N   UNL A   1      42.924  27.465  30.924  1.00  0.00    -0.248 NA
ATOM     61  C   UNL A   1      44.323  25.913  29.874  1.00  0.00     0.031 C 
ATOM     62  C   UNL A   1      43.792  29.283  34.910  1.00  0.00     0.029 A 
ATOM     63  C   UNL A   1      43.538  28.710  33.674  1.00  0.00     0.049 A 
ATOM     64  H   UNL A   1      41.918  29.051  32.366  1.00  0.00     0.167 HD
ATOM     65  C   UNL A   1      44.015  27.205  31.748  1.00  0.00     0.074 A 
ATOM     66  C   UNL A   1      44.827  26.220  31.062  1.00  0.00     0.031 C 
ATOM     67  C   UNL A   1      44.321  27.730  32.961  1.00  0.00     0.034 A 
BRANCH  54  68
ATOM     68  C   UNL A   1      40.213  31.879  35.095  1.00  0.00     0.023 A 
ATOM     69  C   UNL A   1      39.423  31.511  36.199  1.00  0.00     0.031 A 
ATOM     70  C   UNL A   1      40.569  33.234  34.969  1.00  0.00     0.131 A 
ATOM     71  C   UNL A   1      38.923  32.495  37.064  1.00  0.00     0.055 A 
ATOM     72  C   UNL A   1      40.149  34.195  35.892  1.00  0.00     0.041 A 
ATOM     73  F   UNL A   1      41.308  33.654  33.930  1.00  0.00    -0.206 F 
ATOM     74  C   UNL A   1      39.302  33.832  36.935  1.00  0.00     0.022 A 
BRANCH  71  75
ATOM     75  S   UNL A   1      37.634  32.022  38.250  1.00  0.00     0.124 S 
ATOM     76  O   UNL A   1      37.331  30.658  37.824  1.00  0.00    -0.237 OA
ATOM     77  O   UNL A   1      38.318  32.154  39.531  1.00  0.00    -0.237 OA
ATOM     78  O   UNL A   1      36.570  32.996  38.007  1.00  0.00    -0.744 OA
ENDBRANCH  71  75
ENDBRANCH  54  68
BRANCH  55  79
ATOM     79  C   UNL A   1      42.611  25.726  27.492  1.00  0.00     0.023 A 
ATOM     80  C   UNL A   1      42.163  24.398  27.396  1.00  0.00     0.031 A 
ATOM     81  C   UNL A   1      43.461  26.209  26.482  1.00  0.00     0.131 A 
ATOM     82  C   UNL A   1      42.598  23.587  26.337  1.00  0.00     0.055 A 
ATOM     83  C   UNL A   1      43.854  25.411  25.405  1.00  0.00     0.041 A 
ATOM     84  F   UNL A   1      43.910  27.474  26.519  1.00  0.00    -0.206 F 
ATOM     85  C   UNL A   1      43.432  24.088  25.335  1.00  0.00     0.022 A 
BRANCH  82  86
ATOM     86  S   UNL A   1      42.115  21.838  26.329  1.00  0.00     0.124 S 
ATOM     87  O   UNL A   1      42.458  21.427  27.686  1.00  0.00    -0.237 OA
ATOM     88  O   UNL A   1      40.690  21.920  26.023  1.00  0.00    -0.237 OA
ATOM     89  O   UNL A   1      42.943  21.260  25.273  1.00  0.00    -0.744 OA
ENDBRANCH  82  86
ENDBRANCH  55  79
BRANCH  67  90
ATOM     90  C   UNL A   1      45.563  27.205  33.631  1.00  0.00     0.023 A 
ATOM     91  C   UNL A   1      45.526  26.079  34.470  1.00  0.00     0.031 A 
ATOM     92  C   UNL A   1      46.798  27.843  33.422  1.00  0.00     0.131 A 
ATOM     93  C   UNL A   1      46.698  25.649  35.107  1.00  0.00     0.055 A 
ATOM     94  C   UNL A   1      47.971  27.379  34.018  1.00  0.00     0.041 A 
ATOM     95  F   UNL A   1      46.884  28.922  32.629  1.00  0.00    -0.206 F 
ATOM     96  C   UNL A   1      47.924  26.281  34.873  1.00  0.00     0.022 A 
BRANCH  93  97
ATOM     97  S   UNL A   1      46.590  24.288  36.300  1.00  0.00     0.124 S 
ATOM     98  O   UNL A   1      45.516  24.740  37.178  1.00  0.00    -0.237 OA
ATOM     99  O   UNL A   1      46.278  23.147  35.446  1.00  0.00    -0.237 OA
ATOM    100  O   UNL A   1      47.919  24.259  36.908  1.00  0.00    -0.744 OA
ENDBRANCH  93  97
ENDBRANCH  67  90
ENDBRANCH  41  42
ENDBRANCH  33  36
ENDBRANCH  31  32
ENDBRANCH  30  31
ENDBRANCH   1  30
TORSDOF 19
ENDMDL
