MODEL 1
REMARK VINA RESULT:     -12.0      0.000      0.000
REMARK SMILES Nc1cccc(C(=O)N2CCC[C@H]2C(=O)NCCCNC(=O)c2ccc(-c3c4nc(c(-c5cc(S(=O)(=O)[O-])ccc5F)c5ccc([nH]5)c(-c5cc(S(=O)(=O)[O-])ccc5F)c5nc(c(-c6cc(S(=O)(=O)[O-])ccc6F)c6ccc3[nH]6)C=C5)C=C4)cc2)c1
REMARK SMILES IDX 18 1 17 2 16 3 14 4 15 5 13 7 9 8 10 9 11 10 12 11 7 12 8 13
REMARK SMILES IDX 6 14 2 15 3 16 86 17 4 18 5 19 1 20 19 23 20 24 21 25 22 27
REMARK SMILES IDX 23 28 24 29 85 30 25 31 84 32 26 33 27 34 28 35 78 36 29 37
REMARK SMILES IDX 83 38 77 39 79 40 30 41 82 42 76 43 75 44 31 46 63 47 43 48
REMARK SMILES IDX 62 49 44 50 47 51 61 52 80 53 45 54 46 55 60 57 81 58 48 59
REMARK SMILES IDX 32 60 33 61 41 62 34 63 40 64 42 65 39 66 35 67 36 68 37 69
REMARK SMILES IDX 38 70 64 71 65 72 73 73 66 74 72 75 74 76 71 77 67 78 68 79
REMARK SMILES IDX 69 80 70 81 49 82 50 83 58 84 51 85 57 86 59 87 56 88 52 89
REMARK SMILES IDX 53 90 54 91 55 92
REMARK H PARENT 16 6 1 21 1 22 20 26 79 45 47 56
REMARK Flexibility Score: inf
ROOT
ATOM      1  C   UNL A   1      31.715  31.679  27.111  1.00  0.00     0.042 C 
ENDROOT
BRANCH   1   2
ATOM      2  C   UNL A   1      31.422  30.869  25.858  1.00  0.00     0.117 C 
BRANCH   2   3
ATOM      3  N   UNL A   1      32.532  30.047  25.430  1.00  0.00    -0.354 N 
ATOM      4  C   UNL A   1      32.578  28.741  25.045  1.00  0.00     0.242 C 
ATOM      5  O   UNL A   1      33.604  28.384  24.449  1.00  0.00    -0.273 OA
ATOM      6  H   UNL A   1      33.401  30.510  25.414  1.00  0.00     0.163 HD
BRANCH   4   7
ATOM      7  C   UNL A   1      31.361  27.793  25.125  1.00  0.00     0.174 C 
ATOM      8  N   UNL A   1      31.126  26.853  24.027  1.00  0.00    -0.327 N 
ATOM      9  C   UNL A   1      31.200  25.474  24.479  1.00  0.00     0.121 C 
ATOM     10  C   UNL A   1      30.838  25.567  25.949  1.00  0.00     0.024 C 
ATOM     11  C   UNL A   1      31.392  26.922  26.389  1.00  0.00     0.037 C 
BRANCH   8  12
ATOM     12  C   UNL A   1      30.614  27.366  22.842  1.00  0.00     0.254 C 
ATOM     13  O   UNL A   1      31.035  26.989  21.749  1.00  0.00    -0.269 OA
BRANCH  12  14
ATOM     14  C   UNL A   1      29.615  28.467  22.859  1.00  0.00     0.042 A 
ATOM     15  C   UNL A   1      28.995  30.776  22.385  1.00  0.00     0.032 A 
ATOM     16  C   UNL A   1      27.664  30.455  22.653  1.00  0.00     0.025 A 
ATOM     17  C   UNL A   1      29.947  29.757  22.417  1.00  0.00     0.039 A 
ATOM     18  C   UNL A   1      27.305  29.159  23.033  1.00  0.00     0.003 A 
ATOM     19  C   UNL A   1      28.280  28.167  23.146  1.00  0.00     0.014 A 
BRANCH  15  20
ATOM     20  N   UNL A   1      29.343  32.045  21.939  1.00  0.00    -0.399 N 
ATOM     21  H   UNL A   1      30.150  32.169  21.391  1.00  0.00     0.156 HD
ATOM     22  H   UNL A   1      28.780  32.819  22.171  1.00  0.00     0.156 HD
ENDBRANCH  15  20
ENDBRANCH  12  14
ENDBRANCH   8  12
ENDBRANCH   4   7
ENDBRANCH   2   3
ENDBRANCH   1   2
BRANCH   1  23
ATOM     23  C   UNL A   1      32.922  32.595  26.975  1.00  0.00     0.118 C 
BRANCH  23  24
ATOM     24  N   UNL A   1      32.662  33.930  27.499  1.00  0.00    -0.352 N 
ATOM     25  C   UNL A   1      33.169  34.559  28.606  1.00  0.00     0.251 C 
ATOM     26  H   UNL A   1      32.022  34.464  26.975  1.00  0.00     0.163 HD
ATOM     27  O   UNL A   1      32.633  35.601  28.996  1.00  0.00    -0.269 OA
BRANCH  25  28
ATOM     28  C   UNL A   1      34.325  34.000  29.339  1.00  0.00     0.039 A 
ATOM     29  C   UNL A   1      34.098  33.060  30.349  1.00  0.00     0.014 A 
ATOM     30  C   UNL A   1      35.629  34.425  29.067  1.00  0.00     0.014 A 
ATOM     31  C   UNL A   1      35.178  32.513  31.047  1.00  0.00     0.010 A 
ATOM     32  C   UNL A   1      36.707  33.813  29.699  1.00  0.00     0.010 A 
ATOM     33  C   UNL A   1      36.494  32.864  30.708  1.00  0.00    -0.014 A 
BRANCH  33  34
ATOM     34  C   UNL A   1      37.659  32.277  31.420  1.00  0.00     0.031 A 
ATOM     35  C   UNL A   1      38.434  31.150  30.792  1.00  0.00     0.074 A 
ATOM     36  C   UNL A   1      37.978  32.714  32.654  1.00  0.00     0.049 A 
ATOM     37  N   UNL A   1      39.426  30.451  31.280  1.00  0.00    -0.248 NA
ATOM     38  C   UNL A   1      38.008  30.732  29.448  1.00  0.00     0.031 C 
ATOM     39  C   UNL A   1      37.273  33.768  33.385  1.00  0.00     0.029 A 
ATOM     40  N   UNL A   1      38.969  32.317  33.516  1.00  0.00    -0.354 N 
ATOM     41  C   UNL A   1      39.730  29.498  30.312  1.00  0.00     0.074 A 
ATOM     42  C   UNL A   1      38.768  29.669  29.243  1.00  0.00     0.031 C 
ATOM     43  C   UNL A   1      37.868  33.949  34.575  1.00  0.00     0.029 A 
ATOM     44  C   UNL A   1      38.964  32.996  34.713  1.00  0.00     0.049 A 
ATOM     45  H   UNL A   1      39.622  31.613  33.300  1.00  0.00     0.167 HD
ATOM     46  C   UNL A   1      40.733  28.584  30.304  1.00  0.00     0.034 A 
ATOM     47  C   UNL A   1      39.745  32.857  35.801  1.00  0.00     0.034 A 
ATOM     48  C   UNL A   1      41.687  28.436  31.377  1.00  0.00     0.049 A 
ATOM     49  C   UNL A   1      40.847  31.829  35.780  1.00  0.00     0.074 A 
ATOM     50  C   UNL A   1      42.775  27.585  31.455  1.00  0.00     0.029 A 
ATOM     51  N   UNL A   1      41.658  29.151  32.570  1.00  0.00    -0.354 N 
ATOM     52  N   UNL A   1      41.158  30.970  34.836  1.00  0.00    -0.248 NA
ATOM     53  C   UNL A   1      41.710  31.762  36.965  1.00  0.00     0.031 C 
ATOM     54  C   UNL A   1      43.361  27.735  32.717  1.00  0.00     0.029 A 
ATOM     55  C   UNL A   1      42.691  28.738  33.400  1.00  0.00     0.049 A 
ATOM     56  H   UNL A   1      41.000  29.849  32.793  1.00  0.00     0.167 HD
ATOM     57  C   UNL A   1      42.274  30.281  35.303  1.00  0.00     0.074 A 
ATOM     58  C   UNL A   1      42.586  30.834  36.606  1.00  0.00     0.031 C 
ATOM     59  C   UNL A   1      42.982  29.288  34.705  1.00  0.00     0.034 A 
BRANCH  46  60
ATOM     60  C   UNL A   1      40.815  27.660  29.108  1.00  0.00     0.023 A 
ATOM     61  C   UNL A   1      41.764  27.854  28.087  1.00  0.00     0.031 A 
ATOM     62  C   UNL A   1      39.898  26.605  28.954  1.00  0.00     0.131 A 
ATOM     63  C   UNL A   1      41.708  27.080  26.919  1.00  0.00     0.055 A 
ATOM     64  C   UNL A   1      39.910  25.775  27.831  1.00  0.00     0.041 A 
ATOM     65  F   UNL A   1      38.956  26.377  29.883  1.00  0.00    -0.206 F 
ATOM     66  C   UNL A   1      40.804  26.024  26.794  1.00  0.00     0.022 A 
BRANCH  63  67
ATOM     67  S   UNL A   1      42.710  27.592  25.496  1.00  0.00     0.124 S 
ATOM     68  O   UNL A   1      43.996  27.882  26.128  1.00  0.00    -0.237 OA
ATOM     69  O   UNL A   1      42.671  26.412  24.640  1.00  0.00    -0.237 OA
ATOM     70  O   UNL A   1      42.002  28.762  24.981  1.00  0.00    -0.744 OA
ENDBRANCH  63  67
ENDBRANCH  46  60
BRANCH  47  71
ATOM     71  C   UNL A   1      39.512  33.710  37.001  1.00  0.00     0.023 A 
ATOM     72  C   UNL A   1      38.851  33.208  38.132  1.00  0.00     0.031 A 
ATOM     73  C   UNL A   1      39.944  35.049  37.027  1.00  0.00     0.131 A 
ATOM     74  C   UNL A   1      38.610  34.048  39.231  1.00  0.00     0.055 A 
ATOM     75  C   UNL A   1      39.743  35.867  38.140  1.00  0.00     0.041 A 
ATOM     76  F   UNL A   1      40.589  35.575  35.974  1.00  0.00    -0.206 F 
ATOM     77  C   UNL A   1      39.063  35.369  39.248  1.00  0.00     0.022 A 
BRANCH  74  78
ATOM     78  S   UNL A   1      37.641  33.404  40.622  1.00  0.00     0.124 S 
ATOM     79  O   UNL A   1      38.558  32.430  41.198  1.00  0.00    -0.237 OA
ATOM     80  O   UNL A   1      37.404  34.610  41.410  1.00  0.00    -0.237 OA
ATOM     81  O   UNL A   1      36.455  32.843  39.979  1.00  0.00    -0.744 OA
ENDBRANCH  74  78
ENDBRANCH  47  71
BRANCH  59  82
ATOM     82  C   UNL A   1      44.193  28.770  35.442  1.00  0.00     0.023 A 
ATOM     83  C   UNL A   1      44.109  27.706  36.357  1.00  0.00     0.031 A 
ATOM     84  C   UNL A   1      45.452  29.363  35.232  1.00  0.00     0.131 A 
ATOM     85  C   UNL A   1      45.250  27.306  37.071  1.00  0.00     0.055 A 
ATOM     86  C   UNL A   1      46.594  28.918  35.897  1.00  0.00     0.041 A 
ATOM     87  F   UNL A   1      45.590  30.385  34.373  1.00  0.00    -0.206 F 
ATOM     88  C   UNL A   1      46.495  27.894  36.834  1.00  0.00     0.022 A 
BRANCH  85  89
ATOM     89  S   UNL A   1      45.066  26.074  38.390  1.00  0.00     0.124 S 
ATOM     90  O   UNL A   1      44.163  25.105  37.776  1.00  0.00    -0.237 OA
ATOM     91  O   UNL A   1      46.439  25.625  38.594  1.00  0.00    -0.237 OA
ATOM     92  O   UNL A   1      44.493  26.839  39.496  1.00  0.00    -0.744 OA
ENDBRANCH  85  89
ENDBRANCH  59  82
ENDBRANCH  33  34
ENDBRANCH  25  28
ENDBRANCH  23  24
ENDBRANCH   1  23
TORSDOF 16
ENDMDL
MODEL 2
REMARK VINA RESULT:     -11.7      6.865     11.996
REMARK SMILES Nc1cccc(C(=O)N2CCC[C@H]2C(=O)NCCCNC(=O)c2ccc(-c3c4nc(c(-c5cc(S(=O)(=O)[O-])ccc5F)c5ccc([nH]5)c(-c5cc(S(=O)(=O)[O-])ccc5F)c5nc(c(-c6cc(S(=O)(=O)[O-])ccc6F)c6ccc3[nH]6)C=C5)C=C4)cc2)c1
REMARK SMILES IDX 18 1 17 2 16 3 14 4 15 5 13 7 9 8 10 9 11 10 12 11 7 12 8 13
REMARK SMILES IDX 6 14 2 15 3 16 86 17 4 18 5 19 1 20 19 23 20 24 21 25 22 27
REMARK SMILES IDX 23 28 24 29 85 30 25 31 84 32 26 33 27 34 28 35 78 36 29 37
REMARK SMILES IDX 83 38 77 39 79 40 30 41 82 42 76 43 75 44 31 46 63 47 43 48
REMARK SMILES IDX 62 49 44 50 47 51 61 52 80 53 45 54 46 55 60 57 81 58 48 59
REMARK SMILES IDX 32 60 33 61 41 62 34 63 40 64 42 65 39 66 35 67 36 68 37 69
REMARK SMILES IDX 38 70 64 71 65 72 73 73 66 74 72 75 74 76 71 77 67 78 68 79
REMARK SMILES IDX 69 80 70 81 49 82 50 83 58 84 51 85 57 86 59 87 56 88 52 89
REMARK SMILES IDX 53 90 54 91 55 92
REMARK H PARENT 16 6 1 21 1 22 20 26 79 45 47 56
REMARK Flexibility Score: inf
ROOT
ATOM      1  C   UNL A   1      37.784  19.542  24.730  1.00  0.00     0.042 C 
ENDROOT
BRANCH   1   2
ATOM      2  C   UNL A   1      36.336  19.916  25.006  1.00  0.00     0.117 C 
BRANCH   2   3
ATOM      3  N   UNL A   1      36.181  21.227  25.596  1.00  0.00    -0.354 N 
ATOM      4  C   UNL A   1      35.329  22.245  25.294  1.00  0.00     0.242 C 
ATOM      5  O   UNL A   1      35.215  23.133  26.151  1.00  0.00    -0.273 OA
ATOM      6  H   UNL A   1      36.796  21.414  26.343  1.00  0.00     0.163 HD
BRANCH   4   7
ATOM      7  C   UNL A   1      34.377  22.218  24.078  1.00  0.00     0.174 C 
ATOM      8  N   UNL A   1      32.939  22.386  24.304  1.00  0.00    -0.327 N 
ATOM      9  C   UNL A   1      32.431  23.577  23.644  1.00  0.00     0.121 C 
ATOM     10  C   UNL A   1      33.400  23.782  22.495  1.00  0.00     0.024 C 
ATOM     11  C   UNL A   1      34.740  23.286  23.039  1.00  0.00     0.037 C 
BRANCH   8  12
ATOM     12  C   UNL A   1      32.243  21.310  24.839  1.00  0.00     0.254 C 
ATOM     13  O   UNL A   1      31.402  21.471  25.722  1.00  0.00    -0.269 OA
BRANCH  12  14
ATOM     14  C   UNL A   1      32.569  19.917  24.435  1.00  0.00     0.042 A 
ATOM     15  C   UNL A   1      33.148  17.621  25.014  1.00  0.00     0.032 A 
ATOM     16  C   UNL A   1      32.926  17.249  23.688  1.00  0.00     0.025 A 
ATOM     17  C   UNL A   1      32.893  18.941  25.389  1.00  0.00     0.039 A 
ATOM     18  C   UNL A   1      32.541  18.197  22.735  1.00  0.00     0.003 A 
ATOM     19  C   UNL A   1      32.373  19.533  23.106  1.00  0.00     0.014 A 
BRANCH  15  20
ATOM     20  N   UNL A   1      33.462  16.669  25.974  1.00  0.00    -0.399 N 
ATOM     21  H   UNL A   1      32.810  16.446  26.677  1.00  0.00     0.156 HD
ATOM     22  H   UNL A   1      34.336  16.216  25.951  1.00  0.00     0.156 HD
ENDBRANCH  15  20
ENDBRANCH  12  14
ENDBRANCH   8  12
ENDBRANCH   4   7
ENDBRANCH   2   3
ENDBRANCH   1   2
BRANCH   1  23
ATOM     23  C   UNL A   1      38.766  20.126  25.736  1.00  0.00     0.118 C 
BRANCH  23  24
ATOM     24  N   UNL A   1      39.908  19.249  25.962  1.00  0.00    -0.352 N 
ATOM     25  C   UNL A   1      41.226  19.555  26.184  1.00  0.00     0.251 C 
ATOM     26  H   UNL A   1      39.701  18.287  25.955  1.00  0.00     0.163 HD
ATOM     27  O   UNL A   1      42.066  18.652  26.115  1.00  0.00    -0.269 OA
BRANCH  25  28
ATOM     28  C   UNL A   1      41.648  20.940  26.484  1.00  0.00     0.039 A 
ATOM     29  C   UNL A   1      41.982  21.278  27.799  1.00  0.00     0.014 A 
ATOM     30  C   UNL A   1      41.677  21.920  25.487  1.00  0.00     0.014 A 
ATOM     31  C   UNL A   1      42.392  22.579  28.101  1.00  0.00     0.010 A 
ATOM     32  C   UNL A   1      42.171  23.189  25.772  1.00  0.00     0.010 A 
ATOM     33  C   UNL A   1      42.518  23.539  27.084  1.00  0.00    -0.014 A 
BRANCH  33  34
ATOM     34  C   UNL A   1      42.974  24.922  27.377  1.00  0.00     0.031 A 
ATOM     35  C   UNL A   1      42.033  25.902  28.023  1.00  0.00     0.074 A 
ATOM     36  C   UNL A   1      44.208  25.313  27.004  1.00  0.00     0.049 A 
ATOM     37  N   UNL A   1      42.208  27.171  28.288  1.00  0.00    -0.248 NA
ATOM     38  C   UNL A   1      40.703  25.392  28.386  1.00  0.00     0.031 C 
ATOM     39  C   UNL A   1      45.194  24.466  26.329  1.00  0.00     0.029 A 
ATOM     40  N   UNL A   1      44.840  26.524  27.129  1.00  0.00    -0.354 N 
ATOM     41  C   UNL A   1      41.005  27.615  28.830  1.00  0.00     0.074 A 
ATOM     42  C   UNL A   1      40.091  26.494  28.787  1.00  0.00     0.031 C 
ATOM     43  C   UNL A   1      46.313  25.178  26.119  1.00  0.00     0.029 A 
ATOM     44  C   UNL A   1      46.111  26.541  26.601  1.00  0.00     0.049 A 
ATOM     45  H   UNL A   1      44.425  27.308  27.556  1.00  0.00     0.167 HD
ATOM     46  C   UNL A   1      40.701  28.836  29.339  1.00  0.00     0.034 A 
ATOM     47  C   UNL A   1      47.005  27.543  26.505  1.00  0.00     0.034 A 
ATOM     48  C   UNL A   1      41.631  29.938  29.380  1.00  0.00     0.049 A 
ATOM     49  C   UNL A   1      46.647  28.895  27.064  1.00  0.00     0.074 A 
ATOM     50  C   UNL A   1      41.453  31.200  29.919  1.00  0.00     0.029 A 
ATOM     51  N   UNL A   1      42.916  29.915  28.846  1.00  0.00    -0.354 N 
ATOM     52  N   UNL A   1      45.524  29.287  27.623  1.00  0.00    -0.248 NA
ATOM     53  C   UNL A   1      47.680  29.935  26.992  1.00  0.00     0.031 C 
ATOM     54  C   UNL A   1      42.599  31.958  29.652  1.00  0.00     0.029 A 
ATOM     55  C   UNL A   1      43.527  31.148  29.017  1.00  0.00     0.049 A 
ATOM     56  H   UNL A   1      43.330  29.135  28.410  1.00  0.00     0.167 HD
ATOM     57  C   UNL A   1      45.729  30.613  27.997  1.00  0.00     0.074 A 
ATOM     58  C   UNL A   1      47.086  30.946  27.610  1.00  0.00     0.031 C 
ATOM     59  C   UNL A   1      44.877  31.473  28.612  1.00  0.00     0.034 A 
BRANCH  46  60
ATOM     60  C   UNL A   1      39.293  29.036  29.858  1.00  0.00     0.023 A 
ATOM     61  C   UNL A   1      38.313  29.703  29.100  1.00  0.00     0.031 A 
ATOM     62  C   UNL A   1      38.939  28.607  31.149  1.00  0.00     0.131 A 
ATOM     63  C   UNL A   1      37.070  30.012  29.673  1.00  0.00     0.055 A 
ATOM     64  C   UNL A   1      37.666  28.833  31.679  1.00  0.00     0.041 A 
ATOM     65  F   UNL A   1      39.833  27.981  31.931  1.00  0.00    -0.206 F 
ATOM     66  C   UNL A   1      36.730  29.559  30.948  1.00  0.00     0.022 A 
BRANCH  63  67
ATOM     67  S   UNL A   1      35.980  31.169  28.798  1.00  0.00     0.124 S 
ATOM     68  O   UNL A   1      35.372  30.299  27.793  1.00  0.00    -0.237 OA
ATOM     69  O   UNL A   1      35.095  31.634  29.860  1.00  0.00    -0.237 OA
ATOM     70  O   UNL A   1      36.901  32.172  28.267  1.00  0.00    -0.744 OA
ENDBRANCH  63  67
ENDBRANCH  46  60
BRANCH  47  71
ATOM     71  C   UNL A   1      48.324  27.306  25.851  1.00  0.00     0.023 A 
ATOM     72  C   UNL A   1      48.487  27.467  24.467  1.00  0.00     0.031 A 
ATOM     73  C   UNL A   1      49.441  26.905  26.608  1.00  0.00     0.131 A 
ATOM     74  C   UNL A   1      49.731  27.196  23.874  1.00  0.00     0.055 A 
ATOM     75  C   UNL A   1      50.687  26.683  26.020  1.00  0.00     0.041 A 
ATOM     76  F   UNL A   1      49.339  26.747  27.936  1.00  0.00    -0.206 F 
ATOM     77  C   UNL A   1      50.835  26.819  24.643  1.00  0.00     0.022 A 
BRANCH  74  78
ATOM     78  S   UNL A   1      49.874  27.290  22.068  1.00  0.00     0.124 S 
ATOM     79  O   UNL A   1      49.633  28.706  21.824  1.00  0.00    -0.237 OA
ATOM     80  O   UNL A   1      51.238  26.821  21.847  1.00  0.00    -0.237 OA
ATOM     81  O   UNL A   1      48.825  26.387  21.598  1.00  0.00    -0.744 OA
ENDBRANCH  74  78
ENDBRANCH  47  71
BRANCH  59  82
ATOM     82  C   UNL A   1      45.410  32.846  28.944  1.00  0.00     0.023 A 
ATOM     83  C   UNL A   1      45.162  33.959  28.123  1.00  0.00     0.031 A 
ATOM     84  C   UNL A   1      46.191  33.038  30.099  1.00  0.00     0.131 A 
ATOM     85  C   UNL A   1      45.738  35.201  28.436  1.00  0.00     0.055 A 
ATOM     86  C   UNL A   1      46.706  34.288  30.439  1.00  0.00     0.041 A 
ATOM     87  F   UNL A   1      46.463  32.009  30.918  1.00  0.00    -0.206 F 
ATOM     88  C   UNL A   1      46.494  35.376  29.598  1.00  0.00     0.022 A 
BRANCH  85  89
ATOM     89  S   UNL A   1      45.570  36.564  27.250  1.00  0.00     0.124 S 
ATOM     90  O   UNL A   1      45.704  37.734  28.111  1.00  0.00    -0.237 OA
ATOM     91  O   UNL A   1      46.677  36.317  26.332  1.00  0.00    -0.237 OA
ATOM     92  O   UNL A   1      44.238  36.362  26.683  1.00  0.00    -0.744 OA
ENDBRANCH  85  89
ENDBRANCH  59  82
ENDBRANCH  33  34
ENDBRANCH  25  28
ENDBRANCH  23  24
ENDBRANCH   1  23
TORSDOF 16
ENDMDL
MODEL 3
REMARK VINA RESULT:     -11.7      6.200      9.301
REMARK SMILES Nc1cccc(C(=O)N2CCC[C@H]2C(=O)NCCCNC(=O)c2ccc(-c3c4nc(c(-c5cc(S(=O)(=O)[O-])ccc5F)c5ccc([nH]5)c(-c5cc(S(=O)(=O)[O-])ccc5F)c5nc(c(-c6cc(S(=O)(=O)[O-])ccc6F)c6ccc3[nH]6)C=C5)C=C4)cc2)c1
REMARK SMILES IDX 18 1 17 2 16 3 14 4 15 5 13 7 9 8 10 9 11 10 12 11 7 12 8 13
REMARK SMILES IDX 6 14 2 15 3 16 86 17 4 18 5 19 1 20 19 23 20 24 21 25 22 27
REMARK SMILES IDX 23 28 24 29 85 30 25 31 84 32 26 33 27 34 28 35 78 36 29 37
REMARK SMILES IDX 83 38 77 39 79 40 30 41 82 42 76 43 75 44 31 46 63 47 43 48
REMARK SMILES IDX 62 49 44 50 47 51 61 52 80 53 45 54 46 55 60 57 81 58 48 59
REMARK SMILES IDX 32 60 33 61 41 62 34 63 40 64 42 65 39 66 35 67 36 68 37 69
REMARK SMILES IDX 38 70 64 71 65 72 73 73 66 74 72 75 74 76 71 77 67 78 68 79
REMARK SMILES IDX 69 80 70 81 49 82 50 83 58 84 51 85 57 86 59 87 56 88 52 89
REMARK SMILES IDX 53 90 54 91 55 92
REMARK H PARENT 16 6 1 21 1 22 20 26 79 45 47 56
REMARK Flexibility Score: inf
ROOT
ATOM      1  C   UNL A   1      36.230  21.978  25.587  1.00  0.00     0.042 C 
ENDROOT
BRANCH   1   2
ATOM      2  C   UNL A   1      35.909  23.146  26.506  1.00  0.00     0.117 C 
BRANCH   2   3
ATOM      3  N   UNL A   1      34.784  22.900  27.381  1.00  0.00    -0.354 N 
ATOM      4  C   UNL A   1      33.452  23.126  27.206  1.00  0.00     0.242 C 
ATOM      5  O   UNL A   1      32.693  22.547  27.995  1.00  0.00    -0.273 OA
ATOM      6  H   UNL A   1      35.022  22.501  28.249  1.00  0.00     0.163 HD
BRANCH   4   7
ATOM      7  C   UNL A   1      32.874  23.866  25.980  1.00  0.00     0.174 C 
ATOM      8  N   UNL A   1      32.181  23.090  24.949  1.00  0.00    -0.327 N 
ATOM      9  C   UNL A   1      30.790  23.491  24.825  1.00  0.00     0.121 C 
ATOM     10  C   UNL A   1      30.794  24.929  25.308  1.00  0.00     0.024 C 
ATOM     11  C   UNL A   1      31.878  24.961  26.385  1.00  0.00     0.037 C 
BRANCH   8  12
ATOM     12  C   UNL A   1      32.959  22.327  24.088  1.00  0.00     0.254 C 
ATOM     13  O   UNL A   1      33.675  22.854  23.238  1.00  0.00    -0.269 OA
BRANCH  12  14
ATOM     14  C   UNL A   1      32.869  20.842  24.098  1.00  0.00     0.042 A 
ATOM     15  C   UNL A   1      32.817  18.728  25.311  1.00  0.00     0.032 A 
ATOM     16  C   UNL A   1      32.441  18.082  24.132  1.00  0.00     0.025 A 
ATOM     17  C   UNL A   1      32.953  20.117  25.296  1.00  0.00     0.039 A 
ATOM     18  C   UNL A   1      32.290  18.799  22.942  1.00  0.00     0.003 A 
ATOM     19  C   UNL A   1      32.514  20.177  22.922  1.00  0.00     0.014 A 
BRANCH  15  20
ATOM     20  N   UNL A   1      32.899  18.029  26.508  1.00  0.00    -0.399 N 
ATOM     21  H   UNL A   1      33.169  18.495  27.331  1.00  0.00     0.156 HD
ATOM     22  H   UNL A   1      32.686  17.069  26.532  1.00  0.00     0.156 HD
ENDBRANCH  15  20
ENDBRANCH  12  14
ENDBRANCH   8  12
ENDBRANCH   4   7
ENDBRANCH   2   3
ENDBRANCH   1   2
BRANCH   1  23
ATOM     23  C   UNL A   1      37.663  21.985  25.074  1.00  0.00     0.118 C 
BRANCH  23  24
ATOM     24  N   UNL A   1      38.512  21.052  25.802  1.00  0.00    -0.352 N 
ATOM     25  C   UNL A   1      39.668  21.273  26.505  1.00  0.00     0.251 C 
ATOM     26  H   UNL A   1      38.208  20.116  25.789  1.00  0.00     0.163 HD
ATOM     27  O   UNL A   1      40.352  20.303  26.846  1.00  0.00    -0.269 OA
BRANCH  25  28
ATOM     28  C   UNL A   1      40.107  22.645  26.839  1.00  0.00     0.039 A 
ATOM     29  C   UNL A   1      41.025  22.830  27.878  1.00  0.00     0.014 A 
ATOM     30  C   UNL A   1      39.591  23.755  26.164  1.00  0.00     0.014 A 
ATOM     31  C   UNL A   1      41.459  24.118  28.203  1.00  0.00     0.010 A 
ATOM     32  C   UNL A   1      40.091  25.026  26.427  1.00  0.00     0.010 A 
ATOM     33  C   UNL A   1      41.017  25.225  27.461  1.00  0.00    -0.014 A 
BRANCH  33  34
ATOM     34  C   UNL A   1      41.483  26.601  27.772  1.00  0.00     0.031 A 
ATOM     35  C   UNL A   1      42.896  27.006  27.451  1.00  0.00     0.074 A 
ATOM     36  C   UNL A   1      40.658  27.460  28.401  1.00  0.00     0.049 A 
ATOM     37  N   UNL A   1      43.520  28.126  27.714  1.00  0.00    -0.248 NA
ATOM     38  C   UNL A   1      43.729  26.000  26.775  1.00  0.00     0.031 C 
ATOM     39  C   UNL A   1      39.281  27.167  28.805  1.00  0.00     0.029 A 
ATOM     40  N   UNL A   1      40.860  28.751  28.821  1.00  0.00    -0.354 N 
ATOM     41  C   UNL A   1      44.822  27.952  27.254  1.00  0.00     0.074 A 
ATOM     42  C   UNL A   1      44.911  26.593  26.762  1.00  0.00     0.031 C 
ATOM     43  C   UNL A   1      38.757  28.254  29.394  1.00  0.00     0.029 A 
ATOM     44  C   UNL A   1      39.769  29.303  29.452  1.00  0.00     0.049 A 
ATOM     45  H   UNL A   1      41.705  29.237  28.684  1.00  0.00     0.167 HD
ATOM     46  C   UNL A   1      45.839  28.849  27.222  1.00  0.00     0.034 A 
ATOM     47  C   UNL A   1      39.607  30.512  30.023  1.00  0.00     0.034 A 
ATOM     48  C   UNL A   1      45.726  30.203  27.710  1.00  0.00     0.049 A 
ATOM     49  C   UNL A   1      40.751  31.493  29.989  1.00  0.00     0.074 A 
ATOM     50  C   UNL A   1      46.669  31.215  27.679  1.00  0.00     0.029 A 
ATOM     51  N   UNL A   1      44.600  30.732  28.332  1.00  0.00    -0.354 N 
ATOM     52  N   UNL A   1      41.961  31.334  29.502  1.00  0.00    -0.248 NA
ATOM     53  C   UNL A   1      40.503  32.818  30.568  1.00  0.00     0.031 C 
ATOM     54  C   UNL A   1      46.141  32.329  28.342  1.00  0.00     0.029 A 
ATOM     55  C   UNL A   1      44.837  32.044  28.716  1.00  0.00     0.049 A 
ATOM     56  H   UNL A   1      43.757  30.245  28.480  1.00  0.00     0.167 HD
ATOM     57  C   UNL A   1      42.608  32.552  29.690  1.00  0.00     0.074 A 
ATOM     58  C   UNL A   1      41.649  33.436  30.323  1.00  0.00     0.031 C 
ATOM     59  C   UNL A   1      43.877  32.910  29.361  1.00  0.00     0.034 A 
BRANCH  46  60
ATOM     60  C   UNL A   1      47.164  28.371  26.667  1.00  0.00     0.023 A 
ATOM     61  C   UNL A   1      47.382  28.237  25.284  1.00  0.00     0.031 A 
ATOM     62  C   UNL A   1      48.205  27.989  27.532  1.00  0.00     0.131 A 
ATOM     63  C   UNL A   1      48.560  27.640  24.812  1.00  0.00     0.055 A 
ATOM     64  C   UNL A   1      49.416  27.485  27.050  1.00  0.00     0.041 A 
ATOM     65  F   UNL A   1      48.055  28.074  28.863  1.00  0.00    -0.206 F 
ATOM     66  C   UNL A   1      49.591  27.287  25.684  1.00  0.00     0.022 A 
BRANCH  63  67
ATOM     67  S   UNL A   1      48.648  27.167  23.062  1.00  0.00     0.124 S 
ATOM     68  O   UNL A   1      47.648  28.051  22.467  1.00  0.00    -0.237 OA
ATOM     69  O   UNL A   1      50.037  27.456  22.726  1.00  0.00    -0.237 OA
ATOM     70  O   UNL A   1      48.287  25.751  23.072  1.00  0.00    -0.744 OA
ENDBRANCH  63  67
ENDBRANCH  46  60
BRANCH  47  71
ATOM     71  C   UNL A   1      38.314  30.862  30.678  1.00  0.00     0.023 A 
ATOM     72  C   UNL A   1      37.314  31.557  29.983  1.00  0.00     0.031 A 
ATOM     73  C   UNL A   1      38.067  30.509  32.017  1.00  0.00     0.131 A 
ATOM     74  C   UNL A   1      36.123  31.909  30.639  1.00  0.00     0.055 A 
ATOM     75  C   UNL A   1      36.863  30.819  32.650  1.00  0.00     0.041 A 
ATOM     76  F   UNL A   1      38.988  29.834  32.723  1.00  0.00    -0.206 F 
ATOM     77  C   UNL A   1      35.885  31.533  31.962  1.00  0.00     0.022 A 
BRANCH  74  78
ATOM     78  S   UNL A   1      34.906  32.919  29.750  1.00  0.00     0.124 S 
ATOM     79  O   UNL A   1      34.344  31.953  28.815  1.00  0.00    -0.237 OA
ATOM     80  O   UNL A   1      34.027  33.354  30.831  1.00  0.00    -0.237 OA
ATOM     81  O   UNL A   1      35.716  33.975  29.147  1.00  0.00    -0.744 OA
ENDBRANCH  74  78
ENDBRANCH  47  71
BRANCH  59  82
ATOM     82  C   UNL A   1      44.280  34.338  29.642  1.00  0.00     0.023 A 
ATOM     83  C   UNL A   1      44.075  35.367  28.707  1.00  0.00     0.031 A 
ATOM     84  C   UNL A   1      44.894  34.669  30.864  1.00  0.00     0.131 A 
ATOM     85  C   UNL A   1      44.531  36.666  28.985  1.00  0.00     0.055 A 
ATOM     86  C   UNL A   1      45.286  35.974  31.160  1.00  0.00     0.041 A 
ATOM     87  F   UNL A   1      45.119  33.725  31.793  1.00  0.00    -0.206 F 
ATOM     88  C   UNL A   1      45.119  36.978  30.213  1.00  0.00     0.022 A 
BRANCH  85  89
ATOM     89  S   UNL A   1      44.436  37.921  27.678  1.00  0.00     0.124 S 
ATOM     90  O   UNL A   1      45.746  37.800  27.046  1.00  0.00    -0.237 OA
ATOM     91  O   UNL A   1      43.300  37.463  26.886  1.00  0.00    -0.237 OA
ATOM     92  O   UNL A   1      44.217  39.165  28.414  1.00  0.00    -0.744 OA
ENDBRANCH  85  89
ENDBRANCH  59  82
ENDBRANCH  33  34
ENDBRANCH  25  28
ENDBRANCH  23  24
ENDBRANCH   1  23
TORSDOF 16
ENDMDL
