MODEL 1
REMARK VINA RESULT:     -12.9      0.000      0.000
REMARK SMILES O=C(CCC(=O)N1CCCn2nc(-c3ccccc3)cc21)NCCCNC(=O)c1ccc(-c2c3nc(c(-c4cc(S(=O)(=O)[O-])ccc4F)c4ccc([nH]4)c(-c4cc(S(=O)(=O)[O-])ccc4F)c4nc(c(-c5cc(S(=O)(=O)[O-])ccc5F)c5ccc2[nH]5)C=C4)C=C3)cc1
REMARK SMILES IDX 23 1 22 2 1 3 2 4 3 6 4 7 5 8 6 9 7 10 8 11 21 12 9 13 11 14
REMARK SMILES IDX 20 15 10 16 12 17 13 18 14 19 15 20 19 21 16 22 18 23 17 24
REMARK SMILES IDX 24 25 25 26 26 27 27 28 28 30 29 31 30 32 91 33 31 34 90 35
REMARK SMILES IDX 32 36 33 37 34 38 84 39 35 40 89 41 83 42 85 43 36 44 88 45
REMARK SMILES IDX 82 46 81 47 37 49 69 50 49 51 68 52 50 53 53 54 67 55 86 56
REMARK SMILES IDX 51 57 52 58 66 60 87 61 54 62 38 63 39 64 47 65 40 66 46 67
REMARK SMILES IDX 48 68 45 69 41 70 42 71 43 72 44 73 70 74 71 75 79 76 72 77
REMARK SMILES IDX 78 78 80 79 77 80 73 81 74 82 75 83 76 84 55 85 56 86 64 87
REMARK SMILES IDX 57 88 63 89 65 90 62 91 58 92 59 93 60 94 61 95
REMARK H PARENT 22 5 26 29 85 48 53 59
REMARK Flexibility Score: inf
ROOT
ATOM      1  C   UNL A   1      31.248  29.012  24.840  1.00  0.00     0.117 C 
ENDROOT
BRANCH   1   2
ATOM      2  N   UNL A   1      31.289  27.557  24.776  1.00  0.00    -0.356 N 
ATOM      3  O   UNL A   1      31.020  27.268  27.041  1.00  0.00    -0.275 OA
ATOM      4  C   UNL A   1      31.077  26.792  25.910  1.00  0.00     0.220 C 
ATOM      5  H   UNL A   1      31.472  27.113  23.916  1.00  0.00     0.163 HD
BRANCH   4   6
ATOM      6  C   UNL A   1      30.677  25.348  25.640  1.00  0.00     0.110 C 
BRANCH   6   7
ATOM      7  C   UNL A   1      31.888  24.393  25.705  1.00  0.00     0.110 C 
BRANCH   7   8
ATOM      8  C   UNL A   1      32.749  24.262  24.443  1.00  0.00     0.228 C 
ATOM      9  O   UNL A   1      32.443  24.832  23.395  1.00  0.00    -0.274 OA
BRANCH   8  10
ATOM     10  N   UNL A   1      33.977  23.481  24.489  1.00  0.00    -0.297 N 
ATOM     11  C   UNL A   1      35.290  24.156  24.414  1.00  0.00     0.129 C 
ATOM     12  C   UNL A   1      34.026  22.082  24.645  1.00  0.00     0.134 A 
ATOM     13  C   UNL A   1      36.268  23.508  25.367  1.00  0.00     0.046 C 
ATOM     14  N   UNL A   1      35.213  21.429  24.871  1.00  0.00    -0.249 N 
ATOM     15  C   UNL A   1      33.084  21.075  24.589  1.00  0.00     0.077 A 
ATOM     16  C   UNL A   1      36.500  22.072  25.003  1.00  0.00     0.148 C 
ATOM     17  N   UNL A   1      35.131  20.116  24.949  1.00  0.00    -0.171 NA
ATOM     18  C   UNL A   1      33.832  19.863  24.761  1.00  0.00     0.095 A 
BRANCH  18  19
ATOM     19  C   UNL A   1      33.470  18.462  24.648  1.00  0.00     0.002 A 
ATOM     20  C   UNL A   1      32.687  17.858  25.642  1.00  0.00     0.010 A 
ATOM     21  C   UNL A   1      34.162  17.665  23.731  1.00  0.00     0.010 A 
ATOM     22  C   UNL A   1      32.606  16.467  25.719  1.00  0.00     0.001 A 
ATOM     23  C   UNL A   1      34.088  16.274  23.818  1.00  0.00     0.001 A 
ATOM     24  C   UNL A   1      33.314  15.677  24.814  1.00  0.00     0.000 A 
ENDBRANCH  18  19
ENDBRANCH   8  10
ENDBRANCH   7   8
ENDBRANCH   6   7
ENDBRANCH   4   6
ENDBRANCH   1   2
BRANCH   1  25
ATOM     25  C   UNL A   1      32.413  29.727  25.543  1.00  0.00     0.042 C 
BRANCH  25  26
ATOM     26  C   UNL A   1      32.199  30.446  26.880  1.00  0.00     0.118 C 
BRANCH  26  27
ATOM     27  N   UNL A   1      32.328  31.899  26.856  1.00  0.00    -0.352 N 
ATOM     28  C   UNL A   1      33.118  32.742  27.612  1.00  0.00     0.251 C 
ATOM     29  H   UNL A   1      31.761  32.353  26.192  1.00  0.00     0.163 HD
ATOM     30  O   UNL A   1      32.753  33.889  27.848  1.00  0.00    -0.269 OA
BRANCH  28  31
ATOM     31  C   UNL A   1      34.473  32.284  27.977  1.00  0.00     0.039 A 
ATOM     32  C   UNL A   1      35.565  33.153  27.982  1.00  0.00     0.014 A 
ATOM     33  C   UNL A   1      34.644  30.931  28.280  1.00  0.00     0.014 A 
ATOM     34  C   UNL A   1      36.797  32.686  28.445  1.00  0.00     0.010 A 
ATOM     35  C   UNL A   1      35.826  30.498  28.840  1.00  0.00     0.010 A 
ATOM     36  C   UNL A   1      36.904  31.381  28.953  1.00  0.00    -0.014 A 
BRANCH  36  37
ATOM     37  C   UNL A   1      38.087  30.919  29.708  1.00  0.00     0.031 A 
ATOM     38  C   UNL A   1      39.008  29.900  29.105  1.00  0.00     0.074 A 
ATOM     39  C   UNL A   1      38.203  31.304  30.994  1.00  0.00     0.049 A 
ATOM     40  N   UNL A   1      39.997  29.253  29.658  1.00  0.00    -0.248 NA
ATOM     41  C   UNL A   1      38.743  29.517  27.708  1.00  0.00     0.031 C 
ATOM     42  C   UNL A   1      37.289  32.220  31.686  1.00  0.00     0.029 A 
ATOM     43  N   UNL A   1      39.116  30.966  31.955  1.00  0.00    -0.354 N 
ATOM     44  C   UNL A   1      40.468  28.380  28.683  1.00  0.00     0.074 A 
ATOM     45  C   UNL A   1      39.600  28.523  27.535  1.00  0.00     0.031 C 
ATOM     46  C   UNL A   1      37.712  32.400  32.946  1.00  0.00     0.029 A 
ATOM     47  C   UNL A   1      38.890  31.572  33.169  1.00  0.00     0.049 A 
ATOM     48  H   UNL A   1      39.865  30.346  31.793  1.00  0.00     0.167 HD
ATOM     49  C   UNL A   1      41.545  27.560  28.742  1.00  0.00     0.034 A 
ATOM     50  C   UNL A   1      39.557  31.464  34.332  1.00  0.00     0.034 A 
ATOM     51  C   UNL A   1      42.385  27.454  29.909  1.00  0.00     0.049 A 
ATOM     52  C   UNL A   1      40.758  30.557  34.367  1.00  0.00     0.074 A 
ATOM     53  C   UNL A   1      43.536  26.707  30.083  1.00  0.00     0.029 A 
ATOM     54  N   UNL A   1      42.158  28.119  31.110  1.00  0.00    -0.354 N 
ATOM     55  N   UNL A   1      41.238  29.789  33.414  1.00  0.00    -0.248 NA
ATOM     56  C   UNL A   1      41.516  30.514  35.621  1.00  0.00     0.031 C 
ATOM     57  C   UNL A   1      43.963  26.866  31.406  1.00  0.00     0.029 A 
ATOM     58  C   UNL A   1      43.130  27.778  32.036  1.00  0.00     0.049 A 
ATOM     59  H   UNL A   1      41.414  28.741  31.278  1.00  0.00     0.167 HD
ATOM     60  C   UNL A   1      42.377  29.194  33.945  1.00  0.00     0.074 A 
ATOM     61  C   UNL A   1      42.517  29.711  35.295  1.00  0.00     0.031 C 
ATOM     62  C   UNL A   1      43.232  28.304  33.378  1.00  0.00     0.034 A 
BRANCH  49  63
ATOM     63  C   UNL A   1      41.848  26.719  27.523  1.00  0.00     0.023 A 
ATOM     64  C   UNL A   1      41.435  25.378  27.433  1.00  0.00     0.031 A 
ATOM     65  C   UNL A   1      42.598  27.244  26.455  1.00  0.00     0.131 A 
ATOM     66  C   UNL A   1      41.849  24.585  26.353  1.00  0.00     0.055 A 
ATOM     67  C   UNL A   1      42.926  26.476  25.336  1.00  0.00     0.041 A 
ATOM     68  F   UNL A   1      43.045  28.510  26.492  1.00  0.00    -0.206 F 
ATOM     69  C   UNL A   1      42.567  25.131  25.288  1.00  0.00     0.022 A 
BRANCH  66  70
ATOM     70  S   UNL A   1      41.582  22.793  26.446  1.00  0.00     0.124 S 
ATOM     71  O   UNL A   1      40.123  22.711  26.377  1.00  0.00    -0.237 OA
ATOM     72  O   UNL A   1      42.304  22.304  25.277  1.00  0.00    -0.237 OA
ATOM     73  O   UNL A   1      42.157  22.426  27.738  1.00  0.00    -0.744 OA
ENDBRANCH  66  70
ENDBRANCH  49  63
BRANCH  50  74
ATOM     74  C   UNL A   1      39.126  32.238  35.530  1.00  0.00     0.023 A 
ATOM     75  C   UNL A   1      38.453  31.607  36.588  1.00  0.00     0.031 A 
ATOM     76  C   UNL A   1      39.365  33.621  35.635  1.00  0.00     0.131 A 
ATOM     77  C   UNL A   1      37.995  32.363  37.678  1.00  0.00     0.055 A 
ATOM     78  C   UNL A   1      38.957  34.358  36.748  1.00  0.00     0.041 A 
ATOM     79  F   UNL A   1      40.020  34.272  34.661  1.00  0.00    -0.206 F 
ATOM     80  C   UNL A   1      38.254  33.731  37.772  1.00  0.00     0.022 A 
BRANCH  77  81
ATOM     81  S   UNL A   1      36.977  31.541  38.934  1.00  0.00     0.124 S 
ATOM     82  O   UNL A   1      35.778  32.371  38.930  1.00  0.00    -0.237 OA
ATOM     83  O   UNL A   1      36.834  30.201  38.375  1.00  0.00    -0.237 OA
ATOM     84  O   UNL A   1      37.795  31.628  40.142  1.00  0.00    -0.744 OA
ENDBRANCH  77  81
ENDBRANCH  50  74
BRANCH  62  85
ATOM     85  C   UNL A   1      44.410  27.875  34.215  1.00  0.00     0.023 A 
ATOM     86  C   UNL A   1      44.395  26.675  34.945  1.00  0.00     0.031 A 
ATOM     87  C   UNL A   1      45.554  28.688  34.293  1.00  0.00     0.131 A 
ATOM     88  C   UNL A   1      45.475  26.355  35.778  1.00  0.00     0.055 A 
ATOM     89  C   UNL A   1      46.656  28.327  35.066  1.00  0.00     0.041 A 
ATOM     90  F   UNL A   1      45.618  29.846  33.617  1.00  0.00    -0.206 F 
ATOM     91  C   UNL A   1      46.615  27.162  35.827  1.00  0.00     0.022 A 
BRANCH  88  92
ATOM     92  S   UNL A   1      45.321  24.925  36.881  1.00  0.00     0.124 S 
ATOM     93  O   UNL A   1      46.035  25.382  38.069  1.00  0.00    -0.237 OA
ATOM     94  O   UNL A   1      43.874  24.794  37.019  1.00  0.00    -0.237 OA
ATOM     95  O   UNL A   1      45.974  23.849  36.140  1.00  0.00    -0.744 OA
ENDBRANCH  88  92
ENDBRANCH  62  85
ENDBRANCH  36  37
ENDBRANCH  28  31
ENDBRANCH  26  27
ENDBRANCH  25  26
ENDBRANCH   1  25
TORSDOF 17
ENDMDL
MODEL 2
REMARK VINA RESULT:     -12.7      4.915      8.530
REMARK SMILES O=C(CCC(=O)N1CCCn2nc(-c3ccccc3)cc21)NCCCNC(=O)c1ccc(-c2c3nc(c(-c4cc(S(=O)(=O)[O-])ccc4F)c4ccc([nH]4)c(-c4cc(S(=O)(=O)[O-])ccc4F)c4nc(c(-c5cc(S(=O)(=O)[O-])ccc5F)c5ccc2[nH]5)C=C4)C=C3)cc1
REMARK SMILES IDX 23 1 22 2 1 3 2 4 3 6 4 7 5 8 6 9 7 10 8 11 21 12 9 13 11 14
REMARK SMILES IDX 20 15 10 16 12 17 13 18 14 19 15 20 19 21 16 22 18 23 17 24
REMARK SMILES IDX 24 25 25 26 26 27 27 28 28 30 29 31 30 32 91 33 31 34 90 35
REMARK SMILES IDX 32 36 33 37 34 38 84 39 35 40 89 41 83 42 85 43 36 44 88 45
REMARK SMILES IDX 82 46 81 47 37 49 69 50 49 51 68 52 50 53 53 54 67 55 86 56
REMARK SMILES IDX 51 57 52 58 66 60 87 61 54 62 38 63 39 64 47 65 40 66 46 67
REMARK SMILES IDX 48 68 45 69 41 70 42 71 43 72 44 73 70 74 71 75 79 76 72 77
REMARK SMILES IDX 78 78 80 79 77 80 73 81 74 82 75 83 76 84 55 85 56 86 64 87
REMARK SMILES IDX 57 88 63 89 65 90 62 91 58 92 59 93 60 94 61 95
REMARK H PARENT 22 5 26 29 85 48 53 59
REMARK Flexibility Score: inf
ROOT
ATOM      1  C   UNL A   1      34.563  21.357  25.648  1.00  0.00     0.117 C 
ENDROOT
BRANCH   1   2
ATOM      2  N   UNL A   1      33.399  22.228  25.566  1.00  0.00    -0.356 N 
ATOM      3  O   UNL A   1      31.920  20.515  25.154  1.00  0.00    -0.275 OA
ATOM      4  C   UNL A   1      32.129  21.699  25.408  1.00  0.00     0.220 C 
ATOM      5  H   UNL A   1      33.516  23.204  25.622  1.00  0.00     0.163 HD
BRANCH   4   6
ATOM      6  C   UNL A   1      30.994  22.633  25.809  1.00  0.00     0.110 C 
BRANCH   6   7
ATOM      7  C   UNL A   1      30.903  23.861  24.878  1.00  0.00     0.110 C 
BRANCH   7   8
ATOM      8  C   UNL A   1      30.280  25.137  25.456  1.00  0.00     0.228 C 
ATOM      9  O   UNL A   1      29.616  25.114  26.493  1.00  0.00    -0.274 OA
BRANCH   8  10
ATOM     10  N   UNL A   1      30.507  26.412  24.792  1.00  0.00    -0.297 N 
ATOM     11  C   UNL A   1      29.881  26.690  23.482  1.00  0.00     0.129 C 
ATOM     12  C   UNL A   1      31.274  27.465  25.329  1.00  0.00     0.134 A 
ATOM     13  C   UNL A   1      29.395  28.120  23.426  1.00  0.00     0.046 C 
ATOM     14  N   UNL A   1      31.294  28.707  24.742  1.00  0.00    -0.249 N 
ATOM     15  C   UNL A   1      32.140  27.575  26.398  1.00  0.00     0.077 A 
ATOM     16  C   UNL A   1      30.538  29.080  23.570  1.00  0.00     0.148 C 
ATOM     17  N   UNL A   1      32.089  29.590  25.312  1.00  0.00    -0.171 NA
ATOM     18  C   UNL A   1      32.640  28.918  26.328  1.00  0.00     0.095 A 
BRANCH  18  19
ATOM     19  C   UNL A   1      33.687  29.614  27.052  1.00  0.00     0.002 A 
ATOM     20  C   UNL A   1      33.594  30.998  27.260  1.00  0.00     0.010 A 
ATOM     21  C   UNL A   1      34.910  28.963  27.251  1.00  0.00     0.010 A 
ATOM     22  C   UNL A   1      34.720  31.722  27.656  1.00  0.00     0.001 A 
ATOM     23  C   UNL A   1      36.035  29.693  27.636  1.00  0.00     0.001 A 
ATOM     24  C   UNL A   1      35.940  31.070  27.833  1.00  0.00     0.000 A 
ENDBRANCH  18  19
ENDBRANCH   8  10
ENDBRANCH   7   8
ENDBRANCH   6   7
ENDBRANCH   4   6
ENDBRANCH   1   2
BRANCH   1  25
ATOM     25  C   UNL A   1      35.669  21.546  24.596  1.00  0.00     0.042 C 
BRANCH  25  26
ATOM     26  C   UNL A   1      37.053  22.068  24.998  1.00  0.00     0.118 C 
BRANCH  26  27
ATOM     27  N   UNL A   1      37.938  21.107  25.647  1.00  0.00    -0.352 N 
ATOM     28  C   UNL A   1      39.248  21.234  26.065  1.00  0.00     0.251 C 
ATOM     29  H   UNL A   1      37.536  20.224  25.815  1.00  0.00     0.163 HD
ATOM     30  O   UNL A   1      39.988  20.256  26.094  1.00  0.00    -0.269 OA
BRANCH  28  31
ATOM     31  C   UNL A   1      39.674  22.529  26.630  1.00  0.00     0.039 A 
ATOM     32  C   UNL A   1      40.659  22.610  27.616  1.00  0.00     0.014 A 
ATOM     33  C   UNL A   1      39.030  23.683  26.178  1.00  0.00     0.014 A 
ATOM     34  C   UNL A   1      41.099  23.869  28.030  1.00  0.00     0.010 A 
ATOM     35  C   UNL A   1      39.536  24.923  26.501  1.00  0.00     0.010 A 
ATOM     36  C   UNL A   1      40.595  25.024  27.408  1.00  0.00    -0.014 A 
BRANCH  36  37
ATOM     37  C   UNL A   1      41.208  26.356  27.594  1.00  0.00     0.031 A 
ATOM     38  C   UNL A   1      42.574  26.633  27.041  1.00  0.00     0.074 A 
ATOM     39  C   UNL A   1      40.585  27.227  28.411  1.00  0.00     0.049 A 
ATOM     40  N   UNL A   1      43.345  27.670  27.231  1.00  0.00    -0.248 NA
ATOM     41  C   UNL A   1      43.176  25.578  26.209  1.00  0.00     0.031 C 
ATOM     42  C   UNL A   1      39.294  26.991  29.069  1.00  0.00     0.029 A 
ATOM     43  N   UNL A   1      40.951  28.471  28.846  1.00  0.00    -0.354 N 
ATOM     44  C   UNL A   1      44.525  27.389  26.551  1.00  0.00     0.074 A 
ATOM     45  C   UNL A   1      44.397  26.051  26.017  1.00  0.00     0.031 C 
ATOM     46  C   UNL A   1      38.960  28.072  29.790  1.00  0.00     0.029 A 
ATOM     47  C   UNL A   1      40.035  29.051  29.693  1.00  0.00     0.049 A 
ATOM     48  H   UNL A   1      41.791  28.910  28.579  1.00  0.00     0.167 HD
ATOM     49  C   UNL A   1      45.600  28.195  26.371  1.00  0.00     0.034 A 
ATOM     50  C   UNL A   1      40.066  30.239  30.323  1.00  0.00     0.034 A 
ATOM     51  C   UNL A   1      45.681  29.526  26.919  1.00  0.00     0.049 A 
ATOM     52  C   UNL A   1      41.264  31.121  30.096  1.00  0.00     0.074 A 
ATOM     53  C   UNL A   1      46.684  30.465  26.767  1.00  0.00     0.029 A 
ATOM     54  N   UNL A   1      44.714  30.105  27.735  1.00  0.00    -0.354 N 
ATOM     55  N   UNL A   1      42.346  30.874  29.390  1.00  0.00    -0.248 NA
ATOM     56  C   UNL A   1      41.241  32.442  30.730  1.00  0.00     0.031 C 
ATOM     57  C   UNL A   1      46.357  31.583  27.544  1.00  0.00     0.029 A 
ATOM     58  C   UNL A   1      45.110  31.377  28.115  1.00  0.00     0.049 A 
ATOM     59  H   UNL A   1      43.871  29.674  28.003  1.00  0.00     0.167 HD
ATOM     60  C   UNL A   1      43.120  32.026  29.470  1.00  0.00     0.074 A 
ATOM     61  C   UNL A   1      42.368  32.970  30.277  1.00  0.00     0.031 C 
ATOM     62  C   UNL A   1      44.339  32.287  28.930  1.00  0.00     0.034 A 
BRANCH  49  63
ATOM     63  C   UNL A   1      46.757  27.644  25.569  1.00  0.00     0.023 A 
ATOM     64  C   UNL A   1      47.022  28.086  24.261  1.00  0.00     0.031 A 
ATOM     65  C   UNL A   1      47.579  26.631  26.095  1.00  0.00     0.131 A 
ATOM     66  C   UNL A   1      48.015  27.460  23.493  1.00  0.00     0.055 A 
ATOM     67  C   UNL A   1      48.630  26.077  25.359  1.00  0.00     0.041 A 
ATOM     68  F   UNL A   1      47.362  26.146  27.328  1.00  0.00    -0.206 F 
ATOM     69  C   UNL A   1      48.841  26.478  24.043  1.00  0.00     0.022 A 
BRANCH  66  70
ATOM     70  S   UNL A   1      48.094  27.827  21.719  1.00  0.00     0.124 S 
ATOM     71  O   UNL A   1      46.779  28.422  21.485  1.00  0.00    -0.237 OA
ATOM     72  O   UNL A   1      49.230  28.739  21.635  1.00  0.00    -0.237 OA
ATOM     73  O   UNL A   1      48.294  26.517  21.105  1.00  0.00    -0.744 OA
ENDBRANCH  66  70
ENDBRANCH  49  63
BRANCH  50  74
ATOM     74  C   UNL A   1      38.935  30.665  31.196  1.00  0.00     0.023 A 
ATOM     75  C   UNL A   1      37.994  31.604  30.745  1.00  0.00     0.031 A 
ATOM     76  C   UNL A   1      38.782  30.155  32.499  1.00  0.00     0.131 A 
ATOM     77  C   UNL A   1      36.975  32.043  31.603  1.00  0.00     0.055 A 
ATOM     78  C   UNL A   1      37.733  30.554  33.329  1.00  0.00     0.041 A 
ATOM     79  F   UNL A   1      39.643  29.242  32.976  1.00  0.00    -0.206 F 
ATOM     80  C   UNL A   1      36.829  31.515  32.888  1.00  0.00     0.022 A 
BRANCH  77  81
ATOM     81  S   UNL A   1      35.890  33.384  31.043  1.00  0.00     0.124 S 
ATOM     82  O   UNL A   1      36.538  33.787  29.800  1.00  0.00    -0.237 OA
ATOM     83  O   UNL A   1      34.610  32.699  30.908  1.00  0.00    -0.237 OA
ATOM     84  O   UNL A   1      35.965  34.356  32.131  1.00  0.00    -0.744 OA
ENDBRANCH  77  81
ENDBRANCH  50  74
BRANCH  62  85
ATOM     85  C   UNL A   1      44.901  33.665  29.171  1.00  0.00     0.023 A 
ATOM     86  C   UNL A   1      44.689  34.715  28.263  1.00  0.00     0.031 A 
ATOM     87  C   UNL A   1      45.672  33.922  30.318  1.00  0.00     0.131 A 
ATOM     88  C   UNL A   1      45.300  35.957  28.481  1.00  0.00     0.055 A 
ATOM     89  C   UNL A   1      46.217  35.181  30.566  1.00  0.00     0.041 A 
ATOM     90  F   UNL A   1      45.907  32.952  31.215  1.00  0.00    -0.206 F 
ATOM     91  C   UNL A   1      46.045  36.203  29.637  1.00  0.00     0.022 A 
BRANCH  88  92
ATOM     92  S   UNL A   1      45.199  37.210  27.175  1.00  0.00     0.124 S 
ATOM     93  O   UNL A   1      45.744  38.387  27.845  1.00  0.00    -0.237 OA
ATOM     94  O   UNL A   1      46.032  36.633  26.125  1.00  0.00    -0.237 OA
ATOM     95  O   UNL A   1      43.771  37.273  26.872  1.00  0.00    -0.744 OA
ENDBRANCH  88  92
ENDBRANCH  62  85
ENDBRANCH  36  37
ENDBRANCH  28  31
ENDBRANCH  26  27
ENDBRANCH  25  26
ENDBRANCH   1  25
TORSDOF 17
ENDMDL
MODEL 3
REMARK VINA RESULT:     -12.6      5.036     10.767
REMARK SMILES O=C(CCC(=O)N1CCCn2nc(-c3ccccc3)cc21)NCCCNC(=O)c1ccc(-c2c3nc(c(-c4cc(S(=O)(=O)[O-])ccc4F)c4ccc([nH]4)c(-c4cc(S(=O)(=O)[O-])ccc4F)c4nc(c(-c5cc(S(=O)(=O)[O-])ccc5F)c5ccc2[nH]5)C=C4)C=C3)cc1
REMARK SMILES IDX 23 1 22 2 1 3 2 4 3 6 4 7 5 8 6 9 7 10 8 11 21 12 9 13 11 14
REMARK SMILES IDX 20 15 10 16 12 17 13 18 14 19 15 20 19 21 16 22 18 23 17 24
REMARK SMILES IDX 24 25 25 26 26 27 27 28 28 30 29 31 30 32 91 33 31 34 90 35
REMARK SMILES IDX 32 36 33 37 34 38 84 39 35 40 89 41 83 42 85 43 36 44 88 45
REMARK SMILES IDX 82 46 81 47 37 49 69 50 49 51 68 52 50 53 53 54 67 55 86 56
REMARK SMILES IDX 51 57 52 58 66 60 87 61 54 62 38 63 39 64 47 65 40 66 46 67
REMARK SMILES IDX 48 68 45 69 41 70 42 71 43 72 44 73 70 74 71 75 79 76 72 77
REMARK SMILES IDX 78 78 80 79 77 80 73 81 74 82 75 83 76 84 55 85 56 86 64 87
REMARK SMILES IDX 57 88 63 89 65 90 62 91 58 92 59 93 60 94 61 95
REMARK H PARENT 22 5 26 29 85 48 53 59
REMARK Flexibility Score: inf
ROOT
ATOM      1  C   UNL A   1      34.529  21.637  24.431  1.00  0.00     0.117 C 
ENDROOT
BRANCH   1   2
ATOM      2  N   UNL A   1      33.142  21.930  24.764  1.00  0.00    -0.356 N 
ATOM      3  O   UNL A   1      33.396  21.484  27.006  1.00  0.00    -0.275 OA
ATOM      4  C   UNL A   1      32.710  21.911  26.080  1.00  0.00     0.220 C 
ATOM      5  H   UNL A   1      32.503  22.144  24.046  1.00  0.00     0.163 HD
BRANCH   4   6
ATOM      6  C   UNL A   1      31.420  22.677  26.340  1.00  0.00     0.110 C 
BRANCH   6   7
ATOM      7  C   UNL A   1      31.146  23.732  25.246  1.00  0.00     0.110 C 
BRANCH   7   8
ATOM      8  C   UNL A   1      31.391  25.201  25.610  1.00  0.00     0.228 C 
ATOM      9  O   UNL A   1      31.073  25.652  26.711  1.00  0.00    -0.274 OA
BRANCH   8  10
ATOM     10  N   UNL A   1      32.049  26.077  24.652  1.00  0.00    -0.297 N 
ATOM     11  C   UNL A   1      33.471  25.865  24.304  1.00  0.00     0.129 C 
ATOM     12  C   UNL A   1      31.412  27.132  23.968  1.00  0.00     0.134 A 
ATOM     13  C   UNL A   1      33.687  26.083  22.824  1.00  0.00     0.046 C 
ATOM     14  N   UNL A   1      32.036  27.798  22.941  1.00  0.00    -0.249 N 
ATOM     15  C   UNL A   1      30.194  27.767  24.101  1.00  0.00     0.077 A 
ATOM     16  C   UNL A   1      33.354  27.491  22.435  1.00  0.00     0.148 C 
ATOM     17  N   UNL A   1      31.354  28.797  22.417  1.00  0.00    -0.171 NA
ATOM     18  C   UNL A   1      30.219  28.816  23.123  1.00  0.00     0.095 A 
BRANCH  18  19
ATOM     19  C   UNL A   1      29.326  29.928  22.854  1.00  0.00     0.002 A 
ATOM     20  C   UNL A   1      28.760  30.080  21.580  1.00  0.00     0.010 A 
ATOM     21  C   UNL A   1      29.295  30.994  23.759  1.00  0.00     0.010 A 
ATOM     22  C   UNL A   1      28.176  31.294  21.215  1.00  0.00     0.001 A 
ATOM     23  C   UNL A   1      28.720  32.210  23.387  1.00  0.00     0.001 A 
ATOM     24  C   UNL A   1      28.166  32.360  22.115  1.00  0.00     0.000 A 
ENDBRANCH  18  19
ENDBRANCH   8  10
ENDBRANCH   7   8
ENDBRANCH   6   7
ENDBRANCH   4   6
ENDBRANCH   1   2
BRANCH   1  25
ATOM     25  C   UNL A   1      35.549  22.780  24.559  1.00  0.00     0.042 C 
BRANCH  25  26
ATOM     26  C   UNL A   1      37.047  22.520  24.359  1.00  0.00     0.118 C 
BRANCH  26  27
ATOM     27  N   UNL A   1      37.600  21.371  25.067  1.00  0.00    -0.352 N 
ATOM     28  C   UNL A   1      38.812  21.210  25.708  1.00  0.00     0.251 C 
ATOM     29  H   UNL A   1      37.014  20.581  25.093  1.00  0.00     0.163 HD
ATOM     30  O   UNL A   1      39.334  20.103  25.781  1.00  0.00    -0.269 OA
BRANCH  28  31
ATOM     31  C   UNL A   1      39.369  22.364  26.440  1.00  0.00     0.039 A 
ATOM     32  C   UNL A   1      40.391  22.214  27.379  1.00  0.00     0.014 A 
ATOM     33  C   UNL A   1      38.811  23.622  26.198  1.00  0.00     0.014 A 
ATOM     34  C   UNL A   1      40.953  23.356  27.955  1.00  0.00     0.010 A 
ATOM     35  C   UNL A   1      39.434  24.753  26.678  1.00  0.00     0.010 A 
ATOM     36  C   UNL A   1      40.529  24.628  27.539  1.00  0.00    -0.014 A 
BRANCH  36  37
ATOM     37  C   UNL A   1      41.262  25.862  27.892  1.00  0.00     0.031 A 
ATOM     38  C   UNL A   1      40.566  26.955  28.649  1.00  0.00     0.074 A 
ATOM     39  C   UNL A   1      42.490  26.037  27.366  1.00  0.00     0.049 A 
ATOM     40  N   UNL A   1      40.977  28.165  28.912  1.00  0.00    -0.248 NA
ATOM     41  C   UNL A   1      39.203  26.663  29.123  1.00  0.00     0.031 C 
ATOM     42  C   UNL A   1      43.198  25.057  26.534  1.00  0.00     0.029 A 
ATOM     43  N   UNL A   1      43.353  27.097  27.430  1.00  0.00    -0.354 N 
ATOM     44  C   UNL A   1      39.922  28.784  29.574  1.00  0.00     0.074 A 
ATOM     45  C   UNL A   1      38.826  27.841  29.595  1.00  0.00     0.031 C 
ATOM     46  C   UNL A   1      44.402  25.547  26.201  1.00  0.00     0.029 A 
ATOM     47  C   UNL A   1      44.528  26.893  26.744  1.00  0.00     0.049 A 
ATOM     48  H   UNL A   1      43.151  27.927  27.920  1.00  0.00     0.167 HD
ATOM     49  C   UNL A   1      39.893  30.017  30.135  1.00  0.00     0.034 A 
ATOM     50  C   UNL A   1      45.584  27.707  26.571  1.00  0.00     0.034 A 
ATOM     51  C   UNL A   1      41.014  30.923  30.093  1.00  0.00     0.049 A 
ATOM     52  C   UNL A   1      45.533  29.067  27.216  1.00  0.00     0.074 A 
ATOM     53  C   UNL A   1      41.138  32.175  30.667  1.00  0.00     0.029 A 
ATOM     54  N   UNL A   1      42.211  30.669  29.431  1.00  0.00    -0.354 N 
ATOM     55  N   UNL A   1      44.556  29.616  27.903  1.00  0.00    -0.248 NA
ATOM     56  C   UNL A   1      46.726  29.907  27.080  1.00  0.00     0.031 C 
ATOM     57  C   UNL A   1      42.379  32.704  30.295  1.00  0.00     0.029 A 
ATOM     58  C   UNL A   1      43.067  31.751  29.559  1.00  0.00     0.049 A 
ATOM     59  H   UNL A   1      42.420  29.841  28.942  1.00  0.00     0.167 HD
ATOM     60  C   UNL A   1      45.031  30.858  28.309  1.00  0.00     0.074 A 
ATOM     61  C   UNL A   1      46.387  30.963  27.804  1.00  0.00     0.031 C 
ATOM     62  C   UNL A   1      44.410  31.826  29.032  1.00  0.00     0.034 A 
BRANCH  49  63
ATOM     63  C   UNL A   1      38.611  30.444  30.814  1.00  0.00     0.023 A 
ATOM     64  C   UNL A   1      37.563  31.045  30.097  1.00  0.00     0.031 A 
ATOM     65  C   UNL A   1      38.449  30.292  32.203  1.00  0.00     0.131 A 
ATOM     66  C   UNL A   1      36.446  31.554  30.775  1.00  0.00     0.055 A 
ATOM     67  C   UNL A   1      37.291  30.715  32.861  1.00  0.00     0.041 A 
ATOM     68  F   UNL A   1      39.424  29.750  32.950  1.00  0.00    -0.206 F 
ATOM     69  C   UNL A   1      36.288  31.368  32.149  1.00  0.00     0.022 A 
BRANCH  66  70
ATOM     70  S   UNL A   1      35.289  32.612  29.862  1.00  0.00     0.124 S 
ATOM     71  O   UNL A   1      34.848  31.711  28.798  1.00  0.00    -0.237 OA
ATOM     72  O   UNL A   1      34.292  32.939  30.874  1.00  0.00    -0.237 OA
ATOM     73  O   UNL A   1      36.121  33.727  29.417  1.00  0.00    -0.744 OA
ENDBRANCH  66  70
ENDBRANCH  49  63
BRANCH  50  74
ATOM     74  C   UNL A   1      46.769  27.259  25.785  1.00  0.00     0.023 A 
ATOM     75  C   UNL A   1      47.006  27.760  24.495  1.00  0.00     0.031 A 
ATOM     76  C   UNL A   1      47.675  26.313  26.299  1.00  0.00     0.131 A 
ATOM     77  C   UNL A   1      48.087  27.278  23.744  1.00  0.00     0.055 A 
ATOM     78  C   UNL A   1      48.782  25.878  25.568  1.00  0.00     0.041 A 
ATOM     79  F   UNL A   1      47.507  25.813  27.533  1.00  0.00    -0.206 F 
ATOM     80  C   UNL A   1      48.985  26.351  24.275  1.00  0.00     0.022 A 
BRANCH  77  81
ATOM     81  S   UNL A   1      48.253  27.820  22.021  1.00  0.00     0.124 S 
ATOM     82  O   UNL A   1      49.486  28.598  22.074  1.00  0.00    -0.237 OA
ATOM     83  O   UNL A   1      48.325  26.548  21.311  1.00  0.00    -0.237 OA
ATOM     84  O   UNL A   1      47.034  28.593  21.791  1.00  0.00    -0.744 OA
ENDBRANCH  77  81
ENDBRANCH  50  74
BRANCH  62  85
ATOM     85  C   UNL A   1      45.221  33.057  29.344  1.00  0.00     0.023 A 
ATOM     86  C   UNL A   1      45.350  34.107  28.420  1.00  0.00     0.031 A 
ATOM     87  C   UNL A   1      45.886  33.170  30.578  1.00  0.00     0.131 A 
ATOM     88  C   UNL A   1      46.182  35.195  28.715  1.00  0.00     0.055 A 
ATOM     89  C   UNL A   1      46.654  34.290  30.894  1.00  0.00     0.041 A 
ATOM     90  F   UNL A   1      45.798  32.194  31.494  1.00  0.00    -0.206 F 
ATOM     91  C   UNL A   1      46.819  35.303  29.954  1.00  0.00     0.022 A 
BRANCH  88  92
ATOM     92  S   UNL A   1      46.510  36.410  27.410  1.00  0.00     0.124 S 
ATOM     93  O   UNL A   1      45.828  35.814  26.266  1.00  0.00    -0.237 OA
ATOM     94  O   UNL A   1      45.902  37.620  27.954  1.00  0.00    -0.237 OA
ATOM     95  O   UNL A   1      47.968  36.432  27.322  1.00  0.00    -0.744 OA
ENDBRANCH  88  92
ENDBRANCH  62  85
ENDBRANCH  36  37
ENDBRANCH  28  31
ENDBRANCH  26  27
ENDBRANCH  25  26
ENDBRANCH   1  25
TORSDOF 17
ENDMDL
