MODEL 1
REMARK VINA RESULT:     -11.9      0.000      0.000
REMARK SMILES CC(C)[C@H](C)n1c(SCC(=O)NCCCNC(=O)c2ccc(-c3c4nc(c(-c5cc(S(=O)(=O)[O-])ccc5F)c5ccc([nH]5)c(-c5cc(S(=O)(=O)[O-])ccc5F)c5nc(c(-c6cc(S(=O)(=O)[O-])ccc6F)c6ccc3[nH]6)C=C5)C=C4)cc2)nc2cc(Br)cnc21
REMARK SMILES IDX 13 1 12 2 10 3 11 4 9 6 8 7 7 8 6 9 89 10 82 11 83 12 88 13
REMARK SMILES IDX 84 14 87 15 85 16 86 17 4 18 5 19 2 20 1 21 3 22 14 23 15 24
REMARK SMILES IDX 16 25 17 26 18 28 19 29 20 30 81 31 21 32 80 33 22 34 23 35
REMARK SMILES IDX 24 36 74 37 25 38 79 39 73 40 75 41 26 42 78 43 72 44 71 45
REMARK SMILES IDX 27 47 59 48 39 49 58 50 40 51 43 52 57 53 76 54 41 55 42 56
REMARK SMILES IDX 56 58 77 59 44 60 28 61 29 62 37 63 30 64 36 65 38 66 35 67
REMARK SMILES IDX 31 68 32 69 33 70 34 71 60 72 61 73 69 74 62 75 68 76 70 77
REMARK SMILES IDX 67 78 63 79 64 80 65 81 66 82 45 83 46 84 54 85 47 86 53 87
REMARK SMILES IDX 55 88 52 89 48 90 49 91 50 92 51 93
REMARK H PARENT 12 5 16 27 75 46 43 57
REMARK Flexibility Score: inf
ROOT
ATOM      1  C   UNL A   1      33.805  28.272  25.786  1.00  0.00     0.117 C 
ENDROOT
BRANCH   1   2
ATOM      2  N   UNL A   1      32.538  28.385  25.081  1.00  0.00    -0.355 N 
ATOM      3  C   UNL A   1      31.821  27.430  24.431  1.00  0.00     0.230 C 
ATOM      4  O   UNL A   1      30.632  27.676  24.201  1.00  0.00    -0.274 OA
ATOM      5  H   UNL A   1      32.142  29.286  25.072  1.00  0.00     0.163 HD
BRANCH   3   6
ATOM      6  C   UNL A   1      32.401  26.076  24.070  1.00  0.00     0.178 C 
BRANCH   6   7
ATOM      7  S   UNL A   1      32.453  24.862  25.377  1.00  0.00    -0.078 SA
BRANCH   7   8
ATOM      8  C   UNL A   1      33.835  23.816  25.383  1.00  0.00     0.171 A 
ATOM      9  N   UNL A   1      34.050  22.543  24.888  1.00  0.00    -0.301 N 
ATOM     10  C   UNL A   1      35.400  22.286  25.033  1.00  0.00     0.161 A 
ATOM     11  N   UNL A   1      34.941  24.308  25.919  1.00  0.00    -0.221 NA
ATOM     12  C   UNL A   1      35.914  23.376  25.714  1.00  0.00     0.110 A 
ATOM     13  N   UNL A   1      36.073  21.189  24.632  1.00  0.00    -0.235 NA
ATOM     14  C   UNL A   1      37.268  23.360  26.071  1.00  0.00     0.049 A 
ATOM     15  C   UNL A   1      37.374  21.200  25.012  1.00  0.00     0.129 A 
ATOM     16  C   UNL A   1      37.996  22.224  25.720  1.00  0.00     0.038 A 
ATOM     17  Br  UNL A   1      39.807  22.068  26.230  1.00  0.00    -0.049 Br
BRANCH   9  18
ATOM     18  C   UNL A   1      33.152  21.618  24.212  1.00  0.00     0.091 C 
ATOM     19  C   UNL A   1      32.254  20.916  25.242  1.00  0.00     0.032 C 
BRANCH  18  20
ATOM     20  C   UNL A   1      32.464  22.084  22.876  1.00  0.00     0.006 C 
ATOM     21  C   UNL A   1      33.310  23.056  22.048  1.00  0.00     0.009 C 
ATOM     22  C   UNL A   1      31.889  21.002  21.957  1.00  0.00     0.009 C 
ENDBRANCH  18  20
ENDBRANCH   9  18
ENDBRANCH   7   8
ENDBRANCH   6   7
ENDBRANCH   3   6
ENDBRANCH   1   2
BRANCH   1  23
ATOM     23  C   UNL A   1      34.066  29.388  26.799  1.00  0.00     0.042 C 
BRANCH  23  24
ATOM     24  C   UNL A   1      35.426  29.282  27.463  1.00  0.00     0.118 C 
BRANCH  24  25
ATOM     25  N   UNL A   1      35.464  29.766  28.843  1.00  0.00    -0.352 N 
ATOM     26  C   UNL A   1      36.446  29.551  29.794  1.00  0.00     0.251 C 
ATOM     27  H   UNL A   1      34.696  30.311  29.132  1.00  0.00     0.163 HD
ATOM     28  O   UNL A   1      36.193  29.748  30.987  1.00  0.00    -0.269 OA
BRANCH  26  29
ATOM     29  C   UNL A   1      37.781  29.074  29.373  1.00  0.00     0.039 A 
ATOM     30  C   UNL A   1      38.493  29.674  28.334  1.00  0.00     0.014 A 
ATOM     31  C   UNL A   1      38.337  27.998  30.060  1.00  0.00     0.014 A 
ATOM     32  C   UNL A   1      39.778  29.208  28.050  1.00  0.00     0.010 A 
ATOM     33  C   UNL A   1      39.668  27.706  29.944  1.00  0.00     0.010 A 
ATOM     34  C   UNL A   1      40.367  28.232  28.879  1.00  0.00    -0.014 A 
BRANCH  34  35
ATOM     35  C   UNL A   1      41.769  27.849  28.746  1.00  0.00     0.031 A 
ATOM     36  C   UNL A   1      41.928  26.655  27.889  1.00  0.00     0.074 A 
ATOM     37  C   UNL A   1      42.819  28.591  29.173  1.00  0.00     0.049 A 
ATOM     38  N   UNL A   1      42.030  25.433  28.291  1.00  0.00    -0.248 NA
ATOM     39  C   UNL A   1      41.691  26.781  26.440  1.00  0.00     0.031 C 
ATOM     40  C   UNL A   1      42.796  29.937  29.761  1.00  0.00     0.029 A 
ATOM     41  N   UNL A   1      44.159  28.325  29.109  1.00  0.00    -0.354 N 
ATOM     42  C   UNL A   1      42.240  24.695  27.135  1.00  0.00     0.074 A 
ATOM     43  C   UNL A   1      41.730  25.500  26.060  1.00  0.00     0.031 C 
ATOM     44  C   UNL A   1      44.048  30.450  29.796  1.00  0.00     0.029 A 
ATOM     45  C   UNL A   1      44.986  29.411  29.410  1.00  0.00     0.049 A 
ATOM     46  H   UNL A   1      44.512  27.439  28.869  1.00  0.00     0.167 HD
ATOM     47  C   UNL A   1      43.163  23.694  27.146  1.00  0.00     0.034 A 
ATOM     48  C   UNL A   1      46.349  29.440  29.410  1.00  0.00     0.034 A 
ATOM     49  C   UNL A   1      43.557  23.397  28.507  1.00  0.00     0.049 A 
ATOM     50  C   UNL A   1      46.778  28.047  29.667  1.00  0.00     0.074 A 
ATOM     51  C   UNL A   1      42.992  22.793  29.610  1.00  0.00     0.029 A 
ATOM     52  N   UNL A   1      44.581  24.191  28.959  1.00  0.00    -0.354 N 
ATOM     53  N   UNL A   1      46.501  27.413  30.775  1.00  0.00    -0.248 NA
ATOM     54  C   UNL A   1      47.169  27.206  28.543  1.00  0.00     0.031 C 
ATOM     55  C   UNL A   1      43.609  23.390  30.752  1.00  0.00     0.029 A 
ATOM     56  C   UNL A   1      44.581  24.294  30.325  1.00  0.00     0.049 A 
ATOM     57  H   UNL A   1      45.237  24.634  28.374  1.00  0.00     0.167 HD
ATOM     58  C   UNL A   1      46.262  26.114  30.373  1.00  0.00     0.074 A 
ATOM     59  C   UNL A   1      46.849  26.008  29.041  1.00  0.00     0.031 C 
ATOM     60  C   UNL A   1      45.328  25.343  30.998  1.00  0.00     0.034 A 
BRANCH  47  61
ATOM     61  C   UNL A   1      44.091  23.355  25.994  1.00  0.00     0.023 A 
ATOM     62  C   UNL A   1      44.108  22.017  25.549  1.00  0.00     0.031 A 
ATOM     63  C   UNL A   1      45.144  24.170  25.515  1.00  0.00     0.131 A 
ATOM     64  C   UNL A   1      45.148  21.536  24.733  1.00  0.00     0.055 A 
ATOM     65  C   UNL A   1      46.150  23.699  24.670  1.00  0.00     0.041 A 
ATOM     66  F   UNL A   1      45.320  25.437  25.907  1.00  0.00    -0.206 F 
ATOM     67  C   UNL A   1      46.171  22.371  24.291  1.00  0.00     0.022 A 
BRANCH  64  68
ATOM     68  S   UNL A   1      45.206  19.770  24.338  1.00  0.00     0.124 S 
ATOM     69  O   UNL A   1      44.380  19.198  25.394  1.00  0.00    -0.237 OA
ATOM     70  O   UNL A   1      44.643  19.744  22.992  1.00  0.00    -0.237 OA
ATOM     71  O   UNL A   1      46.631  19.452  24.417  1.00  0.00    -0.744 OA
ENDBRANCH  64  68
ENDBRANCH  47  61
BRANCH  48  72
ATOM     72  C   UNL A   1      47.273  30.493  28.888  1.00  0.00     0.023 A 
ATOM     73  C   UNL A   1      46.908  31.368  27.834  1.00  0.00     0.031 A 
ATOM     74  C   UNL A   1      48.427  30.845  29.620  1.00  0.00     0.131 A 
ATOM     75  C   UNL A   1      47.655  32.545  27.580  1.00  0.00     0.055 A 
ATOM     76  C   UNL A   1      49.156  32.014  29.370  1.00  0.00     0.041 A 
ATOM     77  F   UNL A   1      48.837  30.112  30.666  1.00  0.00    -0.206 F 
ATOM     78  C   UNL A   1      48.762  32.878  28.361  1.00  0.00     0.022 A 
BRANCH  75  79
ATOM     79  S   UNL A   1      47.126  33.740  26.303  1.00  0.00     0.124 S 
ATOM     80  O   UNL A   1      45.941  33.093  25.752  1.00  0.00    -0.237 OA
ATOM     81  O   UNL A   1      46.900  34.956  27.076  1.00  0.00    -0.237 OA
ATOM     82  O   UNL A   1      48.273  33.797  25.395  1.00  0.00    -0.744 OA
ENDBRANCH  75  79
ENDBRANCH  48  72
BRANCH  60  83
ATOM     83  C   UNL A   1      45.007  25.632  32.442  1.00  0.00     0.023 A 
ATOM     84  C   UNL A   1      43.856  26.291  32.927  1.00  0.00     0.031 A 
ATOM     85  C   UNL A   1      45.915  25.113  33.381  1.00  0.00     0.131 A 
ATOM     86  C   UNL A   1      43.651  26.393  34.321  1.00  0.00     0.055 A 
ATOM     87  C   UNL A   1      45.699  25.197  34.752  1.00  0.00     0.041 A 
ATOM     88  F   UNL A   1      47.023  24.472  32.971  1.00  0.00    -0.206 F 
ATOM     89  C   UNL A   1      44.562  25.838  35.228  1.00  0.00     0.022 A 
BRANCH  86  90
ATOM     90  S   UNL A   1      42.177  27.234  34.990  1.00  0.00     0.124 S 
ATOM     91  O   UNL A   1      41.335  26.130  35.434  1.00  0.00    -0.237 OA
ATOM     92  O   UNL A   1      42.736  28.077  36.043  1.00  0.00    -0.237 OA
ATOM     93  O   UNL A   1      41.651  27.973  33.840  1.00  0.00    -0.744 OA
ENDBRANCH  86  90
ENDBRANCH  60  83
ENDBRANCH  34  35
ENDBRANCH  26  29
ENDBRANCH  24  25
ENDBRANCH  23  24
ENDBRANCH   1  23
TORSDOF 17
ENDMDL
MODEL 2
REMARK VINA RESULT:     -11.7      4.228      5.571
REMARK SMILES CC(C)[C@H](C)n1c(SCC(=O)NCCCNC(=O)c2ccc(-c3c4nc(c(-c5cc(S(=O)(=O)[O-])ccc5F)c5ccc([nH]5)c(-c5cc(S(=O)(=O)[O-])ccc5F)c5nc(c(-c6cc(S(=O)(=O)[O-])ccc6F)c6ccc3[nH]6)C=C5)C=C4)cc2)nc2cc(Br)cnc21
REMARK SMILES IDX 13 1 12 2 10 3 11 4 9 6 8 7 7 8 6 9 89 10 82 11 83 12 88 13
REMARK SMILES IDX 84 14 87 15 85 16 86 17 4 18 5 19 2 20 1 21 3 22 14 23 15 24
REMARK SMILES IDX 16 25 17 26 18 28 19 29 20 30 81 31 21 32 80 33 22 34 23 35
REMARK SMILES IDX 24 36 74 37 25 38 79 39 73 40 75 41 26 42 78 43 72 44 71 45
REMARK SMILES IDX 27 47 59 48 39 49 58 50 40 51 43 52 57 53 76 54 41 55 42 56
REMARK SMILES IDX 56 58 77 59 44 60 28 61 29 62 37 63 30 64 36 65 38 66 35 67
REMARK SMILES IDX 31 68 32 69 33 70 34 71 60 72 61 73 69 74 62 75 68 76 70 77
REMARK SMILES IDX 67 78 63 79 64 80 65 81 66 82 45 83 46 84 54 85 47 86 53 87
REMARK SMILES IDX 55 88 52 89 48 90 49 91 50 92 51 93
REMARK H PARENT 12 5 16 27 75 46 43 57
REMARK Flexibility Score: inf
ROOT
ATOM      1  C   UNL A   1      31.715  29.915  25.870  1.00  0.00     0.117 C 
ENDROOT
BRANCH   1   2
ATOM      2  N   UNL A   1      32.403  29.750  24.600  1.00  0.00    -0.355 N 
ATOM      3  C   UNL A   1      33.218  28.746  24.180  1.00  0.00     0.230 C 
ATOM      4  O   UNL A   1      33.415  28.649  22.963  1.00  0.00    -0.274 OA
ATOM      5  H   UNL A   1      32.259  30.474  23.948  1.00  0.00     0.163 HD
BRANCH   3   6
ATOM      6  C   UNL A   1      33.805  27.719  25.128  1.00  0.00     0.178 C 
BRANCH   6   7
ATOM      7  S   UNL A   1      32.986  26.134  25.183  1.00  0.00    -0.078 SA
BRANCH   7   8
ATOM      8  C   UNL A   1      34.024  24.750  25.307  1.00  0.00     0.171 A 
ATOM      9  N   UNL A   1      33.819  23.401  25.086  1.00  0.00    -0.301 N 
ATOM     10  C   UNL A   1      35.057  22.794  25.177  1.00  0.00     0.161 A 
ATOM     11  N   UNL A   1      35.284  24.990  25.635  1.00  0.00    -0.221 NA
ATOM     12  C   UNL A   1      35.933  23.794  25.561  1.00  0.00     0.110 A 
ATOM     13  N   UNL A   1      35.348  21.494  24.972  1.00  0.00    -0.235 NA
ATOM     14  C   UNL A   1      37.268  23.451  25.805  1.00  0.00     0.049 A 
ATOM     15  C   UNL A   1      36.644  21.197  25.237  1.00  0.00     0.129 A 
ATOM     16  C   UNL A   1      37.610  22.108  25.653  1.00  0.00     0.038 A 
ATOM     17  Br  UNL A   1      39.364  21.530  26.040  1.00  0.00    -0.049 Br
BRANCH   9  18
ATOM     18  C   UNL A   1      32.621  22.669  24.700  1.00  0.00     0.091 C 
ATOM     19  C   UNL A   1      31.616  22.663  25.863  1.00  0.00     0.032 C 
BRANCH  18  20
ATOM     20  C   UNL A   1      32.033  22.900  23.259  1.00  0.00     0.006 C 
ATOM     21  C   UNL A   1      31.940  21.625  22.415  1.00  0.00     0.009 C 
ATOM     22  C   UNL A   1      30.724  23.684  23.142  1.00  0.00     0.009 C 
ENDBRANCH  18  20
ENDBRANCH   9  18
ENDBRANCH   7   8
ENDBRANCH   6   7
ENDBRANCH   3   6
ENDBRANCH   1   2
BRANCH   1  23
ATOM     23  C   UNL A   1      31.419  31.368  26.245  1.00  0.00     0.042 C 
BRANCH  23  24
ATOM     24  C   UNL A   1      32.478  31.978  27.141  1.00  0.00     0.118 C 
BRANCH  24  25
ATOM     25  N   UNL A   1      32.245  33.382  27.484  1.00  0.00    -0.352 N 
ATOM     26  C   UNL A   1      32.964  34.175  28.362  1.00  0.00     0.251 C 
ATOM     27  H   UNL A   1      31.483  33.815  27.036  1.00  0.00     0.163 HD
ATOM     28  O   UNL A   1      32.465  35.224  28.782  1.00  0.00    -0.269 OA
BRANCH  26  29
ATOM     29  C   UNL A   1      34.311  33.750  28.797  1.00  0.00     0.039 A 
ATOM     30  C   UNL A   1      34.520  33.012  29.962  1.00  0.00     0.014 A 
ATOM     31  C   UNL A   1      35.396  34.091  27.992  1.00  0.00     0.014 A 
ATOM     32  C   UNL A   1      35.816  32.588  30.260  1.00  0.00     0.010 A 
ATOM     33  C   UNL A   1      36.607  33.479  28.154  1.00  0.00     0.010 A 
ATOM     34  C   UNL A   1      36.855  32.810  29.334  1.00  0.00    -0.014 A 
BRANCH  34  35
ATOM     35  C   UNL A   1      38.180  32.224  29.503  1.00  0.00     0.031 A 
ATOM     36  C   UNL A   1      38.201  30.801  29.104  1.00  0.00     0.074 A 
ATOM     37  C   UNL A   1      39.306  32.921  29.792  1.00  0.00     0.049 A 
ATOM     38  N   UNL A   1      38.072  29.784  29.887  1.00  0.00    -0.248 NA
ATOM     39  C   UNL A   1      38.091  30.460  27.674  1.00  0.00     0.031 C 
ATOM     40  C   UNL A   1      39.463  34.377  29.907  1.00  0.00     0.029 A 
ATOM     41  N   UNL A   1      40.584  32.475  29.981  1.00  0.00    -0.354 N 
ATOM     42  C   UNL A   1      38.238  28.678  29.066  1.00  0.00     0.074 A 
ATOM     43  C   UNL A   1      37.945  29.133  27.736  1.00  0.00     0.031 C 
ATOM     44  C   UNL A   1      40.777  34.703  29.926  1.00  0.00     0.029 A 
ATOM     45  C   UNL A   1      41.556  33.480  30.013  1.00  0.00     0.049 A 
ATOM     46  H   UNL A   1      40.803  31.521  30.084  1.00  0.00     0.167 HD
ATOM     47  C   UNL A   1      38.981  27.627  29.511  1.00  0.00     0.034 A 
ATOM     48  C   UNL A   1      42.901  33.327  30.169  1.00  0.00     0.034 A 
ATOM     49  C   UNL A   1      39.224  27.758  30.933  1.00  0.00     0.049 A 
ATOM     50  C   UNL A   1      43.075  32.059  30.912  1.00  0.00     0.074 A 
ATOM     51  C   UNL A   1      38.490  27.642  32.094  1.00  0.00     0.029 A 
ATOM     52  N   UNL A   1      40.330  28.516  31.226  1.00  0.00    -0.354 N 
ATOM     53  N   UNL A   1      42.621  31.879  32.123  1.00  0.00    -0.248 NA
ATOM     54  C   UNL A   1      43.401  30.844  30.176  1.00  0.00     0.031 C 
ATOM     55  C   UNL A   1      39.115  28.502  33.049  1.00  0.00     0.029 A 
ATOM     56  C   UNL A   1      40.250  29.073  32.475  1.00  0.00     0.049 A 
ATOM     57  H   UNL A   1      41.089  28.645  30.613  1.00  0.00     0.167 HD
ATOM     58  C   UNL A   1      42.200  30.564  32.136  1.00  0.00     0.074 A 
ATOM     59  C   UNL A   1      42.854  29.938  30.991  1.00  0.00     0.031 C 
ATOM     60  C   UNL A   1      41.110  30.179  32.859  1.00  0.00     0.034 A 
BRANCH  47  61
ATOM     61  C   UNL A   1      39.920  26.800  28.652  1.00  0.00     0.023 A 
ATOM     62  C   UNL A   1      40.963  27.483  27.993  1.00  0.00     0.031 A 
ATOM     63  C   UNL A   1      39.686  25.475  28.215  1.00  0.00     0.131 A 
ATOM     64  C   UNL A   1      41.668  26.883  26.934  1.00  0.00     0.055 A 
ATOM     65  C   UNL A   1      40.418  24.869  27.192  1.00  0.00     0.041 A 
ATOM     66  F   UNL A   1      38.682  24.722  28.677  1.00  0.00    -0.206 F 
ATOM     67  C   UNL A   1      41.401  25.578  26.529  1.00  0.00     0.022 A 
BRANCH  64  68
ATOM     68  S   UNL A   1      42.877  27.871  26.017  1.00  0.00     0.124 S 
ATOM     69  O   UNL A   1      42.636  29.208  26.544  1.00  0.00    -0.237 OA
ATOM     70  O   UNL A   1      44.136  27.241  26.404  1.00  0.00    -0.237 OA
ATOM     71  O   UNL A   1      42.489  27.669  24.621  1.00  0.00    -0.744 OA
ENDBRANCH  64  68
ENDBRANCH  47  61
BRANCH  48  72
ATOM     72  C   UNL A   1      44.021  34.011  29.452  1.00  0.00     0.023 A 
ATOM     73  C   UNL A   1      44.625  33.462  28.293  1.00  0.00     0.031 A 
ATOM     74  C   UNL A   1      44.316  35.362  29.729  1.00  0.00     0.131 A 
ATOM     75  C   UNL A   1      45.444  34.262  27.457  1.00  0.00     0.055 A 
ATOM     76  C   UNL A   1      45.118  36.150  28.894  1.00  0.00     0.041 A 
ATOM     77  F   UNL A   1      43.762  35.994  30.775  1.00  0.00    -0.206 F 
ATOM     78  C   UNL A   1      45.670  35.607  27.745  1.00  0.00     0.022 A 
BRANCH  75  79
ATOM     79  S   UNL A   1      46.132  33.599  25.899  1.00  0.00     0.124 S 
ATOM     80  O   UNL A   1      47.427  33.086  26.331  1.00  0.00    -0.237 OA
ATOM     81  O   UNL A   1      45.140  32.606  25.507  1.00  0.00    -0.237 OA
ATOM     82  O   UNL A   1      46.197  34.775  25.030  1.00  0.00    -0.744 OA
ENDBRANCH  75  79
ENDBRANCH  48  72
BRANCH  60  83
ATOM     83  C   UNL A   1      40.739  30.978  34.081  1.00  0.00     0.023 A 
ATOM     84  C   UNL A   1      39.716  31.947  34.169  1.00  0.00     0.031 A 
ATOM     85  C   UNL A   1      41.440  30.650  35.255  1.00  0.00     0.131 A 
ATOM     86  C   UNL A   1      39.423  32.536  35.419  1.00  0.00     0.055 A 
ATOM     87  C   UNL A   1      41.135  31.217  36.487  1.00  0.00     0.041 A 
ATOM     88  F   UNL A   1      42.419  29.730  35.226  1.00  0.00    -0.206 F 
ATOM     89  C   UNL A   1      40.122  32.164  36.574  1.00  0.00     0.022 A 
BRANCH  86  90
ATOM     90  S   UNL A   1      38.108  33.790  35.577  1.00  0.00     0.124 S 
ATOM     91  O   UNL A   1      38.379  34.397  36.874  1.00  0.00    -0.237 OA
ATOM     92  O   UNL A   1      38.331  34.640  34.412  1.00  0.00    -0.237 OA
ATOM     93  O   UNL A   1      36.874  33.002  35.522  1.00  0.00    -0.744 OA
ENDBRANCH  86  90
ENDBRANCH  60  83
ENDBRANCH  34  35
ENDBRANCH  26  29
ENDBRANCH  24  25
ENDBRANCH  23  24
ENDBRANCH   1  23
TORSDOF 17
ENDMDL
MODEL 3
REMARK VINA RESULT:     -11.6      8.602     15.399
REMARK SMILES CC(C)[C@H](C)n1c(SCC(=O)NCCCNC(=O)c2ccc(-c3c4nc(c(-c5cc(S(=O)(=O)[O-])ccc5F)c5ccc([nH]5)c(-c5cc(S(=O)(=O)[O-])ccc5F)c5nc(c(-c6cc(S(=O)(=O)[O-])ccc6F)c6ccc3[nH]6)C=C5)C=C4)cc2)nc2cc(Br)cnc21
REMARK SMILES IDX 13 1 12 2 10 3 11 4 9 6 8 7 7 8 6 9 89 10 82 11 83 12 88 13
REMARK SMILES IDX 84 14 87 15 85 16 86 17 4 18 5 19 2 20 1 21 3 22 14 23 15 24
REMARK SMILES IDX 16 25 17 26 18 28 19 29 20 30 81 31 21 32 80 33 22 34 23 35
REMARK SMILES IDX 24 36 74 37 25 38 79 39 73 40 75 41 26 42 78 43 72 44 71 45
REMARK SMILES IDX 27 47 59 48 39 49 58 50 40 51 43 52 57 53 76 54 41 55 42 56
REMARK SMILES IDX 56 58 77 59 44 60 28 61 29 62 37 63 30 64 36 65 38 66 35 67
REMARK SMILES IDX 31 68 32 69 33 70 34 71 60 72 61 73 69 74 62 75 68 76 70 77
REMARK SMILES IDX 67 78 63 79 64 80 65 81 66 82 45 83 46 84 54 85 47 86 53 87
REMARK SMILES IDX 55 88 52 89 48 90 49 91 50 92 51 93
REMARK H PARENT 12 5 16 27 75 46 43 57
REMARK Flexibility Score: inf
ROOT
ATOM      1  C   UNL A   1      45.217  39.236  26.633  1.00  0.00     0.117 C 
ENDROOT
BRANCH   1   2
ATOM      2  N   UNL A   1      43.874  39.751  26.419  1.00  0.00    -0.355 N 
ATOM      3  C   UNL A   1      43.477  40.950  25.914  1.00  0.00     0.230 C 
ATOM      4  O   UNL A   1      42.310  41.036  25.515  1.00  0.00    -0.274 OA
ATOM      5  H   UNL A   1      43.145  39.143  26.679  1.00  0.00     0.163 HD
BRANCH   3   6
ATOM      6  C   UNL A   1      44.424  42.123  25.752  1.00  0.00     0.178 C 
BRANCH   6   7
ATOM      7  S   UNL A   1      45.459  42.109  24.297  1.00  0.00    -0.078 SA
BRANCH   7   8
ATOM      8  C   UNL A   1      44.794  42.875  22.890  1.00  0.00     0.171 A 
ATOM      9  N   UNL A   1      45.333  43.723  21.941  1.00  0.00    -0.301 N 
ATOM     10  C   UNL A   1      44.376  43.871  20.955  1.00  0.00     0.161 A 
ATOM     11  N   UNL A   1      43.534  42.584  22.604  1.00  0.00    -0.221 NA
ATOM     12  C   UNL A   1      43.261  43.193  21.416  1.00  0.00     0.110 A 
ATOM     13  N   UNL A   1      44.487  44.562  19.803  1.00  0.00    -0.235 NA
ATOM     14  C   UNL A   1      42.093  43.232  20.645  1.00  0.00     0.049 A 
ATOM     15  C   UNL A   1      43.332  44.594  19.095  1.00  0.00     0.129 A 
ATOM     16  C   UNL A   1      42.143  43.974  19.466  1.00  0.00     0.038 A 
ATOM     17  Br  UNL A   1      40.597  44.160  18.400  1.00  0.00    -0.049 Br
BRANCH   9  18
ATOM     18  C   UNL A   1      46.664  44.301  21.825  1.00  0.00     0.091 C 
ATOM     19  C   UNL A   1      47.031  45.032  23.125  1.00  0.00     0.032 C 
BRANCH  18  20
ATOM     20  C   UNL A   1      47.798  43.442  21.153  1.00  0.00     0.006 C 
ATOM     21  C   UNL A   1      49.210  43.795  21.630  1.00  0.00     0.009 C 
ATOM     22  C   UNL A   1      47.629  41.921  21.147  1.00  0.00     0.009 C 
ENDBRANCH  18  20
ENDBRANCH   9  18
ENDBRANCH   7   8
ENDBRANCH   6   7
ENDBRANCH   3   6
ENDBRANCH   1   2
BRANCH   1  23
ATOM     23  C   UNL A   1      45.482  38.734  28.053  1.00  0.00     0.042 C 
BRANCH  23  24
ATOM     24  C   UNL A   1      46.174  37.385  28.087  1.00  0.00     0.118 C 
BRANCH  24  25
ATOM     25  N   UNL A   1      45.898  36.534  26.930  1.00  0.00    -0.352 N 
ATOM     26  C   UNL A   1      45.073  35.424  26.866  1.00  0.00     0.251 C 
ATOM     27  H   UNL A   1      46.355  36.781  26.093  1.00  0.00     0.163 HD
ATOM     28  O   UNL A   1      45.188  34.635  25.923  1.00  0.00    -0.269 OA
BRANCH  26  29
ATOM     29  C   UNL A   1      44.079  35.189  27.934  1.00  0.00     0.039 A 
ATOM     30  C   UNL A   1      43.016  36.063  28.168  1.00  0.00     0.014 A 
ATOM     31  C   UNL A   1      44.213  34.042  28.712  1.00  0.00     0.014 A 
ATOM     32  C   UNL A   1      42.080  35.727  29.147  1.00  0.00     0.010 A 
ATOM     33  C   UNL A   1      43.180  33.600  29.492  1.00  0.00     0.010 A 
ATOM     34  C   UNL A   1      42.160  34.477  29.793  1.00  0.00    -0.014 A 
BRANCH  34  35
ATOM     35  C   UNL A   1      41.106  33.996  30.680  1.00  0.00     0.031 A 
ATOM     36  C   UNL A   1      41.550  33.973  32.090  1.00  0.00     0.074 A 
ATOM     37  C   UNL A   1      39.819  33.786  30.314  1.00  0.00     0.049 A 
ATOM     38  N   UNL A   1      42.023  32.956  32.728  1.00  0.00    -0.248 NA
ATOM     39  C   UNL A   1      41.741  35.252  32.798  1.00  0.00     0.031 C 
ATOM     40  C   UNL A   1      39.191  34.068  29.016  1.00  0.00     0.029 A 
ATOM     41  N   UNL A   1      38.764  33.331  31.054  1.00  0.00    -0.354 N 
ATOM     42  C   UNL A   1      42.217  33.407  34.025  1.00  0.00     0.074 A 
ATOM     43  C   UNL A   1      42.320  34.836  33.930  1.00  0.00     0.031 C 
ATOM     44  C   UNL A   1      37.844  33.988  29.124  1.00  0.00     0.029 A 
ATOM     45  C   UNL A   1      37.515  33.470  30.440  1.00  0.00     0.049 A 
ATOM     46  H   UNL A   1      38.875  32.938  31.949  1.00  0.00     0.167 HD
ATOM     47  C   UNL A   1      41.872  32.600  35.066  1.00  0.00     0.034 A 
ATOM     48  C   UNL A   1      36.300  33.121  30.947  1.00  0.00     0.034 A 
ATOM     49  C   UNL A   1      41.625  31.255  34.591  1.00  0.00     0.049 A 
ATOM     50  C   UNL A   1      36.568  32.036  31.918  1.00  0.00     0.074 A 
ATOM     51  C   UNL A   1      42.376  30.202  34.115  1.00  0.00     0.029 A 
ATOM     52  N   UNL A   1      40.336  31.060  34.162  1.00  0.00    -0.354 N 
ATOM     53  N   UNL A   1      37.078  30.885  31.570  1.00  0.00    -0.248 NA
ATOM     54  C   UNL A   1      36.649  32.357  33.337  1.00  0.00     0.031 C 
ATOM     55  C   UNL A   1      41.519  29.462  33.243  1.00  0.00     0.029 A 
ATOM     56  C   UNL A   1      40.250  30.037  33.256  1.00  0.00     0.049 A 
ATOM     57  H   UNL A   1      39.566  31.591  34.468  1.00  0.00     0.167 HD
ATOM     58  C   UNL A   1      37.910  30.551  32.620  1.00  0.00     0.074 A 
ATOM     59  C   UNL A   1      37.479  31.389  33.735  1.00  0.00     0.031 C 
ATOM     60  C   UNL A   1      39.079  29.882  32.409  1.00  0.00     0.034 A 
BRANCH  47  61
ATOM     61  C   UNL A   1      41.244  33.076  36.364  1.00  0.00     0.023 A 
ATOM     62  C   UNL A   1      39.960  32.585  36.679  1.00  0.00     0.031 A 
ATOM     63  C   UNL A   1      41.685  34.174  37.139  1.00  0.00     0.131 A 
ATOM     64  C   UNL A   1      39.168  33.204  37.663  1.00  0.00     0.055 A 
ATOM     65  C   UNL A   1      40.912  34.758  38.145  1.00  0.00     0.041 A 
ATOM     66  F   UNL A   1      42.841  34.809  36.913  1.00  0.00    -0.206 F 
ATOM     67  C   UNL A   1      39.637  34.289  38.398  1.00  0.00     0.022 A 
BRANCH  64  68
ATOM     68  S   UNL A   1      37.465  32.636  37.900  1.00  0.00     0.124 S 
ATOM     69  O   UNL A   1      37.215  33.004  39.288  1.00  0.00    -0.237 OA
ATOM     70  O   UNL A   1      36.748  33.406  36.888  1.00  0.00    -0.237 OA
ATOM     71  O   UNL A   1      37.548  31.200  37.639  1.00  0.00    -0.744 OA
ENDBRANCH  64  68
ENDBRANCH  47  61
BRANCH  48  72
ATOM     72  C   UNL A   1      35.004  33.866  30.897  1.00  0.00     0.023 A 
ATOM     73  C   UNL A   1      34.636  34.814  31.885  1.00  0.00     0.031 A 
ATOM     74  C   UNL A   1      34.236  33.869  29.713  1.00  0.00     0.131 A 
ATOM     75  C   UNL A   1      33.578  35.728  31.651  1.00  0.00     0.055 A 
ATOM     76  C   UNL A   1      33.199  34.780  29.485  1.00  0.00     0.041 A 
ATOM     77  F   UNL A   1      34.526  33.044  28.695  1.00  0.00    -0.206 F 
ATOM     78  C   UNL A   1      32.877  35.725  30.445  1.00  0.00     0.022 A 
BRANCH  75  79
ATOM     79  S   UNL A   1      33.172  37.031  32.867  1.00  0.00     0.124 S 
ATOM     80  O   UNL A   1      34.133  36.764  33.932  1.00  0.00    -0.237 OA
ATOM     81  O   UNL A   1      33.375  38.256  32.104  1.00  0.00    -0.237 OA
ATOM     82  O   UNL A   1      31.778  36.749  33.213  1.00  0.00    -0.744 OA
ENDBRANCH  75  79
ENDBRANCH  48  72
BRANCH  60  83
ATOM     83  C   UNL A   1      39.186  28.986  31.202  1.00  0.00     0.023 A 
ATOM     84  C   UNL A   1      39.814  29.303  29.978  1.00  0.00     0.031 A 
ATOM     85  C   UNL A   1      38.676  27.686  31.365  1.00  0.00     0.131 A 
ATOM     86  C   UNL A   1      39.922  28.312  28.976  1.00  0.00     0.055 A 
ATOM     87  C   UNL A   1      38.802  26.709  30.384  1.00  0.00     0.041 A 
ATOM     88  F   UNL A   1      38.074  27.333  32.514  1.00  0.00    -0.206 F 
ATOM     89  C   UNL A   1      39.428  27.019  29.184  1.00  0.00     0.022 A 
BRANCH  86  90
ATOM     90  S   UNL A   1      40.728  28.679  27.382  1.00  0.00     0.124 S 
ATOM     91  O   UNL A   1      39.675  29.336  26.618  1.00  0.00    -0.237 OA
ATOM     92  O   UNL A   1      41.854  29.520  27.776  1.00  0.00    -0.237 OA
ATOM     93  O   UNL A   1      41.109  27.358  26.878  1.00  0.00    -0.744 OA
ENDBRANCH  86  90
ENDBRANCH  60  83
ENDBRANCH  34  35
ENDBRANCH  26  29
ENDBRANCH  24  25
ENDBRANCH  23  24
ENDBRANCH   1  23
TORSDOF 17
ENDMDL
