MODEL 1
REMARK VINA RESULT:     -11.9      0.000      0.000
REMARK SMILES Cc1onc(-c2cccc(Br)c2)c1C(=O)NCCCNC(=O)c1ccc(-c2c3nc(c(-c4cc(S(=O)(=O)[O-])ccc4F)c4ccc([nH]4)c(-c4cc(S(=O)(=O)[O-])ccc4F)c4nc(c(-c5cc(S(=O)(=O)[O-])ccc5F)c5ccc2[nH]5)C=C4)C=C3)cc1
REMARK SMILES IDX 19 1 18 2 17 3 16 4 14 5 15 6 13 8 1 9 2 10 3 11 4 12 5 13
REMARK SMILES IDX 6 14 7 15 12 16 8 17 10 18 9 19 11 20 20 21 21 22 22 24
REMARK SMILES IDX 23 25 24 26 85 27 25 28 84 29 26 30 27 31 28 32 78 33 29 34
REMARK SMILES IDX 83 35 77 36 79 37 30 38 82 39 76 40 75 41 31 43 63 44 43 45
REMARK SMILES IDX 62 46 44 47 47 48 61 49 80 50 45 51 46 52 60 54 81 55 48 56
REMARK SMILES IDX 32 57 33 58 41 59 34 60 40 61 42 62 39 63 35 64 36 65 37 66
REMARK SMILES IDX 38 67 64 68 65 69 73 70 66 71 72 72 74 73 71 74 67 75 68 76
REMARK SMILES IDX 69 77 70 78 49 79 50 80 58 81 51 82 57 83 59 84 56 85 52 86
REMARK SMILES IDX 53 87 54 88 55 89
REMARK H PARENT 16 7 20 23 79 42 47 53
REMARK Flexibility Score: inf
ROOT
ATOM      1  C   UNL A   1      33.941  29.219  26.106  1.00  0.00     0.118 C 
ENDROOT
BRANCH   1   2
ATOM      2  C   UNL A   1      33.252  28.196  27.007  1.00  0.00     0.042 C 
BRANCH   2   3
ATOM      3  C   UNL A   1      31.763  28.461  27.220  1.00  0.00     0.118 C 
BRANCH   3   4
ATOM      4  N   UNL A   1      30.987  27.276  26.948  1.00  0.00    -0.352 N 
ATOM      5  C   UNL A   1      30.809  26.461  25.869  1.00  0.00     0.257 C 
ATOM      6  O   UNL A   1      30.036  25.524  26.104  1.00  0.00    -0.269 OA
ATOM      7  H   UNL A   1      30.461  26.986  27.727  1.00  0.00     0.163 HD
BRANCH   5   8
ATOM      8  C   UNL A   1      31.461  26.587  24.570  1.00  0.00     0.110 A 
ATOM      9  C   UNL A   1      33.901  25.462  24.484  1.00  0.00     0.092 C 
ATOM     10  C   UNL A   1      32.676  26.158  24.048  1.00  0.00     0.147 A 
ATOM     11  O   UNL A   1      32.757  26.513  22.735  1.00  0.00    -0.360 OA
ATOM     12  N   UNL A   1      31.656  27.223  22.362  1.00  0.00    -0.079 NA
ATOM     13  C   UNL A   1      30.890  27.319  23.454  1.00  0.00     0.126 A 
BRANCH  13  14
ATOM     14  C   UNL A   1      29.653  28.090  23.372  1.00  0.00     0.006 A 
ATOM     15  C   UNL A   1      28.408  27.457  23.502  1.00  0.00     0.010 A 
ATOM     16  C   UNL A   1      29.705  29.478  23.201  1.00  0.00     0.026 A 
ATOM     17  C   UNL A   1      27.227  28.197  23.418  1.00  0.00     0.002 A 
ATOM     18  C   UNL A   1      28.521  30.211  23.126  1.00  0.00     0.018 A 
ATOM     19  C   UNL A   1      27.282  29.577  23.227  1.00  0.00     0.016 A 
ATOM     20  Br  UNL A   1      28.595  32.085  22.886  1.00  0.00    -0.051 Br
ENDBRANCH  13  14
ENDBRANCH   5   8
ENDBRANCH   3   4
ENDBRANCH   2   3
ENDBRANCH   1   2
BRANCH   1  21
ATOM     21  N   UNL A   1      33.798  30.572  26.616  1.00  0.00    -0.352 N 
ATOM     22  C   UNL A   1      34.471  31.211  27.628  1.00  0.00     0.251 C 
ATOM     23  H   UNL A   1      33.111  31.116  26.166  1.00  0.00     0.163 HD
ATOM     24  O   UNL A   1      34.008  32.259  28.076  1.00  0.00    -0.269 OA
BRANCH  22  25
ATOM     25  C   UNL A   1      35.725  30.654  28.183  1.00  0.00     0.039 A 
ATOM     26  C   UNL A   1      35.657  29.845  29.322  1.00  0.00     0.014 A 
ATOM     27  C   UNL A   1      36.969  30.967  27.626  1.00  0.00     0.014 A 
ATOM     28  C   UNL A   1      36.827  29.314  29.871  1.00  0.00     0.010 A 
ATOM     29  C   UNL A   1      38.127  30.377  28.131  1.00  0.00     0.010 A 
ATOM     30  C   UNL A   1      38.070  29.551  29.262  1.00  0.00    -0.014 A 
BRANCH  30  31
ATOM     31  C   UNL A   1      39.320  28.956  29.806  1.00  0.00     0.031 A 
ATOM     32  C   UNL A   1      39.992  29.572  31.005  1.00  0.00     0.074 A 
ATOM     33  C   UNL A   1      39.878  27.900  29.183  1.00  0.00     0.049 A 
ATOM     34  N   UNL A   1      41.124  29.251  31.576  1.00  0.00    -0.248 NA
ATOM     35  C   UNL A   1      39.313  30.722  31.621  1.00  0.00     0.031 C 
ATOM     36  C   UNL A   1      39.336  27.240  27.992  1.00  0.00     0.029 A 
ATOM     37  N   UNL A   1      41.025  27.198  29.455  1.00  0.00    -0.354 N 
ATOM     38  C   UNL A   1      41.303  30.167  32.608  1.00  0.00     0.074 A 
ATOM     39  C   UNL A   1      40.191  31.091  32.542  1.00  0.00     0.031 C 
ATOM     40  C   UNL A   1      40.136  26.217  27.654  1.00  0.00     0.029 A 
ATOM     41  C   UNL A   1      41.272  26.175  28.569  1.00  0.00     0.049 A 
ATOM     42  H   UNL A   1      41.617  27.409  30.213  1.00  0.00     0.167 HD
ATOM     43  C   UNL A   1      42.291  30.218  33.536  1.00  0.00     0.034 A 
ATOM     44  C   UNL A   1      42.303  25.310  28.495  1.00  0.00     0.034 A 
ATOM     45  C   UNL A   1      43.384  29.277  33.593  1.00  0.00     0.049 A 
ATOM     46  C   UNL A   1      43.400  25.398  29.526  1.00  0.00     0.074 A 
ATOM     47  C   UNL A   1      44.408  29.198  34.521  1.00  0.00     0.029 A 
ATOM     48  N   UNL A   1      43.601  28.253  32.678  1.00  0.00    -0.354 N 
ATOM     49  N   UNL A   1      43.529  26.242  30.525  1.00  0.00    -0.248 NA
ATOM     50  C   UNL A   1      44.482  24.412  29.424  1.00  0.00     0.031 C 
ATOM     51  C   UNL A   1      45.279  28.176  34.130  1.00  0.00     0.029 A 
ATOM     52  C   UNL A   1      44.758  27.560  33.003  1.00  0.00     0.049 A 
ATOM     53  H   UNL A   1      43.018  28.048  31.912  1.00  0.00     0.167 HD
ATOM     54  C   UNL A   1      44.693  25.864  31.189  1.00  0.00     0.074 A 
ATOM     55  C   UNL A   1      45.216  24.712  30.485  1.00  0.00     0.031 C 
ATOM     56  C   UNL A   1      45.275  26.418  32.284  1.00  0.00     0.034 A 
BRANCH  43  57
ATOM     57  C   UNL A   1      42.247  31.346  34.541  1.00  0.00     0.023 A 
ATOM     58  C   UNL A   1      41.292  31.381  35.573  1.00  0.00     0.031 A 
ATOM     59  C   UNL A   1      43.155  32.416  34.453  1.00  0.00     0.131 A 
ATOM     60  C   UNL A   1      41.214  32.496  36.421  1.00  0.00     0.055 A 
ATOM     61  C   UNL A   1      43.128  33.483  35.354  1.00  0.00     0.041 A 
ATOM     62  F   UNL A   1      44.077  32.452  33.478  1.00  0.00    -0.206 F 
ATOM     63  C   UNL A   1      42.143  33.536  36.336  1.00  0.00     0.022 A 
BRANCH  60  64
ATOM     64  S   UNL A   1      39.792  32.638  37.538  1.00  0.00     0.124 S 
ATOM     65  O   UNL A   1      39.347  34.004  37.275  1.00  0.00    -0.237 OA
ATOM     66  O   UNL A   1      38.912  31.576  37.064  1.00  0.00    -0.237 OA
ATOM     67  O   UNL A   1      40.373  32.423  38.862  1.00  0.00    -0.744 OA
ENDBRANCH  60  64
ENDBRANCH  43  57
BRANCH  44  68
ATOM     68  C   UNL A   1      42.354  24.288  27.411  1.00  0.00     0.023 A 
ATOM     69  C   UNL A   1      41.623  23.093  27.508  1.00  0.00     0.031 A 
ATOM     70  C   UNL A   1      43.165  24.473  26.277  1.00  0.00     0.131 A 
ATOM     71  C   UNL A   1      41.751  22.111  26.515  1.00  0.00     0.055 A 
ATOM     72  C   UNL A   1      43.250  23.515  25.265  1.00  0.00     0.041 A 
ATOM     73  F   UNL A   1      43.881  25.600  26.130  1.00  0.00    -0.206 F 
ATOM     74  C   UNL A   1      42.549  22.319  25.387  1.00  0.00     0.022 A 
BRANCH  71  75
ATOM     75  S   UNL A   1      40.924  20.515  26.760  1.00  0.00     0.124 S 
ATOM     76  O   UNL A   1      39.684  20.707  26.019  1.00  0.00    -0.237 OA
ATOM     77  O   UNL A   1      41.885  19.584  26.177  1.00  0.00    -0.237 OA
ATOM     78  O   UNL A   1      40.778  20.428  28.212  1.00  0.00    -0.744 OA
ENDBRANCH  71  75
ENDBRANCH  44  68
BRANCH  56  79
ATOM     79  C   UNL A   1      46.519  25.747  32.811  1.00  0.00     0.023 A 
ATOM     80  C   UNL A   1      47.787  25.999  32.257  1.00  0.00     0.031 A 
ATOM     81  C   UNL A   1      46.431  24.829  33.873  1.00  0.00     0.131 A 
ATOM     82  C   UNL A   1      48.907  25.299  32.730  1.00  0.00     0.055 A 
ATOM     83  C   UNL A   1      47.558  24.183  34.381  1.00  0.00     0.041 A 
ATOM     84  F   UNL A   1      45.246  24.547  34.436  1.00  0.00    -0.206 F 
ATOM     85  C   UNL A   1      48.803  24.404  33.800  1.00  0.00     0.022 A 
BRANCH  82  86
ATOM     86  S   UNL A   1      50.488  25.496  31.863  1.00  0.00     0.124 S 
ATOM     87  O   UNL A   1      51.314  26.136  32.880  1.00  0.00    -0.237 OA
ATOM     88  O   UNL A   1      50.836  24.118  31.533  1.00  0.00    -0.237 OA
ATOM     89  O   UNL A   1      50.148  26.340  30.718  1.00  0.00    -0.744 OA
ENDBRANCH  82  86
ENDBRANCH  56  79
ENDBRANCH  30  31
ENDBRANCH  22  25
ENDBRANCH   1  21
TORSDOF 14
ENDMDL
MODEL 2
REMARK VINA RESULT:     -11.8      4.990      9.673
REMARK SMILES Cc1onc(-c2cccc(Br)c2)c1C(=O)NCCCNC(=O)c1ccc(-c2c3nc(c(-c4cc(S(=O)(=O)[O-])ccc4F)c4ccc([nH]4)c(-c4cc(S(=O)(=O)[O-])ccc4F)c4nc(c(-c5cc(S(=O)(=O)[O-])ccc5F)c5ccc2[nH]5)C=C4)C=C3)cc1
REMARK SMILES IDX 19 1 18 2 17 3 16 4 14 5 15 6 13 8 1 9 2 10 3 11 4 12 5 13
REMARK SMILES IDX 6 14 7 15 12 16 8 17 10 18 9 19 11 20 20 21 21 22 22 24
REMARK SMILES IDX 23 25 24 26 85 27 25 28 84 29 26 30 27 31 28 32 78 33 29 34
REMARK SMILES IDX 83 35 77 36 79 37 30 38 82 39 76 40 75 41 31 43 63 44 43 45
REMARK SMILES IDX 62 46 44 47 47 48 61 49 80 50 45 51 46 52 60 54 81 55 48 56
REMARK SMILES IDX 32 57 33 58 41 59 34 60 40 61 42 62 39 63 35 64 36 65 37 66
REMARK SMILES IDX 38 67 64 68 65 69 73 70 66 71 72 72 74 73 71 74 67 75 68 76
REMARK SMILES IDX 69 77 70 78 49 79 50 80 58 81 51 82 57 83 59 84 56 85 52 86
REMARK SMILES IDX 53 87 54 88 55 89
REMARK H PARENT 16 7 20 23 79 42 47 53
REMARK Flexibility Score: inf
ROOT
ATOM      1  C   UNL A   1      37.066  21.678  24.438  1.00  0.00     0.118 C 
ENDROOT
BRANCH   1   2
ATOM      2  C   UNL A   1      35.582  21.593  24.791  1.00  0.00     0.042 C 
BRANCH   2   3
ATOM      3  C   UNL A   1      34.704  22.573  24.015  1.00  0.00     0.118 C 
BRANCH   3   4
ATOM      4  N   UNL A   1      34.814  23.903  24.563  1.00  0.00    -0.352 N 
ATOM      5  C   UNL A   1      34.117  24.635  25.478  1.00  0.00     0.257 C 
ATOM      6  O   UNL A   1      34.596  25.763  25.649  1.00  0.00    -0.269 OA
ATOM      7  H   UNL A   1      35.573  24.402  24.185  1.00  0.00     0.163 HD
BRANCH   5   8
ATOM      8  C   UNL A   1      32.960  24.188  26.247  1.00  0.00     0.110 A 
ATOM      9  C   UNL A   1      33.418  21.952  27.666  1.00  0.00     0.092 C 
ATOM     10  C   UNL A   1      32.724  23.134  27.123  1.00  0.00     0.147 A 
ATOM     11  O   UNL A   1      31.454  23.220  27.605  1.00  0.00    -0.360 OA
ATOM     12  N   UNL A   1      30.796  24.270  27.039  1.00  0.00    -0.079 NA
ATOM     13  C   UNL A   1      31.661  24.834  26.189  1.00  0.00     0.126 A 
BRANCH  13  14
ATOM     14  C   UNL A   1      31.210  25.963  25.381  1.00  0.00     0.006 A 
ATOM     15  C   UNL A   1      30.402  25.757  24.253  1.00  0.00     0.010 A 
ATOM     16  C   UNL A   1      31.551  27.269  25.753  1.00  0.00     0.026 A 
ATOM     17  C   UNL A   1      29.976  26.839  23.482  1.00  0.00     0.002 A 
ATOM     18  C   UNL A   1      31.115  28.345  24.981  1.00  0.00     0.018 A 
ATOM     19  C   UNL A   1      30.336  28.136  23.844  1.00  0.00     0.016 A 
ATOM     20  Br  UNL A   1      31.586  30.107  25.482  1.00  0.00    -0.051 Br
ENDBRANCH  13  14
ENDBRANCH   5   8
ENDBRANCH   3   4
ENDBRANCH   2   3
ENDBRANCH   1   2
BRANCH   1  21
ATOM     21  N   UNL A   1      37.845  20.662  25.127  1.00  0.00    -0.352 N 
ATOM     22  C   UNL A   1      39.045  20.766  25.786  1.00  0.00     0.251 C 
ATOM     23  H   UNL A   1      37.451  19.760  25.119  1.00  0.00     0.163 HD
ATOM     24  O   UNL A   1      39.658  19.735  26.060  1.00  0.00    -0.269 OA
BRANCH  22  25
ATOM     25  C   UNL A   1      39.602  22.086  26.157  1.00  0.00     0.039 A 
ATOM     26  C   UNL A   1      40.933  22.159  26.582  1.00  0.00     0.014 A 
ATOM     27  C   UNL A   1      38.812  23.238  26.144  1.00  0.00     0.014 A 
ATOM     28  C   UNL A   1      41.481  23.392  26.947  1.00  0.00     0.010 A 
ATOM     29  C   UNL A   1      39.381  24.477  26.437  1.00  0.00     0.010 A 
ATOM     30  C   UNL A   1      40.718  24.566  26.849  1.00  0.00    -0.014 A 
BRANCH  30  31
ATOM     31  C   UNL A   1      41.299  25.893  27.187  1.00  0.00     0.031 A 
ATOM     32  C   UNL A   1      42.669  26.268  26.686  1.00  0.00     0.074 A 
ATOM     33  C   UNL A   1      40.619  26.731  27.993  1.00  0.00     0.049 A 
ATOM     34  N   UNL A   1      43.379  27.339  26.937  1.00  0.00    -0.248 NA
ATOM     35  C   UNL A   1      43.341  25.293  25.813  1.00  0.00     0.031 C 
ATOM     36  C   UNL A   1      39.298  26.460  28.568  1.00  0.00     0.029 A 
ATOM     37  N   UNL A   1      40.940  27.973  28.476  1.00  0.00    -0.354 N 
ATOM     38  C   UNL A   1      44.585  27.161  26.267  1.00  0.00     0.074 A 
ATOM     39  C   UNL A   1      44.531  25.852  25.651  1.00  0.00     0.031 C 
ATOM     40  C   UNL A   1      38.914  27.515  29.303  1.00  0.00     0.029 A 
ATOM     41  C   UNL A   1      39.976  28.516  29.295  1.00  0.00     0.049 A 
ATOM     42  H   UNL A   1      41.783  28.434  28.259  1.00  0.00     0.167 HD
ATOM     43  C   UNL A   1      45.631  28.018  26.161  1.00  0.00     0.034 A 
ATOM     44  C   UNL A   1      39.956  29.681  29.971  1.00  0.00     0.034 A 
ATOM     45  C   UNL A   1      45.659  29.325  26.772  1.00  0.00     0.049 A 
ATOM     46  C   UNL A   1      41.138  30.610  29.853  1.00  0.00     0.074 A 
ATOM     47  C   UNL A   1      46.639  30.298  26.683  1.00  0.00     0.029 A 
ATOM     48  N   UNL A   1      44.664  29.841  27.594  1.00  0.00    -0.354 N 
ATOM     49  N   UNL A   1      42.252  30.447  29.176  1.00  0.00    -0.248 NA
ATOM     50  C   UNL A   1      41.054  31.882  30.580  1.00  0.00     0.031 C 
ATOM     51  C   UNL A   1      46.271  31.370  27.503  1.00  0.00     0.029 A 
ATOM     52  C   UNL A   1      45.023  31.104  28.042  1.00  0.00     0.049 A 
ATOM     53  H   UNL A   1      43.826  29.378  27.823  1.00  0.00     0.167 HD
ATOM     54  C   UNL A   1      42.988  31.613  29.373  1.00  0.00     0.074 A 
ATOM     55  C   UNL A   1      42.183  32.472  30.217  1.00  0.00     0.031 C 
ATOM     56  C   UNL A   1      44.215  31.945  28.895  1.00  0.00     0.034 A 
BRANCH  43  57
ATOM     57  C   UNL A   1      46.838  27.553  25.378  1.00  0.00     0.023 A 
ATOM     58  C   UNL A   1      47.074  27.979  24.059  1.00  0.00     0.031 A 
ATOM     59  C   UNL A   1      47.753  26.649  25.948  1.00  0.00     0.131 A 
ATOM     60  C   UNL A   1      48.147  27.442  23.329  1.00  0.00     0.055 A 
ATOM     61  C   UNL A   1      48.866  26.183  25.246  1.00  0.00     0.041 A 
ATOM     62  F   UNL A   1      47.571  26.188  27.196  1.00  0.00    -0.206 F 
ATOM     63  C   UNL A   1      49.060  26.568  23.922  1.00  0.00     0.022 A 
BRANCH  60  64
ATOM     64  S   UNL A   1      48.242  27.788  21.551  1.00  0.00     0.124 S 
ATOM     65  O   UNL A   1      48.558  26.467  21.011  1.00  0.00    -0.237 OA
ATOM     66  O   UNL A   1      46.908  28.297  21.256  1.00  0.00    -0.237 OA
ATOM     67  O   UNL A   1      49.321  28.769  21.450  1.00  0.00    -0.744 OA
ENDBRANCH  60  64
ENDBRANCH  43  57
BRANCH  44  68
ATOM     68  C   UNL A   1      38.786  30.040  30.823  1.00  0.00     0.023 A 
ATOM     69  C   UNL A   1      37.729  30.810  30.312  1.00  0.00     0.031 A 
ATOM     70  C   UNL A   1      38.723  29.649  32.173  1.00  0.00     0.131 A 
ATOM     71  C   UNL A   1      36.679  31.205  31.154  1.00  0.00     0.055 A 
ATOM     72  C   UNL A   1      37.650  30.000  32.994  1.00  0.00     0.041 A 
ATOM     73  F   UNL A   1      39.704  28.906  32.711  1.00  0.00    -0.206 F 
ATOM     74  C   UNL A   1      36.625  30.794  32.488  1.00  0.00     0.022 A 
BRANCH  71  75
ATOM     75  S   UNL A   1      35.423  32.339  30.502  1.00  0.00     0.124 S 
ATOM     76  O   UNL A   1      35.110  31.727  29.216  1.00  0.00    -0.237 OA
ATOM     77  O   UNL A   1      34.383  32.256  31.523  1.00  0.00    -0.237 OA
ATOM     78  O   UNL A   1      36.123  33.620  30.432  1.00  0.00    -0.744 OA
ENDBRANCH  71  75
ENDBRANCH  44  68
BRANCH  56  79
ATOM     79  C   UNL A   1      44.734  33.318  29.241  1.00  0.00     0.023 A 
ATOM     80  C   UNL A   1      44.448  34.441  28.445  1.00  0.00     0.031 A 
ATOM     81  C   UNL A   1      45.542  33.502  30.378  1.00  0.00     0.131 A 
ATOM     82  C   UNL A   1      45.011  35.685  28.764  1.00  0.00     0.055 A 
ATOM     83  C   UNL A   1      46.048  34.755  30.725  1.00  0.00     0.041 A 
ATOM     84  F   UNL A   1      45.852  32.465  31.172  1.00  0.00    -0.206 F 
ATOM     85  C   UNL A   1      45.796  35.853  29.909  1.00  0.00     0.022 A 
BRANCH  82  86
ATOM     86  S   UNL A   1      44.788  37.065  27.607  1.00  0.00     0.124 S 
ATOM     87  O   UNL A   1      44.438  38.160  28.504  1.00  0.00    -0.237 OA
ATOM     88  O   UNL A   1      46.099  37.154  26.973  1.00  0.00    -0.237 OA
ATOM     89  O   UNL A   1      43.708  36.609  26.734  1.00  0.00    -0.744 OA
ENDBRANCH  82  86
ENDBRANCH  56  79
ENDBRANCH  30  31
ENDBRANCH  22  25
ENDBRANCH   1  21
TORSDOF 14
ENDMDL
MODEL 3
REMARK VINA RESULT:     -11.8      1.491      2.801
REMARK SMILES Cc1onc(-c2cccc(Br)c2)c1C(=O)NCCCNC(=O)c1ccc(-c2c3nc(c(-c4cc(S(=O)(=O)[O-])ccc4F)c4ccc([nH]4)c(-c4cc(S(=O)(=O)[O-])ccc4F)c4nc(c(-c5cc(S(=O)(=O)[O-])ccc5F)c5ccc2[nH]5)C=C4)C=C3)cc1
REMARK SMILES IDX 19 1 18 2 17 3 16 4 14 5 15 6 13 8 1 9 2 10 3 11 4 12 5 13
REMARK SMILES IDX 6 14 7 15 12 16 8 17 10 18 9 19 11 20 20 21 21 22 22 24
REMARK SMILES IDX 23 25 24 26 85 27 25 28 84 29 26 30 27 31 28 32 78 33 29 34
REMARK SMILES IDX 83 35 77 36 79 37 30 38 82 39 76 40 75 41 31 43 63 44 43 45
REMARK SMILES IDX 62 46 44 47 47 48 61 49 80 50 45 51 46 52 60 54 81 55 48 56
REMARK SMILES IDX 32 57 33 58 41 59 34 60 40 61 42 62 39 63 35 64 36 65 37 66
REMARK SMILES IDX 38 67 64 68 65 69 73 70 66 71 72 72 74 73 71 74 67 75 68 76
REMARK SMILES IDX 69 77 70 78 49 79 50 80 58 81 51 82 57 83 59 84 56 85 52 86
REMARK SMILES IDX 53 87 54 88 55 89
REMARK H PARENT 16 7 20 23 79 42 47 53
REMARK Flexibility Score: inf
ROOT
ATOM      1  C   UNL A   1      33.824  29.185  26.088  1.00  0.00     0.118 C 
ENDROOT
BRANCH   1   2
ATOM      2  C   UNL A   1      33.167  28.166  27.017  1.00  0.00     0.042 C 
BRANCH   2   3
ATOM      3  C   UNL A   1      31.654  28.329  27.144  1.00  0.00     0.118 C 
BRANCH   3   4
ATOM      4  N   UNL A   1      30.987  27.057  27.011  1.00  0.00    -0.352 N 
ATOM      5  C   UNL A   1      30.659  26.238  25.971  1.00  0.00     0.257 C 
ATOM      6  O   UNL A   1      30.086  25.207  26.342  1.00  0.00    -0.269 OA
ATOM      7  H   UNL A   1      30.701  26.692  27.879  1.00  0.00     0.163 HD
BRANCH   5   8
ATOM      8  C   UNL A   1      30.963  26.462  24.562  1.00  0.00     0.110 A 
ATOM      9  C   UNL A   1      29.156  28.008  23.311  1.00  0.00     0.092 C 
ATOM     10  C   UNL A   1      30.360  27.189  23.542  1.00  0.00     0.147 A 
ATOM     11  O   UNL A   1      31.109  27.090  22.409  1.00  0.00    -0.360 OA
ATOM     12  N   UNL A   1      32.177  26.270  22.611  1.00  0.00    -0.079 NA
ATOM     13  C   UNL A   1      32.084  25.845  23.876  1.00  0.00     0.126 A 
BRANCH  13  14
ATOM     14  C   UNL A   1      33.074  24.890  24.366  1.00  0.00     0.006 A 
ATOM     15  C   UNL A   1      34.255  25.335  24.977  1.00  0.00     0.010 A 
ATOM     16  C   UNL A   1      32.828  23.515  24.262  1.00  0.00     0.026 A 
ATOM     17  C   UNL A   1      35.200  24.418  25.440  1.00  0.00     0.002 A 
ATOM     18  C   UNL A   1      33.774  22.606  24.734  1.00  0.00     0.018 A 
ATOM     19  C   UNL A   1      34.961  23.050  25.316  1.00  0.00     0.016 A 
ATOM     20  Br  UNL A   1      33.442  20.750  24.584  1.00  0.00    -0.051 Br
ENDBRANCH  13  14
ENDBRANCH   5   8
ENDBRANCH   3   4
ENDBRANCH   2   3
ENDBRANCH   1   2
BRANCH   1  21
ATOM     21  N   UNL A   1      33.733  30.536  26.616  1.00  0.00    -0.352 N 
ATOM     22  C   UNL A   1      34.436  31.137  27.630  1.00  0.00     0.251 C 
ATOM     23  H   UNL A   1      33.062  31.109  26.179  1.00  0.00     0.163 HD
ATOM     24  O   UNL A   1      34.014  32.195  28.095  1.00  0.00    -0.269 OA
BRANCH  22  25
ATOM     25  C   UNL A   1      35.674  30.529  28.168  1.00  0.00     0.039 A 
ATOM     26  C   UNL A   1      36.868  30.690  27.456  1.00  0.00     0.014 A 
ATOM     27  C   UNL A   1      35.658  29.756  29.332  1.00  0.00     0.014 A 
ATOM     28  C   UNL A   1      38.049  30.118  27.936  1.00  0.00     0.010 A 
ATOM     29  C   UNL A   1      36.850  29.249  29.848  1.00  0.00     0.010 A 
ATOM     30  C   UNL A   1      38.056  29.417  29.153  1.00  0.00    -0.014 A 
BRANCH  30  31
ATOM     31  C   UNL A   1      39.312  28.842  29.703  1.00  0.00     0.031 A 
ATOM     32  C   UNL A   1      39.965  29.467  30.908  1.00  0.00     0.074 A 
ATOM     33  C   UNL A   1      39.892  27.797  29.082  1.00  0.00     0.049 A 
ATOM     34  N   UNL A   1      41.100  29.164  31.486  1.00  0.00    -0.248 NA
ATOM     35  C   UNL A   1      39.263  30.605  31.522  1.00  0.00     0.031 C 
ATOM     36  C   UNL A   1      39.370  27.131  27.886  1.00  0.00     0.029 A 
ATOM     37  N   UNL A   1      41.049  27.115  29.360  1.00  0.00    -0.354 N 
ATOM     38  C   UNL A   1      41.256  30.081  32.521  1.00  0.00     0.074 A 
ATOM     39  C   UNL A   1      40.128  30.986  32.450  1.00  0.00     0.031 C 
ATOM     40  C   UNL A   1      40.189  26.122  27.552  1.00  0.00     0.029 A 
ATOM     41  C   UNL A   1      41.320  26.098  28.474  1.00  0.00     0.049 A 
ATOM     42  H   UNL A   1      41.633  27.334  30.123  1.00  0.00     0.167 HD
ATOM     43  C   UNL A   1      42.238  30.147  33.455  1.00  0.00     0.034 A 
ATOM     44  C   UNL A   1      42.365  25.250  28.405  1.00  0.00     0.034 A 
ATOM     45  C   UNL A   1      43.346  29.225  33.517  1.00  0.00     0.049 A 
ATOM     46  C   UNL A   1      43.454  25.355  29.443  1.00  0.00     0.074 A 
ATOM     47  C   UNL A   1      44.364  29.162  34.452  1.00  0.00     0.029 A 
ATOM     48  N   UNL A   1      43.586  28.207  32.602  1.00  0.00    -0.354 N 
ATOM     49  N   UNL A   1      43.563  26.199  30.444  1.00  0.00    -0.248 NA
ATOM     50  C   UNL A   1      44.554  24.389  29.346  1.00  0.00     0.031 C 
ATOM     51  C   UNL A   1      45.256  28.155  34.065  1.00  0.00     0.029 A 
ATOM     52  C   UNL A   1      44.753  27.533  32.933  1.00  0.00     0.049 A 
ATOM     53  H   UNL A   1      43.012  27.993  31.831  1.00  0.00     0.167 HD
ATOM     54  C   UNL A   1      44.728  25.840  31.116  1.00  0.00     0.074 A 
ATOM     55  C   UNL A   1      45.276  24.698  30.413  1.00  0.00     0.031 C 
ATOM     56  C   UNL A   1      45.293  26.402  32.215  1.00  0.00     0.034 A 
BRANCH  43  57
ATOM     57  C   UNL A   1      42.167  31.272  34.462  1.00  0.00     0.023 A 
ATOM     58  C   UNL A   1      41.192  31.299  35.475  1.00  0.00     0.031 A 
ATOM     59  C   UNL A   1      43.071  32.348  34.395  1.00  0.00     0.131 A 
ATOM     60  C   UNL A   1      41.092  32.412  36.325  1.00  0.00     0.055 A 
ATOM     61  C   UNL A   1      43.021  33.412  35.297  1.00  0.00     0.041 A 
ATOM     62  F   UNL A   1      44.012  32.391  33.438  1.00  0.00    -0.206 F 
ATOM     63  C   UNL A   1      42.017  33.456  36.260  1.00  0.00     0.022 A 
BRANCH  60  64
ATOM     64  S   UNL A   1      39.647  32.543  37.414  1.00  0.00     0.124 S 
ATOM     65  O   UNL A   1      40.268  32.482  38.735  1.00  0.00    -0.237 OA
ATOM     66  O   UNL A   1      39.080  33.831  37.032  1.00  0.00    -0.237 OA
ATOM     67  O   UNL A   1      38.842  31.376  37.057  1.00  0.00    -0.744 OA
ENDBRANCH  60  64
ENDBRANCH  43  57
BRANCH  44  68
ATOM     68  C   UNL A   1      42.441  24.231  27.319  1.00  0.00     0.023 A 
ATOM     69  C   UNL A   1      41.632  23.085  27.345  1.00  0.00     0.031 A 
ATOM     70  C   UNL A   1      43.352  24.370  26.256  1.00  0.00     0.131 A 
ATOM     71  C   UNL A   1      41.779  22.100  26.358  1.00  0.00     0.055 A 
ATOM     72  C   UNL A   1      43.459  23.413  25.245  1.00  0.00     0.041 A 
ATOM     73  F   UNL A   1      44.146  25.450  26.178  1.00  0.00    -0.206 F 
ATOM     74  C   UNL A   1      42.678  22.263  25.300  1.00  0.00     0.022 A 
BRANCH  71  75
ATOM     75  S   UNL A   1      40.837  20.559  26.520  1.00  0.00     0.124 S 
ATOM     76  O   UNL A   1      40.945  20.294  27.949  1.00  0.00    -0.237 OA
ATOM     77  O   UNL A   1      39.519  20.959  26.038  1.00  0.00    -0.237 OA
ATOM     78  O   UNL A   1      41.558  19.627  25.655  1.00  0.00    -0.744 OA
ENDBRANCH  71  75
ENDBRANCH  44  68
BRANCH  56  79
ATOM     79  C   UNL A   1      46.546  25.751  32.749  1.00  0.00     0.023 A 
ATOM     80  C   UNL A   1      47.810  26.011  32.191  1.00  0.00     0.031 A 
ATOM     81  C   UNL A   1      46.469  24.845  33.821  1.00  0.00     0.131 A 
ATOM     82  C   UNL A   1      48.938  25.328  32.671  1.00  0.00     0.055 A 
ATOM     83  C   UNL A   1      47.604  24.217  34.336  1.00  0.00     0.041 A 
ATOM     84  F   UNL A   1      45.287  24.556  34.389  1.00  0.00    -0.206 F 
ATOM     85  C   UNL A   1      48.846  24.446  33.751  1.00  0.00     0.022 A 
BRANCH  82  86
ATOM     86  S   UNL A   1      50.516  25.534  31.800  1.00  0.00     0.124 S 
ATOM     87  O   UNL A   1      50.155  26.459  30.732  1.00  0.00    -0.237 OA
ATOM     88  O   UNL A   1      51.381  26.072  32.845  1.00  0.00    -0.237 OA
ATOM     89  O   UNL A   1      50.845  24.179  31.362  1.00  0.00    -0.744 OA
ENDBRANCH  82  86
ENDBRANCH  56  79
ENDBRANCH  30  31
ENDBRANCH  22  25
ENDBRANCH   1  21
TORSDOF 14
ENDMDL
