MODEL 1
REMARK VINA RESULT:     -10.1      0.000      0.000
REMARK SMILES CC[N@@H+](C/C(Cl)=C/Cl)C[C@@H](C)C(=O)NCCCNC(=O)c1ccc(-c2c3nc(c(-c4cc(S(=O)(=O)[O-])ccc4F)c4ccc([nH]4)c(-c4cc(S(=O)(=O)[O-])ccc4F)c4nc(c(-c5cc(S(=O)(=O)[O-])ccc5F)c5ccc2[nH]5)C=C4)C=C3)cc1
REMARK SMILES IDX 15 1 14 2 12 3 13 4 10 6 11 7 9 8 3 9 2 11 1 12 4 13 5 14
REMARK SMILES IDX 6 15 7 16 8 17 16 18 17 19 18 20 19 21 20 23 21 24 22 25
REMARK SMILES IDX 83 26 23 27 82 28 24 29 25 30 26 31 76 32 27 33 81 34 75 35
REMARK SMILES IDX 77 36 28 37 80 38 74 39 73 40 29 42 61 43 41 44 60 45 42 46
REMARK SMILES IDX 45 47 59 48 78 49 43 50 44 51 58 53 79 54 46 55 30 56 31 57
REMARK SMILES IDX 39 58 32 59 38 60 40 61 37 62 33 63 34 64 35 65 36 66 62 67
REMARK SMILES IDX 63 68 71 69 64 70 70 71 72 72 69 73 65 74 66 75 67 76 68 77
REMARK SMILES IDX 47 78 48 79 56 80 49 81 55 82 57 83 54 84 50 85 51 86 52 87
REMARK SMILES IDX 53 88
REMARK H PARENT 14 5 3 10 18 22 77 41 45 52
REMARK Flexibility Score: inf
ROOT
ATOM      1  C   UNL A   1      32.680  26.397  25.645  1.00  0.00     0.117 C 
ENDROOT
BRANCH   1   2
ATOM      2  N   UNL A   1      31.654  25.739  24.857  1.00  0.00    -0.356 N 
ATOM      3  C   UNL A   1      31.705  25.160  23.629  1.00  0.00     0.228 C 
ATOM      4  O   UNL A   1      30.655  24.698  23.177  1.00  0.00    -0.275 OA
ATOM      5  H   UNL A   1      30.769  25.708  25.286  1.00  0.00     0.163 HD
BRANCH   3   6
ATOM      6  C   UNL A   1      33.002  25.060  22.833  1.00  0.00     0.130 C 
ATOM      7  C   UNL A   1      32.837  25.681  21.447  1.00  0.00     0.024 C 
BRANCH   6   8
ATOM      8  C   UNL A   1      33.579  23.632  22.925  1.00  0.00     0.275 C 
BRANCH   8   9
ATOM      9  N   UNL A   1      32.888  22.599  23.700  1.00  0.00    -0.330 N 
ATOM     10  H   UNL A   1      32.070  23.151  23.958  1.00  0.00     0.348 HD
BRANCH   9  11
ATOM     11  C   UNL A   1      32.194  21.529  22.998  1.00  0.00     0.259 C 
ATOM     12  C   UNL A   1      32.562  20.131  23.486  1.00  0.00     0.071 C 
ENDBRANCH   9  11
BRANCH   9  13
ATOM     13  C   UNL A   1      33.467  22.255  25.000  1.00  0.00     0.312 C 
BRANCH  13  14
ATOM     14  C   UNL A   1      34.963  22.360  25.177  1.00  0.00     0.083 C 
ATOM     15  Cl  UNL A   1      35.508  23.860  25.869  1.00  0.00    -0.082 Cl
ATOM     16  C   UNL A   1      35.818  21.373  24.884  1.00  0.00     0.102 C 
ATOM     17  Cl  UNL A   1      37.524  21.433  25.045  1.00  0.00    -0.091 Cl
ENDBRANCH  13  14
ENDBRANCH   9  13
ENDBRANCH   8   9
ENDBRANCH   6   8
ENDBRANCH   3   6
ENDBRANCH   1   2
BRANCH   1  18
ATOM     18  C   UNL A   1      32.246  27.779  26.108  1.00  0.00     0.042 C 
BRANCH  18  19
ATOM     19  C   UNL A   1      33.218  28.880  25.709  1.00  0.00     0.118 C 
BRANCH  19  20
ATOM     20  N   UNL A   1      32.713  30.208  26.035  1.00  0.00    -0.352 N 
ATOM     21  C   UNL A   1      33.200  31.125  26.938  1.00  0.00     0.251 C 
ATOM     22  H   UNL A   1      31.911  30.489  25.539  1.00  0.00     0.163 HD
ATOM     23  O   UNL A   1      32.532  32.107  27.234  1.00  0.00    -0.269 OA
BRANCH  21  24
ATOM     24  C   UNL A   1      34.522  30.893  27.557  1.00  0.00     0.039 A 
ATOM     25  C   UNL A   1      35.413  31.959  27.695  1.00  0.00     0.014 A 
ATOM     26  C   UNL A   1      34.859  29.623  28.031  1.00  0.00     0.014 A 
ATOM     27  C   UNL A   1      36.614  31.768  28.382  1.00  0.00     0.010 A 
ATOM     28  C   UNL A   1      36.010  29.456  28.788  1.00  0.00     0.010 A 
ATOM     29  C   UNL A   1      36.901  30.526  28.971  1.00  0.00    -0.014 A 
BRANCH  29  30
ATOM     30  C   UNL A   1      38.135  30.290  29.764  1.00  0.00     0.031 A 
ATOM     31  C   UNL A   1      39.187  29.361  29.224  1.00  0.00     0.074 A 
ATOM     32  C   UNL A   1      38.252  30.812  31.001  1.00  0.00     0.049 A 
ATOM     33  N   UNL A   1      40.231  28.851  29.823  1.00  0.00    -0.248 NA
ATOM     34  C   UNL A   1      39.009  28.913  27.834  1.00  0.00     0.031 C 
ATOM     35  C   UNL A   1      37.281  31.701  31.643  1.00  0.00     0.029 A 
ATOM     36  N   UNL A   1      39.229  30.648  31.951  1.00  0.00    -0.354 N 
ATOM     37  C   UNL A   1      40.813  27.992  28.896  1.00  0.00     0.074 A 
ATOM     38  C   UNL A   1      39.972  28.012  27.718  1.00  0.00     0.031 C 
ATOM     39  C   UNL A   1      37.718  32.011  32.875  1.00  0.00     0.029 A 
ATOM     40  C   UNL A   1      38.967  31.304  33.132  1.00  0.00     0.049 A 
ATOM     41  H   UNL A   1      40.042  30.112  31.801  1.00  0.00     0.167 HD
ATOM     42  C   UNL A   1      41.954  27.267  29.011  1.00  0.00     0.034 A 
ATOM     43  C   UNL A   1      39.645  31.311  34.297  1.00  0.00     0.034 A 
ATOM     44  C   UNL A   1      42.792  27.287  30.184  1.00  0.00     0.049 A 
ATOM     45  C   UNL A   1      40.913  30.501  34.405  1.00  0.00     0.074 A 
ATOM     46  C   UNL A   1      43.995  26.638  30.396  1.00  0.00     0.029 A 
ATOM     47  N   UNL A   1      42.515  28.000  31.345  1.00  0.00    -0.354 N 
ATOM     48  N   UNL A   1      41.465  29.711  33.513  1.00  0.00    -0.248 NA
ATOM     49  C   UNL A   1      41.653  30.590  35.671  1.00  0.00     0.031 C 
ATOM     50  C   UNL A   1      44.418  26.914  31.701  1.00  0.00     0.029 A 
ATOM     51  C   UNL A   1      43.516  27.792  32.280  1.00  0.00     0.049 A 
ATOM     52  H   UNL A   1      41.723  28.568  31.482  1.00  0.00     0.167 HD
ATOM     53  C   UNL A   1      42.638  29.242  34.097  1.00  0.00     0.074 A 
ATOM     54  C   UNL A   1      42.712  29.835  35.416  1.00  0.00     0.031 C 
ATOM     55  C   UNL A   1      43.574  28.403  33.586  1.00  0.00     0.034 A 
BRANCH  42  56
ATOM     56  C   UNL A   1      42.334  26.383  27.849  1.00  0.00     0.023 A 
ATOM     57  C   UNL A   1      41.943  25.033  27.789  1.00  0.00     0.031 A 
ATOM     58  C   UNL A   1      43.135  26.880  26.807  1.00  0.00     0.131 A 
ATOM     59  C   UNL A   1      42.425  24.209  26.762  1.00  0.00     0.055 A 
ATOM     60  C   UNL A   1      43.539  26.076  25.739  1.00  0.00     0.041 A 
ATOM     61  F   UNL A   1      43.558  28.155  26.818  1.00  0.00    -0.206 F 
ATOM     62  C   UNL A   1      43.198  24.727  25.721  1.00  0.00     0.022 A 
BRANCH  59  63
ATOM     63  S   UNL A   1      42.154  22.420  26.892  1.00  0.00     0.124 S 
ATOM     64  O   UNL A   1      43.325  21.895  26.193  1.00  0.00    -0.237 OA
ATOM     65  O   UNL A   1      42.124  22.208  28.335  1.00  0.00    -0.237 OA
ATOM     66  O   UNL A   1      40.882  22.215  26.204  1.00  0.00    -0.744 OA
ENDBRANCH  59  63
ENDBRANCH  42  56
BRANCH  43  67
ATOM     67  C   UNL A   1      39.143  32.099  35.458  1.00  0.00     0.023 A 
ATOM     68  C   UNL A   1      38.503  31.468  36.535  1.00  0.00     0.031 A 
ATOM     69  C   UNL A   1      39.266  33.499  35.494  1.00  0.00     0.131 A 
ATOM     70  C   UNL A   1      37.970  32.236  37.583  1.00  0.00     0.055 A 
ATOM     71  C   UNL A   1      38.780  34.256  36.561  1.00  0.00     0.041 A 
ATOM     72  F   UNL A   1      39.879  34.153  34.494  1.00  0.00    -0.206 F 
ATOM     73  C   UNL A   1      38.115  33.625  37.608  1.00  0.00     0.022 A 
BRANCH  70  74
ATOM     74  S   UNL A   1      37.017  31.397  38.877  1.00  0.00     0.124 S 
ATOM     75  O   UNL A   1      37.865  31.596  40.047  1.00  0.00    -0.237 OA
ATOM     76  O   UNL A   1      35.762  32.141  38.859  1.00  0.00    -0.237 OA
ATOM     77  O   UNL A   1      36.930  30.020  38.395  1.00  0.00    -0.744 OA
ENDBRANCH  70  74
ENDBRANCH  43  67
BRANCH  55  78
ATOM     78  C   UNL A   1      44.796  28.141  34.428  1.00  0.00     0.023 A 
ATOM     79  C   UNL A   1      44.845  27.094  35.365  1.00  0.00     0.031 A 
ATOM     80  C   UNL A   1      45.936  28.950  34.274  1.00  0.00     0.131 A 
ATOM     81  C   UNL A   1      46.000  26.909  36.139  1.00  0.00     0.055 A 
ATOM     82  C   UNL A   1      47.099  28.729  35.012  1.00  0.00     0.041 A 
ATOM     83  F   UNL A   1      45.939  29.964  33.393  1.00  0.00    -0.206 F 
ATOM     84  C   UNL A   1      47.132  27.708  35.957  1.00  0.00     0.022 A 
BRANCH  81  85
ATOM     85  S   UNL A   1      45.986  25.640  37.435  1.00  0.00     0.124 S 
ATOM     86  O   UNL A   1      47.407  25.348  37.590  1.00  0.00    -0.237 OA
ATOM     87  O   UNL A   1      45.353  26.337  38.550  1.00  0.00    -0.237 OA
ATOM     88  O   UNL A   1      45.192  24.561  36.851  1.00  0.00    -0.744 OA
ENDBRANCH  81  85
ENDBRANCH  55  78
ENDBRANCH  29  30
ENDBRANCH  21  24
ENDBRANCH  19  20
ENDBRANCH  18  19
ENDBRANCH   1  18
TORSDOF 18
ENDMDL
MODEL 2
REMARK VINA RESULT:     -10.1      2.403      3.256
REMARK SMILES CC[N@@H+](C/C(Cl)=C/Cl)C[C@@H](C)C(=O)NCCCNC(=O)c1ccc(-c2c3nc(c(-c4cc(S(=O)(=O)[O-])ccc4F)c4ccc([nH]4)c(-c4cc(S(=O)(=O)[O-])ccc4F)c4nc(c(-c5cc(S(=O)(=O)[O-])ccc5F)c5ccc2[nH]5)C=C4)C=C3)cc1
REMARK SMILES IDX 15 1 14 2 12 3 13 4 10 6 11 7 9 8 3 9 2 11 1 12 4 13 5 14
REMARK SMILES IDX 6 15 7 16 8 17 16 18 17 19 18 20 19 21 20 23 21 24 22 25
REMARK SMILES IDX 83 26 23 27 82 28 24 29 25 30 26 31 76 32 27 33 81 34 75 35
REMARK SMILES IDX 77 36 28 37 80 38 74 39 73 40 29 42 61 43 41 44 60 45 42 46
REMARK SMILES IDX 45 47 59 48 78 49 43 50 44 51 58 53 79 54 46 55 30 56 31 57
REMARK SMILES IDX 39 58 32 59 38 60 40 61 37 62 33 63 34 64 35 65 36 66 62 67
REMARK SMILES IDX 63 68 71 69 64 70 70 71 72 72 69 73 65 74 66 75 67 76 68 77
REMARK SMILES IDX 47 78 48 79 56 80 49 81 55 82 57 83 54 84 50 85 51 86 52 87
REMARK SMILES IDX 53 88
REMARK H PARENT 14 5 3 10 18 22 77 41 45 52
REMARK Flexibility Score: inf
ROOT
ATOM      1  C   UNL A   1      32.400  29.877  25.926  1.00  0.00     0.117 C 
ENDROOT
BRANCH   1   2
ATOM      2  N   UNL A   1      31.526  29.743  24.776  1.00  0.00    -0.356 N 
ATOM      3  C   UNL A   1      31.640  28.992  23.650  1.00  0.00     0.228 C 
ATOM      4  O   UNL A   1      30.748  29.099  22.805  1.00  0.00    -0.275 OA
ATOM      5  H   UNL A   1      30.710  30.292  24.820  1.00  0.00     0.163 HD
BRANCH   3   6
ATOM      6  C   UNL A   1      32.806  28.034  23.429  1.00  0.00     0.130 C 
ATOM      7  C   UNL A   1      33.995  28.764  22.807  1.00  0.00     0.024 C 
BRANCH   6   8
ATOM      8  C   UNL A   1      32.315  26.738  22.752  1.00  0.00     0.275 C 
BRANCH   8   9
ATOM      9  N   UNL A   1      32.774  25.431  23.228  1.00  0.00    -0.330 N 
ATOM     10  H   UNL A   1      33.261  25.144  22.378  1.00  0.00     0.348 HD
BRANCH   9  11
ATOM     11  C   UNL A   1      33.905  25.364  24.141  1.00  0.00     0.259 C 
ATOM     12  C   UNL A   1      34.532  23.976  24.247  1.00  0.00     0.071 C 
ENDBRANCH   9  11
BRANCH   9  13
ATOM     13  C   UNL A   1      31.754  24.391  23.379  1.00  0.00     0.312 C 
BRANCH  13  14
ATOM     14  C   UNL A   1      30.959  24.338  24.662  1.00  0.00     0.083 C 
ATOM     15  Cl  UNL A   1      29.974  25.741  24.965  1.00  0.00    -0.082 Cl
ATOM     16  C   UNL A   1      30.952  23.288  25.491  1.00  0.00     0.102 C 
ATOM     17  Cl  UNL A   1      30.089  23.170  26.968  1.00  0.00    -0.091 Cl
ENDBRANCH  13  14
ENDBRANCH   9  13
ENDBRANCH   8   9
ENDBRANCH   6   8
ENDBRANCH   3   6
ENDBRANCH   1   2
BRANCH   1  18
ATOM     18  C   UNL A   1      31.996  31.041  26.819  1.00  0.00     0.042 C 
BRANCH  18  19
ATOM     19  C   UNL A   1      33.179  31.865  27.305  1.00  0.00     0.118 C 
BRANCH  19  20
ATOM     20  N   UNL A   1      32.819  33.255  27.555  1.00  0.00    -0.352 N 
ATOM     21  C   UNL A   1      33.280  34.111  28.529  1.00  0.00     0.251 C 
ATOM     22  H   UNL A   1      32.152  33.637  26.940  1.00  0.00     0.163 HD
ATOM     23  O   UNL A   1      32.717  35.180  28.721  1.00  0.00    -0.269 OA
BRANCH  21  24
ATOM     24  C   UNL A   1      34.442  33.708  29.348  1.00  0.00     0.039 A 
ATOM     25  C   UNL A   1      34.269  32.773  30.372  1.00  0.00     0.014 A 
ATOM     26  C   UNL A   1      35.707  34.233  29.075  1.00  0.00     0.014 A 
ATOM     27  C   UNL A   1      35.384  32.305  31.071  1.00  0.00     0.010 A 
ATOM     28  C   UNL A   1      36.821  33.703  29.710  1.00  0.00     0.010 A 
ATOM     29  C   UNL A   1      36.672  32.734  30.716  1.00  0.00    -0.014 A 
BRANCH  29  30
ATOM     30  C   UNL A   1      37.894  32.220  31.387  1.00  0.00     0.031 A 
ATOM     31  C   UNL A   1      38.688  31.127  30.726  1.00  0.00     0.074 A 
ATOM     32  C   UNL A   1      38.218  32.650  32.622  1.00  0.00     0.049 A 
ATOM     33  N   UNL A   1      39.653  30.391  31.211  1.00  0.00    -0.248 NA
ATOM     34  C   UNL A   1      38.307  30.789  29.346  1.00  0.00     0.031 C 
ATOM     35  C   UNL A   1      37.505  33.683  33.376  1.00  0.00     0.029 A 
ATOM     36  N   UNL A   1      39.218  32.251  33.473  1.00  0.00    -0.354 N 
ATOM     37  C   UNL A   1      39.970  29.478  30.210  1.00  0.00     0.074 A 
ATOM     38  C   UNL A   1      39.054  29.721  29.116  1.00  0.00     0.031 C 
ATOM     39  C   UNL A   1      38.097  33.843  34.571  1.00  0.00     0.029 A 
ATOM     40  C   UNL A   1      39.194  32.889  34.692  1.00  0.00     0.049 A 
ATOM     41  H   UNL A   1      39.890  31.571  33.235  1.00  0.00     0.167 HD
ATOM     42  C   UNL A   1      40.946  28.536  30.200  1.00  0.00     0.034 A 
ATOM     43  C   UNL A   1      39.955  32.707  35.790  1.00  0.00     0.034 A 
ATOM     44  C   UNL A   1      41.866  28.334  31.292  1.00  0.00     0.049 A 
ATOM     45  C   UNL A   1      41.037  31.657  35.758  1.00  0.00     0.074 A 
ATOM     46  C   UNL A   1      42.926  27.449  31.374  1.00  0.00     0.029 A 
ATOM     47  N   UNL A   1      41.837  29.032  32.493  1.00  0.00    -0.354 N 
ATOM     48  N   UNL A   1      41.341  30.816  34.797  1.00  0.00    -0.248 NA
ATOM     49  C   UNL A   1      41.882  31.537  36.953  1.00  0.00     0.031 C 
ATOM     50  C   UNL A   1      43.504  27.574  32.642  1.00  0.00     0.029 A 
ATOM     51  C   UNL A   1      42.850  28.586  33.326  1.00  0.00     0.049 A 
ATOM     52  H   UNL A   1      41.191  29.740  32.719  1.00  0.00     0.167 HD
ATOM     53  C   UNL A   1      42.439  30.095  35.257  1.00  0.00     0.074 A 
ATOM     54  C   UNL A   1      42.742  30.599  36.581  1.00  0.00     0.031 C 
ATOM     55  C   UNL A   1      43.140  29.112  34.639  1.00  0.00     0.034 A 
BRANCH  42  56
ATOM     56  C   UNL A   1      41.041  27.649  28.983  1.00  0.00     0.023 A 
ATOM     57  C   UNL A   1      42.021  27.852  27.996  1.00  0.00     0.031 A 
ATOM     58  C   UNL A   1      40.113  26.613  28.783  1.00  0.00     0.131 A 
ATOM     59  C   UNL A   1      41.997  27.093  26.817  1.00  0.00     0.055 A 
ATOM     60  C   UNL A   1      40.148  25.801  27.647  1.00  0.00     0.041 A 
ATOM     61  F   UNL A   1      39.140  26.382  29.679  1.00  0.00    -0.206 F 
ATOM     62  C   UNL A   1      41.084  26.050  26.647  1.00  0.00     0.022 A 
BRANCH  59  63
ATOM     63  S   UNL A   1      43.075  27.591  25.447  1.00  0.00     0.124 S 
ATOM     64  O   UNL A   1      43.476  26.295  24.903  1.00  0.00    -0.237 OA
ATOM     65  O   UNL A   1      42.180  28.383  24.611  1.00  0.00    -0.237 OA
ATOM     66  O   UNL A   1      44.142  28.340  26.105  1.00  0.00    -0.744 OA
ENDBRANCH  59  63
ENDBRANCH  42  56
BRANCH  43  67
ATOM     67  C   UNL A   1      39.722  33.524  37.014  1.00  0.00     0.023 A 
ATOM     68  C   UNL A   1      39.079  32.977  38.135  1.00  0.00     0.031 A 
ATOM     69  C   UNL A   1      40.108  34.875  37.071  1.00  0.00     0.131 A 
ATOM     70  C   UNL A   1      38.802  33.784  39.249  1.00  0.00     0.055 A 
ATOM     71  C   UNL A   1      39.876  35.662  38.200  1.00  0.00     0.041 A 
ATOM     72  F   UNL A   1      40.735  35.447  36.030  1.00  0.00    -0.206 F 
ATOM     73  C   UNL A   1      39.206  35.121  39.293  1.00  0.00     0.022 A 
BRANCH  70  74
ATOM     74  S   UNL A   1      37.835  33.081  40.612  1.00  0.00     0.124 S 
ATOM     75  O   UNL A   1      36.492  33.056  40.042  1.00  0.00    -0.237 OA
ATOM     76  O   UNL A   1      38.477  31.784  40.800  1.00  0.00    -0.237 OA
ATOM     77  O   UNL A   1      38.034  34.037  41.698  1.00  0.00    -0.744 OA
ENDBRANCH  70  74
ENDBRANCH  43  67
BRANCH  55  78
ATOM     78  C   UNL A   1      44.350  28.572  35.358  1.00  0.00     0.023 A 
ATOM     79  C   UNL A   1      44.279  27.443  36.191  1.00  0.00     0.031 A 
ATOM     80  C   UNL A   1      45.598  29.197  35.188  1.00  0.00     0.131 A 
ATOM     81  C   UNL A   1      45.432  26.997  36.855  1.00  0.00     0.055 A 
ATOM     82  C   UNL A   1      46.750  28.719  35.812  1.00  0.00     0.041 A 
ATOM     83  F   UNL A   1      45.717  30.281  34.403  1.00  0.00    -0.206 F 
ATOM     84  C   UNL A   1      46.669  27.617  36.658  1.00  0.00     0.022 A 
BRANCH  81  85
ATOM     85  S   UNL A   1      45.284  25.624  38.031  1.00  0.00     0.124 S 
ATOM     86  O   UNL A   1      45.538  26.287  39.306  1.00  0.00    -0.237 OA
ATOM     87  O   UNL A   1      43.916  25.168  37.811  1.00  0.00    -0.237 OA
ATOM     88  O   UNL A   1      46.323  24.690  37.601  1.00  0.00    -0.744 OA
ENDBRANCH  81  85
ENDBRANCH  55  78
ENDBRANCH  29  30
ENDBRANCH  21  24
ENDBRANCH  19  20
ENDBRANCH  18  19
ENDBRANCH   1  18
TORSDOF 18
ENDMDL
MODEL 3
REMARK VINA RESULT:     -10.1      5.166      9.970
REMARK SMILES CC[N@@H+](C/C(Cl)=C/Cl)C[C@@H](C)C(=O)NCCCNC(=O)c1ccc(-c2c3nc(c(-c4cc(S(=O)(=O)[O-])ccc4F)c4ccc([nH]4)c(-c4cc(S(=O)(=O)[O-])ccc4F)c4nc(c(-c5cc(S(=O)(=O)[O-])ccc5F)c5ccc2[nH]5)C=C4)C=C3)cc1
REMARK SMILES IDX 15 1 14 2 12 3 13 4 10 6 11 7 9 8 3 9 2 11 1 12 4 13 5 14
REMARK SMILES IDX 6 15 7 16 8 17 16 18 17 19 18 20 19 21 20 23 21 24 22 25
REMARK SMILES IDX 83 26 23 27 82 28 24 29 25 30 26 31 76 32 27 33 81 34 75 35
REMARK SMILES IDX 77 36 28 37 80 38 74 39 73 40 29 42 61 43 41 44 60 45 42 46
REMARK SMILES IDX 45 47 59 48 78 49 43 50 44 51 58 53 79 54 46 55 30 56 31 57
REMARK SMILES IDX 39 58 32 59 38 60 40 61 37 62 33 63 34 64 35 65 36 66 62 67
REMARK SMILES IDX 63 68 71 69 64 70 70 71 72 72 69 73 65 74 66 75 67 76 68 77
REMARK SMILES IDX 47 78 48 79 56 80 49 81 55 82 57 83 54 84 50 85 51 86 52 87
REMARK SMILES IDX 53 88
REMARK H PARENT 14 5 3 10 18 22 77 41 45 52
REMARK Flexibility Score: inf
ROOT
ATOM      1  C   UNL A   1      34.460  23.868  26.092  1.00  0.00     0.117 C 
ENDROOT
BRANCH   1   2
ATOM      2  N   UNL A   1      33.090  23.795  26.564  1.00  0.00    -0.356 N 
ATOM      3  C   UNL A   1      32.104  24.730  26.593  1.00  0.00     0.228 C 
ATOM      4  O   UNL A   1      31.024  24.399  27.088  1.00  0.00    -0.275 OA
ATOM      5  H   UNL A   1      32.830  22.917  26.925  1.00  0.00     0.163 HD
BRANCH   3   6
ATOM      6  C   UNL A   1      32.299  26.131  26.024  1.00  0.00     0.130 C 
ATOM      7  C   UNL A   1      31.729  27.184  26.972  1.00  0.00     0.024 C 
BRANCH   6   8
ATOM      8  C   UNL A   1      31.866  26.175  24.544  1.00  0.00     0.275 C 
BRANCH   8   9
ATOM      9  N   UNL A   1      32.772  26.694  23.518  1.00  0.00    -0.330 N 
ATOM     10  H   UNL A   1      33.574  26.869  24.125  1.00  0.00     0.348 HD
BRANCH   9  11
ATOM     11  C   UNL A   1      33.414  25.764  22.600  1.00  0.00     0.259 C 
ATOM     12  C   UNL A   1      32.898  24.332  22.712  1.00  0.00     0.071 C 
ENDBRANCH   9  11
BRANCH   9  13
ATOM     13  C   UNL A   1      32.473  28.027  22.990  1.00  0.00     0.312 C 
BRANCH  13  14
ATOM     14  C   UNL A   1      31.105  28.615  23.240  1.00  0.00     0.083 C 
ATOM     15  Cl  UNL A   1      31.018  29.703  24.595  1.00  0.00    -0.082 Cl
ATOM     16  C   UNL A   1      30.039  28.377  22.465  1.00  0.00     0.102 C 
ATOM     17  Cl  UNL A   1      28.458  28.996  22.703  1.00  0.00    -0.091 Cl
ENDBRANCH  13  14
ENDBRANCH   9  13
ENDBRANCH   8   9
ENDBRANCH   6   8
ENDBRANCH   3   6
ENDBRANCH   1   2
BRANCH   1  18
ATOM     18  C   UNL A   1      35.035  22.492  25.792  1.00  0.00     0.042 C 
BRANCH  18  19
ATOM     19  C   UNL A   1      36.358  22.542  25.043  1.00  0.00     0.118 C 
BRANCH  19  20
ATOM     20  N   UNL A   1      37.130  21.316  25.199  1.00  0.00    -0.352 N 
ATOM     21  C   UNL A   1      38.412  21.151  25.671  1.00  0.00     0.251 C 
ATOM     22  H   UNL A   1      36.670  20.489  24.931  1.00  0.00     0.163 HD
ATOM     23  O   UNL A   1      38.979  20.075  25.540  1.00  0.00    -0.269 OA
BRANCH  21  24
ATOM     24  C   UNL A   1      39.096  22.295  26.311  1.00  0.00     0.039 A 
ATOM     25  C   UNL A   1      40.170  22.059  27.171  1.00  0.00     0.014 A 
ATOM     26  C   UNL A   1      38.690  23.600  26.027  1.00  0.00     0.014 A 
ATOM     27  C   UNL A   1      40.890  23.140  27.686  1.00  0.00     0.010 A 
ATOM     28  C   UNL A   1      39.458  24.669  26.467  1.00  0.00     0.010 A 
ATOM     29  C   UNL A   1      40.565  24.451  27.303  1.00  0.00    -0.014 A 
BRANCH  29  30
ATOM     30  C   UNL A   1      41.338  25.630  27.772  1.00  0.00     0.031 A 
ATOM     31  C   UNL A   1      40.635  26.703  28.557  1.00  0.00     0.074 A 
ATOM     32  C   UNL A   1      42.623  25.786  27.400  1.00  0.00     0.049 A 
ATOM     33  N   UNL A   1      41.049  27.898  28.886  1.00  0.00    -0.248 NA
ATOM     34  C   UNL A   1      39.261  26.399  28.988  1.00  0.00     0.031 C 
ATOM     35  C   UNL A   1      43.402  24.828  26.612  1.00  0.00     0.029 A 
ATOM     36  N   UNL A   1      43.496  26.824  27.612  1.00  0.00    -0.354 N 
ATOM     37  C   UNL A   1      39.974  28.504  29.529  1.00  0.00     0.074 A 
ATOM     38  C   UNL A   1      38.876  27.561  29.491  1.00  0.00     0.031 C 
ATOM     39  C   UNL A   1      44.637  25.318  26.418  1.00  0.00     0.029 A 
ATOM     40  C   UNL A   1      44.724  26.646  27.018  1.00  0.00     0.049 A 
ATOM     41  H   UNL A   1      43.265  27.622  28.141  1.00  0.00     0.167 HD
ATOM     42  C   UNL A   1      39.915  29.728  30.111  1.00  0.00     0.034 A 
ATOM     43  C   UNL A   1      45.788  27.469  26.943  1.00  0.00     0.034 A 
ATOM     44  C   UNL A   1      41.033  30.637  30.162  1.00  0.00     0.049 A 
ATOM     45  C   UNL A   1      45.704  28.825  27.600  1.00  0.00     0.074 A 
ATOM     46  C   UNL A   1      41.107  31.879  30.769  1.00  0.00     0.029 A 
ATOM     47  N   UNL A   1      42.275  30.401  29.586  1.00  0.00    -0.354 N 
ATOM     48  N   UNL A   1      44.690  29.377  28.224  1.00  0.00    -0.248 NA
ATOM     49  C   UNL A   1      46.909  29.664  27.549  1.00  0.00     0.031 C 
ATOM     50  C   UNL A   1      42.375  32.415  30.515  1.00  0.00     0.029 A 
ATOM     51  C   UNL A   1      43.115  31.479  29.810  1.00  0.00     0.049 A 
ATOM     52  H   UNL A   1      42.521  29.586  29.091  1.00  0.00     0.167 HD
ATOM     53  C   UNL A   1      45.149  30.611  28.675  1.00  0.00     0.074 A 
ATOM     54  C   UNL A   1      46.529  30.722  28.250  1.00  0.00     0.031 C 
ATOM     55  C   UNL A   1      44.492  31.563  29.385  1.00  0.00     0.034 A 
BRANCH  42  56
ATOM     56  C   UNL A   1      38.595  30.148  30.710  1.00  0.00     0.023 A 
ATOM     57  C   UNL A   1      37.625  30.830  29.954  1.00  0.00     0.031 A 
ATOM     58  C   UNL A   1      38.317  29.903  32.065  1.00  0.00     0.131 A 
ATOM     59  C   UNL A   1      36.468  31.321  30.576  1.00  0.00     0.055 A 
ATOM     60  C   UNL A   1      37.122  30.316  32.659  1.00  0.00     0.041 A 
ATOM     61  F   UNL A   1      39.211  29.274  32.845  1.00  0.00    -0.206 F 
ATOM     62  C   UNL A   1      36.197  31.045  31.918  1.00  0.00     0.022 A 
BRANCH  59  63
ATOM     63  S   UNL A   1      35.402  32.454  29.646  1.00  0.00     0.124 S 
ATOM     64  O   UNL A   1      34.335  32.713  30.612  1.00  0.00    -0.237 OA
ATOM     65  O   UNL A   1      36.295  33.573  29.368  1.00  0.00    -0.237 OA
ATOM     66  O   UNL A   1      35.000  31.669  28.481  1.00  0.00    -0.744 OA
ENDBRANCH  59  63
ENDBRANCH  42  56
BRANCH  43  67
ATOM     67  C   UNL A   1      47.019  27.049  26.217  1.00  0.00     0.023 A 
ATOM     68  C   UNL A   1      48.057  26.380  26.883  1.00  0.00     0.031 A 
ATOM     69  C   UNL A   1      47.192  27.339  24.852  1.00  0.00     0.131 A 
ATOM     70  C   UNL A   1      49.240  26.061  26.198  1.00  0.00     0.055 A 
ATOM     71  C   UNL A   1      48.350  26.976  24.161  1.00  0.00     0.041 A 
ATOM     72  F   UNL A   1      46.227  27.970  24.163  1.00  0.00    -0.206 F 
ATOM     73  C   UNL A   1      49.388  26.344  24.839  1.00  0.00     0.022 A 
BRANCH  70  74
ATOM     74  S   UNL A   1      50.615  25.336  27.132  1.00  0.00     0.124 S 
ATOM     75  O   UNL A   1      51.532  24.955  26.063  1.00  0.00    -0.237 OA
ATOM     76  O   UNL A   1      51.034  26.455  27.970  1.00  0.00    -0.237 OA
ATOM     77  O   UNL A   1      49.991  24.224  27.846  1.00  0.00    -0.744 OA
ENDBRANCH  70  74
ENDBRANCH  43  67
BRANCH  55  78
ATOM     78  C   UNL A   1      45.284  32.772  29.811  1.00  0.00     0.023 A 
ATOM     79  C   UNL A   1      45.398  33.913  28.999  1.00  0.00     0.031 A 
ATOM     80  C   UNL A   1      45.922  32.782  31.064  1.00  0.00     0.131 A 
ATOM     81  C   UNL A   1      46.167  35.003  29.434  1.00  0.00     0.055 A 
ATOM     82  C   UNL A   1      46.644  33.888  31.513  1.00  0.00     0.041 A 
ATOM     83  F   UNL A   1      45.844  31.716  31.878  1.00  0.00    -0.206 F 
ATOM     84  C   UNL A   1      46.776  35.004  30.692  1.00  0.00     0.022 A 
BRANCH  81  85
ATOM     85  S   UNL A   1      46.411  36.403  28.308  1.00  0.00     0.124 S 
ATOM     86  O   UNL A   1      47.318  35.839  27.314  1.00  0.00    -0.237 OA
ATOM     87  O   UNL A   1      45.054  36.678  27.850  1.00  0.00    -0.237 OA
ATOM     88  O   UNL A   1      46.995  37.435  29.165  1.00  0.00    -0.744 OA
ENDBRANCH  81  85
ENDBRANCH  55  78
ENDBRANCH  29  30
ENDBRANCH  21  24
ENDBRANCH  19  20
ENDBRANCH  18  19
ENDBRANCH   1  18
TORSDOF 18
ENDMDL
