MODEL 1
REMARK VINA RESULT:     -11.7      0.000      0.000
REMARK SMILES O=C(CCN/C(=[NH+]\S(=O)(=O)c1ccccc1)c1ccccc1)NCCCNC(=O)c1ccc(-c2c3nc(c(-c4cc(S(=O)(=O)[O-])ccc4F)c4ccc([nH]4)c(-c4cc(S(=O)(=O)[O-])ccc4F)c4nc(c(-c5cc(S(=O)(=O)[O-])ccc5F)c5ccc2[nH]5)C=C4)C=C3)cc1
REMARK SMILES IDX 24 1 23 2 1 3 2 4 3 6 4 7 5 8 6 9 7 11 17 13 18 14 22 15
REMARK SMILES IDX 19 16 21 17 20 18 8 19 9 20 10 21 11 22 12 23 16 24 13 25
REMARK SMILES IDX 15 26 14 27 25 28 26 29 27 30 28 31 29 33 30 34 31 35 92 36
REMARK SMILES IDX 32 37 91 38 33 39 34 40 35 41 85 42 36 43 90 44 84 45 86 46
REMARK SMILES IDX 37 47 89 48 83 49 82 50 38 52 70 53 50 54 69 55 51 56 54 57
REMARK SMILES IDX 68 58 87 59 52 60 53 61 67 63 88 64 55 65 39 66 40 67 48 68
REMARK SMILES IDX 41 69 47 70 49 71 46 72 42 73 43 74 44 75 45 76 71 77 72 78
REMARK SMILES IDX 80 79 73 80 79 81 81 82 78 83 74 84 75 85 76 86 77 87 56 88
REMARK SMILES IDX 57 89 65 90 58 91 64 92 66 93 63 94 59 95 60 96 61 97 62 98
REMARK H PARENT 23 5 5 10 7 12 27 32 86 51 54 62
REMARK Flexibility Score: inf
ROOT
ATOM      1  C   UNL A   1      33.885  27.449  23.906  1.00  0.00     0.117 C 
ENDROOT
BRANCH   1   2
ATOM      2  N   UNL A   1      33.502  26.069  23.689  1.00  0.00    -0.356 N 
ATOM      3  O   UNL A   1      33.671  26.124  21.395  1.00  0.00    -0.275 OA
ATOM      4  C   UNL A   1      33.443  25.512  22.434  1.00  0.00     0.223 C 
ATOM      5  H   UNL A   1      33.276  25.510  24.468  1.00  0.00     0.163 HD
BRANCH   4   6
ATOM      6  C   UNL A   1      33.133  24.037  22.426  1.00  0.00     0.145 C 
BRANCH   6   7
ATOM      7  C   UNL A   1      34.317  23.255  22.980  1.00  0.00     0.243 C 
BRANCH   7   8
ATOM      8  N   UNL A   1      33.897  22.269  23.964  1.00  0.00    -0.273 N 
ATOM      9  C   UNL A   1      34.694  21.495  24.789  1.00  0.00     0.290 C 
ATOM     10  H   UNL A   1      32.926  22.135  24.052  1.00  0.00     0.305 HD
ATOM     11  N   UNL A   1      34.406  20.305  25.221  1.00  0.00    -0.162 N 
ATOM     12  H   UNL A   1      34.985  19.870  25.888  1.00  0.00     0.327 HD
BRANCH   9  13
ATOM     13  C   UNL A   1      36.001  22.055  25.264  1.00  0.00     0.064 A 
ATOM     14  C   UNL A   1      37.174  21.315  25.099  1.00  0.00     0.016 A 
ATOM     15  C   UNL A   1      36.048  23.323  25.856  1.00  0.00     0.016 A 
ATOM     16  C   UNL A   1      38.399  21.861  25.489  1.00  0.00     0.001 A 
ATOM     17  C   UNL A   1      37.275  23.869  26.234  1.00  0.00     0.001 A 
ATOM     18  C   UNL A   1      38.449  23.141  26.046  1.00  0.00     0.000 A 
ENDBRANCH   9  13
BRANCH  11  19
ATOM     19  S   UNL A   1      33.096  19.535  24.664  1.00  0.00     0.328 S 
ATOM     20  O   UNL A   1      31.932  19.973  25.412  1.00  0.00    -0.179 OA
ATOM     21  O   UNL A   1      33.084  19.703  23.218  1.00  0.00    -0.179 OA
BRANCH  19  22
ATOM     22  C   UNL A   1      33.350  17.812  25.018  1.00  0.00     0.109 A 
ATOM     23  C   UNL A   1      34.605  17.233  24.804  1.00  0.00     0.024 A 
ATOM     24  C   UNL A   1      32.259  17.020  25.394  1.00  0.00     0.024 A 
ATOM     25  C   UNL A   1      34.766  15.855  24.965  1.00  0.00     0.001 A 
ATOM     26  C   UNL A   1      32.430  15.643  25.557  1.00  0.00     0.001 A 
ATOM     27  C   UNL A   1      33.680  15.063  25.338  1.00  0.00     0.000 A 
ENDBRANCH  19  22
ENDBRANCH  11  19
ENDBRANCH   7   8
ENDBRANCH   6   7
ENDBRANCH   4   6
ENDBRANCH   1   2
BRANCH   1  28
ATOM     28  C   UNL A   1      33.273  28.047  25.169  1.00  0.00     0.042 C 
BRANCH  28  29
ATOM     29  C   UNL A   1      34.264  28.708  26.122  1.00  0.00     0.118 C 
BRANCH  29  30
ATOM     30  N   UNL A   1      33.815  29.994  26.632  1.00  0.00    -0.352 N 
ATOM     31  C   UNL A   1      34.402  30.816  27.562  1.00  0.00     0.251 C 
ATOM     32  H   UNL A   1      32.967  30.324  26.255  1.00  0.00     0.163 HD
ATOM     33  O   UNL A   1      33.826  31.842  27.913  1.00  0.00    -0.269 OA
BRANCH  31  34
ATOM     34  C   UNL A   1      35.702  30.450  28.170  1.00  0.00     0.039 A 
ATOM     35  C   UNL A   1      35.692  29.671  29.330  1.00  0.00     0.014 A 
ATOM     36  C   UNL A   1      36.916  30.864  27.615  1.00  0.00     0.014 A 
ATOM     37  C   UNL A   1      36.899  29.249  29.893  1.00  0.00     0.010 A 
ATOM     38  C   UNL A   1      38.119  30.396  28.145  1.00  0.00     0.010 A 
ATOM     39  C   UNL A   1      38.122  29.576  29.284  1.00  0.00    -0.014 A 
BRANCH  39  40
ATOM     40  C   UNL A   1      39.398  29.025  29.812  1.00  0.00     0.031 A 
ATOM     41  C   UNL A   1      40.069  29.646  31.006  1.00  0.00     0.074 A 
ATOM     42  C   UNL A   1      39.971  27.979  29.183  1.00  0.00     0.049 A 
ATOM     43  N   UNL A   1      41.182  29.298  31.603  1.00  0.00    -0.248 NA
ATOM     44  C   UNL A   1      39.417  30.826  31.588  1.00  0.00     0.031 C 
ATOM     45  C   UNL A   1      39.442  27.326  27.983  1.00  0.00     0.029 A 
ATOM     46  N   UNL A   1      41.120  27.282  29.459  1.00  0.00    -0.354 N 
ATOM     47  C   UNL A   1      41.365  30.215  32.632  1.00  0.00     0.074 A 
ATOM     48  C   UNL A   1      40.279  31.170  32.534  1.00  0.00     0.031 C 
ATOM     49  C   UNL A   1      40.247  26.307  27.646  1.00  0.00     0.029 A 
ATOM     50  C   UNL A   1      41.368  26.254  28.579  1.00  0.00     0.049 A 
ATOM     51  H   UNL A   1      41.711  27.498  30.217  1.00  0.00     0.167 HD
ATOM     52  C   UNL A   1      42.336  30.246  33.580  1.00  0.00     0.034 A 
ATOM     53  C   UNL A   1      42.382  25.370  28.527  1.00  0.00     0.034 A 
ATOM     54  C   UNL A   1      43.414  29.287  33.658  1.00  0.00     0.049 A 
ATOM     55  C   UNL A   1      43.451  25.426  29.588  1.00  0.00     0.074 A 
ATOM     56  C   UNL A   1      44.424  29.198  34.602  1.00  0.00     0.029 A 
ATOM     57  N   UNL A   1      43.632  28.254  32.753  1.00  0.00    -0.354 N 
ATOM     58  N   UNL A   1      43.577  26.263  30.592  1.00  0.00    -0.248 NA
ATOM     59  C   UNL A   1      44.501  24.403  29.519  1.00  0.00     0.031 C 
ATOM     60  C   UNL A   1      45.285  28.159  34.233  1.00  0.00     0.029 A 
ATOM     61  C   UNL A   1      44.773  27.544  33.102  1.00  0.00     0.049 A 
ATOM     62  H   UNL A   1      43.061  28.056  31.977  1.00  0.00     0.167 HD
ATOM     63  C   UNL A   1      44.707  25.847  31.292  1.00  0.00     0.074 A 
ATOM     64  C   UNL A   1      45.208  24.673  30.606  1.00  0.00     0.031 C 
ATOM     65  C   UNL A   1      45.276  26.385  32.401  1.00  0.00     0.034 A 
BRANCH  52  66
ATOM     66  C   UNL A   1      42.285  31.370  34.588  1.00  0.00     0.023 A 
ATOM     67  C   UNL A   1      41.300  31.416  35.592  1.00  0.00     0.031 A 
ATOM     68  C   UNL A   1      43.216  32.423  34.534  1.00  0.00     0.131 A 
ATOM     69  C   UNL A   1      41.222  32.526  36.448  1.00  0.00     0.055 A 
ATOM     70  C   UNL A   1      43.183  33.484  35.443  1.00  0.00     0.041 A 
ATOM     71  F   UNL A   1      44.167  32.447  33.587  1.00  0.00    -0.206 F 
ATOM     72  C   UNL A   1      42.172  33.547  36.397  1.00  0.00     0.022 A 
BRANCH  69  73
ATOM     73  S   UNL A   1      39.773  32.685  37.528  1.00  0.00     0.124 S 
ATOM     74  O   UNL A   1      39.190  33.939  37.058  1.00  0.00    -0.237 OA
ATOM     75  O   UNL A   1      39.019  31.475  37.224  1.00  0.00    -0.237 OA
ATOM     76  O   UNL A   1      40.350  32.740  38.870  1.00  0.00    -0.744 OA
ENDBRANCH  69  73
ENDBRANCH  52  66
BRANCH  53  77
ATOM     77  C   UNL A   1      42.441  24.351  27.441  1.00  0.00     0.023 A 
ATOM     78  C   UNL A   1      41.925  23.059  27.631  1.00  0.00     0.031 A 
ATOM     79  C   UNL A   1      43.050  24.643  26.208  1.00  0.00     0.131 A 
ATOM     80  C   UNL A   1      42.072  22.092  26.625  1.00  0.00     0.055 A 
ATOM     81  C   UNL A   1      43.145  23.693  25.189  1.00  0.00     0.041 A 
ATOM     82  F   UNL A   1      43.551  25.866  25.971  1.00  0.00    -0.206 F 
ATOM     83  C   UNL A   1      42.667  22.404  25.400  1.00  0.00     0.022 A 
BRANCH  80  84
ATOM     84  S   UNL A   1      41.546  20.391  26.973  1.00  0.00     0.124 S 
ATOM     85  O   UNL A   1      40.480  20.602  27.946  1.00  0.00    -0.237 OA
ATOM     86  O   UNL A   1      41.129  19.927  25.653  1.00  0.00    -0.237 OA
ATOM     87  O   UNL A   1      42.755  19.762  27.498  1.00  0.00    -0.744 OA
ENDBRANCH  80  84
ENDBRANCH  53  77
BRANCH  65  88
ATOM     88  C   UNL A   1      46.487  25.672  32.956  1.00  0.00     0.023 A 
ATOM     89  C   UNL A   1      47.783  25.925  32.473  1.00  0.00     0.031 A 
ATOM     90  C   UNL A   1      46.335  24.690  33.952  1.00  0.00     0.131 A 
ATOM     91  C   UNL A   1      48.864  25.153  32.927  1.00  0.00     0.055 A 
ATOM     92  C   UNL A   1      47.425  23.972  34.450  1.00  0.00     0.041 A 
ATOM     93  F   UNL A   1      45.122  24.403  34.450  1.00  0.00    -0.206 F 
ATOM     94  C   UNL A   1      48.695  24.190  33.924  1.00  0.00     0.022 A 
BRANCH  91  95
ATOM     95  S   UNL A   1      50.472  25.339  32.108  1.00  0.00     0.124 S 
ATOM     96  O   UNL A   1      51.315  25.817  33.200  1.00  0.00    -0.237 OA
ATOM     97  O   UNL A   1      50.743  23.983  31.642  1.00  0.00    -0.237 OA
ATOM     98  O   UNL A   1      50.210  26.316  31.054  1.00  0.00    -0.744 OA
ENDBRANCH  91  95
ENDBRANCH  65  88
ENDBRANCH  39  40
ENDBRANCH  31  34
ENDBRANCH  29  30
ENDBRANCH  28  29
ENDBRANCH   1  28
TORSDOF 18
ENDMDL
MODEL 2
REMARK VINA RESULT:     -11.6      2.879      3.782
REMARK SMILES O=C(CCN/C(=[NH+]\S(=O)(=O)c1ccccc1)c1ccccc1)NCCCNC(=O)c1ccc(-c2c3nc(c(-c4cc(S(=O)(=O)[O-])ccc4F)c4ccc([nH]4)c(-c4cc(S(=O)(=O)[O-])ccc4F)c4nc(c(-c5cc(S(=O)(=O)[O-])ccc5F)c5ccc2[nH]5)C=C4)C=C3)cc1
REMARK SMILES IDX 24 1 23 2 1 3 2 4 3 6 4 7 5 8 6 9 7 11 17 13 18 14 22 15
REMARK SMILES IDX 19 16 21 17 20 18 8 19 9 20 10 21 11 22 12 23 16 24 13 25
REMARK SMILES IDX 15 26 14 27 25 28 26 29 27 30 28 31 29 33 30 34 31 35 92 36
REMARK SMILES IDX 32 37 91 38 33 39 34 40 35 41 85 42 36 43 90 44 84 45 86 46
REMARK SMILES IDX 37 47 89 48 83 49 82 50 38 52 70 53 50 54 69 55 51 56 54 57
REMARK SMILES IDX 68 58 87 59 52 60 53 61 67 63 88 64 55 65 39 66 40 67 48 68
REMARK SMILES IDX 41 69 47 70 49 71 46 72 42 73 43 74 44 75 45 76 71 77 72 78
REMARK SMILES IDX 80 79 73 80 79 81 81 82 78 83 74 84 75 85 76 86 77 87 56 88
REMARK SMILES IDX 57 89 65 90 58 91 64 92 66 93 63 94 59 95 60 96 61 97 62 98
REMARK H PARENT 23 5 5 10 7 12 27 32 86 51 54 62
REMARK Flexibility Score: inf
ROOT
ATOM      1  C   UNL A   1      31.200  28.541  24.560  1.00  0.00     0.117 C 
ENDROOT
BRANCH   1   2
ATOM      2  N   UNL A   1      31.180  27.305  25.315  1.00  0.00    -0.356 N 
ATOM      3  O   UNL A   1      29.309  26.428  24.303  1.00  0.00    -0.275 OA
ATOM      4  C   UNL A   1      30.232  26.332  25.107  1.00  0.00     0.223 C 
ATOM      5  H   UNL A   1      31.870  27.157  26.002  1.00  0.00     0.163 HD
BRANCH   4   6
ATOM      6  C   UNL A   1      30.447  25.077  25.913  1.00  0.00     0.145 C 
BRANCH   6   7
ATOM      7  C   UNL A   1      31.861  25.060  26.477  1.00  0.00     0.243 C 
BRANCH   7   8
ATOM      8  N   UNL A   1      32.624  23.923  25.982  1.00  0.00    -0.273 N 
ATOM      9  C   UNL A   1      32.842  23.551  24.667  1.00  0.00     0.290 C 
ATOM     10  H   UNL A   1      33.035  23.349  26.667  1.00  0.00     0.305 HD
ATOM     11  N   UNL A   1      33.011  22.335  24.243  1.00  0.00    -0.162 N 
ATOM     12  H   UNL A   1      33.263  22.172  23.305  1.00  0.00     0.327 HD
BRANCH   9  13
ATOM     13  C   UNL A   1      32.916  24.617  23.616  1.00  0.00     0.064 A 
ATOM     14  C   UNL A   1      31.998  24.619  22.563  1.00  0.00     0.016 A 
ATOM     15  C   UNL A   1      33.893  25.617  23.697  1.00  0.00     0.016 A 
ATOM     16  C   UNL A   1      32.031  25.645  21.616  1.00  0.00     0.001 A 
ATOM     17  C   UNL A   1      33.916  26.646  22.756  1.00  0.00     0.001 A 
ATOM     18  C   UNL A   1      32.983  26.662  21.720  1.00  0.00     0.000 A 
ENDBRANCH   9  13
BRANCH  11  19
ATOM     19  S   UNL A   1      32.808  21.088  25.254  1.00  0.00     0.328 S 
ATOM     20  O   UNL A   1      33.786  21.178  26.324  1.00  0.00    -0.179 OA
ATOM     21  O   UNL A   1      31.398  21.055  25.616  1.00  0.00    -0.179 OA
BRANCH  19  22
ATOM     22  C   UNL A   1      33.171  19.625  24.312  1.00  0.00     0.109 A 
ATOM     23  C   UNL A   1      32.319  19.235  23.273  1.00  0.00     0.024 A 
ATOM     24  C   UNL A   1      34.242  18.810  24.694  1.00  0.00     0.024 A 
ATOM     25  C   UNL A   1      32.540  18.021  22.619  1.00  0.00     0.001 A 
ATOM     26  C   UNL A   1      34.458  17.599  24.031  1.00  0.00     0.001 A 
ATOM     27  C   UNL A   1      33.606  17.205  23.000  1.00  0.00     0.000 A 
ENDBRANCH  19  22
ENDBRANCH  11  19
ENDBRANCH   7   8
ENDBRANCH   6   7
ENDBRANCH   4   6
ENDBRANCH   1   2
BRANCH   1  28
ATOM     28  C   UNL A   1      32.526  29.287  24.670  1.00  0.00     0.042 C 
BRANCH  28  29
ATOM     29  C   UNL A   1      32.974  29.611  26.091  1.00  0.00     0.118 C 
BRANCH  29  30
ATOM     30  N   UNL A   1      32.735  30.992  26.480  1.00  0.00    -0.352 N 
ATOM     31  C   UNL A   1      33.452  31.794  27.332  1.00  0.00     0.251 C 
ATOM     32  H   UNL A   1      31.942  31.412  26.074  1.00  0.00     0.163 HD
ATOM     33  O   UNL A   1      33.044  32.924  27.587  1.00  0.00    -0.269 OA
BRANCH  31  34
ATOM     34  C   UNL A   1      34.688  31.290  27.972  1.00  0.00     0.039 A 
ATOM     35  C   UNL A   1      35.819  32.111  27.964  1.00  0.00     0.014 A 
ATOM     36  C   UNL A   1      34.744  30.028  28.570  1.00  0.00     0.014 A 
ATOM     37  C   UNL A   1      36.982  31.697  28.618  1.00  0.00     0.010 A 
ATOM     38  C   UNL A   1      35.887  29.640  29.269  1.00  0.00     0.010 A 
ATOM     39  C   UNL A   1      37.014  30.474  29.309  1.00  0.00    -0.014 A 
BRANCH  39  40
ATOM     40  C   UNL A   1      38.209  30.091  30.106  1.00  0.00     0.031 A 
ATOM     41  C   UNL A   1      38.425  30.646  31.486  1.00  0.00     0.074 A 
ATOM     42  C   UNL A   1      39.123  29.263  29.561  1.00  0.00     0.049 A 
ATOM     43  N   UNL A   1      39.406  30.422  32.325  1.00  0.00    -0.248 NA
ATOM     44  C   UNL A   1      37.419  31.598  31.978  1.00  0.00     0.031 C 
ATOM     45  C   UNL A   1      39.051  28.702  28.209  1.00  0.00     0.029 A 
ATOM     46  N   UNL A   1      40.290  28.751  30.069  1.00  0.00    -0.354 N 
ATOM     47  C   UNL A   1      39.138  31.203  33.444  1.00  0.00     0.074 A 
ATOM     48  C   UNL A   1      37.933  31.953  33.147  1.00  0.00     0.031 C 
ATOM     49  C   UNL A   1      40.108  27.901  28.008  1.00  0.00     0.029 A 
ATOM     50  C   UNL A   1      40.953  27.918  29.198  1.00  0.00     0.049 A 
ATOM     51  H   UNL A   1      40.621  28.959  30.973  1.00  0.00     0.167 HD
ATOM     52  C   UNL A   1      39.820  31.272  34.615  1.00  0.00     0.034 A 
ATOM     53  C   UNL A   1      42.112  27.245  29.339  1.00  0.00     0.034 A 
ATOM     54  C   UNL A   1      41.022  30.520  34.891  1.00  0.00     0.049 A 
ATOM     55  C   UNL A   1      42.854  27.340  30.647  1.00  0.00     0.074 A 
ATOM     56  C   UNL A   1      41.767  30.480  36.058  1.00  0.00     0.029 A 
ATOM     57  N   UNL A   1      41.665  29.681  33.988  1.00  0.00    -0.354 N 
ATOM     58  N   UNL A   1      42.554  28.037  31.720  1.00  0.00    -0.248 NA
ATOM     59  C   UNL A   1      44.079  26.542  30.769  1.00  0.00     0.031 C 
ATOM     60  C   UNL A   1      42.889  29.674  35.840  1.00  0.00     0.029 A 
ATOM     61  C   UNL A   1      42.809  29.143  34.562  1.00  0.00     0.049 A 
ATOM     62  H   UNL A   1      41.354  29.495  33.072  1.00  0.00     0.167 HD
ATOM     63  C   UNL A   1      43.541  27.735  32.655  1.00  0.00     0.074 A 
ATOM     64  C   UNL A   1      44.427  26.778  32.024  1.00  0.00     0.031 C 
ATOM     65  C   UNL A   1      43.698  28.204  33.919  1.00  0.00     0.034 A 
BRANCH  52  66
ATOM     66  C   UNL A   1      39.291  32.216  35.670  1.00  0.00     0.023 A 
ATOM     67  C   UNL A   1      39.704  33.560  35.732  1.00  0.00     0.031 A 
ATOM     68  C   UNL A   1      38.382  31.764  36.643  1.00  0.00     0.131 A 
ATOM     69  C   UNL A   1      39.270  34.380  36.785  1.00  0.00     0.055 A 
ATOM     70  C   UNL A   1      37.888  32.610  37.641  1.00  0.00     0.041 A 
ATOM     71  F   UNL A   1      37.966  30.488  36.651  1.00  0.00    -0.206 F 
ATOM     72  C   UNL A   1      38.345  33.922  37.725  1.00  0.00     0.022 A 
BRANCH  69  73
ATOM     73  S   UNL A   1      40.047  36.006  36.992  1.00  0.00     0.124 S 
ATOM     74  O   UNL A   1      41.429  35.637  37.292  1.00  0.00    -0.237 OA
ATOM     75  O   UNL A   1      39.819  36.632  35.695  1.00  0.00    -0.237 OA
ATOM     76  O   UNL A   1      39.312  36.597  38.109  1.00  0.00    -0.744 OA
ENDBRANCH  69  73
ENDBRANCH  52  66
BRANCH  53  77
ATOM     77  C   UNL A   1      42.644  26.417  28.220  1.00  0.00     0.023 A 
ATOM     78  C   UNL A   1      42.243  25.082  28.053  1.00  0.00     0.031 A 
ATOM     79  C   UNL A   1      43.594  26.938  27.324  1.00  0.00     0.131 A 
ATOM     80  C   UNL A   1      42.826  24.297  27.046  1.00  0.00     0.055 A 
ATOM     81  C   UNL A   1      44.131  26.168  26.290  1.00  0.00     0.041 A 
ATOM     82  F   UNL A   1      44.006  28.211  27.434  1.00  0.00    -0.206 F 
ATOM     83  C   UNL A   1      43.757  24.835  26.155  1.00  0.00     0.022 A 
BRANCH  80  84
ATOM     84  S   UNL A   1      42.407  22.534  26.969  1.00  0.00     0.124 S 
ATOM     85  O   UNL A   1      43.578  21.979  26.299  1.00  0.00    -0.237 OA
ATOM     86  O   UNL A   1      42.255  22.197  28.381  1.00  0.00    -0.237 OA
ATOM     87  O   UNL A   1      41.172  22.511  26.189  1.00  0.00    -0.744 OA
ENDBRANCH  80  84
ENDBRANCH  53  77
BRANCH  65  88
ATOM     88  C   UNL A   1      44.859  27.647  34.710  1.00  0.00     0.023 A 
ATOM     89  C   UNL A   1      44.726  26.499  35.513  1.00  0.00     0.031 A 
ATOM     90  C   UNL A   1      46.103  28.302  34.698  1.00  0.00     0.131 A 
ATOM     91  C   UNL A   1      45.792  26.087  36.328  1.00  0.00     0.055 A 
ATOM     92  C   UNL A   1      47.182  27.846  35.459  1.00  0.00     0.041 A 
ATOM     93  F   UNL A   1      46.289  29.403  33.952  1.00  0.00    -0.206 F 
ATOM     94  C   UNL A   1      47.023  26.744  36.293  1.00  0.00     0.022 A 
BRANCH  91  95
ATOM     95  S   UNL A   1      45.506  24.755  37.527  1.00  0.00     0.124 S 
ATOM     96  O   UNL A   1      46.827  24.601  38.129  1.00  0.00    -0.237 OA
ATOM     97  O   UNL A   1      44.477  25.327  38.388  1.00  0.00    -0.237 OA
ATOM     98  O   UNL A   1      45.068  23.635  36.697  1.00  0.00    -0.744 OA
ENDBRANCH  91  95
ENDBRANCH  65  88
ENDBRANCH  39  40
ENDBRANCH  31  34
ENDBRANCH  29  30
ENDBRANCH  28  29
ENDBRANCH   1  28
TORSDOF 18
ENDMDL
MODEL 3
REMARK VINA RESULT:     -11.6      4.674      9.553
REMARK SMILES O=C(CCN/C(=[NH+]\S(=O)(=O)c1ccccc1)c1ccccc1)NCCCNC(=O)c1ccc(-c2c3nc(c(-c4cc(S(=O)(=O)[O-])ccc4F)c4ccc([nH]4)c(-c4cc(S(=O)(=O)[O-])ccc4F)c4nc(c(-c5cc(S(=O)(=O)[O-])ccc5F)c5ccc2[nH]5)C=C4)C=C3)cc1
REMARK SMILES IDX 24 1 23 2 1 3 2 4 3 6 4 7 5 8 6 9 7 11 17 13 18 14 22 15
REMARK SMILES IDX 19 16 21 17 20 18 8 19 9 20 10 21 11 22 12 23 16 24 13 25
REMARK SMILES IDX 15 26 14 27 25 28 26 29 27 30 28 31 29 33 30 34 31 35 92 36
REMARK SMILES IDX 32 37 91 38 33 39 34 40 35 41 85 42 36 43 90 44 84 45 86 46
REMARK SMILES IDX 37 47 89 48 83 49 82 50 38 52 70 53 50 54 69 55 51 56 54 57
REMARK SMILES IDX 68 58 87 59 52 60 53 61 67 63 88 64 55 65 39 66 40 67 48 68
REMARK SMILES IDX 41 69 47 70 49 71 46 72 42 73 43 74 44 75 45 76 71 77 72 78
REMARK SMILES IDX 80 79 73 80 79 81 81 82 78 83 74 84 75 85 76 86 77 87 56 88
REMARK SMILES IDX 57 89 65 90 58 91 64 92 66 93 63 94 59 95 60 96 61 97 62 98
REMARK H PARENT 23 5 5 10 7 12 27 32 86 51 54 62
REMARK Flexibility Score: inf
ROOT
ATOM      1  C   UNL A   1      35.203  22.637  23.569  1.00  0.00     0.117 C 
ENDROOT
BRANCH   1   2
ATOM      2  N   UNL A   1      34.979  24.068  23.534  1.00  0.00    -0.356 N 
ATOM      3  O   UNL A   1      32.832  23.962  22.713  1.00  0.00    -0.275 OA
ATOM      4  C   UNL A   1      33.788  24.616  23.119  1.00  0.00     0.223 C 
ATOM      5  H   UNL A   1      35.705  24.670  23.817  1.00  0.00     0.163 HD
BRANCH   4   6
ATOM      6  C   UNL A   1      33.714  26.114  23.259  1.00  0.00     0.145 C 
BRANCH   6   7
ATOM      7  C   UNL A   1      32.269  26.576  23.130  1.00  0.00     0.243 C 
BRANCH   7   8
ATOM      8  N   UNL A   1      31.459  26.127  24.253  1.00  0.00    -0.273 N 
ATOM      9  C   UNL A   1      31.674  26.347  25.602  1.00  0.00     0.290 C 
ATOM     10  H   UNL A   1      30.659  25.601  24.023  1.00  0.00     0.305 HD
ATOM     11  N   UNL A   1      31.328  25.547  26.564  1.00  0.00    -0.162 N 
ATOM     12  H   UNL A   1      31.427  25.832  27.501  1.00  0.00     0.327 HD
BRANCH   9  13
ATOM     13  C   UNL A   1      32.343  27.619  26.029  1.00  0.00     0.064 A 
ATOM     14  C   UNL A   1      33.653  27.585  26.513  1.00  0.00     0.016 A 
ATOM     15  C   UNL A   1      31.663  28.838  25.929  1.00  0.00     0.016 A 
ATOM     16  C   UNL A   1      34.296  28.776  26.856  1.00  0.00     0.001 A 
ATOM     17  C   UNL A   1      32.312  30.027  26.263  1.00  0.00     0.001 A 
ATOM     18  C   UNL A   1      33.629  29.995  26.721  1.00  0.00     0.000 A 
ENDBRANCH   9  13
BRANCH  11  19
ATOM     19  S   UNL A   1      30.731  24.081  26.225  1.00  0.00     0.328 S 
ATOM     20  O   UNL A   1      29.776  23.706  27.252  1.00  0.00    -0.179 OA
ATOM     21  O   UNL A   1      30.274  24.115  24.844  1.00  0.00    -0.179 OA
BRANCH  19  22
ATOM     22  C   UNL A   1      32.103  22.956  26.327  1.00  0.00     0.109 A 
ATOM     23  C   UNL A   1      32.086  21.767  25.589  1.00  0.00     0.024 A 
ATOM     24  C   UNL A   1      33.135  23.210  27.237  1.00  0.00     0.024 A 
ATOM     25  C   UNL A   1      33.106  20.830  25.767  1.00  0.00     0.001 A 
ATOM     26  C   UNL A   1      34.153  22.270  27.406  1.00  0.00     0.001 A 
ATOM     27  C   UNL A   1      34.135  21.081  26.676  1.00  0.00     0.000 A 
ENDBRANCH  19  22
ENDBRANCH  11  19
ENDBRANCH   7   8
ENDBRANCH   6   7
ENDBRANCH   4   6
ENDBRANCH   1   2
BRANCH   1  28
ATOM     28  C   UNL A   1      36.662  22.267  23.808  1.00  0.00     0.042 C 
BRANCH  28  29
ATOM     29  C   UNL A   1      37.172  22.509  25.225  1.00  0.00     0.118 C 
BRANCH  29  30
ATOM     30  N   UNL A   1      38.146  21.526  25.673  1.00  0.00    -0.352 N 
ATOM     31  C   UNL A   1      39.301  21.707  26.391  1.00  0.00     0.251 C 
ATOM     32  H   UNL A   1      37.947  20.593  25.425  1.00  0.00     0.163 HD
ATOM     33  O   UNL A   1      40.033  20.747  26.615  1.00  0.00    -0.269 OA
BRANCH  31  34
ATOM     34  C   UNL A   1      39.687  23.058  26.858  1.00  0.00     0.039 A 
ATOM     35  C   UNL A   1      40.626  23.158  27.889  1.00  0.00     0.014 A 
ATOM     36  C   UNL A   1      39.137  24.215  26.299  1.00  0.00     0.014 A 
ATOM     37  C   UNL A   1      41.064  24.416  28.309  1.00  0.00     0.010 A 
ATOM     38  C   UNL A   1      39.616  25.468  26.681  1.00  0.00     0.010 A 
ATOM     39  C   UNL A   1      40.592  25.581  27.683  1.00  0.00    -0.014 A 
BRANCH  39  40
ATOM     40  C   UNL A   1      41.150  26.911  28.046  1.00  0.00     0.031 A 
ATOM     41  C   UNL A   1      42.578  27.259  27.730  1.00  0.00     0.074 A 
ATOM     42  C   UNL A   1      40.368  27.794  28.698  1.00  0.00     0.049 A 
ATOM     43  N   UNL A   1      43.232  28.367  27.971  1.00  0.00    -0.248 NA
ATOM     44  C   UNL A   1      43.383  26.214  27.083  1.00  0.00     0.031 C 
ATOM     45  C   UNL A   1      38.982  27.550  29.107  1.00  0.00     0.029 A 
ATOM     46  N   UNL A   1      40.621  29.069  29.136  1.00  0.00    -0.354 N 
ATOM     47  C   UNL A   1      44.525  28.157  27.505  1.00  0.00     0.074 A 
ATOM     48  C   UNL A   1      44.575  26.790  27.025  1.00  0.00     0.031 C 
ATOM     49  C   UNL A   1      38.500  28.650  29.706  1.00  0.00     0.029 A 
ATOM     50  C   UNL A   1      39.549  29.663  29.759  1.00  0.00     0.049 A 
ATOM     51  H   UNL A   1      41.490  29.517  29.013  1.00  0.00     0.167 HD
ATOM     52  C   UNL A   1      45.565  29.027  27.463  1.00  0.00     0.034 A 
ATOM     53  C   UNL A   1      39.423  30.885  30.312  1.00  0.00     0.034 A 
ATOM     54  C   UNL A   1      45.498  30.385  27.951  1.00  0.00     0.049 A 
ATOM     55  C   UNL A   1      40.592  31.833  30.257  1.00  0.00     0.074 A 
ATOM     56  C   UNL A   1      46.477  31.365  27.916  1.00  0.00     0.029 A 
ATOM     57  N   UNL A   1      44.393  30.958  28.572  1.00  0.00    -0.354 N 
ATOM     58  N   UNL A   1      41.792  31.639  29.757  1.00  0.00    -0.248 NA
ATOM     59  C   UNL A   1      40.383  33.171  30.822  1.00  0.00     0.031 C 
ATOM     60  C   UNL A   1      45.989  32.501  28.571  1.00  0.00     0.029 A 
ATOM     61  C   UNL A   1      44.677  32.264  28.948  1.00  0.00     0.049 A 
ATOM     62  H   UNL A   1      43.534  30.502  28.724  1.00  0.00     0.167 HD
ATOM     63  C   UNL A   1      42.470  32.844  29.923  1.00  0.00     0.074 A 
ATOM     64  C   UNL A   1      41.537  33.760  30.546  1.00  0.00     0.031 C 
ATOM     65  C   UNL A   1      43.746  33.165  29.587  1.00  0.00     0.034 A 
BRANCH  52  66
ATOM     66  C   UNL A   1      46.870  28.521  26.893  1.00  0.00     0.023 A 
ATOM     67  C   UNL A   1      47.076  28.410  25.506  1.00  0.00     0.031 A 
ATOM     68  C   UNL A   1      47.916  28.120  27.745  1.00  0.00     0.131 A 
ATOM     69  C   UNL A   1      48.262  27.842  25.015  1.00  0.00     0.055 A 
ATOM     70  C   UNL A   1      49.127  27.633  27.247  1.00  0.00     0.041 A 
ATOM     71  F   UNL A   1      47.774  28.182  29.078  1.00  0.00    -0.206 F 
ATOM     72  C   UNL A   1      49.299  27.477  25.875  1.00  0.00     0.022 A 
BRANCH  69  73
ATOM     73  S   UNL A   1      48.366  27.450  23.247  1.00  0.00     0.124 S 
ATOM     74  O   UNL A   1      47.216  28.176  22.714  1.00  0.00    -0.237 OA
ATOM     75  O   UNL A   1      49.678  27.976  22.885  1.00  0.00    -0.237 OA
ATOM     76  O   UNL A   1      48.246  25.994  23.210  1.00  0.00    -0.744 OA
ENDBRANCH  69  73
ENDBRANCH  52  66
BRANCH  53  77
ATOM     77  C   UNL A   1      38.144  31.291  30.962  1.00  0.00     0.023 A 
ATOM     78  C   UNL A   1      37.133  31.936  30.232  1.00  0.00     0.031 A 
ATOM     79  C   UNL A   1      37.931  31.074  32.334  1.00  0.00     0.131 A 
ATOM     80  C   UNL A   1      35.977  32.387  30.886  1.00  0.00     0.055 A 
ATOM     81  C   UNL A   1      36.754  31.477  32.970  1.00  0.00     0.041 A 
ATOM     82  F   UNL A   1      38.861  30.454  33.077  1.00  0.00    -0.206 F 
ATOM     83  C   UNL A   1      35.775  32.150  32.248  1.00  0.00     0.022 A 
BRANCH  80  84
ATOM     84  S   UNL A   1      34.773  33.364  29.945  1.00  0.00     0.124 S 
ATOM     85  O   UNL A   1      34.058  32.328  29.208  1.00  0.00    -0.237 OA
ATOM     86  O   UNL A   1      34.025  34.029  31.008  1.00  0.00    -0.237 OA
ATOM     87  O   UNL A   1      35.610  34.244  29.132  1.00  0.00    -0.744 OA
ENDBRANCH  80  84
ENDBRANCH  53  77
BRANCH  65  88
ATOM     88  C   UNL A   1      44.183  34.586  29.858  1.00  0.00     0.023 A 
ATOM     89  C   UNL A   1      43.947  35.622  28.938  1.00  0.00     0.031 A 
ATOM     90  C   UNL A   1      44.887  34.897  31.035  1.00  0.00     0.131 A 
ATOM     91  C   UNL A   1      44.478  36.900  29.171  1.00  0.00     0.055 A 
ATOM     92  C   UNL A   1      45.353  36.187  31.294  1.00  0.00     0.041 A 
ATOM     93  F   UNL A   1      45.143  33.948  31.951  1.00  0.00    -0.206 F 
ATOM     94  C   UNL A   1      45.165  37.193  30.351  1.00  0.00     0.022 A 
BRANCH  91  95
ATOM     95  S   UNL A   1      44.365  38.143  27.854  1.00  0.00     0.124 S 
ATOM     96  O   UNL A   1      45.763  38.305  27.468  1.00  0.00    -0.237 OA
ATOM     97  O   UNL A   1      43.507  37.483  26.876  1.00  0.00    -0.237 OA
ATOM     98  O   UNL A   1      43.768  39.298  28.522  1.00  0.00    -0.744 OA
ENDBRANCH  91  95
ENDBRANCH  65  88
ENDBRANCH  39  40
ENDBRANCH  31  34
ENDBRANCH  29  30
ENDBRANCH  28  29
ENDBRANCH   1  28
TORSDOF 18
ENDMDL
