MODEL 1
REMARK VINA RESULT:     -11.9      0.000      0.000
REMARK SMILES [NH3+][C@@H](CC1=C[C@H](S)c2ccccc2C1)C(=O)NCCCNC(=O)c1ccc(-c2c3nc(c(-c4cc(S(=O)(=O)[O-])ccc4F)c4ccc([nH]4)c(-c4cc(S(=O)(=O)[O-])ccc4F)c4nc(c(-c5cc(S(=O)(=O)[O-])ccc5F)c5ccc2[nH]5)C=C4)C=C3)cc1
REMARK SMILES IDX 19 1 18 2 17 3 15 4 16 5 2 7 1 8 3 12 4 13 5 14 14 15 6 16
REMARK SMILES IDX 13 17 8 18 12 19 9 20 11 21 10 22 7 23 20 25 21 26 22 27
REMARK SMILES IDX 23 29 24 30 25 31 86 32 26 33 85 34 27 35 28 36 29 37 79 38
REMARK SMILES IDX 30 39 84 40 78 41 80 42 31 43 83 44 77 45 76 46 32 48 64 49
REMARK SMILES IDX 44 50 63 51 45 52 48 53 62 54 81 55 46 56 47 57 61 59 82 60
REMARK SMILES IDX 49 61 33 62 34 63 42 64 35 65 41 66 43 67 40 68 36 69 37 70
REMARK SMILES IDX 38 71 39 72 65 73 66 74 74 75 67 76 73 77 75 78 72 79 68 80
REMARK SMILES IDX 69 81 70 82 71 83 50 84 51 85 59 86 52 87 58 88 60 89 57 90
REMARK SMILES IDX 53 91 54 92 55 93 56 94
REMARK H PARENT 17 6 1 9 1 10 1 11 7 24 21 28 80 47 48 58
REMARK Flexibility Score: inf
ROOT
ATOM      1  C   UNL A   1      32.466  29.713  25.178  1.00  0.00     0.042 C 
ENDROOT
BRANCH   1   2
ATOM      2  C   UNL A   1      33.543  28.647  25.079  1.00  0.00     0.118 C 
BRANCH   2   3
ATOM      3  N   UNL A   1      34.129  28.514  23.762  1.00  0.00    -0.351 N 
ATOM      4  C   UNL A   1      33.722  27.916  22.614  1.00  0.00     0.278 C 
ATOM      5  O   UNL A   1      34.368  28.212  21.599  1.00  0.00    -0.268 OA
ATOM      6  H   UNL A   1      35.008  28.949  23.683  1.00  0.00     0.163 HD
BRANCH   4   7
ATOM      7  C   UNL A   1      32.573  26.884  22.518  1.00  0.00     0.275 C 
BRANCH   7   8
ATOM      8  N   UNL A   1      31.340  27.515  22.022  1.00  0.00    -0.347 N 
ATOM      9  H   UNL A   1      31.553  28.450  21.674  1.00  0.00     0.345 HD
ATOM     10  H   UNL A   1      30.663  27.581  22.781  1.00  0.00     0.345 HD
ATOM     11  H   UNL A   1      30.950  26.951  21.265  1.00  0.00     0.345 HD
ENDBRANCH   7   8
BRANCH   7  12
ATOM     12  C   UNL A   1      32.917  25.462  22.009  1.00  0.00     0.106 C 
BRANCH  12  13
ATOM     13  C   UNL A   1      33.298  24.327  22.943  1.00  0.00    -0.062 C 
ATOM     14  C   UNL A   1      34.447  24.374  23.649  1.00  0.00    -0.009 C 
ATOM     15  C   UNL A   1      32.328  23.192  23.175  1.00  0.00     0.066 C 
ATOM     16  C   UNL A   1      34.916  23.284  24.591  1.00  0.00     0.096 C 
ATOM     17  C   UNL A   1      32.968  21.925  23.697  1.00  0.00    -0.039 A 
ATOM     18  C   UNL A   1      34.200  21.958  24.382  1.00  0.00    -0.028 A 
ATOM     19  C   UNL A   1      32.301  20.701  23.507  1.00  0.00     0.004 A 
ATOM     20  C   UNL A   1      34.711  20.750  24.893  1.00  0.00     0.005 A 
ATOM     21  C   UNL A   1      32.850  19.513  23.979  1.00  0.00     0.000 A 
ATOM     22  C   UNL A   1      34.050  19.539  24.679  1.00  0.00     0.000 A 
BRANCH  16  23
ATOM     23  S   UNL A   1      36.735  23.160  24.354  1.00  0.00    -0.167 SA
ATOM     24  H   UNL A   1      37.082  21.855  24.190  1.00  0.00     0.103 HD
ENDBRANCH  16  23
ENDBRANCH  12  13
ENDBRANCH   7  12
ENDBRANCH   4   7
ENDBRANCH   2   3
ENDBRANCH   1   2
BRANCH   1  25
ATOM     25  C   UNL A   1      32.076  30.089  26.604  1.00  0.00     0.118 C 
BRANCH  25  26
ATOM     26  N   UNL A   1      32.056  31.516  26.896  1.00  0.00    -0.352 N 
ATOM     27  C   UNL A   1      33.035  32.342  27.404  1.00  0.00     0.251 C 
ATOM     28  H   UNL A   1      31.202  31.964  26.698  1.00  0.00     0.163 HD
ATOM     29  O   UNL A   1      32.789  33.541  27.532  1.00  0.00    -0.269 OA
BRANCH  27  30
ATOM     30  C   UNL A   1      34.341  31.803  27.853  1.00  0.00     0.039 A 
ATOM     31  C   UNL A   1      34.510  30.464  28.202  1.00  0.00     0.014 A 
ATOM     32  C   UNL A   1      35.426  32.680  27.963  1.00  0.00     0.014 A 
ATOM     33  C   UNL A   1      35.661  30.061  28.870  1.00  0.00     0.010 A 
ATOM     34  C   UNL A   1      36.624  32.250  28.540  1.00  0.00     0.010 A 
ATOM     35  C   UNL A   1      36.728  30.953  29.061  1.00  0.00    -0.014 A 
BRANCH  35  36
ATOM     36  C   UNL A   1      37.933  30.512  29.812  1.00  0.00     0.031 A 
ATOM     37  C   UNL A   1      38.185  30.999  31.214  1.00  0.00     0.074 A 
ATOM     38  C   UNL A   1      38.773  29.626  29.243  1.00  0.00     0.049 A 
ATOM     39  N   UNL A   1      39.181  30.719  32.016  1.00  0.00    -0.248 NA
ATOM     40  C   UNL A   1      37.194  31.920  31.795  1.00  0.00     0.031 C 
ATOM     41  C   UNL A   1      38.612  29.073  27.898  1.00  0.00     0.029 A 
ATOM     42  N   UNL A   1      39.908  29.019  29.719  1.00  0.00    -0.354 N 
ATOM     43  C   UNL A   1      38.949  31.441  33.182  1.00  0.00     0.074 A 
ATOM     44  C   UNL A   1      37.733  32.197  32.975  1.00  0.00     0.031 C 
ATOM     45  C   UNL A   1      39.576  28.169  27.678  1.00  0.00     0.029 A 
ATOM     46  C   UNL A   1      40.474  28.136  28.829  1.00  0.00     0.049 A 
ATOM     47  H   UNL A   1      40.280  29.197  30.613  1.00  0.00     0.167 HD
ATOM     48  C   UNL A   1      39.677  31.458  34.323  1.00  0.00     0.034 A 
ATOM     49  C   UNL A   1      41.600  27.398  28.914  1.00  0.00     0.034 A 
ATOM     50  C   UNL A   1      40.873  30.679  34.520  1.00  0.00     0.049 A 
ATOM     51  C   UNL A   1      42.415  27.465  30.178  1.00  0.00     0.074 A 
ATOM     52  C   UNL A   1      41.671  30.610  35.648  1.00  0.00     0.029 A 
ATOM     53  N   UNL A   1      41.437  29.828  33.580  1.00  0.00    -0.354 N 
ATOM     54  N   UNL A   1      42.169  28.137  31.279  1.00  0.00    -0.248 NA
ATOM     55  C   UNL A   1      43.658  26.684  30.219  1.00  0.00     0.031 C 
ATOM     56  C   UNL A   1      42.746  29.766  35.372  1.00  0.00     0.029 A 
ATOM     57  C   UNL A   1      42.586  29.251  34.095  1.00  0.00     0.049 A 
ATOM     58  H   UNL A   1      41.074  29.660  32.681  1.00  0.00     0.167 HD
ATOM     59  C   UNL A   1      43.217  27.848  32.146  1.00  0.00     0.074 A 
ATOM     60  C   UNL A   1      44.087  26.922  31.452  1.00  0.00     0.031 C 
ATOM     61  C   UNL A   1      43.438  28.315  33.400  1.00  0.00     0.034 A 
BRANCH  48  62
ATOM     62  C   UNL A   1      39.219  32.329  35.467  1.00  0.00     0.023 A 
ATOM     63  C   UNL A   1      39.697  33.649  35.583  1.00  0.00     0.031 A 
ATOM     64  C   UNL A   1      38.426  31.816  36.509  1.00  0.00     0.131 A 
ATOM     65  C   UNL A   1      39.407  34.398  36.729  1.00  0.00     0.055 A 
ATOM     66  C   UNL A   1      38.111  32.580  37.634  1.00  0.00     0.041 A 
ATOM     67  F   UNL A   1      37.944  30.564  36.445  1.00  0.00    -0.206 F 
ATOM     68  C   UNL A   1      38.613  33.872  37.755  1.00  0.00     0.022 A 
BRANCH  65  69
ATOM     69  S   UNL A   1      40.097  36.058  36.968  1.00  0.00     0.124 S 
ATOM     70  O   UNL A   1      41.516  35.768  37.163  1.00  0.00    -0.237 OA
ATOM     71  O   UNL A   1      39.763  36.713  35.706  1.00  0.00    -0.237 OA
ATOM     72  O   UNL A   1      39.398  36.562  38.145  1.00  0.00    -0.744 OA
ENDBRANCH  65  69
ENDBRANCH  48  62
BRANCH  49  73
ATOM     73  C   UNL A   1      41.972  26.517  27.768  1.00  0.00     0.023 A 
ATOM     74  C   UNL A   1      41.533  25.180  27.717  1.00  0.00     0.031 A 
ATOM     75  C   UNL A   1      42.879  26.952  26.788  1.00  0.00     0.131 A 
ATOM     76  C   UNL A   1      42.073  24.304  26.767  1.00  0.00     0.055 A 
ATOM     77  C   UNL A   1      43.354  26.095  25.794  1.00  0.00     0.041 A 
ATOM     78  F   UNL A   1      43.334  28.214  26.801  1.00  0.00    -0.206 F 
ATOM     79  C   UNL A   1      42.969  24.758  25.795  1.00  0.00     0.022 A 
BRANCH  76  80
ATOM     80  S   UNL A   1      41.759  22.519  26.868  1.00  0.00     0.124 S 
ATOM     81  O   UNL A   1      42.023  22.087  25.500  1.00  0.00    -0.237 OA
ATOM     82  O   UNL A   1      42.741  22.099  27.865  1.00  0.00    -0.237 OA
ATOM     83  O   UNL A   1      40.368  22.438  27.301  1.00  0.00    -0.744 OA
ENDBRANCH  76  80
ENDBRANCH  49  73
BRANCH  61  84
ATOM     84  C   UNL A   1      44.665  27.845  34.140  1.00  0.00     0.023 A 
ATOM     85  C   UNL A   1      44.589  26.714  34.975  1.00  0.00     0.031 A 
ATOM     86  C   UNL A   1      45.843  28.610  34.154  1.00  0.00     0.131 A 
ATOM     87  C   UNL A   1      45.656  26.410  35.830  1.00  0.00     0.055 A 
ATOM     88  C   UNL A   1      46.921  28.276  34.975  1.00  0.00     0.041 A 
ATOM     89  F   UNL A   1      45.956  29.702  33.381  1.00  0.00    -0.206 F 
ATOM     90  C   UNL A   1      46.824  27.180  35.829  1.00  0.00     0.022 A 
BRANCH  87  91
ATOM     91  S   UNL A   1      45.531  25.059  37.034  1.00  0.00     0.124 S 
ATOM     92  O   UNL A   1      44.312  25.409  37.758  1.00  0.00    -0.237 OA
ATOM     93  O   UNL A   1      45.428  23.886  36.169  1.00  0.00    -0.237 OA
ATOM     94  O   UNL A   1      46.763  25.162  37.808  1.00  0.00    -0.744 OA
ENDBRANCH  87  91
ENDBRANCH  61  84
ENDBRANCH  35  36
ENDBRANCH  27  30
ENDBRANCH  25  26
ENDBRANCH   1  25
TORSDOF 17
ENDMDL
MODEL 2
REMARK VINA RESULT:     -11.8      5.384      8.164
REMARK SMILES [NH3+][C@@H](CC1=C[C@H](S)c2ccccc2C1)C(=O)NCCCNC(=O)c1ccc(-c2c3nc(c(-c4cc(S(=O)(=O)[O-])ccc4F)c4ccc([nH]4)c(-c4cc(S(=O)(=O)[O-])ccc4F)c4nc(c(-c5cc(S(=O)(=O)[O-])ccc5F)c5ccc2[nH]5)C=C4)C=C3)cc1
REMARK SMILES IDX 19 1 18 2 17 3 15 4 16 5 2 7 1 8 3 12 4 13 5 14 14 15 6 16
REMARK SMILES IDX 13 17 8 18 12 19 9 20 11 21 10 22 7 23 20 25 21 26 22 27
REMARK SMILES IDX 23 29 24 30 25 31 86 32 26 33 85 34 27 35 28 36 29 37 79 38
REMARK SMILES IDX 30 39 84 40 78 41 80 42 31 43 83 44 77 45 76 46 32 48 64 49
REMARK SMILES IDX 44 50 63 51 45 52 48 53 62 54 81 55 46 56 47 57 61 59 82 60
REMARK SMILES IDX 49 61 33 62 34 63 42 64 35 65 41 66 43 67 40 68 36 69 37 70
REMARK SMILES IDX 38 71 39 72 65 73 66 74 74 75 67 76 73 77 75 78 72 79 68 80
REMARK SMILES IDX 69 81 70 82 71 83 50 84 51 85 59 86 52 87 58 88 60 89 57 90
REMARK SMILES IDX 53 91 54 92 55 93 56 94
REMARK H PARENT 17 6 1 9 1 10 1 11 7 24 21 28 80 47 48 58
REMARK Flexibility Score: inf
ROOT
ATOM      1  C   UNL A   1      35.640  20.681  25.014  1.00  0.00     0.042 C 
ENDROOT
BRANCH   1   2
ATOM      2  C   UNL A   1      34.437  21.592  25.180  1.00  0.00     0.118 C 
BRANCH   2   3
ATOM      3  N   UNL A   1      34.096  21.884  26.557  1.00  0.00    -0.351 N 
ATOM      4  C   UNL A   1      32.992  22.394  27.159  1.00  0.00     0.278 C 
ATOM      5  O   UNL A   1      32.953  22.276  28.392  1.00  0.00    -0.268 OA
ATOM      6  H   UNL A   1      34.818  21.666  27.189  1.00  0.00     0.163 HD
BRANCH   4   7
ATOM      7  C   UNL A   1      31.851  23.134  26.423  1.00  0.00     0.275 C 
BRANCH   7   8
ATOM      8  N   UNL A   1      30.753  22.212  26.094  1.00  0.00    -0.347 N 
ATOM      9  H   UNL A   1      31.126  21.402  25.600  1.00  0.00     0.345 HD
ATOM     10  H   UNL A   1      30.074  22.690  25.502  1.00  0.00     0.345 HD
ATOM     11  H   UNL A   1      30.297  21.905  26.955  1.00  0.00     0.345 HD
ENDBRANCH   7   8
BRANCH   7  12
ATOM     12  C   UNL A   1      31.483  24.560  26.903  1.00  0.00     0.106 C 
BRANCH  12  13
ATOM     13  C   UNL A   1      31.409  25.749  25.962  1.00  0.00    -0.062 C 
ATOM     14  C   UNL A   1      32.270  26.781  26.088  1.00  0.00    -0.009 C 
ATOM     15  C   UNL A   1      30.443  25.724  24.801  1.00  0.00     0.066 C 
ATOM     16  C   UNL A   1      32.262  28.014  25.206  1.00  0.00     0.096 C 
ATOM     17  C   UNL A   1      30.100  27.090  24.247  1.00  0.00    -0.039 A 
ATOM     18  C   UNL A   1      30.966  28.189  24.428  1.00  0.00    -0.028 A 
ATOM     19  C   UNL A   1      28.905  27.247  23.524  1.00  0.00     0.004 A 
ATOM     20  C   UNL A   1      30.615  29.417  23.837  1.00  0.00     0.005 A 
ATOM     21  C   UNL A   1      28.556  28.484  22.990  1.00  0.00     0.000 A 
ATOM     22  C   UNL A   1      29.415  29.566  23.140  1.00  0.00     0.000 A 
BRANCH  16  23
ATOM     23  S   UNL A   1      32.625  29.431  26.317  1.00  0.00    -0.167 SA
ATOM     24  H   UNL A   1      33.925  29.804  26.167  1.00  0.00     0.103 HD
ENDBRANCH  16  23
ENDBRANCH  12  13
ENDBRANCH   7  12
ENDBRANCH   4   7
ENDBRANCH   2   3
ENDBRANCH   1   2
BRANCH   1  25
ATOM     25  C   UNL A   1      36.986  21.363  25.237  1.00  0.00     0.118 C 
BRANCH  25  26
ATOM     26  N   UNL A   1      38.121  20.470  25.423  1.00  0.00    -0.352 N 
ATOM     27  C   UNL A   1      39.336  20.678  26.040  1.00  0.00     0.251 C 
ATOM     28  H   UNL A   1      38.001  19.568  25.046  1.00  0.00     0.163 HD
ATOM     29  O   UNL A   1      40.135  19.744  26.104  1.00  0.00    -0.269 OA
BRANCH  27  30
ATOM     30  C   UNL A   1      39.715  22.012  26.563  1.00  0.00     0.039 A 
ATOM     31  C   UNL A   1      39.075  23.180  26.151  1.00  0.00     0.014 A 
ATOM     32  C   UNL A   1      40.775  22.098  27.473  1.00  0.00     0.014 A 
ATOM     33  C   UNL A   1      39.631  24.419  26.451  1.00  0.00     0.010 A 
ATOM     34  C   UNL A   1      41.272  23.346  27.860  1.00  0.00     0.010 A 
ATOM     35  C   UNL A   1      40.746  24.517  27.298  1.00  0.00    -0.014 A 
BRANCH  35  36
ATOM     36  C   UNL A   1      41.347  25.849  27.574  1.00  0.00     0.031 A 
ATOM     37  C   UNL A   1      40.599  26.876  28.382  1.00  0.00     0.074 A 
ATOM     38  C   UNL A   1      42.595  26.110  27.140  1.00  0.00     0.049 A 
ATOM     39  N   UNL A   1      40.967  28.085  28.720  1.00  0.00    -0.248 NA
ATOM     40  C   UNL A   1      39.263  26.501  28.875  1.00  0.00     0.031 C 
ATOM     41  C   UNL A   1      43.418  25.179  26.368  1.00  0.00     0.029 A 
ATOM     42  N   UNL A   1      43.398  27.211  27.298  1.00  0.00    -0.354 N 
ATOM     43  C   UNL A   1      39.907  28.621  29.444  1.00  0.00     0.074 A 
ATOM     44  C   UNL A   1      38.866  27.617  29.472  1.00  0.00     0.031 C 
ATOM     45  C   UNL A   1      44.626  25.723  26.167  1.00  0.00     0.029 A 
ATOM     46  C   UNL A   1      44.639  27.074  26.721  1.00  0.00     0.049 A 
ATOM     47  H   UNL A   1      43.112  28.022  27.778  1.00  0.00     0.167 HD
ATOM     48  C   UNL A   1      39.819  29.834  30.040  1.00  0.00     0.034 A 
ATOM     49  C   UNL A   1      45.668  27.942  26.625  1.00  0.00     0.034 A 
ATOM     50  C   UNL A   1      40.877  30.812  30.022  1.00  0.00     0.049 A 
ATOM     51  C   UNL A   1      45.531  29.299  27.261  1.00  0.00     0.074 A 
ATOM     52  C   UNL A   1      40.894  32.062  30.614  1.00  0.00     0.029 A 
ATOM     53  N   UNL A   1      42.104  30.652  29.392  1.00  0.00    -0.354 N 
ATOM     54  N   UNL A   1      44.529  29.781  27.960  1.00  0.00    -0.248 NA
ATOM     55  C   UNL A   1      46.652  30.235  27.098  1.00  0.00     0.031 C 
ATOM     56  C   UNL A   1      42.103  32.680  30.296  1.00  0.00     0.029 A 
ATOM     57  C   UNL A   1      42.873  31.791  29.562  1.00  0.00     0.049 A 
ATOM     58  H   UNL A   1      42.384  29.848  28.898  1.00  0.00     0.167 HD
ATOM     59  C   UNL A   1      44.905  31.067  28.332  1.00  0.00     0.074 A 
ATOM     60  C   UNL A   1      46.235  31.281  27.802  1.00  0.00     0.031 C 
ATOM     61  C   UNL A   1      44.206  31.987  29.043  1.00  0.00     0.034 A 
BRANCH  48  62
ATOM     62  C   UNL A   1      38.554  30.193  30.778  1.00  0.00     0.023 A 
ATOM     63  C   UNL A   1      37.555  30.952  30.138  1.00  0.00     0.031 A 
ATOM     64  C   UNL A   1      38.395  29.906  32.146  1.00  0.00     0.131 A 
ATOM     65  C   UNL A   1      36.462  31.427  30.871  1.00  0.00     0.055 A 
ATOM     66  C   UNL A   1      37.284  30.352  32.865  1.00  0.00     0.041 A 
ATOM     67  F   UNL A   1      39.317  29.182  32.802  1.00  0.00    -0.206 F 
ATOM     68  C   UNL A   1      36.319  31.128  32.231  1.00  0.00     0.022 A 
BRANCH  65  69
ATOM     69  S   UNL A   1      35.215  32.502  30.111  1.00  0.00     0.124 S 
ATOM     70  O   UNL A   1      34.293  32.724  31.223  1.00  0.00    -0.237 OA
ATOM     71  O   UNL A   1      36.009  33.663  29.718  1.00  0.00    -0.237 OA
ATOM     72  O   UNL A   1      34.682  31.700  29.014  1.00  0.00    -0.744 OA
ENDBRANCH  65  69
ENDBRANCH  48  62
BRANCH  49  73
ATOM     73  C   UNL A   1      46.913  27.509  25.925  1.00  0.00     0.023 A 
ATOM     74  C   UNL A   1      47.168  27.906  24.599  1.00  0.00     0.031 A 
ATOM     75  C   UNL A   1      47.789  26.585  26.518  1.00  0.00     0.131 A 
ATOM     76  C   UNL A   1      48.213  27.311  23.881  1.00  0.00     0.055 A 
ATOM     77  C   UNL A   1      48.877  26.054  25.823  1.00  0.00     0.041 A 
ATOM     78  F   UNL A   1      47.582  26.168  27.776  1.00  0.00    -0.206 F 
ATOM     79  C   UNL A   1      49.079  26.399  24.491  1.00  0.00     0.022 A 
BRANCH  76  80
ATOM     80  S   UNL A   1      48.376  27.575  22.093  1.00  0.00     0.124 S 
ATOM     81  O   UNL A   1      47.096  28.190  21.759  1.00  0.00    -0.237 OA
ATOM     82  O   UNL A   1      49.538  28.457  22.024  1.00  0.00    -0.237 OA
ATOM     83  O   UNL A   1      48.590  26.231  21.565  1.00  0.00    -0.744 OA
ENDBRANCH  76  80
ENDBRANCH  49  73
BRANCH  61  84
ATOM     84  C   UNL A   1      44.843  33.327  29.314  1.00  0.00     0.023 A 
ATOM     85  C   UNL A   1      44.725  34.363  28.368  1.00  0.00     0.031 A 
ATOM     86  C   UNL A   1      45.700  33.517  30.410  1.00  0.00     0.131 A 
ATOM     87  C   UNL A   1      45.494  35.524  28.509  1.00  0.00     0.055 A 
ATOM     88  C   UNL A   1      46.430  34.695  30.571  1.00  0.00     0.041 A 
ATOM     89  F   UNL A   1      45.851  32.553  31.333  1.00  0.00    -0.206 F 
ATOM     90  C   UNL A   1      46.340  35.699  29.609  1.00  0.00     0.022 A 
BRANCH  87  91
ATOM     91  S   UNL A   1      45.491  36.809  27.228  1.00  0.00     0.124 S 
ATOM     92  O   UNL A   1      44.064  36.967  26.962  1.00  0.00    -0.237 OA
ATOM     93  O   UNL A   1      46.125  37.930  27.918  1.00  0.00    -0.237 OA
ATOM     94  O   UNL A   1      46.265  36.223  26.140  1.00  0.00    -0.744 OA
ENDBRANCH  87  91
ENDBRANCH  61  84
ENDBRANCH  35  36
ENDBRANCH  27  30
ENDBRANCH  25  26
ENDBRANCH   1  25
TORSDOF 17
ENDMDL
MODEL 3
REMARK VINA RESULT:     -11.8      4.869     10.257
REMARK SMILES [NH3+][C@@H](CC1=C[C@H](S)c2ccccc2C1)C(=O)NCCCNC(=O)c1ccc(-c2c3nc(c(-c4cc(S(=O)(=O)[O-])ccc4F)c4ccc([nH]4)c(-c4cc(S(=O)(=O)[O-])ccc4F)c4nc(c(-c5cc(S(=O)(=O)[O-])ccc5F)c5ccc2[nH]5)C=C4)C=C3)cc1
REMARK SMILES IDX 19 1 18 2 17 3 15 4 16 5 2 7 1 8 3 12 4 13 5 14 14 15 6 16
REMARK SMILES IDX 13 17 8 18 12 19 9 20 11 21 10 22 7 23 20 25 21 26 22 27
REMARK SMILES IDX 23 29 24 30 25 31 86 32 26 33 85 34 27 35 28 36 29 37 79 38
REMARK SMILES IDX 30 39 84 40 78 41 80 42 31 43 83 44 77 45 76 46 32 48 64 49
REMARK SMILES IDX 44 50 63 51 45 52 48 53 62 54 81 55 46 56 47 57 61 59 82 60
REMARK SMILES IDX 49 61 33 62 34 63 42 64 35 65 41 66 43 67 40 68 36 69 37 70
REMARK SMILES IDX 38 71 39 72 65 73 66 74 74 75 67 76 73 77 75 78 72 79 68 80
REMARK SMILES IDX 69 81 70 82 71 83 50 84 51 85 59 86 52 87 58 88 60 89 57 90
REMARK SMILES IDX 53 91 54 92 55 93 56 94
REMARK H PARENT 17 6 1 9 1 10 1 11 7 24 21 28 80 47 48 58
REMARK Flexibility Score: inf
ROOT
ATOM      1  C   UNL A   1      36.263  19.772  24.958  1.00  0.00     0.042 C 
ENDROOT
BRANCH   1   2
ATOM      2  C   UNL A   1      34.999  20.607  24.864  1.00  0.00     0.118 C 
BRANCH   2   3
ATOM      3  N   UNL A   1      34.454  21.011  26.144  1.00  0.00    -0.351 N 
ATOM      4  C   UNL A   1      34.303  22.211  26.759  1.00  0.00     0.278 C 
ATOM      5  O   UNL A   1      33.566  22.211  27.755  1.00  0.00    -0.268 OA
ATOM      6  H   UNL A   1      34.124  20.254  26.679  1.00  0.00     0.163 HD
BRANCH   4   7
ATOM      7  C   UNL A   1      35.018  23.515  26.332  1.00  0.00     0.275 C 
BRANCH   7   8
ATOM      8  N   UNL A   1      36.448  23.467  26.675  1.00  0.00    -0.347 N 
ATOM      9  H   UNL A   1      36.990  23.904  25.929  1.00  0.00     0.345 HD
ATOM     10  H   UNL A   1      36.739  22.496  26.785  1.00  0.00     0.345 HD
ATOM     11  H   UNL A   1      36.605  23.971  27.549  1.00  0.00     0.345 HD
ENDBRANCH   7   8
BRANCH   7  12
ATOM     12  C   UNL A   1      34.616  24.153  24.979  1.00  0.00     0.106 C 
BRANCH  12  13
ATOM     13  C   UNL A   1      33.772  25.412  24.884  1.00  0.00    -0.062 C 
ATOM     14  C   UNL A   1      33.636  26.060  23.708  1.00  0.00    -0.009 C 
ATOM     15  C   UNL A   1      32.983  25.875  26.085  1.00  0.00     0.066 C 
ATOM     16  C   UNL A   1      32.828  27.329  23.521  1.00  0.00     0.096 C 
ATOM     17  C   UNL A   1      32.596  27.337  26.048  1.00  0.00    -0.039 A 
ATOM     18  C   UNL A   1      32.511  28.039  24.828  1.00  0.00    -0.028 A 
ATOM     19  C   UNL A   1      32.298  27.989  27.258  1.00  0.00     0.004 A 
ATOM     20  C   UNL A   1      32.089  29.381  24.860  1.00  0.00     0.005 A 
ATOM     21  C   UNL A   1      31.929  29.331  27.269  1.00  0.00     0.000 A 
ATOM     22  C   UNL A   1      31.817  30.023  26.069  1.00  0.00     0.000 A 
BRANCH  16  23
ATOM     23  S   UNL A   1      33.792  28.373  22.355  1.00  0.00    -0.167 SA
ATOM     24  H   UNL A   1      33.267  28.260  21.105  1.00  0.00     0.103 HD
ENDBRANCH  16  23
ENDBRANCH  12  13
ENDBRANCH   7  12
ENDBRANCH   4   7
ENDBRANCH   2   3
ENDBRANCH   1   2
BRANCH   1  25
ATOM     25  C   UNL A   1      37.527  20.569  25.264  1.00  0.00     0.118 C 
BRANCH  25  26
ATOM     26  N   UNL A   1      38.742  19.783  25.431  1.00  0.00    -0.352 N 
ATOM     27  C   UNL A   1      39.945  20.104  26.022  1.00  0.00     0.251 C 
ATOM     28  H   UNL A   1      38.697  18.873  25.059  1.00  0.00     0.163 HD
ATOM     29  O   UNL A   1      40.827  19.247  26.073  1.00  0.00    -0.269 OA
BRANCH  27  30
ATOM     30  C   UNL A   1      40.212  21.470  26.533  1.00  0.00     0.039 A 
ATOM     31  C   UNL A   1      39.690  22.607  25.918  1.00  0.00     0.014 A 
ATOM     32  C   UNL A   1      41.046  21.617  27.647  1.00  0.00     0.014 A 
ATOM     33  C   UNL A   1      40.178  23.865  26.256  1.00  0.00     0.010 A 
ATOM     34  C   UNL A   1      41.456  22.889  28.057  1.00  0.00     0.010 A 
ATOM     35  C   UNL A   1      41.079  24.021  27.321  1.00  0.00    -0.014 A 
BRANCH  35  36
ATOM     36  C   UNL A   1      41.617  25.370  27.640  1.00  0.00     0.031 A 
ATOM     37  C   UNL A   1      42.971  25.796  27.135  1.00  0.00     0.074 A 
ATOM     38  C   UNL A   1      40.856  26.231  28.342  1.00  0.00     0.049 A 
ATOM     39  N   UNL A   1      43.596  26.931  27.316  1.00  0.00    -0.248 NA
ATOM     40  C   UNL A   1      43.723  24.824  26.325  1.00  0.00     0.031 C 
ATOM     41  C   UNL A   1      39.521  25.930  28.859  1.00  0.00     0.029 A 
ATOM     42  N   UNL A   1      41.075  27.531  28.722  1.00  0.00    -0.354 N 
ATOM     43  C   UNL A   1      44.817  26.804  26.662  1.00  0.00     0.074 A 
ATOM     44  C   UNL A   1      44.860  25.470  26.105  1.00  0.00     0.031 C 
ATOM     45  C   UNL A   1      39.018  27.028  29.440  1.00  0.00     0.029 A 
ATOM     46  C   UNL A   1      40.023  28.087  29.412  1.00  0.00     0.049 A 
ATOM     47  H   UNL A   1      41.905  28.020  28.520  1.00  0.00     0.167 HD
ATOM     48  C   UNL A   1      45.803  27.722  26.529  1.00  0.00     0.034 A 
ATOM     49  C   UNL A   1      39.884  29.302  29.981  1.00  0.00     0.034 A 
ATOM     50  C   UNL A   1      45.732  29.056  27.071  1.00  0.00     0.049 A 
ATOM     51  C   UNL A   1      41.011  30.293  29.855  1.00  0.00     0.074 A 
ATOM     52  C   UNL A   1      46.669  30.068  26.972  1.00  0.00     0.029 A 
ATOM     53  N   UNL A   1      44.667  29.567  27.799  1.00  0.00    -0.354 N 
ATOM     54  N   UNL A   1      42.150  30.163  29.215  1.00  0.00    -0.248 NA
ATOM     55  C   UNL A   1      40.845  31.589  30.525  1.00  0.00     0.031 C 
ATOM     56  C   UNL A   1      46.199  31.170  27.687  1.00  0.00     0.029 A 
ATOM     57  C   UNL A   1      44.937  30.872  28.176  1.00  0.00     0.049 A 
ATOM     58  H   UNL A   1      43.843  29.075  28.016  1.00  0.00     0.167 HD
ATOM     59  C   UNL A   1      42.828  31.364  29.392  1.00  0.00     0.074 A 
ATOM     60  C   UNL A   1      41.963  32.217  30.179  1.00  0.00     0.031 C 
ATOM     61  C   UNL A   1      44.059  31.721  28.947  1.00  0.00     0.034 A 
BRANCH  48  62
ATOM     62  C   UNL A   1      47.049  27.349  25.765  1.00  0.00     0.023 A 
ATOM     63  C   UNL A   1      47.192  27.734  24.418  1.00  0.00     0.031 A 
ATOM     64  C   UNL A   1      48.025  26.502  26.321  1.00  0.00     0.131 A 
ATOM     65  C   UNL A   1      48.265  27.246  23.663  1.00  0.00     0.055 A 
ATOM     66  C   UNL A   1      49.112  26.046  25.573  1.00  0.00     0.041 A 
ATOM     67  F   UNL A   1      47.935  26.108  27.602  1.00  0.00    -0.206 F 
ATOM     68  C   UNL A   1      49.229  26.407  24.234  1.00  0.00     0.022 A 
BRANCH  65  69
ATOM     69  S   UNL A   1      48.423  27.627  21.897  1.00  0.00     0.124 S 
ATOM     70  O   UNL A   1      49.556  28.550  21.890  1.00  0.00    -0.237 OA
ATOM     71  O   UNL A   1      48.687  26.310  21.322  1.00  0.00    -0.237 OA
ATOM     72  O   UNL A   1      47.136  28.221  21.550  1.00  0.00    -0.744 OA
ENDBRANCH  65  69
ENDBRANCH  48  62
BRANCH  49  73
ATOM     73  C   UNL A   1      38.607  29.630  30.680  1.00  0.00     0.023 A 
ATOM     74  C   UNL A   1      37.628  30.426  30.054  1.00  0.00     0.031 A 
ATOM     75  C   UNL A   1      38.407  29.272  32.023  1.00  0.00     0.131 A 
ATOM     76  C   UNL A   1      36.546  30.914  30.797  1.00  0.00     0.055 A 
ATOM     77  C   UNL A   1      37.286  29.697  32.738  1.00  0.00     0.041 A 
ATOM     78  F   UNL A   1      39.316  28.524  32.666  1.00  0.00    -0.206 F 
ATOM     79  C   UNL A   1      36.361  30.542  32.132  1.00  0.00     0.022 A 
BRANCH  76  80
ATOM     80  S   UNL A   1      35.444  32.180  30.106  1.00  0.00     0.124 S 
ATOM     81  O   UNL A   1      34.902  31.502  28.933  1.00  0.00    -0.237 OA
ATOM     82  O   UNL A   1      34.504  32.391  31.204  1.00  0.00    -0.237 OA
ATOM     83  O   UNL A   1      36.337  33.301  29.833  1.00  0.00    -0.744 OA
ENDBRANCH  76  80
ENDBRANCH  49  73
BRANCH  61  84
ATOM     84  C   UNL A   1      44.576  33.097  29.280  1.00  0.00     0.023 A 
ATOM     85  C   UNL A   1      45.233  33.321  30.505  1.00  0.00     0.031 A 
ATOM     86  C   UNL A   1      44.267  34.206  28.475  1.00  0.00     0.131 A 
ATOM     87  C   UNL A   1      45.513  34.631  30.913  1.00  0.00     0.055 A 
ATOM     88  C   UNL A   1      44.589  35.506  28.865  1.00  0.00     0.041 A 
ATOM     89  F   UNL A   1      43.633  34.040  27.302  1.00  0.00    -0.206 F 
ATOM     90  C   UNL A   1      45.202  35.723  30.097  1.00  0.00     0.022 A 
BRANCH  87  91
ATOM     91  S   UNL A   1      46.211  34.969  32.554  1.00  0.00     0.124 S 
ATOM     92  O   UNL A   1      47.420  34.150  32.544  1.00  0.00    -0.237 OA
ATOM     93  O   UNL A   1      46.434  36.412  32.500  1.00  0.00    -0.237 OA
ATOM     94  O   UNL A   1      45.170  34.529  33.476  1.00  0.00    -0.744 OA
ENDBRANCH  87  91
ENDBRANCH  61  84
ENDBRANCH  35  36
ENDBRANCH  27  30
ENDBRANCH  25  26
ENDBRANCH   1  25
TORSDOF 17
ENDMDL
