MODEL 1
REMARK VINA RESULT:     -10.5      0.000      0.000
REMARK SMILES C[C@@H](C(=O)NCCCNC(=O)c1ccc(-c2c3nc(c(-c4cc(S(=O)(=O)[O-])ccc4F)c4ccc([nH]4)c(-c4cc(S(=O)(=O)[O-])ccc4F)c4nc(c(-c5cc(S(=O)(=O)[O-])ccc5F)c5ccc2[nH]5)C=C4)C=C3)cc1)c1ccc(-c2ccccc2)c(F)c1
REMARK SMILES IDX 7 1 6 2 5 3 3 4 4 5 2 7 1 8 75 9 76 10 87 11 77 12 85 13
REMARK SMILES IDX 78 14 86 15 79 16 80 17 84 18 81 19 83 20 82 21 8 22 9 23
REMARK SMILES IDX 10 24 11 26 12 27 13 28 74 29 14 30 73 31 15 32 16 33 17 34
REMARK SMILES IDX 67 35 18 36 72 37 66 38 68 39 19 40 71 41 65 42 64 43 20 45
REMARK SMILES IDX 52 46 32 47 51 48 33 49 36 50 50 51 69 52 34 53 35 54 49 56
REMARK SMILES IDX 70 57 37 58 21 59 22 60 30 61 23 62 29 63 31 64 28 65 24 66
REMARK SMILES IDX 25 67 26 68 27 69 53 70 54 71 62 72 55 73 61 74 63 75 60 76
REMARK SMILES IDX 56 77 57 78 58 79 59 80 38 81 39 82 47 83 40 84 46 85 48 86
REMARK SMILES IDX 45 87 41 88 42 89 43 90 44 91
REMARK H PARENT 5 6 9 25 68 44 36 55
REMARK Flexibility Score: inf
ROOT
ATOM      1  C   UNL A   1      33.405  34.049  28.785  1.00  0.00     0.042 C 
ENDROOT
BRANCH   1   2
ATOM      2  C   UNL A   1      34.124  35.275  29.347  1.00  0.00     0.117 C 
BRANCH   2   3
ATOM      3  N   UNL A   1      34.071  35.324  30.796  1.00  0.00    -0.356 N 
ATOM      4  C   UNL A   1      34.577  34.473  31.735  1.00  0.00     0.227 C 
ATOM      5  O   UNL A   1      34.350  34.758  32.913  1.00  0.00    -0.274 OA
ATOM      6  H   UNL A   1      33.589  36.099  31.162  1.00  0.00     0.163 HD
BRANCH   4   7
ATOM      7  C   UNL A   1      35.413  33.254  31.311  1.00  0.00     0.105 C 
ATOM      8  C   UNL A   1      35.510  32.203  32.421  1.00  0.00     0.023 C 
BRANCH   7   9
ATOM      9  C   UNL A   1      36.822  33.635  30.859  1.00  0.00    -0.033 A 
ATOM     10  C   UNL A   1      37.221  33.442  29.529  1.00  0.00     0.005 A 
ATOM     11  C   UNL A   1      37.757  34.157  31.765  1.00  0.00     0.044 A 
ATOM     12  C   UNL A   1      38.527  33.745  29.124  1.00  0.00     0.012 A 
ATOM     13  C   UNL A   1      39.054  34.453  31.354  1.00  0.00     0.131 A 
ATOM     14  C   UNL A   1      39.473  34.249  30.034  1.00  0.00     0.017 A 
ATOM     15  F   UNL A   1      39.909  34.943  32.268  1.00  0.00    -0.206 F 
BRANCH  14  16
ATOM     16  C   UNL A   1      40.855  34.530  29.614  1.00  0.00    -0.015 A 
ATOM     17  C   UNL A   1      41.147  35.591  28.742  1.00  0.00     0.009 A 
ATOM     18  C   UNL A   1      41.922  33.740  30.073  1.00  0.00     0.009 A 
ATOM     19  C   UNL A   1      42.462  35.855  28.345  1.00  0.00     0.001 A 
ATOM     20  C   UNL A   1      43.235  33.999  29.675  1.00  0.00     0.001 A 
ATOM     21  C   UNL A   1      43.505  35.057  28.811  1.00  0.00     0.000 A 
ENDBRANCH  14  16
ENDBRANCH   7   9
ENDBRANCH   4   7
ENDBRANCH   2   3
ENDBRANCH   1   2
BRANCH   1  22
ATOM     22  C   UNL A   1      34.300  33.078  28.014  1.00  0.00     0.118 C 
BRANCH  22  23
ATOM     23  N   UNL A   1      33.613  31.850  27.652  1.00  0.00    -0.352 N 
ATOM     24  C   UNL A   1      34.072  30.559  27.576  1.00  0.00     0.251 C 
ATOM     25  H   UNL A   1      32.662  31.962  27.424  1.00  0.00     0.163 HD
ATOM     26  O   UNL A   1      33.343  29.709  27.061  1.00  0.00    -0.269 OA
BRANCH  24  27
ATOM     27  C   UNL A   1      35.416  30.179  28.071  1.00  0.00     0.039 A 
ATOM     28  C   UNL A   1      35.529  29.703  29.381  1.00  0.00     0.014 A 
ATOM     29  C   UNL A   1      36.567  30.335  27.293  1.00  0.00     0.014 A 
ATOM     30  C   UNL A   1      36.778  29.331  29.887  1.00  0.00     0.010 A 
ATOM     31  C   UNL A   1      37.805  29.901  27.776  1.00  0.00     0.010 A 
ATOM     32  C   UNL A   1      37.924  29.395  29.079  1.00  0.00    -0.014 A 
BRANCH  32  33
ATOM     33  C   UNL A   1      39.238  28.917  29.589  1.00  0.00     0.031 A 
ATOM     34  C   UNL A   1      39.929  29.629  30.721  1.00  0.00     0.074 A 
ATOM     35  C   UNL A   1      39.823  27.852  29.005  1.00  0.00     0.049 A 
ATOM     36  N   UNL A   1      41.082  29.364  31.283  1.00  0.00    -0.248 NA
ATOM     37  C   UNL A   1      39.247  30.805  31.277  1.00  0.00     0.031 C 
ATOM     38  C   UNL A   1      39.276  27.108  27.868  1.00  0.00     0.029 A 
ATOM     39  N   UNL A   1      41.005  27.212  29.281  1.00  0.00    -0.354 N 
ATOM     40  C   UNL A   1      41.263  30.338  32.258  1.00  0.00     0.074 A 
ATOM     41  C   UNL A   1      40.129  31.234  32.167  1.00  0.00     0.031 C 
ATOM     42  C   UNL A   1      40.108  26.101  27.559  1.00  0.00     0.029 A 
ATOM     43  C   UNL A   1      41.264  26.147  28.449  1.00  0.00     0.049 A 
ATOM     44  H   UNL A   1      41.611  27.488  30.006  1.00  0.00     0.167 HD
ATOM     45  C   UNL A   1      42.269  30.460  33.163  1.00  0.00     0.034 A 
ATOM     46  C   UNL A   1      42.316  25.307  28.400  1.00  0.00     0.034 A 
ATOM     47  C   UNL A   1      43.395  29.560  33.244  1.00  0.00     0.049 A 
ATOM     48  C   UNL A   1      43.423  25.466  29.409  1.00  0.00     0.074 A 
ATOM     49  C   UNL A   1      44.447  29.571  34.144  1.00  0.00     0.029 A 
ATOM     50  N   UNL A   1      43.621  28.489  32.388  1.00  0.00    -0.354 N 
ATOM     51  N   UNL A   1      43.553  26.365  30.358  1.00  0.00    -0.248 NA
ATOM     52  C   UNL A   1      44.515  24.487  29.351  1.00  0.00     0.031 C 
ATOM     53  C   UNL A   1      45.336  28.547  33.797  1.00  0.00     0.029 A 
ATOM     54  C   UNL A   1      44.807  27.850  32.723  1.00  0.00     0.049 A 
ATOM     55  H   UNL A   1      43.027  28.221  31.650  1.00  0.00     0.167 HD
ATOM     56  C   UNL A   1      44.735  26.046  31.020  1.00  0.00     0.074 A 
ATOM     57  C   UNL A   1      45.261  24.856  30.382  1.00  0.00     0.031 C 
ATOM     58  C   UNL A   1      45.335  26.679  32.061  1.00  0.00     0.034 A 
BRANCH  45  59
ATOM     59  C   UNL A   1      42.199  31.626  34.123  1.00  0.00     0.023 A 
ATOM     60  C   UNL A   1      41.414  31.573  35.288  1.00  0.00     0.031 A 
ATOM     61  C   UNL A   1      42.911  32.811  33.864  1.00  0.00     0.131 A 
ATOM     62  C   UNL A   1      41.302  32.704  36.111  1.00  0.00     0.055 A 
ATOM     63  C   UNL A   1      42.857  33.906  34.729  1.00  0.00     0.041 A 
ATOM     64  F   UNL A   1      43.665  32.928  32.759  1.00  0.00    -0.206 F 
ATOM     65  C   UNL A   1      42.038  33.862  35.853  1.00  0.00     0.022 A 
BRANCH  62  66
ATOM     66  S   UNL A   1      40.079  32.684  37.451  1.00  0.00     0.124 S 
ATOM     67  O   UNL A   1      39.564  34.050  37.399  1.00  0.00    -0.237 OA
ATOM     68  O   UNL A   1      39.160  31.636  37.023  1.00  0.00    -0.237 OA
ATOM     69  O   UNL A   1      40.874  32.369  38.637  1.00  0.00    -0.744 OA
ENDBRANCH  62  66
ENDBRANCH  45  59
BRANCH  46  70
ATOM     70  C   UNL A   1      42.385  24.245  27.355  1.00  0.00     0.023 A 
ATOM     71  C   UNL A   1      41.764  23.001  27.542  1.00  0.00     0.031 A 
ATOM     72  C   UNL A   1      43.112  24.449  26.169  1.00  0.00     0.131 A 
ATOM     73  C   UNL A   1      41.921  21.990  26.580  1.00  0.00     0.055 A 
ATOM     74  C   UNL A   1      43.223  23.460  25.192  1.00  0.00     0.041 A 
ATOM     75  F   UNL A   1      43.719  25.625  25.938  1.00  0.00    -0.206 F 
ATOM     76  C   UNL A   1      42.636  22.215  25.401  1.00  0.00     0.022 A 
BRANCH  73  77
ATOM     77  S   UNL A   1      41.243  20.345  26.931  1.00  0.00     0.124 S 
ATOM     78  O   UNL A   1      40.147  20.263  25.974  1.00  0.00    -0.237 OA
ATOM     79  O   UNL A   1      42.391  19.484  26.668  1.00  0.00    -0.237 OA
ATOM     80  O   UNL A   1      40.843  20.434  28.334  1.00  0.00    -0.744 OA
ENDBRANCH  73  77
ENDBRANCH  46  70
BRANCH  58  81
ATOM     81  C   UNL A   1      46.617  26.072  32.576  1.00  0.00     0.023 A 
ATOM     82  C   UNL A   1      46.610  25.046  33.537  1.00  0.00     0.031 A 
ATOM     83  C   UNL A   1      47.861  26.556  32.136  1.00  0.00     0.131 A 
ATOM     84  C   UNL A   1      47.820  24.585  34.078  1.00  0.00     0.055 A 
ATOM     85  C   UNL A   1      49.064  26.049  32.630  1.00  0.00     0.041 A 
ATOM     86  F   UNL A   1      47.928  27.538  31.221  1.00  0.00    -0.206 F 
ATOM     87  C   UNL A   1      49.047  25.071  33.619  1.00  0.00     0.022 A 
BRANCH  84  88
ATOM     88  S   UNL A   1      47.764  23.424  35.471  1.00  0.00     0.124 S 
ATOM     89  O   UNL A   1      47.899  22.136  34.798  1.00  0.00    -0.237 OA
ATOM     90  O   UNL A   1      48.906  23.846  36.274  1.00  0.00    -0.237 OA
ATOM     91  O   UNL A   1      46.455  23.674  36.072  1.00  0.00    -0.744 OA
ENDBRANCH  84  88
ENDBRANCH  58  81
ENDBRANCH  32  33
ENDBRANCH  24  27
ENDBRANCH  22  23
ENDBRANCH   1  22
TORSDOF 15
ENDMDL
MODEL 2
REMARK VINA RESULT:     -10.4      1.411      1.745
REMARK SMILES C[C@@H](C(=O)NCCCNC(=O)c1ccc(-c2c3nc(c(-c4cc(S(=O)(=O)[O-])ccc4F)c4ccc([nH]4)c(-c4cc(S(=O)(=O)[O-])ccc4F)c4nc(c(-c5cc(S(=O)(=O)[O-])ccc5F)c5ccc2[nH]5)C=C4)C=C3)cc1)c1ccc(-c2ccccc2)c(F)c1
REMARK SMILES IDX 7 1 6 2 5 3 3 4 4 5 2 7 1 8 75 9 76 10 87 11 77 12 85 13
REMARK SMILES IDX 78 14 86 15 79 16 80 17 84 18 81 19 83 20 82 21 8 22 9 23
REMARK SMILES IDX 10 24 11 26 12 27 13 28 74 29 14 30 73 31 15 32 16 33 17 34
REMARK SMILES IDX 67 35 18 36 72 37 66 38 68 39 19 40 71 41 65 42 64 43 20 45
REMARK SMILES IDX 52 46 32 47 51 48 33 49 36 50 50 51 69 52 34 53 35 54 49 56
REMARK SMILES IDX 70 57 37 58 21 59 22 60 30 61 23 62 29 63 31 64 28 65 24 66
REMARK SMILES IDX 25 67 26 68 27 69 53 70 54 71 62 72 55 73 61 74 63 75 60 76
REMARK SMILES IDX 56 77 57 78 58 79 59 80 38 81 39 82 47 83 40 84 46 85 48 86
REMARK SMILES IDX 45 87 41 88 42 89 43 90 44 91
REMARK H PARENT 5 6 9 25 68 44 36 55
REMARK Flexibility Score: inf
ROOT
ATOM      1  C   UNL A   1      34.439  34.876  28.764  1.00  0.00     0.042 C 
ENDROOT
BRANCH   1   2
ATOM      2  C   UNL A   1      33.683  34.529  30.046  1.00  0.00     0.117 C 
BRANCH   2   3
ATOM      3  N   UNL A   1      34.120  35.332  31.172  1.00  0.00    -0.356 N 
ATOM      4  C   UNL A   1      35.040  35.074  32.147  1.00  0.00     0.227 C 
ATOM      5  O   UNL A   1      35.187  35.945  33.007  1.00  0.00    -0.274 OA
ATOM      6  H   UNL A   1      33.679  36.209  31.246  1.00  0.00     0.163 HD
BRANCH   4   7
ATOM      7  C   UNL A   1      35.856  33.771  32.121  1.00  0.00     0.105 C 
ATOM      8  C   UNL A   1      35.996  33.147  33.513  1.00  0.00     0.023 C 
BRANCH   7   9
ATOM      9  C   UNL A   1      37.246  33.960  31.516  1.00  0.00    -0.033 A 
ATOM     10  C   UNL A   1      37.480  33.676  30.163  1.00  0.00     0.005 A 
ATOM     11  C   UNL A   1      38.326  34.392  32.301  1.00  0.00     0.044 A 
ATOM     12  C   UNL A   1      38.764  33.802  29.618  1.00  0.00     0.012 A 
ATOM     13  C   UNL A   1      39.600  34.511  31.751  1.00  0.00     0.131 A 
ATOM     14  C   UNL A   1      39.852  34.214  30.406  1.00  0.00     0.017 A 
ATOM     15  F   UNL A   1      40.597  34.921  32.553  1.00  0.00    -0.206 F 
BRANCH  14  16
ATOM     16  C   UNL A   1      41.207  34.308  29.839  1.00  0.00    -0.015 A 
ATOM     17  C   UNL A   1      41.567  35.366  28.990  1.00  0.00     0.009 A 
ATOM     18  C   UNL A   1      42.179  33.337  30.132  1.00  0.00     0.009 A 
ATOM     19  C   UNL A   1      42.855  35.452  28.453  1.00  0.00     0.001 A 
ATOM     20  C   UNL A   1      43.465  33.418  29.594  1.00  0.00     0.001 A 
ATOM     21  C   UNL A   1      43.803  34.476  28.755  1.00  0.00     0.000 A 
ENDBRANCH  14  16
ENDBRANCH   7   9
ENDBRANCH   4   7
ENDBRANCH   2   3
ENDBRANCH   1   2
BRANCH   1  22
ATOM     22  C   UNL A   1      35.056  33.679  28.040  1.00  0.00     0.118 C 
BRANCH  22  23
ATOM     23  N   UNL A   1      34.109  32.595  27.840  1.00  0.00    -0.352 N 
ATOM     24  C   UNL A   1      34.282  31.236  27.902  1.00  0.00     0.251 C 
ATOM     25  H   UNL A   1      33.193  32.883  27.625  1.00  0.00     0.163 HD
ATOM     26  O   UNL A   1      33.366  30.511  27.508  1.00  0.00    -0.269 OA
BRANCH  24  27
ATOM     27  C   UNL A   1      35.538  30.631  28.403  1.00  0.00     0.039 A 
ATOM     28  C   UNL A   1      36.638  30.578  27.540  1.00  0.00     0.014 A 
ATOM     29  C   UNL A   1      35.637  30.068  29.679  1.00  0.00     0.014 A 
ATOM     30  C   UNL A   1      37.843  30.018  27.973  1.00  0.00     0.010 A 
ATOM     31  C   UNL A   1      36.860  29.568  30.134  1.00  0.00     0.010 A 
ATOM     32  C   UNL A   1      37.977  29.537  29.286  1.00  0.00    -0.014 A 
BRANCH  32  33
ATOM     33  C   UNL A   1      39.285  29.021  29.773  1.00  0.00     0.031 A 
ATOM     34  C   UNL A   1      39.990  29.679  30.929  1.00  0.00     0.074 A 
ATOM     35  C   UNL A   1      39.853  27.971  29.147  1.00  0.00     0.049 A 
ATOM     36  N   UNL A   1      41.140  29.377  31.477  1.00  0.00    -0.248 NA
ATOM     37  C   UNL A   1      39.326  30.844  31.531  1.00  0.00     0.031 C 
ATOM     38  C   UNL A   1      39.291  27.279  27.984  1.00  0.00     0.029 A 
ATOM     39  N   UNL A   1      41.025  27.303  29.395  1.00  0.00    -0.354 N 
ATOM     40  C   UNL A   1      41.338  30.309  32.488  1.00  0.00     0.074 A 
ATOM     41  C   UNL A   1      40.217  31.225  32.434  1.00  0.00     0.031 C 
ATOM     42  C   UNL A   1      40.108  26.272  27.634  1.00  0.00     0.029 A 
ATOM     43  C   UNL A   1      41.267  26.267  28.521  1.00  0.00     0.049 A 
ATOM     44  H   UNL A   1      41.638  27.542  30.127  1.00  0.00     0.167 HD
ATOM     45  C   UNL A   1      42.348  30.382  33.393  1.00  0.00     0.034 A 
ATOM     46  C   UNL A   1      42.306  25.414  28.437  1.00  0.00     0.034 A 
ATOM     47  C   UNL A   1      43.461  29.463  33.436  1.00  0.00     0.049 A 
ATOM     48  C   UNL A   1      43.418  25.519  29.448  1.00  0.00     0.074 A 
ATOM     49  C   UNL A   1      44.516  29.425  34.332  1.00  0.00     0.029 A 
ATOM     50  N   UNL A   1      43.669  28.422  32.539  1.00  0.00    -0.354 N 
ATOM     51  N   UNL A   1      43.564  26.378  30.429  1.00  0.00    -0.248 NA
ATOM     52  C   UNL A   1      44.495  24.526  29.349  1.00  0.00     0.031 C 
ATOM     53  C   UNL A   1      45.389  28.401  33.943  1.00  0.00     0.029 A 
ATOM     54  C   UNL A   1      44.846  27.753  32.846  1.00  0.00     0.049 A 
ATOM     55  H   UNL A   1      43.069  28.192  31.794  1.00  0.00     0.167 HD
ATOM     56  C   UNL A   1      44.743  26.017  31.075  1.00  0.00     0.074 A 
ATOM     57  C   UNL A   1      45.249  24.845  30.391  1.00  0.00     0.031 C 
ATOM     58  C   UNL A   1      45.354  26.601  32.138  1.00  0.00     0.034 A 
BRANCH  45  59
ATOM     59  C   UNL A   1      42.299  31.511  34.397  1.00  0.00     0.023 A 
ATOM     60  C   UNL A   1      41.391  31.501  35.471  1.00  0.00     0.031 A 
ATOM     61  C   UNL A   1      43.155  32.620  34.271  1.00  0.00     0.131 A 
ATOM     62  C   UNL A   1      41.311  32.605  36.333  1.00  0.00     0.055 A 
ATOM     63  C   UNL A   1      43.124  33.681  35.179  1.00  0.00     0.041 A 
ATOM     64  F   UNL A   1      44.031  32.696  33.257  1.00  0.00    -0.206 F 
ATOM     65  C   UNL A   1      42.189  33.685  36.209  1.00  0.00     0.022 A 
BRANCH  62  66
ATOM     66  S   UNL A   1      39.956  32.668  37.537  1.00  0.00     0.124 S 
ATOM     67  O   UNL A   1      39.381  33.984  37.265  1.00  0.00    -0.237 OA
ATOM     68  O   UNL A   1      39.140  31.522  37.155  1.00  0.00    -0.237 OA
ATOM     69  O   UNL A   1      40.636  32.548  38.826  1.00  0.00    -0.744 OA
ENDBRANCH  62  66
ENDBRANCH  45  59
BRANCH  46  70
ATOM     70  C   UNL A   1      42.356  24.392  27.353  1.00  0.00     0.023 A 
ATOM     71  C   UNL A   1      41.598  23.213  27.429  1.00  0.00     0.031 A 
ATOM     72  C   UNL A   1      43.199  24.565  26.240  1.00  0.00     0.131 A 
ATOM     73  C   UNL A   1      41.734  22.230  26.436  1.00  0.00     0.055 A 
ATOM     74  C   UNL A   1      43.292  23.607  25.230  1.00  0.00     0.041 A 
ATOM     75  F   UNL A   1      43.939  25.678  26.115  1.00  0.00    -0.206 F 
ATOM     76  C   UNL A   1      42.567  22.424  25.332  1.00  0.00     0.022 A 
BRANCH  73  77
ATOM     77  S   UNL A   1      40.866  20.652  26.653  1.00  0.00     0.124 S 
ATOM     78  O   UNL A   1      40.872  20.505  28.103  1.00  0.00    -0.237 OA
ATOM     79  O   UNL A   1      39.572  20.934  26.041  1.00  0.00    -0.237 OA
ATOM     80  O   UNL A   1      41.703  19.701  25.924  1.00  0.00    -0.744 OA
ENDBRANCH  73  77
ENDBRANCH  46  70
BRANCH  58  81
ATOM     81  C   UNL A   1      46.629  25.956  32.625  1.00  0.00     0.023 A 
ATOM     82  C   UNL A   1      47.871  26.238  32.029  1.00  0.00     0.031 A 
ATOM     83  C   UNL A   1      46.596  25.014  33.668  1.00  0.00     0.131 A 
ATOM     84  C   UNL A   1      49.017  25.535  32.431  1.00  0.00     0.055 A 
ATOM     85  C   UNL A   1      47.750  24.364  34.108  1.00  0.00     0.041 A 
ATOM     86  F   UNL A   1      45.437  24.704  34.273  1.00  0.00    -0.206 F 
ATOM     87  C   UNL A   1      48.966  24.610  33.476  1.00  0.00     0.022 A 
BRANCH  84  88
ATOM     88  S   UNL A   1      50.551  25.762  31.490  1.00  0.00     0.124 S 
ATOM     89  O   UNL A   1      51.557  25.272  32.427  1.00  0.00    -0.237 OA
ATOM     90  O   UNL A   1      50.320  24.934  30.312  1.00  0.00    -0.237 OA
ATOM     91  O   UNL A   1      50.588  27.202  31.239  1.00  0.00    -0.744 OA
ENDBRANCH  84  88
ENDBRANCH  58  81
ENDBRANCH  32  33
ENDBRANCH  24  27
ENDBRANCH  22  23
ENDBRANCH   1  22
TORSDOF 15
ENDMDL
MODEL 3
REMARK VINA RESULT:     -10.3      4.398     11.381
REMARK SMILES C[C@@H](C(=O)NCCCNC(=O)c1ccc(-c2c3nc(c(-c4cc(S(=O)(=O)[O-])ccc4F)c4ccc([nH]4)c(-c4cc(S(=O)(=O)[O-])ccc4F)c4nc(c(-c5cc(S(=O)(=O)[O-])ccc5F)c5ccc2[nH]5)C=C4)C=C3)cc1)c1ccc(-c2ccccc2)c(F)c1
REMARK SMILES IDX 7 1 6 2 5 3 3 4 4 5 2 7 1 8 75 9 76 10 87 11 77 12 85 13
REMARK SMILES IDX 78 14 86 15 79 16 80 17 84 18 81 19 83 20 82 21 8 22 9 23
REMARK SMILES IDX 10 24 11 26 12 27 13 28 74 29 14 30 73 31 15 32 16 33 17 34
REMARK SMILES IDX 67 35 18 36 72 37 66 38 68 39 19 40 71 41 65 42 64 43 20 45
REMARK SMILES IDX 52 46 32 47 51 48 33 49 36 50 50 51 69 52 34 53 35 54 49 56
REMARK SMILES IDX 70 57 37 58 21 59 22 60 30 61 23 62 29 63 31 64 28 65 24 66
REMARK SMILES IDX 25 67 26 68 27 69 53 70 54 71 62 72 55 73 61 74 63 75 60 76
REMARK SMILES IDX 56 77 57 78 58 79 59 80 38 81 39 82 47 83 40 84 46 85 48 86
REMARK SMILES IDX 45 87 41 88 42 89 43 90 44 91
REMARK H PARENT 5 6 9 25 68 44 36 55
REMARK Flexibility Score: inf
ROOT
ATOM      1  C   UNL A   1      41.217  19.880  26.120  1.00  0.00     0.042 C 
ENDROOT
BRANCH   1   2
ATOM      2  C   UNL A   1      42.521  19.519  26.830  1.00  0.00     0.117 C 
BRANCH   2   3
ATOM      3  N   UNL A   1      43.685  19.824  26.020  1.00  0.00    -0.356 N 
ATOM      4  C   UNL A   1      44.106  20.999  25.469  1.00  0.00     0.227 C 
ATOM      5  O   UNL A   1      45.136  20.952  24.795  1.00  0.00    -0.274 OA
ATOM      6  H   UNL A   1      44.270  19.053  25.838  1.00  0.00     0.163 HD
BRANCH   4   7
ATOM      7  C   UNL A   1      43.328  22.301  25.727  1.00  0.00     0.105 C 
ATOM      8  C   UNL A   1      43.616  23.368  24.667  1.00  0.00     0.023 C 
BRANCH   7   9
ATOM      9  C   UNL A   1      43.602  22.885  27.112  1.00  0.00    -0.033 A 
ATOM     10  C   UNL A   1      42.563  23.033  28.042  1.00  0.00     0.005 A 
ATOM     11  C   UNL A   1      44.887  23.314  27.475  1.00  0.00     0.044 A 
ATOM     12  C   UNL A   1      42.803  23.612  29.294  1.00  0.00     0.012 A 
ATOM     13  C   UNL A   1      45.115  23.893  28.722  1.00  0.00     0.131 A 
ATOM     14  C   UNL A   1      44.085  24.063  29.654  1.00  0.00     0.017 A 
ATOM     15  F   UNL A   1      46.364  24.293  29.012  1.00  0.00    -0.206 F 
BRANCH  14  16
ATOM     16  C   UNL A   1      44.324  24.707  30.956  1.00  0.00    -0.015 A 
ATOM     17  C   UNL A   1      44.274  26.104  31.095  1.00  0.00     0.009 A 
ATOM     18  C   UNL A   1      44.611  23.940  32.097  1.00  0.00     0.009 A 
ATOM     19  C   UNL A   1      44.502  26.712  32.333  1.00  0.00     0.001 A 
ATOM     20  C   UNL A   1      44.842  24.545  33.334  1.00  0.00     0.001 A 
ATOM     21  C   UNL A   1      44.787  25.931  33.452  1.00  0.00     0.000 A 
ENDBRANCH  14  16
ENDBRANCH   7   9
ENDBRANCH   4   7
ENDBRANCH   2   3
ENDBRANCH   1   2
BRANCH   1  22
ATOM     22  C   UNL A   1      40.382  20.953  26.819  1.00  0.00     0.118 C 
BRANCH  22  23
ATOM     23  N   UNL A   1      39.197  21.324  26.063  1.00  0.00    -0.352 N 
ATOM     24  C   UNL A   1      38.534  22.521  25.972  1.00  0.00     0.251 C 
ATOM     25  H   UNL A   1      38.807  20.596  25.527  1.00  0.00     0.163 HD
ATOM     26  O   UNL A   1      37.438  22.541  25.409  1.00  0.00    -0.269 OA
BRANCH  24  27
ATOM     27  C   UNL A   1      39.091  23.767  26.550  1.00  0.00     0.039 A 
ATOM     28  C   UNL A   1      39.913  24.562  25.745  1.00  0.00     0.014 A 
ATOM     29  C   UNL A   1      38.865  24.135  27.880  1.00  0.00     0.014 A 
ATOM     30  C   UNL A   1      40.457  25.746  26.251  1.00  0.00     0.010 A 
ATOM     31  C   UNL A   1      39.354  25.352  28.364  1.00  0.00     0.010 A 
ATOM     32  C   UNL A   1      40.156  26.171  27.555  1.00  0.00    -0.014 A 
BRANCH  32  33
ATOM     33  C   UNL A   1      40.664  27.474  28.063  1.00  0.00     0.031 A 
ATOM     34  C   UNL A   1      42.137  27.784  28.049  1.00  0.00     0.074 A 
ATOM     35  C   UNL A   1      39.792  28.369  28.567  1.00  0.00     0.049 A 
ATOM     36  N   UNL A   1      42.760  28.858  28.464  1.00  0.00    -0.248 NA
ATOM     37  C   UNL A   1      43.027  26.741  27.521  1.00  0.00     0.031 C 
ATOM     38  C   UNL A   1      38.345  28.165  28.680  1.00  0.00     0.029 A 
ATOM     39  N   UNL A   1      39.989  29.626  29.081  1.00  0.00    -0.354 N 
ATOM     40  C   UNL A   1      44.113  28.623  28.248  1.00  0.00     0.074 A 
ATOM     41  C   UNL A   1      44.221  27.277  27.722  1.00  0.00     0.031 C 
ATOM     42  C   UNL A   1      37.785  29.265  29.208  1.00  0.00     0.029 A 
ATOM     43  C   UNL A   1      38.832  30.238  29.505  1.00  0.00     0.049 A 
ATOM     44  H   UNL A   1      40.875  30.050  29.143  1.00  0.00     0.167 HD
ATOM     45  C   UNL A   1      45.165  29.458  28.447  1.00  0.00     0.034 A 
ATOM     46  C   UNL A   1      38.633  31.443  30.074  1.00  0.00     0.034 A 
ATOM     47  C   UNL A   1      45.043  30.798  28.973  1.00  0.00     0.049 A 
ATOM     48  C   UNL A   1      39.817  32.349  30.290  1.00  0.00     0.074 A 
ATOM     49  C   UNL A   1      46.038  31.739  29.178  1.00  0.00     0.029 A 
ATOM     50  N   UNL A   1      43.854  31.387  29.385  1.00  0.00    -0.354 N 
ATOM     51  N   UNL A   1      41.085  32.128  30.034  1.00  0.00    -0.248 NA
ATOM     52  C   UNL A   1      39.538  33.675  30.858  1.00  0.00     0.031 C 
ATOM     53  C   UNL A   1      45.461  32.870  29.766  1.00  0.00     0.029 A 
ATOM     54  C   UNL A   1      44.094  32.666  29.865  1.00  0.00     0.049 A 
ATOM     55  H   UNL A   1      42.968  30.958  29.342  1.00  0.00     0.167 HD
ATOM     56  C   UNL A   1      41.753  33.296  30.393  1.00  0.00     0.074 A 
ATOM     57  C   UNL A   1      40.742  34.226  30.854  1.00  0.00     0.031 C 
ATOM     58  C   UNL A   1      43.080  33.575  30.348  1.00  0.00     0.034 A 
BRANCH  45  59
ATOM     59  C   UNL A   1      46.541  28.932  28.110  1.00  0.00     0.023 A 
ATOM     60  C   UNL A   1      46.940  28.717  26.779  1.00  0.00     0.031 A 
ATOM     61  C   UNL A   1      47.459  28.623  29.129  1.00  0.00     0.131 A 
ATOM     62  C   UNL A   1      48.192  28.144  26.505  1.00  0.00     0.055 A 
ATOM     63  C   UNL A   1      48.734  28.126  28.846  1.00  0.00     0.041 A 
ATOM     64  F   UNL A   1      47.130  28.790  30.420  1.00  0.00    -0.206 F 
ATOM     65  C   UNL A   1      49.101  27.870  27.529  1.00  0.00     0.022 A 
BRANCH  62  66
ATOM     66  S   UNL A   1      48.561  27.640  24.802  1.00  0.00     0.124 S 
ATOM     67  O   UNL A   1      48.529  26.184  24.912  1.00  0.00    -0.237 OA
ATOM     68  O   UNL A   1      47.470  28.249  24.049  1.00  0.00    -0.237 OA
ATOM     69  O   UNL A   1      49.884  28.211  24.554  1.00  0.00    -0.744 OA
ENDBRANCH  62  66
ENDBRANCH  45  59
BRANCH  46  70
ATOM     70  C   UNL A   1      37.265  31.863  30.492  1.00  0.00     0.023 A 
ATOM     71  C   UNL A   1      36.405  32.527  29.604  1.00  0.00     0.031 A 
ATOM     72  C   UNL A   1      36.814  31.640  31.805  1.00  0.00     0.131 A 
ATOM     73  C   UNL A   1      35.158  32.989  30.052  1.00  0.00     0.055 A 
ATOM     74  C   UNL A   1      35.553  32.055  32.232  1.00  0.00     0.041 A 
ATOM     75  F   UNL A   1      37.594  31.001  32.692  1.00  0.00    -0.206 F 
ATOM     76  C   UNL A   1      34.721  32.748  31.357  1.00  0.00     0.022 A 
BRANCH  73  77
ATOM     77  S   UNL A   1      34.145  33.986  28.926  1.00  0.00     0.124 S 
ATOM     78  O   UNL A   1      33.137  34.526  29.829  1.00  0.00    -0.237 OA
ATOM     79  O   UNL A   1      35.121  34.940  28.407  1.00  0.00    -0.237 OA
ATOM     80  O   UNL A   1      33.656  33.010  27.955  1.00  0.00    -0.744 OA
ENDBRANCH  73  77
ENDBRANCH  46  70
BRANCH  58  81
ATOM     81  C   UNL A   1      43.498  34.955  30.795  1.00  0.00     0.023 A 
ATOM     82  C   UNL A   1      43.558  36.033  29.894  1.00  0.00     0.031 A 
ATOM     83  C   UNL A   1      43.884  35.185  32.126  1.00  0.00     0.131 A 
ATOM     84  C   UNL A   1      44.061  37.273  30.317  1.00  0.00     0.055 A 
ATOM     85  C   UNL A   1      44.323  36.438  32.559  1.00  0.00     0.041 A 
ATOM     86  F   UNL A   1      43.850  34.192  33.031  1.00  0.00    -0.206 F 
ATOM     87  C   UNL A   1      44.430  37.485  31.648  1.00  0.00     0.022 A 
BRANCH  84  88
ATOM     88  S   UNL A   1      44.333  38.570  29.078  1.00  0.00     0.124 S 
ATOM     89  O   UNL A   1      45.751  38.408  28.776  1.00  0.00    -0.237 OA
ATOM     90  O   UNL A   1      43.407  38.186  28.018  1.00  0.00    -0.237 OA
ATOM     91  O   UNL A   1      43.988  39.800  29.789  1.00  0.00    -0.744 OA
ENDBRANCH  84  88
ENDBRANCH  58  81
ENDBRANCH  32  33
ENDBRANCH  24  27
ENDBRANCH  22  23
ENDBRANCH   1  22
TORSDOF 15
ENDMDL
