MODEL 1
REMARK VINA RESULT:     -12.0      0.000      0.000
REMARK SMILES CC(C)[C@H]([NH2+]C[C@H]1CC[C@@H](C(=O)NCCCNC(=O)c2ccc(-c3c4nc(c(-c5cc(S(=O)(=O)[O-])ccc5F)c5ccc([nH]5)c(-c5cc(S(=O)(=O)[O-])ccc5F)c5nc(c(-c6cc(S(=O)(=O)[O-])ccc6F)c6ccc3[nH]6)C=C5)C=C4)cc2)CC1)c1ccccc1
REMARK SMILES IDX 14 1 13 2 11 3 12 4 10 6 7 7 8 8 84 9 9 10 83 11 6 12 5 13
REMARK SMILES IDX 4 16 2 17 1 18 3 19 85 20 86 21 90 22 87 23 89 24 88 25
REMARK SMILES IDX 15 26 16 27 17 28 18 29 19 31 20 32 21 33 82 34 22 35 81 36
REMARK SMILES IDX 23 37 24 38 25 39 75 40 26 41 80 42 74 43 76 44 27 45 79 46
REMARK SMILES IDX 73 47 72 48 28 50 60 51 40 52 59 53 41 54 44 55 58 56 77 57
REMARK SMILES IDX 42 58 43 59 57 61 78 62 45 63 29 64 30 65 38 66 31 67 37 68
REMARK SMILES IDX 39 69 36 70 32 71 33 72 34 73 35 74 61 75 62 76 70 77 63 78
REMARK SMILES IDX 69 79 71 80 68 81 64 82 65 83 66 84 67 85 46 86 47 87 55 88
REMARK SMILES IDX 48 89 54 90 56 91 53 92 49 93 50 94 51 95 52 96
REMARK H PARENT 13 5 5 14 5 15 17 30 76 49 44 60
REMARK Flexibility Score: inf
ROOT
ATOM      1  C   UNL A   1      34.284  22.535  23.906  1.00  0.00     0.117 C 
ENDROOT
BRANCH   1   2
ATOM      2  N   UNL A   1      33.575  21.309  24.188  1.00  0.00    -0.356 N 
ATOM      3  C   UNL A   1      32.556  21.026  25.034  1.00  0.00     0.223 C 
ATOM      4  O   UNL A   1      32.141  19.860  25.005  1.00  0.00    -0.275 OA
ATOM      5  H   UNL A   1      33.891  20.535  23.668  1.00  0.00     0.163 HD
BRANCH   3   6
ATOM      6  C   UNL A   1      31.896  22.035  25.990  1.00  0.00     0.078 C 
ATOM      7  C   UNL A   1      32.188  25.035  26.101  1.00  0.00     0.044 C 
ATOM      8  C   UNL A   1      31.310  24.372  25.028  1.00  0.00     0.010 C 
ATOM      9  C   UNL A   1      33.274  24.120  26.686  1.00  0.00     0.010 C 
ATOM     10  C   UNL A   1      30.852  22.959  25.365  1.00  0.00     0.014 C 
ATOM     11  C   UNL A   1      32.809  22.705  27.013  1.00  0.00     0.014 C 
BRANCH   7  12
ATOM     12  C   UNL A   1      32.791  26.378  25.602  1.00  0.00     0.264 C 
BRANCH  12  13
ATOM     13  N   UNL A   1      31.798  27.444  25.405  1.00  0.00    -0.340 N 
ATOM     14  H   UNL A   1      30.874  27.072  25.622  1.00  0.00     0.346 HD
ATOM     15  H   UNL A   1      32.050  28.216  26.021  1.00  0.00     0.346 HD
BRANCH  13  16
ATOM     16  C   UNL A   1      31.787  27.964  24.020  1.00  0.00     0.216 C 
BRANCH  16  17
ATOM     17  C   UNL A   1      32.675  27.186  22.970  1.00  0.00     0.046 C 
ATOM     18  C   UNL A   1      31.885  26.409  21.914  1.00  0.00     0.014 C 
ATOM     19  C   UNL A   1      33.747  28.013  22.245  1.00  0.00     0.014 C 
ENDBRANCH  16  17
BRANCH  16  20
ATOM     20  C   UNL A   1      30.350  28.156  23.536  1.00  0.00     0.009 A 
ATOM     21  C   UNL A   1      29.942  29.338  22.893  1.00  0.00     0.010 A 
ATOM     22  C   UNL A   1      29.373  27.196  23.853  1.00  0.00     0.010 A 
ATOM     23  C   UNL A   1      28.594  29.568  22.608  1.00  0.00     0.001 A 
ATOM     24  C   UNL A   1      28.027  27.426  23.562  1.00  0.00     0.001 A 
ATOM     25  C   UNL A   1      27.637  28.615  22.948  1.00  0.00     0.000 A 
ENDBRANCH  16  20
ENDBRANCH  13  16
ENDBRANCH  12  13
ENDBRANCH   7  12
ENDBRANCH   3   6
ENDBRANCH   1   2
BRANCH   1  26
ATOM     26  C   UNL A   1      35.794  22.385  24.056  1.00  0.00     0.042 C 
BRANCH  26  27
ATOM     27  C   UNL A   1      36.253  22.037  25.466  1.00  0.00     0.118 C 
BRANCH  27  28
ATOM     28  N   UNL A   1      37.328  21.052  25.502  1.00  0.00    -0.352 N 
ATOM     29  C   UNL A   1      38.656  21.091  25.852  1.00  0.00     0.251 C 
ATOM     30  H   UNL A   1      37.037  20.159  25.208  1.00  0.00     0.163 HD
ATOM     31  O   UNL A   1      39.320  20.075  25.629  1.00  0.00    -0.269 OA
BRANCH  29  32
ATOM     32  C   UNL A   1      39.326  22.281  26.435  1.00  0.00     0.039 A 
ATOM     33  C   UNL A   1      38.910  23.553  26.004  1.00  0.00     0.014 A 
ATOM     34  C   UNL A   1      40.397  22.198  27.320  1.00  0.00     0.014 A 
ATOM     35  C   UNL A   1      39.504  24.718  26.503  1.00  0.00     0.010 A 
ATOM     36  C   UNL A   1      40.954  23.353  27.869  1.00  0.00     0.010 A 
ATOM     37  C   UNL A   1      40.529  24.622  27.446  1.00  0.00    -0.014 A 
BRANCH  37  38
ATOM     38  C   UNL A   1      41.337  25.799  27.849  1.00  0.00     0.031 A 
ATOM     39  C   UNL A   1      40.654  26.872  28.652  1.00  0.00     0.074 A 
ATOM     40  C   UNL A   1      42.613  25.944  27.450  1.00  0.00     0.049 A 
ATOM     41  N   UNL A   1      41.053  28.080  28.946  1.00  0.00    -0.248 NA
ATOM     42  C   UNL A   1      39.310  26.540  29.154  1.00  0.00     0.031 C 
ATOM     43  C   UNL A   1      43.380  24.961  26.686  1.00  0.00     0.029 A 
ATOM     44  N   UNL A   1      43.482  26.993  27.614  1.00  0.00    -0.354 N 
ATOM     45  C   UNL A   1      39.997  28.665  29.637  1.00  0.00     0.074 A 
ATOM     46  C   UNL A   1      38.924  27.696  29.667  1.00  0.00     0.031 C 
ATOM     47  C   UNL A   1      44.607  25.457  26.444  1.00  0.00     0.029 A 
ATOM     48  C   UNL A   1      44.697  26.807  26.996  1.00  0.00     0.049 A 
ATOM     49  H   UNL A   1      43.257  27.803  28.128  1.00  0.00     0.167 HD
ATOM     50  C   UNL A   1      39.935  29.893  30.209  1.00  0.00     0.034 A 
ATOM     51  C   UNL A   1      45.746  27.646  26.874  1.00  0.00     0.034 A 
ATOM     52  C   UNL A   1      41.025  30.835  30.175  1.00  0.00     0.049 A 
ATOM     53  C   UNL A   1      45.647  29.023  27.489  1.00  0.00     0.074 A 
ATOM     54  C   UNL A   1      41.090  32.105  30.719  1.00  0.00     0.029 A 
ATOM     55  N   UNL A   1      42.248  30.602  29.559  1.00  0.00    -0.354 N 
ATOM     56  N   UNL A   1      44.642  29.572  28.135  1.00  0.00    -0.248 NA
ATOM     57  C   UNL A   1      46.825  29.891  27.363  1.00  0.00     0.031 C 
ATOM     58  C   UNL A   1      42.334  32.658  30.390  1.00  0.00     0.029 A 
ATOM     59  C   UNL A   1      43.069  31.708  29.698  1.00  0.00     0.049 A 
ATOM     60  H   UNL A   1      42.496  29.771  29.093  1.00  0.00     0.167 HD
ATOM     61  C   UNL A   1      45.082  30.836  28.522  1.00  0.00     0.074 A 
ATOM     62  C   UNL A   1      46.444  30.963  28.044  1.00  0.00     0.031 C 
ATOM     63  C   UNL A   1      44.426  31.804  29.212  1.00  0.00     0.034 A 
BRANCH  50  64
ATOM     64  C   UNL A   1      38.631  30.276  30.866  1.00  0.00     0.023 A 
ATOM     65  C   UNL A   1      37.585  30.871  30.136  1.00  0.00     0.031 A 
ATOM     66  C   UNL A   1      38.461  30.128  32.253  1.00  0.00     0.131 A 
ATOM     67  C   UNL A   1      36.469  31.391  30.809  1.00  0.00     0.055 A 
ATOM     68  C   UNL A   1      37.304  30.563  32.904  1.00  0.00     0.041 A 
ATOM     69  F   UNL A   1      39.433  29.590  33.008  1.00  0.00    -0.206 F 
ATOM     70  C   UNL A   1      36.309  31.218  32.185  1.00  0.00     0.022 A 
BRANCH  67  71
ATOM     71  S   UNL A   1      35.323  32.452  29.886  1.00  0.00     0.124 S 
ATOM     72  O   UNL A   1      34.282  32.694  30.883  1.00  0.00    -0.237 OA
ATOM     73  O   UNL A   1      36.158  33.597  29.543  1.00  0.00    -0.237 OA
ATOM     74  O   UNL A   1      34.914  31.616  28.759  1.00  0.00    -0.744 OA
ENDBRANCH  67  71
ENDBRANCH  50  64
BRANCH  51  75
ATOM     75  C   UNL A   1      46.971  27.234  26.129  1.00  0.00     0.023 A 
ATOM     76  C   UNL A   1      47.185  27.649  24.804  1.00  0.00     0.031 A 
ATOM     77  C   UNL A   1      47.922  26.377  26.711  1.00  0.00     0.131 A 
ATOM     78  C   UNL A   1      48.295  27.171  24.089  1.00  0.00     0.055 A 
ATOM     79  C   UNL A   1      49.050  25.942  26.011  1.00  0.00     0.041 A 
ATOM     80  F   UNL A   1      47.770  25.951  27.975  1.00  0.00    -0.206 F 
ATOM     81  C   UNL A   1      49.234  26.329  24.687  1.00  0.00     0.022 A 
BRANCH  78  82
ATOM     82  S   UNL A   1      48.451  27.604  22.334  1.00  0.00     0.124 S 
ATOM     83  O   UNL A   1      47.243  28.390  22.113  1.00  0.00    -0.237 OA
ATOM     84  O   UNL A   1      49.710  28.343  22.316  1.00  0.00    -0.237 OA
ATOM     85  O   UNL A   1      48.485  26.306  21.665  1.00  0.00    -0.744 OA
ENDBRANCH  78  82
ENDBRANCH  51  75
BRANCH  63  86
ATOM     86  C   UNL A   1      45.201  33.055  29.540  1.00  0.00     0.023 A 
ATOM     87  C   UNL A   1      45.168  34.187  28.707  1.00  0.00     0.031 A 
ATOM     88  C   UNL A   1      45.980  33.112  30.709  1.00  0.00     0.131 A 
ATOM     89  C   UNL A   1      45.939  35.313  29.032  1.00  0.00     0.055 A 
ATOM     90  C   UNL A   1      46.702  34.255  31.055  1.00  0.00     0.041 A 
ATOM     91  F   UNL A   1      46.044  32.059  31.538  1.00  0.00    -0.206 F 
ATOM     92  C   UNL A   1      46.693  35.360  30.209  1.00  0.00     0.022 A 
BRANCH  89  93
ATOM     93  S   UNL A   1      46.005  36.692  27.856  1.00  0.00     0.124 S 
ATOM     94  O   UNL A   1      45.714  37.836  28.713  1.00  0.00    -0.237 OA
ATOM     95  O   UNL A   1      47.371  36.606  27.350  1.00  0.00    -0.237 OA
ATOM     96  O   UNL A   1      44.963  36.363  26.884  1.00  0.00    -0.744 OA
ENDBRANCH  89  93
ENDBRANCH  63  86
ENDBRANCH  37  38
ENDBRANCH  29  32
ENDBRANCH  27  28
ENDBRANCH  26  27
ENDBRANCH   1  26
TORSDOF 18
ENDMDL
MODEL 2
REMARK VINA RESULT:     -12.0      5.111     10.090
REMARK SMILES CC(C)[C@H]([NH2+]C[C@H]1CC[C@@H](C(=O)NCCCNC(=O)c2ccc(-c3c4nc(c(-c5cc(S(=O)(=O)[O-])ccc5F)c5ccc([nH]5)c(-c5cc(S(=O)(=O)[O-])ccc5F)c5nc(c(-c6cc(S(=O)(=O)[O-])ccc6F)c6ccc3[nH]6)C=C5)C=C4)cc2)CC1)c1ccccc1
REMARK SMILES IDX 14 1 13 2 11 3 12 4 10 6 7 7 8 8 84 9 9 10 83 11 6 12 5 13
REMARK SMILES IDX 4 16 2 17 1 18 3 19 85 20 86 21 90 22 87 23 89 24 88 25
REMARK SMILES IDX 15 26 16 27 17 28 18 29 19 31 20 32 21 33 82 34 22 35 81 36
REMARK SMILES IDX 23 37 24 38 25 39 75 40 26 41 80 42 74 43 76 44 27 45 79 46
REMARK SMILES IDX 73 47 72 48 28 50 60 51 40 52 59 53 41 54 44 55 58 56 77 57
REMARK SMILES IDX 42 58 43 59 57 61 78 62 45 63 29 64 30 65 38 66 31 67 37 68
REMARK SMILES IDX 39 69 36 70 32 71 33 72 34 73 35 74 61 75 62 76 70 77 63 78
REMARK SMILES IDX 69 79 71 80 68 81 64 82 65 83 66 84 67 85 46 86 47 87 55 88
REMARK SMILES IDX 48 89 54 90 56 91 53 92 49 93 50 94 51 95 52 96
REMARK H PARENT 13 5 5 14 5 15 17 30 76 49 44 60
REMARK Flexibility Score: inf
ROOT
ATOM      1  C   UNL A   1      33.063  26.920  23.533  1.00  0.00     0.117 C 
ENDROOT
BRANCH   1   2
ATOM      2  N   UNL A   1      31.913  26.085  23.272  1.00  0.00    -0.356 N 
ATOM      3  C   UNL A   1      31.118  25.358  24.094  1.00  0.00     0.223 C 
ATOM      4  O   UNL A   1      30.172  24.776  23.548  1.00  0.00    -0.275 OA
ATOM      5  H   UNL A   1      31.661  26.036  22.322  1.00  0.00     0.163 HD
BRANCH   3   6
ATOM      6  C   UNL A   1      31.307  25.223  25.614  1.00  0.00     0.078 C 
ATOM      7  C   UNL A   1      32.659  23.032  27.186  1.00  0.00     0.044 C 
ATOM      8  C   UNL A   1      33.489  24.091  26.443  1.00  0.00     0.010 C 
ATOM      9  C   UNL A   1      31.239  22.839  26.635  1.00  0.00     0.010 C 
ATOM     10  C   UNL A   1      32.740  25.378  26.124  1.00  0.00     0.014 C 
ATOM     11  C   UNL A   1      30.498  24.132  26.310  1.00  0.00     0.014 C 
BRANCH   7  12
ATOM     12  C   UNL A   1      33.413  21.677  27.288  1.00  0.00     0.264 C 
BRANCH  12  13
ATOM     13  N   UNL A   1      32.870  20.622  26.420  1.00  0.00    -0.340 N 
ATOM     14  H   UNL A   1      32.592  19.832  27.002  1.00  0.00     0.346 HD
ATOM     15  H   UNL A   1      32.078  21.018  25.915  1.00  0.00     0.346 HD
BRANCH  13  16
ATOM     16  C   UNL A   1      33.848  20.149  25.417  1.00  0.00     0.216 C 
BRANCH  16  17
ATOM     17  C   UNL A   1      33.533  18.762  24.729  1.00  0.00     0.046 C 
ATOM     18  C   UNL A   1      32.531  18.833  23.574  1.00  0.00     0.014 C 
ATOM     19  C   UNL A   1      34.748  17.951  24.252  1.00  0.00     0.014 C 
ENDBRANCH  16  17
BRANCH  16  20
ATOM     20  C   UNL A   1      34.139  21.250  24.397  1.00  0.00     0.009 A 
ATOM     21  C   UNL A   1      35.417  21.826  24.280  1.00  0.00     0.010 A 
ATOM     22  C   UNL A   1      33.086  21.802  23.647  1.00  0.00     0.010 A 
ATOM     23  C   UNL A   1      35.626  22.941  23.466  1.00  0.00     0.001 A 
ATOM     24  C   UNL A   1      33.299  22.913  22.830  1.00  0.00     0.001 A 
ATOM     25  C   UNL A   1      34.566  23.488  22.747  1.00  0.00     0.000 A 
ENDBRANCH  16  20
ENDBRANCH  13  16
ENDBRANCH  12  13
ENDBRANCH   7  12
ENDBRANCH   3   6
ENDBRANCH   1   2
BRANCH   1  26
ATOM     26  C   UNL A   1      32.700  28.397  23.643  1.00  0.00     0.042 C 
BRANCH  26  27
ATOM     27  C   UNL A   1      33.503  29.164  24.686  1.00  0.00     0.118 C 
BRANCH  27  28
ATOM     28  N   UNL A   1      32.736  30.205  25.360  1.00  0.00    -0.352 N 
ATOM     29  C   UNL A   1      32.854  30.861  26.561  1.00  0.00     0.251 C 
ATOM     30  H   UNL A   1      31.959  30.506  24.837  1.00  0.00     0.163 HD
ATOM     31  O   UNL A   1      31.928  31.613  26.879  1.00  0.00    -0.269 OA
BRANCH  29  32
ATOM     32  C   UNL A   1      33.995  30.684  27.494  1.00  0.00     0.039 A 
ATOM     33  C   UNL A   1      34.731  31.823  27.866  1.00  0.00     0.014 A 
ATOM     34  C   UNL A   1      34.423  29.440  27.951  1.00  0.00     0.014 A 
ATOM     35  C   UNL A   1      35.824  31.729  28.734  1.00  0.00     0.010 A 
ATOM     36  C   UNL A   1      35.474  29.343  28.864  1.00  0.00     0.010 A 
ATOM     37  C   UNL A   1      36.199  30.484  29.243  1.00  0.00    -0.014 A 
BRANCH  37  38
ATOM     38  C   UNL A   1      37.467  30.289  29.988  1.00  0.00     0.031 A 
ATOM     39  C   UNL A   1      38.529  29.439  29.345  1.00  0.00     0.074 A 
ATOM     40  C   UNL A   1      37.639  30.788  31.224  1.00  0.00     0.049 A 
ATOM     41  N   UNL A   1      39.621  28.936  29.854  1.00  0.00    -0.248 NA
ATOM     42  C   UNL A   1      38.292  29.071  27.939  1.00  0.00     0.031 C 
ATOM     43  C   UNL A   1      36.687  31.640  31.935  1.00  0.00     0.029 A 
ATOM     44  N   UNL A   1      38.672  30.626  32.112  1.00  0.00    -0.354 N 
ATOM     45  C   UNL A   1      40.185  28.166  28.843  1.00  0.00     0.074 A 
ATOM     46  C   UNL A   1      39.283  28.225  27.714  1.00  0.00     0.031 C 
ATOM     47  C   UNL A   1      37.180  31.923  33.154  1.00  0.00     0.029 A 
ATOM     48  C   UNL A   1      38.459  31.238  33.326  1.00  0.00     0.049 A 
ATOM     49  H   UNL A   1      39.490  30.121  31.900  1.00  0.00     0.167 HD
ATOM     50  C   UNL A   1      41.357  27.484  28.850  1.00  0.00     0.034 A 
ATOM     51  C   UNL A   1      39.206  31.220  34.450  1.00  0.00     0.034 A 
ATOM     52  C   UNL A   1      42.244  27.453  29.985  1.00  0.00     0.049 A 
ATOM     53  C   UNL A   1      40.493  30.428  34.451  1.00  0.00     0.074 A 
ATOM     54  C   UNL A   1      43.460  26.806  30.118  1.00  0.00     0.029 A 
ATOM     55  N   UNL A   1      42.006  28.103  31.190  1.00  0.00    -0.354 N 
ATOM     56  N   UNL A   1      41.017  29.696  33.493  1.00  0.00    -0.248 NA
ATOM     57  C   UNL A   1      41.292  30.464  35.683  1.00  0.00     0.031 C 
ATOM     58  C   UNL A   1      43.932  27.025  31.418  1.00  0.00     0.029 A 
ATOM     59  C   UNL A   1      43.043  27.862  32.075  1.00  0.00     0.049 A 
ATOM     60  H   UNL A   1      41.214  28.655  31.385  1.00  0.00     0.167 HD
ATOM     61  C   UNL A   1      42.223  29.215  33.996  1.00  0.00     0.074 A 
ATOM     62  C   UNL A   1      42.352  29.746  35.338  1.00  0.00     0.031 C 
ATOM     63  C   UNL A   1      43.145  28.410  33.407  1.00  0.00     0.034 A 
BRANCH  50  64
ATOM     64  C   UNL A   1      41.698  26.696  27.608  1.00  0.00     0.023 A 
ATOM     65  C   UNL A   1      41.471  25.310  27.531  1.00  0.00     0.031 A 
ATOM     66  C   UNL A   1      42.339  27.317  26.523  1.00  0.00     0.131 A 
ATOM     67  C   UNL A   1      41.974  24.577  26.446  1.00  0.00     0.055 A 
ATOM     68  C   UNL A   1      42.754  26.596  25.401  1.00  0.00     0.041 A 
ATOM     69  F   UNL A   1      42.606  28.633  26.548  1.00  0.00    -0.206 F 
ATOM     70  C   UNL A   1      42.592  25.214  25.367  1.00  0.00     0.022 A 
BRANCH  67  71
ATOM     71  S   UNL A   1      41.972  22.766  26.552  1.00  0.00     0.124 S 
ATOM     72  O   UNL A   1      40.608  22.450  26.129  1.00  0.00    -0.237 OA
ATOM     73  O   UNL A   1      43.031  22.392  25.623  1.00  0.00    -0.237 OA
ATOM     74  O   UNL A   1      42.255  22.505  27.962  1.00  0.00    -0.744 OA
ENDBRANCH  67  71
ENDBRANCH  50  64
BRANCH  51  75
ATOM     75  C   UNL A   1      38.761  31.948  35.674  1.00  0.00     0.023 A 
ATOM     76  C   UNL A   1      38.150  31.265  36.738  1.00  0.00     0.031 A 
ATOM     77  C   UNL A   1      38.893  33.344  35.778  1.00  0.00     0.131 A 
ATOM     78  C   UNL A   1      37.651  31.982  37.838  1.00  0.00     0.055 A 
ATOM     79  C   UNL A   1      38.438  34.048  36.895  1.00  0.00     0.041 A 
ATOM     80  F   UNL A   1      39.472  34.047  34.792  1.00  0.00    -0.206 F 
ATOM     81  C   UNL A   1      37.801  33.367  37.929  1.00  0.00     0.022 A 
BRANCH  78  82
ATOM     82  S   UNL A   1      36.730  31.083  39.117  1.00  0.00     0.124 S 
ATOM     83  O   UNL A   1      36.573  29.770  38.502  1.00  0.00    -0.237 OA
ATOM     84  O   UNL A   1      37.643  31.155  40.254  1.00  0.00    -0.237 OA
ATOM     85  O   UNL A   1      35.500  31.858  39.259  1.00  0.00    -0.744 OA
ENDBRANCH  78  82
ENDBRANCH  51  75
BRANCH  63  86
ATOM     86  C   UNL A   1      44.397  28.114  34.193  1.00  0.00     0.023 A 
ATOM     87  C   UNL A   1      44.503  26.981  35.018  1.00  0.00     0.031 A 
ATOM     88  C   UNL A   1      45.501  28.980  34.107  1.00  0.00     0.131 A 
ATOM     89  C   UNL A   1      45.673  26.770  35.763  1.00  0.00     0.055 A 
ATOM     90  C   UNL A   1      46.683  28.735  34.807  1.00  0.00     0.041 A 
ATOM     91  F   UNL A   1      45.452  30.074  33.331  1.00  0.00    -0.206 F 
ATOM     92  C   UNL A   1      46.769  27.630  35.650  1.00  0.00     0.022 A 
BRANCH  89  93
ATOM     93  S   UNL A   1      45.717  25.394  36.943  1.00  0.00     0.124 S 
ATOM     94  O   UNL A   1      46.034  24.262  36.078  1.00  0.00    -0.237 OA
ATOM     95  O   UNL A   1      46.770  25.806  37.865  1.00  0.00    -0.237 OA
ATOM     96  O   UNL A   1      44.369  25.383  37.508  1.00  0.00    -0.744 OA
ENDBRANCH  89  93
ENDBRANCH  63  86
ENDBRANCH  37  38
ENDBRANCH  29  32
ENDBRANCH  27  28
ENDBRANCH  26  27
ENDBRANCH   1  26
TORSDOF 18
ENDMDL
MODEL 3
REMARK VINA RESULT:     -11.8      1.914      7.775
REMARK SMILES CC(C)[C@H]([NH2+]C[C@H]1CC[C@@H](C(=O)NCCCNC(=O)c2ccc(-c3c4nc(c(-c5cc(S(=O)(=O)[O-])ccc5F)c5ccc([nH]5)c(-c5cc(S(=O)(=O)[O-])ccc5F)c5nc(c(-c6cc(S(=O)(=O)[O-])ccc6F)c6ccc3[nH]6)C=C5)C=C4)cc2)CC1)c1ccccc1
REMARK SMILES IDX 14 1 13 2 11 3 12 4 10 6 7 7 8 8 84 9 9 10 83 11 6 12 5 13
REMARK SMILES IDX 4 16 2 17 1 18 3 19 85 20 86 21 90 22 87 23 89 24 88 25
REMARK SMILES IDX 15 26 16 27 17 28 18 29 19 31 20 32 21 33 82 34 22 35 81 36
REMARK SMILES IDX 23 37 24 38 25 39 75 40 26 41 80 42 74 43 76 44 27 45 79 46
REMARK SMILES IDX 73 47 72 48 28 50 60 51 40 52 59 53 41 54 44 55 58 56 77 57
REMARK SMILES IDX 42 58 43 59 57 61 78 62 45 63 29 64 30 65 38 66 31 67 37 68
REMARK SMILES IDX 39 69 36 70 32 71 33 72 34 73 35 74 61 75 62 76 70 77 63 78
REMARK SMILES IDX 69 79 71 80 68 81 64 82 65 83 66 84 67 85 46 86 47 87 55 88
REMARK SMILES IDX 48 89 54 90 56 91 53 92 49 93 50 94 51 95 52 96
REMARK H PARENT 13 5 5 14 5 15 17 30 76 49 44 60
REMARK Flexibility Score: inf
ROOT
ATOM      1  C   UNL A   1      35.303  21.096  25.568  1.00  0.00     0.117 C 
ENDROOT
BRANCH   1   2
ATOM      2  N   UNL A   1      34.174  20.640  24.790  1.00  0.00    -0.356 N 
ATOM      3  C   UNL A   1      33.028  21.255  24.411  1.00  0.00     0.223 C 
ATOM      4  O   UNL A   1      32.270  20.586  23.697  1.00  0.00    -0.275 OA
ATOM      5  H   UNL A   1      34.253  19.710  24.477  1.00  0.00     0.163 HD
BRANCH   3   6
ATOM      6  C   UNL A   1      32.629  22.691  24.792  1.00  0.00     0.078 C 
ATOM      7  C   UNL A   1      31.966  25.028  23.003  1.00  0.00     0.044 C 
ATOM      8  C   UNL A   1      30.943  23.904  23.237  1.00  0.00     0.010 C 
ATOM      9  C   UNL A   1      33.425  24.617  23.247  1.00  0.00     0.010 C 
ATOM     10  C   UNL A   1      31.181  23.080  24.495  1.00  0.00     0.014 C 
ATOM     11  C   UNL A   1      33.653  23.785  24.504  1.00  0.00     0.014 C 
BRANCH   7  12
ATOM     12  C   UNL A   1      31.790  25.684  21.605  1.00  0.00     0.264 C 
BRANCH  12  13
ATOM     13  N   UNL A   1      31.725  27.151  21.636  1.00  0.00    -0.340 N 
ATOM     14  H   UNL A   1      32.663  27.522  21.483  1.00  0.00     0.346 HD
ATOM     15  H   UNL A   1      31.079  27.446  20.904  1.00  0.00     0.346 HD
BRANCH  13  16
ATOM     16  C   UNL A   1      31.213  27.673  22.921  1.00  0.00     0.216 C 
BRANCH  16  17
ATOM     17  C   UNL A   1      32.259  28.413  23.845  1.00  0.00     0.046 C 
ATOM     18  C   UNL A   1      32.250  27.964  25.309  1.00  0.00     0.014 C 
ATOM     19  C   UNL A   1      33.716  28.409  23.358  1.00  0.00     0.014 C 
ENDBRANCH  16  17
BRANCH  16  20
ATOM     20  C   UNL A   1      29.951  28.505  22.692  1.00  0.00     0.009 A 
ATOM     21  C   UNL A   1      30.009  29.789  22.122  1.00  0.00     0.010 A 
ATOM     22  C   UNL A   1      28.715  28.045  23.179  1.00  0.00     0.010 A 
ATOM     23  C   UNL A   1      28.874  30.602  22.074  1.00  0.00     0.001 A 
ATOM     24  C   UNL A   1      27.581  28.858  23.125  1.00  0.00     0.001 A 
ATOM     25  C   UNL A   1      27.663  30.139  22.581  1.00  0.00     0.000 A 
ENDBRANCH  16  20
ENDBRANCH  13  16
ENDBRANCH  12  13
ENDBRANCH   7  12
ENDBRANCH   3   6
ENDBRANCH   1   2
BRANCH   1  26
ATOM     26  C   UNL A   1      36.545  21.328  24.715  1.00  0.00     0.042 C 
BRANCH  26  27
ATOM     27  C   UNL A   1      37.550  22.300  25.321  1.00  0.00     0.118 C 
BRANCH  27  28
ATOM     28  N   UNL A   1      38.612  21.643  26.073  1.00  0.00    -0.352 N 
ATOM     29  C   UNL A   1      39.644  22.085  26.865  1.00  0.00     0.251 C 
ATOM     30  H   UNL A   1      38.584  20.662  25.997  1.00  0.00     0.163 HD
ATOM     31  O   UNL A   1      40.455  21.237  27.249  1.00  0.00    -0.269 OA
BRANCH  29  32
ATOM     32  C   UNL A   1      39.852  23.507  27.240  1.00  0.00     0.039 A 
ATOM     33  C   UNL A   1      39.114  24.488  26.554  1.00  0.00     0.014 A 
ATOM     34  C   UNL A   1      40.798  23.921  28.175  1.00  0.00     0.014 A 
ATOM     35  C   UNL A   1      39.266  25.847  26.849  1.00  0.00     0.010 A 
ATOM     36  C   UNL A   1      40.912  25.268  28.518  1.00  0.00     0.010 A 
ATOM     37  C   UNL A   1      40.165  26.244  27.840  1.00  0.00    -0.014 A 
BRANCH  37  38
ATOM     38  C   UNL A   1      40.527  27.668  28.048  1.00  0.00     0.031 A 
ATOM     39  C   UNL A   1      41.956  28.068  27.797  1.00  0.00     0.074 A 
ATOM     40  C   UNL A   1      39.634  28.558  28.515  1.00  0.00     0.049 A 
ATOM     41  N   UNL A   1      42.581  29.172  28.101  1.00  0.00    -0.248 NA
ATOM     42  C   UNL A   1      42.802  27.051  27.151  1.00  0.00     0.031 C 
ATOM     43  C   UNL A   1      38.221  28.287  28.774  1.00  0.00     0.029 A 
ATOM     44  N   UNL A   1      39.795  29.872  28.878  1.00  0.00    -0.354 N 
ATOM     45  C   UNL A   1      43.902  28.972  27.715  1.00  0.00     0.074 A 
ATOM     46  C   UNL A   1      43.994  27.621  27.208  1.00  0.00     0.031 C 
ATOM     47  C   UNL A   1      37.644  29.401  29.259  1.00  0.00     0.029 A 
ATOM     48  C   UNL A   1      38.655  30.449  29.387  1.00  0.00     0.049 A 
ATOM     49  H   UNL A   1      40.648  30.356  28.782  1.00  0.00     0.167 HD
ATOM     50  C   UNL A   1      44.942  29.842  27.764  1.00  0.00     0.034 A 
ATOM     51  C   UNL A   1      38.465  31.675  29.916  1.00  0.00     0.034 A 
ATOM     52  C   UNL A   1      44.820  31.189  28.262  1.00  0.00     0.049 A 
ATOM     53  C   UNL A   1      39.641  32.621  29.993  1.00  0.00     0.074 A 
ATOM     54  C   UNL A   1      45.791  32.168  28.360  1.00  0.00     0.029 A 
ATOM     55  N   UNL A   1      43.643  31.745  28.748  1.00  0.00    -0.354 N 
ATOM     56  N   UNL A   1      40.889  32.422  29.632  1.00  0.00    -0.248 NA
ATOM     57  C   UNL A   1      39.382  33.958  30.543  1.00  0.00     0.031 C 
ATOM     58  C   UNL A   1      45.214  33.300  28.949  1.00  0.00     0.029 A 
ATOM     59  C   UNL A   1      43.867  33.049  29.159  1.00  0.00     0.049 A 
ATOM     60  H   UNL A   1      42.776  31.281  28.794  1.00  0.00     0.167 HD
ATOM     61  C   UNL A   1      41.554  33.621  29.880  1.00  0.00     0.074 A 
ATOM     62  C   UNL A   1      40.567  34.537  30.412  1.00  0.00     0.031 C 
ATOM     63  C   UNL A   1      42.859  33.941  29.684  1.00  0.00     0.034 A 
BRANCH  50  64
ATOM     64  C   UNL A   1      46.286  29.329  27.306  1.00  0.00     0.023 A 
ATOM     65  C   UNL A   1      46.500  28.908  25.981  1.00  0.00     0.031 A 
ATOM     66  C   UNL A   1      47.340  29.174  28.223  1.00  0.00     0.131 A 
ATOM     67  C   UNL A   1      47.695  28.258  25.638  1.00  0.00     0.055 A 
ATOM     68  C   UNL A   1      48.563  28.612  27.850  1.00  0.00     0.041 A 
ATOM     69  F   UNL A   1      47.188  29.535  29.508  1.00  0.00    -0.206 F 
ATOM     70  C   UNL A   1      48.739  28.130  26.556  1.00  0.00     0.022 A 
BRANCH  67  71
ATOM     71  S   UNL A   1      47.791  27.424  24.029  1.00  0.00     0.124 S 
ATOM     72  O   UNL A   1      46.926  26.266  24.248  1.00  0.00    -0.237 OA
ATOM     73  O   UNL A   1      47.283  28.439  23.115  1.00  0.00    -0.237 OA
ATOM     74  O   UNL A   1      49.213  27.113  23.889  1.00  0.00    -0.744 OA
ENDBRANCH  67  71
ENDBRANCH  50  64
BRANCH  51  75
ATOM     75  C   UNL A   1      37.127  32.084  30.435  1.00  0.00     0.023 A 
ATOM     76  C   UNL A   1      36.203  32.745  29.610  1.00  0.00     0.031 A 
ATOM     77  C   UNL A   1      36.771  31.867  31.779  1.00  0.00     0.131 A 
ATOM     78  C   UNL A   1      34.990  33.208  30.144  1.00  0.00     0.055 A 
ATOM     79  C   UNL A   1      35.543  32.288  32.294  1.00  0.00     0.041 A 
ATOM     80  F   UNL A   1      37.614  31.238  32.612  1.00  0.00    -0.206 F 
ATOM     81  C   UNL A   1      34.649  32.975  31.477  1.00  0.00     0.022 A 
BRANCH  78  82
ATOM     82  S   UNL A   1      33.894  34.195  29.086  1.00  0.00     0.124 S 
ATOM     83  O   UNL A   1      33.427  33.197  28.130  1.00  0.00    -0.237 OA
ATOM     84  O   UNL A   1      32.905  34.679  30.044  1.00  0.00    -0.237 OA
ATOM     85  O   UNL A   1      34.780  35.219  28.539  1.00  0.00    -0.744 OA
ENDBRANCH  78  82
ENDBRANCH  51  75
BRANCH  63  86
ATOM     86  C   UNL A   1      43.269  35.359  29.991  1.00  0.00     0.023 A 
ATOM     87  C   UNL A   1      43.161  36.385  29.037  1.00  0.00     0.031 A 
ATOM     88  C   UNL A   1      43.770  35.684  31.264  1.00  0.00     0.131 A 
ATOM     89  C   UNL A   1      43.594  37.681  29.356  1.00  0.00     0.055 A 
ATOM     90  C   UNL A   1      44.148  36.986  31.593  1.00  0.00     0.041 A 
ATOM     91  F   UNL A   1      43.891  34.741  32.211  1.00  0.00    -0.206 F 
ATOM     92  C   UNL A   1      44.071  37.991  30.633  1.00  0.00     0.022 A 
BRANCH  89  93
ATOM     93  S   UNL A   1      43.597  38.943  28.055  1.00  0.00     0.124 S 
ATOM     94  O   UNL A   1      44.942  39.496  28.171  1.00  0.00    -0.237 OA
ATOM     95  O   UNL A   1      43.332  38.156  26.855  1.00  0.00    -0.237 OA
ATOM     96  O   UNL A   1      42.518  39.847  28.452  1.00  0.00    -0.744 OA
ENDBRANCH  89  93
ENDBRANCH  63  86
ENDBRANCH  37  38
ENDBRANCH  29  32
ENDBRANCH  27  28
ENDBRANCH  26  27
ENDBRANCH   1  26
TORSDOF 18
ENDMDL
