MODEL 1
REMARK VINA RESULT:     -11.2      0.000      0.000
REMARK SMILES C[NH+](C)CCCNC(=O)[C@@H]1[C@@H](C(=O)NCCCNC(=O)c2ccc(-c3c4nc(c(-c5cc(S(=O)(=O)[O-])ccc5F)c5ccc([nH]5)c(-c5cc(S(=O)(=O)[O-])ccc5F)c5nc(c(-c6cc(S(=O)(=O)[O-])ccc6F)c6ccc3[nH]6)C=C5)C=C4)cc2)C1(C)C
REMARK SMILES IDX 15 1 14 2 12 3 13 4 11 6 10 7 84 8 85 9 86 10 8 11 7 12 9 14
REMARK SMILES IDX 6 15 5 16 4 17 2 18 1 19 3 20 16 22 17 23 18 24 19 25 20 27
REMARK SMILES IDX 21 28 22 29 83 30 23 31 82 32 24 33 25 34 26 35 76 36 27 37
REMARK SMILES IDX 81 38 75 39 77 40 28 41 80 42 74 43 73 44 29 46 61 47 41 48
REMARK SMILES IDX 60 49 42 50 45 51 59 52 78 53 43 54 44 55 58 57 79 58 46 59
REMARK SMILES IDX 30 60 31 61 39 62 32 63 38 64 40 65 37 66 33 67 34 68 35 69
REMARK SMILES IDX 36 70 62 71 63 72 71 73 64 74 70 75 72 76 69 77 65 78 66 79
REMARK SMILES IDX 67 80 68 81 47 82 48 83 56 84 49 85 55 86 57 87 54 88 50 89
REMARK SMILES IDX 51 90 52 91 53 92
REMARK H PARENT 14 5 7 13 2 21 18 26 77 45 45 56
REMARK Flexibility Score: inf
ROOT
ATOM      1  C   UNL A   1      32.521  27.507  26.757  1.00  0.00     0.117 C 
ENDROOT
BRANCH   1   2
ATOM      2  N   UNL A   1      31.646  26.340  26.841  1.00  0.00    -0.356 N 
ATOM      3  C   UNL A   1      31.711  25.020  26.468  1.00  0.00     0.224 C 
ATOM      4  O   UNL A   1      30.695  24.349  26.651  1.00  0.00    -0.275 OA
ATOM      5  H   UNL A   1      30.790  26.555  27.276  1.00  0.00     0.163 HD
BRANCH   3   6
ATOM      6  C   UNL A   1      32.917  24.311  25.941  1.00  0.00     0.098 C 
ATOM      7  C   UNL A   1      32.824  22.948  25.344  1.00  0.00     0.098 C 
ATOM      8  C   UNL A   1      33.647  23.160  26.625  1.00  0.00    -0.011 C 
ATOM      9  C   UNL A   1      33.158  22.527  27.901  1.00  0.00     0.013 C 
ATOM     10  C   UNL A   1      35.160  23.183  26.542  1.00  0.00     0.013 C 
BRANCH   7  11
ATOM     11  C   UNL A   1      33.471  22.473  24.105  1.00  0.00     0.224 C 
ATOM     12  N   UNL A   1      33.695  21.119  24.024  1.00  0.00    -0.356 N 
ATOM     13  H   UNL A   1      34.115  20.804  23.191  1.00  0.00     0.163 HD
ATOM     14  O   UNL A   1      33.802  23.230  23.205  1.00  0.00    -0.275 OA
BRANCH  12  15
ATOM     15  C   UNL A   1      33.392  20.088  25.010  1.00  0.00     0.121 C 
BRANCH  15  16
ATOM     16  C   UNL A   1      32.444  19.025  24.473  1.00  0.00     0.083 C 
BRANCH  16  17
ATOM     17  C   UNL A   1      32.439  17.698  25.240  1.00  0.00     0.263 C 
BRANCH  17  18
ATOM     18  N   UNL A   1      32.740  16.455  24.522  1.00  0.00    -0.340 N 
ATOM     19  C   UNL A   1      33.879  16.521  23.617  1.00  0.00     0.332 C 
ATOM     20  C   UNL A   1      32.814  15.282  25.388  1.00  0.00     0.332 C 
ATOM     21  H   UNL A   1      31.924  16.339  23.922  1.00  0.00     0.347 HD
ENDBRANCH  17  18
ENDBRANCH  16  17
ENDBRANCH  15  16
ENDBRANCH  12  15
ENDBRANCH   7  11
ENDBRANCH   3   6
ENDBRANCH   1   2
BRANCH   1  22
ATOM     22  C   UNL A   1      31.815  28.727  26.180  1.00  0.00     0.042 C 
BRANCH  22  23
ATOM     23  C   UNL A   1      32.769  29.780  25.646  1.00  0.00     0.118 C 
BRANCH  23  24
ATOM     24  N   UNL A   1      32.454  31.112  26.145  1.00  0.00    -0.352 N 
ATOM     25  C   UNL A   1      33.082  31.867  27.109  1.00  0.00     0.251 C 
ATOM     26  H   UNL A   1      31.671  31.538  25.727  1.00  0.00     0.163 HD
ATOM     27  O   UNL A   1      32.519  32.867  27.547  1.00  0.00    -0.269 OA
BRANCH  25  28
ATOM     28  C   UNL A   1      34.401  31.456  27.642  1.00  0.00     0.039 A 
ATOM     29  C   UNL A   1      35.398  32.422  27.809  1.00  0.00     0.014 A 
ATOM     30  C   UNL A   1      34.659  30.128  27.984  1.00  0.00     0.014 A 
ATOM     31  C   UNL A   1      36.609  32.072  28.411  1.00  0.00     0.010 A 
ATOM     32  C   UNL A   1      35.824  29.802  28.674  1.00  0.00     0.010 A 
ATOM     33  C   UNL A   1      36.809  30.772  28.903  1.00  0.00    -0.014 A 
BRANCH  33  34
ATOM     34  C   UNL A   1      38.026  30.406  29.676  1.00  0.00     0.031 A 
ATOM     35  C   UNL A   1      39.019  29.432  29.104  1.00  0.00     0.074 A 
ATOM     36  C   UNL A   1      38.194  30.889  30.923  1.00  0.00     0.049 A 
ATOM     37  N   UNL A   1      40.075  28.901  29.665  1.00  0.00    -0.248 NA
ATOM     38  C   UNL A   1      38.776  28.977  27.728  1.00  0.00     0.031 C 
ATOM     39  C   UNL A   1      37.289  31.822  31.596  1.00  0.00     0.029 A 
ATOM     40  N   UNL A   1      39.176  30.654  31.854  1.00  0.00    -0.354 N 
ATOM     41  C   UNL A   1      40.619  28.043  28.714  1.00  0.00     0.074 A 
ATOM     42  C   UNL A   1      39.734  28.076  27.569  1.00  0.00     0.031 C 
ATOM     43  C   UNL A   1      37.772  32.101  32.818  1.00  0.00     0.029 A 
ATOM     44  C   UNL A   1      38.983  31.319  33.042  1.00  0.00     0.049 A 
ATOM     45  H   UNL A   1      39.947  30.064  31.686  1.00  0.00     0.167 HD
ATOM     46  C   UNL A   1      41.760  27.314  28.783  1.00  0.00     0.034 A 
ATOM     47  C   UNL A   1      39.684  31.285  34.193  1.00  0.00     0.034 A 
ATOM     48  C   UNL A   1      42.627  27.290  29.935  1.00  0.00     0.049 A 
ATOM     49  C   UNL A   1      40.903  30.400  34.277  1.00  0.00     0.074 A 
ATOM     50  C   UNL A   1      43.830  26.625  30.095  1.00  0.00     0.029 A 
ATOM     51  N   UNL A   1      42.376  27.946  31.135  1.00  0.00    -0.354 N 
ATOM     52  N   UNL A   1      41.429  29.630  33.352  1.00  0.00    -0.248 NA
ATOM     53  C   UNL A   1      41.618  30.374  35.559  1.00  0.00     0.031 C 
ATOM     54  C   UNL A   1      44.262  26.808  31.412  1.00  0.00     0.029 A 
ATOM     55  C   UNL A   1      43.375  27.660  32.052  1.00  0.00     0.049 A 
ATOM     56  H   UNL A   1      41.602  28.529  31.307  1.00  0.00     0.167 HD
ATOM     57  C   UNL A   1      42.553  29.052  33.935  1.00  0.00     0.074 A 
ATOM     58  C   UNL A   1      42.637  29.572  35.284  1.00  0.00     0.031 C 
ATOM     59  C   UNL A   1      43.439  28.172  33.401  1.00  0.00     0.034 A 
BRANCH  46  60
ATOM     60  C   UNL A   1      42.113  26.463  27.586  1.00  0.00     0.023 A 
ATOM     61  C   UNL A   1      41.691  25.126  27.483  1.00  0.00     0.031 A 
ATOM     62  C   UNL A   1      42.907  26.981  26.547  1.00  0.00     0.131 A 
ATOM     63  C   UNL A   1      42.135  24.330  26.417  1.00  0.00     0.055 A 
ATOM     64  C   UNL A   1      43.269  26.210  25.441  1.00  0.00     0.041 A 
ATOM     65  F   UNL A   1      43.360  28.244  26.597  1.00  0.00    -0.206 F 
ATOM     66  C   UNL A   1      42.899  24.870  25.380  1.00  0.00     0.022 A 
BRANCH  63  67
ATOM     67  S   UNL A   1      41.843  22.542  26.497  1.00  0.00     0.124 S 
ATOM     68  O   UNL A   1      42.433  22.205  27.791  1.00  0.00    -0.237 OA
ATOM     69  O   UNL A   1      40.390  22.455  26.414  1.00  0.00    -0.237 OA
ATOM     70  O   UNL A   1      42.569  22.024  25.338  1.00  0.00    -0.744 OA
ENDBRANCH  63  67
ENDBRANCH  46  60
BRANCH  47  71
ATOM     71  C   UNL A   1      39.246  32.089  35.371  1.00  0.00     0.023 A 
ATOM     72  C   UNL A   1      39.662  33.421  35.528  1.00  0.00     0.031 A 
ATOM     73  C   UNL A   1      38.438  31.529  36.377  1.00  0.00     0.131 A 
ATOM     74  C   UNL A   1      39.308  34.133  36.684  1.00  0.00     0.055 A 
ATOM     75  C   UNL A   1      38.039  32.261  37.497  1.00  0.00     0.041 A 
ATOM     76  F   UNL A   1      38.012  30.260  36.279  1.00  0.00    -0.206 F 
ATOM     77  C   UNL A   1      38.485  33.568  37.661  1.00  0.00     0.022 A 
BRANCH  74  78
ATOM     78  S   UNL A   1      40.016  35.784  36.937  1.00  0.00     0.124 S 
ATOM     79  O   UNL A   1      39.596  36.474  35.722  1.00  0.00    -0.237 OA
ATOM     80  O   UNL A   1      39.365  36.206  38.173  1.00  0.00    -0.237 OA
ATOM     81  O   UNL A   1      41.449  35.525  37.046  1.00  0.00    -0.744 OA
ENDBRANCH  74  78
ENDBRANCH  47  71
BRANCH  59  82
ATOM     82  C   UNL A   1      44.595  27.739  34.271  1.00  0.00     0.023 A 
ATOM     83  C   UNL A   1      44.511  26.608  35.101  1.00  0.00     0.031 A 
ATOM     84  C   UNL A   1      45.802  28.460  34.255  1.00  0.00     0.131 A 
ATOM     85  C   UNL A   1      45.601  26.254  35.910  1.00  0.00     0.055 A 
ATOM     86  C   UNL A   1      46.904  28.066  35.014  1.00  0.00     0.041 A 
ATOM     87  F   UNL A   1      45.936  29.552  33.485  1.00  0.00    -0.206 F 
ATOM     88  C   UNL A   1      46.804  26.962  35.856  1.00  0.00     0.022 A 
BRANCH  85  89
ATOM     89  S   UNL A   1      45.402  24.893  37.093  1.00  0.00     0.124 S 
ATOM     90  O   UNL A   1      46.501  25.137  38.021  1.00  0.00    -0.237 OA
ATOM     91  O   UNL A   1      44.061  25.126  37.618  1.00  0.00    -0.237 OA
ATOM     92  O   UNL A   1      45.544  23.696  36.266  1.00  0.00    -0.744 OA
ENDBRANCH  85  89
ENDBRANCH  59  82
ENDBRANCH  33  34
ENDBRANCH  25  28
ENDBRANCH  23  24
ENDBRANCH  22  23
ENDBRANCH   1  22
TORSDOF 18
ENDMDL
MODEL 2
REMARK VINA RESULT:     -11.1      1.172      1.880
REMARK SMILES C[NH+](C)CCCNC(=O)[C@@H]1[C@@H](C(=O)NCCCNC(=O)c2ccc(-c3c4nc(c(-c5cc(S(=O)(=O)[O-])ccc5F)c5ccc([nH]5)c(-c5cc(S(=O)(=O)[O-])ccc5F)c5nc(c(-c6cc(S(=O)(=O)[O-])ccc6F)c6ccc3[nH]6)C=C5)C=C4)cc2)C1(C)C
REMARK SMILES IDX 15 1 14 2 12 3 13 4 11 6 10 7 84 8 85 9 86 10 8 11 7 12 9 14
REMARK SMILES IDX 6 15 5 16 4 17 2 18 1 19 3 20 16 22 17 23 18 24 19 25 20 27
REMARK SMILES IDX 21 28 22 29 83 30 23 31 82 32 24 33 25 34 26 35 76 36 27 37
REMARK SMILES IDX 81 38 75 39 77 40 28 41 80 42 74 43 73 44 29 46 61 47 41 48
REMARK SMILES IDX 60 49 42 50 45 51 59 52 78 53 43 54 44 55 58 57 79 58 46 59
REMARK SMILES IDX 30 60 31 61 39 62 32 63 38 64 40 65 37 66 33 67 34 68 35 69
REMARK SMILES IDX 36 70 62 71 63 72 71 73 64 74 70 75 72 76 69 77 65 78 66 79
REMARK SMILES IDX 67 80 68 81 47 82 48 83 56 84 49 85 55 86 57 87 54 88 50 89
REMARK SMILES IDX 51 90 52 91 53 92
REMARK H PARENT 14 5 7 13 2 21 18 26 77 45 45 56
REMARK Flexibility Score: inf
ROOT
ATOM      1  C   UNL A   1      31.796  29.277  24.535  1.00  0.00     0.117 C 
ENDROOT
BRANCH   1   2
ATOM      2  N   UNL A   1      32.898  28.633  25.246  1.00  0.00    -0.356 N 
ATOM      3  C   UNL A   1      33.138  27.398  25.797  1.00  0.00     0.224 C 
ATOM      4  O   UNL A   1      34.202  27.266  26.402  1.00  0.00    -0.275 OA
ATOM      5  H   UNL A   1      33.664  29.239  25.360  1.00  0.00     0.163 HD
BRANCH   3   6
ATOM      6  C   UNL A   1      32.271  26.188  25.662  1.00  0.00     0.098 C 
ATOM      7  C   UNL A   1      32.836  24.809  25.731  1.00  0.00     0.098 C 
ATOM      8  C   UNL A   1      32.172  25.293  24.431  1.00  0.00    -0.011 C 
ATOM      9  C   UNL A   1      33.038  25.480  23.214  1.00  0.00     0.013 C 
ATOM     10  C   UNL A   1      30.785  24.796  24.075  1.00  0.00     0.013 C 
BRANCH   7  11
ATOM     11  C   UNL A   1      32.286  23.659  26.473  1.00  0.00     0.224 C 
ATOM     12  N   UNL A   1      32.860  22.439  26.205  1.00  0.00    -0.356 N 
ATOM     13  H   UNL A   1      32.499  21.675  26.710  1.00  0.00     0.163 HD
ATOM     14  O   UNL A   1      31.367  23.770  27.271  1.00  0.00    -0.275 OA
BRANCH  12  15
ATOM     15  C   UNL A   1      33.934  22.128  25.268  1.00  0.00     0.121 C 
BRANCH  15  16
ATOM     16  C   UNL A   1      34.421  20.691  25.393  1.00  0.00     0.083 C 
BRANCH  16  17
ATOM     17  C   UNL A   1      33.435  19.617  24.921  1.00  0.00     0.263 C 
BRANCH  17  18
ATOM     18  N   UNL A   1      33.715  18.208  25.216  1.00  0.00    -0.340 N 
ATOM     19  C   UNL A   1      32.545  17.385  25.485  1.00  0.00     0.332 C 
ATOM     20  C   UNL A   1      34.603  17.572  24.247  1.00  0.00     0.332 C 
ATOM     21  H   UNL A   1      34.219  18.260  26.101  1.00  0.00     0.347 HD
ENDBRANCH  17  18
ENDBRANCH  16  17
ENDBRANCH  15  16
ENDBRANCH  12  15
ENDBRANCH   7  11
ENDBRANCH   3   6
ENDBRANCH   1   2
BRANCH   1  22
ATOM     22  C   UNL A   1      31.166  30.410  25.335  1.00  0.00     0.042 C 
BRANCH  22  23
ATOM     23  C   UNL A   1      31.978  30.814  26.552  1.00  0.00     0.118 C 
BRANCH  23  24
ATOM     24  N   UNL A   1      31.957  32.253  26.774  1.00  0.00    -0.352 N 
ATOM     25  C   UNL A   1      32.817  33.050  27.495  1.00  0.00     0.251 C 
ATOM     26  H   UNL A   1      31.213  32.730  26.340  1.00  0.00     0.163 HD
ATOM     27  O   UNL A   1      32.490  34.206  27.751  1.00  0.00    -0.269 OA
BRANCH  25  28
ATOM     28  C   UNL A   1      34.102  32.507  27.993  1.00  0.00     0.039 A 
ATOM     29  C   UNL A   1      35.216  33.348  28.054  1.00  0.00     0.014 A 
ATOM     30  C   UNL A   1      34.212  31.178  28.405  1.00  0.00     0.014 A 
ATOM     31  C   UNL A   1      36.406  32.883  28.621  1.00  0.00     0.010 A 
ATOM     32  C   UNL A   1      35.363  30.748  29.061  1.00  0.00     0.010 A 
ATOM     33  C   UNL A   1      36.471  31.598  29.185  1.00  0.00    -0.014 A 
BRANCH  33  34
ATOM     34  C   UNL A   1      37.672  31.126  29.923  1.00  0.00     0.031 A 
ATOM     35  C   UNL A   1      38.583  30.101  29.307  1.00  0.00     0.074 A 
ATOM     36  C   UNL A   1      37.897  31.563  31.178  1.00  0.00     0.049 A 
ATOM     37  N   UNL A   1      39.608  29.481  29.832  1.00  0.00    -0.248 NA
ATOM     38  C   UNL A   1      38.282  29.700  27.924  1.00  0.00     0.031 C 
ATOM     39  C   UNL A   1      37.073  32.539  31.893  1.00  0.00     0.029 A 
ATOM     40  N   UNL A   1      38.877  31.234  32.083  1.00  0.00    -0.354 N 
ATOM     41  C   UNL A   1      40.072  28.613  28.850  1.00  0.00     0.074 A 
ATOM     42  C   UNL A   1      39.171  28.739  27.723  1.00  0.00     0.031 C 
ATOM     43  C   UNL A   1      37.597  32.750  33.111  1.00  0.00     0.029 A 
ATOM     44  C   UNL A   1      38.752  31.879  33.292  1.00  0.00     0.049 A 
ATOM     45  H   UNL A   1      39.600  30.596  31.885  1.00  0.00     0.167 HD
ATOM     46  C   UNL A   1      41.160  27.803  28.877  1.00  0.00     0.034 A 
ATOM     47  C   UNL A   1      39.471  31.765  34.427  1.00  0.00     0.034 A 
ATOM     48  C   UNL A   1      42.044  27.687  30.011  1.00  0.00     0.049 A 
ATOM     49  C   UNL A   1      40.624  30.793  34.464  1.00  0.00     0.074 A 
ATOM     50  C   UNL A   1      43.199  26.934  30.129  1.00  0.00     0.029 A 
ATOM     51  N   UNL A   1      41.862  28.327  31.231  1.00  0.00    -0.354 N 
ATOM     52  N   UNL A   1      41.078  30.014  33.509  1.00  0.00    -0.248 NA
ATOM     53  C   UNL A   1      41.359  30.683  35.731  1.00  0.00     0.031 C 
ATOM     54  C   UNL A   1      43.666  27.051  31.441  1.00  0.00     0.029 A 
ATOM     55  C   UNL A   1      42.855  27.947  32.121  1.00  0.00     0.049 A 
ATOM     56  H   UNL A   1      41.135  28.958  31.434  1.00  0.00     0.167 HD
ATOM     57  C   UNL A   1      42.168  29.342  34.054  1.00  0.00     0.074 A 
ATOM     58  C   UNL A   1      42.313  29.819  35.414  1.00  0.00     0.031 C 
ATOM     59  C   UNL A   1      42.980  28.416  33.481  1.00  0.00     0.034 A 
BRANCH  46  60
ATOM     60  C   UNL A   1      41.429  26.962  27.651  1.00  0.00     0.023 A 
ATOM     61  C   UNL A   1      41.124  25.590  27.618  1.00  0.00     0.031 A 
ATOM     62  C   UNL A   1      42.027  27.527  26.511  1.00  0.00     0.131 A 
ATOM     63  C   UNL A   1      41.495  24.815  26.511  1.00  0.00     0.055 A 
ATOM     64  C   UNL A   1      42.310  26.768  25.374  1.00  0.00     0.041 A 
ATOM     65  F   UNL A   1      42.364  28.827  26.489  1.00  0.00    -0.206 F 
ATOM     66  C   UNL A   1      42.062  25.400  25.376  1.00  0.00     0.022 A 
BRANCH  63  67
ATOM     67  S   UNL A   1      41.385  23.010  26.646  1.00  0.00     0.124 S 
ATOM     68  O   UNL A   1      39.949  22.790  26.489  1.00  0.00    -0.237 OA
ATOM     69  O   UNL A   1      42.225  22.559  25.543  1.00  0.00    -0.237 OA
ATOM     70  O   UNL A   1      41.905  22.734  27.984  1.00  0.00    -0.744 OA
ENDBRANCH  63  67
ENDBRANCH  46  60
BRANCH  47  71
ATOM     71  C   UNL A   1      39.113  32.566  35.633  1.00  0.00     0.023 A 
ATOM     72  C   UNL A   1      39.610  33.867  35.807  1.00  0.00     0.031 A 
ATOM     73  C   UNL A   1      38.301  32.030  36.650  1.00  0.00     0.131 A 
ATOM     74  C   UNL A   1      39.329  34.572  36.987  1.00  0.00     0.055 A 
ATOM     75  C   UNL A   1      37.976  32.759  37.796  1.00  0.00     0.041 A 
ATOM     76  F   UNL A   1      37.799  30.791  36.538  1.00  0.00    -0.206 F 
ATOM     77  C   UNL A   1      38.502  34.034  37.975  1.00  0.00     0.022 A 
BRANCH  74  78
ATOM     78  S   UNL A   1      40.138  36.173  37.254  1.00  0.00     0.124 S 
ATOM     79  O   UNL A   1      39.318  36.745  38.315  1.00  0.00    -0.237 OA
ATOM     80  O   UNL A   1      41.489  35.770  37.632  1.00  0.00    -0.237 OA
ATOM     81  O   UNL A   1      40.028  36.831  35.954  1.00  0.00    -0.744 OA
ENDBRANCH  74  78
ENDBRANCH  47  71
BRANCH  59  82
ATOM     82  C   UNL A   1      44.117  27.880  34.316  1.00  0.00     0.023 A 
ATOM     83  C   UNL A   1      43.959  26.754  35.143  1.00  0.00     0.031 A 
ATOM     84  C   UNL A   1      45.381  28.495  34.270  1.00  0.00     0.131 A 
ATOM     85  C   UNL A   1      45.036  26.302  35.919  1.00  0.00     0.055 A 
ATOM     86  C   UNL A   1      46.465  28.002  34.996  1.00  0.00     0.041 A 
ATOM     87  F   UNL A   1      45.587  29.576  33.502  1.00  0.00    -0.206 F 
ATOM     88  C   UNL A   1      46.294  26.905  35.835  1.00  0.00     0.022 A 
BRANCH  85  89
ATOM     89  S   UNL A   1      44.754  24.955  37.101  1.00  0.00     0.124 S 
ATOM     90  O   UNL A   1      43.360  24.612  36.841  1.00  0.00    -0.237 OA
ATOM     91  O   UNL A   1      45.742  23.963  36.689  1.00  0.00    -0.237 OA
ATOM     92  O   UNL A   1      45.006  25.578  38.399  1.00  0.00    -0.744 OA
ENDBRANCH  85  89
ENDBRANCH  59  82
ENDBRANCH  33  34
ENDBRANCH  25  28
ENDBRANCH  23  24
ENDBRANCH  22  23
ENDBRANCH   1  22
TORSDOF 18
ENDMDL
MODEL 3
REMARK VINA RESULT:     -10.9      1.531      1.797
REMARK SMILES C[NH+](C)CCCNC(=O)[C@@H]1[C@@H](C(=O)NCCCNC(=O)c2ccc(-c3c4nc(c(-c5cc(S(=O)(=O)[O-])ccc5F)c5ccc([nH]5)c(-c5cc(S(=O)(=O)[O-])ccc5F)c5nc(c(-c6cc(S(=O)(=O)[O-])ccc6F)c6ccc3[nH]6)C=C5)C=C4)cc2)C1(C)C
REMARK SMILES IDX 15 1 14 2 12 3 13 4 11 6 10 7 84 8 85 9 86 10 8 11 7 12 9 14
REMARK SMILES IDX 6 15 5 16 4 17 2 18 1 19 3 20 16 22 17 23 18 24 19 25 20 27
REMARK SMILES IDX 21 28 22 29 83 30 23 31 82 32 24 33 25 34 26 35 76 36 27 37
REMARK SMILES IDX 81 38 75 39 77 40 28 41 80 42 74 43 73 44 29 46 61 47 41 48
REMARK SMILES IDX 60 49 42 50 45 51 59 52 78 53 43 54 44 55 58 57 79 58 46 59
REMARK SMILES IDX 30 60 31 61 39 62 32 63 38 64 40 65 37 66 33 67 34 68 35 69
REMARK SMILES IDX 36 70 62 71 63 72 71 73 64 74 70 75 72 76 69 77 65 78 66 79
REMARK SMILES IDX 67 80 68 81 47 82 48 83 56 84 49 85 55 86 57 87 54 88 50 89
REMARK SMILES IDX 51 90 52 91 53 92
REMARK H PARENT 14 5 7 13 2 21 18 26 77 45 45 56
REMARK Flexibility Score: inf
ROOT
ATOM      1  C   UNL A   1      31.792  28.151  27.205  1.00  0.00     0.117 C 
ENDROOT
BRANCH   1   2
ATOM      2  N   UNL A   1      31.022  26.913  27.091  1.00  0.00    -0.356 N 
ATOM      3  C   UNL A   1      31.137  25.732  26.399  1.00  0.00     0.224 C 
ATOM      4  O   UNL A   1      30.205  24.937  26.517  1.00  0.00    -0.275 OA
ATOM      5  H   UNL A   1      30.215  26.931  27.652  1.00  0.00     0.163 HD
BRANCH   3   6
ATOM      6  C   UNL A   1      32.316  25.294  25.592  1.00  0.00     0.098 C 
ATOM      7  C   UNL A   1      32.261  24.086  24.719  1.00  0.00     0.098 C 
ATOM      8  C   UNL A   1      33.231  24.117  25.911  1.00  0.00    -0.011 C 
ATOM      9  C   UNL A   1      32.980  23.177  27.060  1.00  0.00     0.013 C 
ATOM     10  C   UNL A   1      34.710  24.332  25.661  1.00  0.00     0.013 C 
BRANCH   7  11
ATOM     11  C   UNL A   1      32.769  23.961  23.339  1.00  0.00     0.224 C 
ATOM     12  N   UNL A   1      32.668  22.714  22.771  1.00  0.00    -0.356 N 
ATOM     13  H   UNL A   1      32.996  22.637  21.846  1.00  0.00     0.163 HD
ATOM     14  O   UNL A   1      33.263  24.900  22.734  1.00  0.00    -0.275 OA
BRANCH  12  15
ATOM     15  C   UNL A   1      32.137  21.489  23.359  1.00  0.00     0.121 C 
BRANCH  15  16
ATOM     16  C   UNL A   1      33.205  20.675  24.078  1.00  0.00     0.083 C 
BRANCH  16  17
ATOM     17  C   UNL A   1      33.093  19.155  23.918  1.00  0.00     0.263 C 
BRANCH  17  18
ATOM     18  N   UNL A   1      33.684  18.283  24.938  1.00  0.00    -0.340 N 
ATOM     19  C   UNL A   1      32.733  17.662  25.850  1.00  0.00     0.332 C 
ATOM     20  C   UNL A   1      34.624  17.304  24.400  1.00  0.00     0.332 C 
ATOM     21  H   UNL A   1      34.219  18.936  25.509  1.00  0.00     0.347 HD
ENDBRANCH  17  18
ENDBRANCH  16  17
ENDBRANCH  15  16
ENDBRANCH  12  15
ENDBRANCH   7  11
ENDBRANCH   3   6
ENDBRANCH   1   2
BRANCH   1  22
ATOM     22  C   UNL A   1      31.758  28.981  25.929  1.00  0.00     0.042 C 
BRANCH  22  23
ATOM     23  C   UNL A   1      32.951  29.908  25.780  1.00  0.00     0.118 C 
BRANCH  23  24
ATOM     24  N   UNL A   1      32.665  31.252  26.262  1.00  0.00    -0.352 N 
ATOM     25  C   UNL A   1      33.303  32.002  27.225  1.00  0.00     0.251 C 
ATOM     26  H   UNL A   1      31.898  31.695  25.832  1.00  0.00     0.163 HD
ATOM     27  O   UNL A   1      32.762  33.020  27.646  1.00  0.00    -0.269 OA
BRANCH  25  28
ATOM     28  C   UNL A   1      34.606  31.562  27.775  1.00  0.00     0.039 A 
ATOM     29  C   UNL A   1      35.620  32.506  27.958  1.00  0.00     0.014 A 
ATOM     30  C   UNL A   1      34.831  30.228  28.118  1.00  0.00     0.014 A 
ATOM     31  C   UNL A   1      36.816  32.130  28.576  1.00  0.00     0.010 A 
ATOM     32  C   UNL A   1      35.979  29.876  28.823  1.00  0.00     0.010 A 
ATOM     33  C   UNL A   1      36.981  30.825  29.068  1.00  0.00    -0.014 A 
BRANCH  33  34
ATOM     34  C   UNL A   1      38.179  30.433  29.857  1.00  0.00     0.031 A 
ATOM     35  C   UNL A   1      39.158  29.437  29.298  1.00  0.00     0.074 A 
ATOM     36  C   UNL A   1      38.341  30.912  31.107  1.00  0.00     0.049 A 
ATOM     37  N   UNL A   1      40.194  28.882  29.873  1.00  0.00    -0.248 NA
ATOM     38  C   UNL A   1      38.923  28.987  27.919  1.00  0.00     0.031 C 
ATOM     39  C   UNL A   1      37.448  31.865  31.768  1.00  0.00     0.029 A 
ATOM     40  N   UNL A   1      39.305  30.655  32.051  1.00  0.00    -0.354 N 
ATOM     41  C   UNL A   1      40.732  28.013  28.930  1.00  0.00     0.074 A 
ATOM     42  C   UNL A   1      39.863  28.065  27.773  1.00  0.00     0.031 C 
ATOM     43  C   UNL A   1      37.920  32.133  32.996  1.00  0.00     0.029 A 
ATOM     44  C   UNL A   1      39.110  31.324  33.237  1.00  0.00     0.049 A 
ATOM     45  H   UNL A   1      40.064  30.048  31.893  1.00  0.00     0.167 HD
ATOM     46  C   UNL A   1      41.856  27.259  29.014  1.00  0.00     0.034 A 
ATOM     47  C   UNL A   1      39.795  31.275  34.397  1.00  0.00     0.034 A 
ATOM     48  C   UNL A   1      42.706  27.216  30.178  1.00  0.00     0.049 A 
ATOM     49  C   UNL A   1      40.993  30.363  34.497  1.00  0.00     0.074 A 
ATOM     50  C   UNL A   1      43.892  26.524  30.353  1.00  0.00     0.029 A 
ATOM     51  N   UNL A   1      42.454  27.877  31.374  1.00  0.00    -0.354 N 
ATOM     52  N   UNL A   1      41.514  29.582  33.579  1.00  0.00    -0.248 NA
ATOM     53  C   UNL A   1      41.689  30.322  35.789  1.00  0.00     0.031 C 
ATOM     54  C   UNL A   1      44.310  26.697  31.676  1.00  0.00     0.029 A 
ATOM     55  C   UNL A   1      43.434  27.569  32.305  1.00  0.00     0.049 A 
ATOM     56  H   UNL A   1      41.691  28.477  31.536  1.00  0.00     0.167 HD
ATOM     57  C   UNL A   1      42.617  28.979  34.176  1.00  0.00     0.074 A 
ATOM     58  C   UNL A   1      42.694  29.497  35.527  1.00  0.00     0.031 C 
ATOM     59  C   UNL A   1      43.491  28.080  33.655  1.00  0.00     0.034 A 
BRANCH  46  60
ATOM     60  C   UNL A   1      42.206  26.400  27.821  1.00  0.00     0.023 A 
ATOM     61  C   UNL A   1      41.723  25.086  27.693  1.00  0.00     0.031 A 
ATOM     62  C   UNL A   1      43.057  26.887  26.813  1.00  0.00     0.131 A 
ATOM     63  C   UNL A   1      42.163  24.277  26.635  1.00  0.00     0.055 A 
ATOM     64  C   UNL A   1      43.417  26.106  25.713  1.00  0.00     0.041 A 
ATOM     65  F   UNL A   1      43.569  28.126  26.889  1.00  0.00    -0.206 F 
ATOM     66  C   UNL A   1      42.985  24.787  25.629  1.00  0.00     0.022 A 
BRANCH  63  67
ATOM     67  S   UNL A   1      41.783  22.505  26.691  1.00  0.00     0.124 S 
ATOM     68  O   UNL A   1      40.338  22.519  26.912  1.00  0.00    -0.237 OA
ATOM     69  O   UNL A   1      42.224  22.046  25.379  1.00  0.00    -0.237 OA
ATOM     70  O   UNL A   1      42.572  22.020  27.822  1.00  0.00    -0.744 OA
ENDBRANCH  63  67
ENDBRANCH  46  60
BRANCH  47  71
ATOM     71  C   UNL A   1      39.359  32.089  35.569  1.00  0.00     0.023 A 
ATOM     72  C   UNL A   1      38.630  31.507  36.617  1.00  0.00     0.031 A 
ATOM     73  C   UNL A   1      39.631  33.468  35.641  1.00  0.00     0.131 A 
ATOM     74  C   UNL A   1      38.158  32.307  37.669  1.00  0.00     0.055 A 
ATOM     75  C   UNL A   1      39.210  34.248  36.719  1.00  0.00     0.041 A 
ATOM     76  F   UNL A   1      40.324  34.077  34.666  1.00  0.00    -0.206 F 
ATOM     77  C   UNL A   1      38.457  33.670  37.736  1.00  0.00     0.022 A 
BRANCH  74  78
ATOM     78  S   UNL A   1      37.065  31.556  38.906  1.00  0.00     0.124 S 
ATOM     79  O   UNL A   1      35.889  32.415  38.822  1.00  0.00    -0.237 OA
ATOM     80  O   UNL A   1      36.908  30.200  38.389  1.00  0.00    -0.237 OA
ATOM     81  O   UNL A   1      37.830  31.663  40.146  1.00  0.00    -0.744 OA
ENDBRANCH  74  78
ENDBRANCH  47  71
BRANCH  59  82
ATOM     82  C   UNL A   1      44.625  27.622  34.540  1.00  0.00     0.023 A 
ATOM     83  C   UNL A   1      44.585  26.387  35.212  1.00  0.00     0.031 A 
ATOM     84  C   UNL A   1      45.768  28.425  34.699  1.00  0.00     0.131 A 
ATOM     85  C   UNL A   1      45.651  26.010  36.042  1.00  0.00     0.055 A 
ATOM     86  C   UNL A   1      46.852  28.015  35.476  1.00  0.00     0.041 A 
ATOM     87  F   UNL A   1      45.857  29.615  34.085  1.00  0.00    -0.206 F 
ATOM     88  C   UNL A   1      46.794  26.806  36.161  1.00  0.00     0.022 A 
BRANCH  85  89
ATOM     89  S   UNL A   1      45.494  24.495  37.026  1.00  0.00     0.124 S 
ATOM     90  O   UNL A   1      46.889  24.105  37.206  1.00  0.00    -0.237 OA
ATOM     91  O   UNL A   1      44.805  24.966  38.223  1.00  0.00    -0.237 OA
ATOM     92  O   UNL A   1      44.710  23.608  36.169  1.00  0.00    -0.744 OA
ENDBRANCH  85  89
ENDBRANCH  59  82
ENDBRANCH  33  34
ENDBRANCH  25  28
ENDBRANCH  23  24
ENDBRANCH  22  23
ENDBRANCH   1  22
TORSDOF 18
ENDMDL
