MODEL 1
REMARK VINA RESULT:     -12.9      0.000      0.000
REMARK SMILES O=C(NCCCNC(=O)c1c(C(=O)N2CCc3ccccc32)cccc1[N+](=O)[O-])c1ccc(-c2c3nc(c(-c4cc(S(=O)(=O)[O-])ccc4F)c4ccc([nH]4)c(-c4cc(S(=O)(=O)[O-])ccc4F)c4nc(c(-c5cc(S(=O)(=O)[O-])ccc5F)c5ccc2[nH]5)C=C4)C=C3)cc1
REMARK SMILES IDX 4 1 3 2 1 3 2 4 30 6 31 7 92 8 32 9 91 10 33 11 34 12 35 13
REMARK SMILES IDX 85 14 36 15 90 16 84 17 86 18 37 19 89 20 83 21 82 22 38 24
REMARK SMILES IDX 70 25 50 26 69 27 51 28 54 29 68 30 87 31 52 32 53 33 67 35
REMARK SMILES IDX 88 36 55 37 39 38 40 39 48 40 41 41 47 42 49 43 46 44 42 45
REMARK SMILES IDX 43 46 44 47 45 48 71 49 72 50 80 51 73 52 79 53 81 54 78 55
REMARK SMILES IDX 74 56 75 57 76 58 77 59 56 60 57 61 65 62 58 63 64 64 66 65
REMARK SMILES IDX 63 66 59 67 60 68 61 69 62 70 5 71 6 72 7 73 8 74 9 76 10 77
REMARK SMILES IDX 11 78 26 79 23 80 25 81 24 82 12 83 13 84 14 85 15 86 22 87
REMARK SMILES IDX 16 88 17 89 21 90 18 91 20 92 19 93 27 94 28 95 29 96
REMARK H PARENT 3 5 86 23 54 34 7 75
REMARK Flexibility Score: inf
ROOT
ATOM      1  C   UNL A   1      35.832  22.123  26.369  1.00  0.00     0.118 C 
ENDROOT
BRANCH   1   2
ATOM      2  N   UNL A   1      36.823  21.188  25.848  1.00  0.00    -0.352 N 
ATOM      3  O   UNL A   1      38.833  20.413  25.187  1.00  0.00    -0.269 OA
ATOM      4  C   UNL A   1      38.196  21.292  25.762  1.00  0.00     0.251 C 
ATOM      5  H   UNL A   1      36.451  20.345  25.502  1.00  0.00     0.163 HD
BRANCH   4   6
ATOM      6  C   UNL A   1      38.900  22.467  26.326  1.00  0.00     0.039 A 
ATOM      7  C   UNL A   1      38.488  23.759  26.014  1.00  0.00     0.014 A 
ATOM      8  C   UNL A   1      39.993  22.277  27.180  1.00  0.00     0.014 A 
ATOM      9  C   UNL A   1      39.289  24.839  26.356  1.00  0.00     0.010 A 
ATOM     10  C   UNL A   1      40.721  23.383  27.642  1.00  0.00     0.010 A 
ATOM     11  C   UNL A   1      40.403  24.673  27.196  1.00  0.00    -0.014 A 
BRANCH  11  12
ATOM     12  C   UNL A   1      41.153  25.888  27.619  1.00  0.00     0.031 A 
ATOM     13  C   UNL A   1      42.526  26.196  27.081  1.00  0.00     0.074 A 
ATOM     14  C   UNL A   1      40.532  26.768  28.431  1.00  0.00     0.049 A 
ATOM     15  N   UNL A   1      43.271  27.254  27.288  1.00  0.00    -0.248 NA
ATOM     16  C   UNL A   1      43.150  25.189  26.211  1.00  0.00     0.031 C 
ATOM     17  C   UNL A   1      39.206  26.564  29.027  1.00  0.00     0.029 A 
ATOM     18  N   UNL A   1      40.893  28.019  28.859  1.00  0.00    -0.354 N 
ATOM     19  C   UNL A   1      44.455  27.036  26.589  1.00  0.00     0.074 A 
ATOM     20  C   UNL A   1      44.339  25.728  25.977  1.00  0.00     0.031 C 
ATOM     21  C   UNL A   1      38.832  27.680  29.665  1.00  0.00     0.029 A 
ATOM     22  C   UNL A   1      39.920  28.646  29.605  1.00  0.00     0.049 A 
ATOM     23  H   UNL A   1      41.764  28.428  28.653  1.00  0.00     0.167 HD
ATOM     24  C   UNL A   1      45.530  27.854  26.465  1.00  0.00     0.034 A 
ATOM     25  C   UNL A   1      39.908  29.858  30.192  1.00  0.00     0.034 A 
ATOM     26  C   UNL A   1      45.625  29.158  27.079  1.00  0.00     0.049 A 
ATOM     27  C   UNL A   1      41.114  30.741  30.038  1.00  0.00     0.074 A 
ATOM     28  C   UNL A   1      46.670  30.067  27.021  1.00  0.00     0.029 A 
ATOM     29  N   UNL A   1      44.639  29.744  27.866  1.00  0.00    -0.354 N 
ATOM     30  N   UNL A   1      42.224  30.509  29.376  1.00  0.00    -0.248 NA
ATOM     31  C   UNL A   1      41.065  32.045  30.705  1.00  0.00     0.031 C 
ATOM     32  C   UNL A   1      46.338  31.174  27.813  1.00  0.00     0.029 A 
ATOM     33  C   UNL A   1      45.059  30.989  28.311  1.00  0.00     0.049 A 
ATOM     34  H   UNL A   1      43.770  29.335  28.075  1.00  0.00     0.167 HD
ATOM     35  C   UNL A   1      43.011  31.642  29.555  1.00  0.00     0.074 A 
ATOM     36  C   UNL A   1      42.224  32.572  30.342  1.00  0.00     0.031 C 
ATOM     37  C   UNL A   1      44.272  31.889  29.122  1.00  0.00     0.034 A 
BRANCH  24  38
ATOM     38  C   UNL A   1      46.707  27.346  25.665  1.00  0.00     0.023 A 
ATOM     39  C   UNL A   1      46.968  27.801  24.361  1.00  0.00     0.031 A 
ATOM     40  C   UNL A   1      47.583  26.395  26.218  1.00  0.00     0.131 A 
ATOM     41  C   UNL A   1      48.044  27.267  23.634  1.00  0.00     0.055 A 
ATOM     42  C   UNL A   1      48.692  25.918  25.516  1.00  0.00     0.041 A 
ATOM     43  F   UNL A   1      47.373  25.910  27.452  1.00  0.00    -0.206 F 
ATOM     44  C   UNL A   1      48.922  26.346  24.212  1.00  0.00     0.022 A 
BRANCH  41  45
ATOM     45  S   UNL A   1      48.222  27.716  21.886  1.00  0.00     0.124 S 
ATOM     46  O   UNL A   1      46.971  28.430  21.635  1.00  0.00    -0.237 OA
ATOM     47  O   UNL A   1      49.431  28.531  21.888  1.00  0.00    -0.237 OA
ATOM     48  O   UNL A   1      48.340  26.426  21.210  1.00  0.00    -0.744 OA
ENDBRANCH  41  45
ENDBRANCH  24  38
BRANCH  25  49
ATOM     49  C   UNL A   1      38.738  30.284  31.013  1.00  0.00     0.023 A 
ATOM     50  C   UNL A   1      37.672  31.002  30.450  1.00  0.00     0.031 A 
ATOM     51  C   UNL A   1      38.688  30.004  32.392  1.00  0.00     0.131 A 
ATOM     52  C   UNL A   1      36.624  31.451  31.269  1.00  0.00     0.055 A 
ATOM     53  C   UNL A   1      37.615  30.399  33.189  1.00  0.00     0.041 A 
ATOM     54  F   UNL A   1      39.681  29.317  32.981  1.00  0.00    -0.206 F 
ATOM     55  C   UNL A   1      36.581  31.142  32.630  1.00  0.00     0.022 A 
BRANCH  52  56
ATOM     56  S   UNL A   1      35.362  32.534  30.546  1.00  0.00     0.124 S 
ATOM     57  O   UNL A   1      36.103  33.778  30.363  1.00  0.00    -0.237 OA
ATOM     58  O   UNL A   1      35.008  31.814  29.328  1.00  0.00    -0.237 OA
ATOM     59  O   UNL A   1      34.321  32.574  31.570  1.00  0.00    -0.744 OA
ENDBRANCH  52  56
ENDBRANCH  25  49
BRANCH  37  60
ATOM     60  C   UNL A   1      44.856  33.227  29.498  1.00  0.00     0.023 A 
ATOM     61  C   UNL A   1      44.715  34.347  28.659  1.00  0.00     0.031 A 
ATOM     62  C   UNL A   1      45.612  33.370  30.674  1.00  0.00     0.131 A 
ATOM     63  C   UNL A   1      45.384  35.539  28.968  1.00  0.00     0.055 A 
ATOM     64  C   UNL A   1      46.223  34.579  31.008  1.00  0.00     0.041 A 
ATOM     65  F   UNL A   1      45.780  32.332  31.509  1.00  0.00    -0.206 F 
ATOM     66  C   UNL A   1      46.126  35.667  30.144  1.00  0.00     0.022 A 
BRANCH  63  67
ATOM     67  S   UNL A   1      45.367  36.883  27.750  1.00  0.00     0.124 S 
ATOM     68  O   UNL A   1      45.195  36.155  26.496  1.00  0.00    -0.237 OA
ATOM     69  O   UNL A   1      44.226  37.682  28.184  1.00  0.00    -0.237 OA
ATOM     70  O   UNL A   1      46.671  37.519  27.924  1.00  0.00    -0.744 OA
ENDBRANCH  63  67
ENDBRANCH  37  60
ENDBRANCH  11  12
ENDBRANCH   4   6
ENDBRANCH   1   2
BRANCH   1  71
ATOM     71  C   UNL A   1      34.592  21.455  26.941  1.00  0.00     0.042 C 
BRANCH  71  72
ATOM     72  C   UNL A   1      33.630  22.396  27.641  1.00  0.00     0.118 C 
BRANCH  72  73
ATOM     73  N   UNL A   1      32.267  22.348  27.120  1.00  0.00    -0.352 N 
ATOM     74  C   UNL A   1      31.735  22.784  25.926  1.00  0.00     0.259 C 
ATOM     75  H   UNL A   1      31.613  21.932  27.728  1.00  0.00     0.163 HD
ATOM     76  O   UNL A   1      30.540  22.659  25.712  1.00  0.00    -0.269 OA
BRANCH  74  77
ATOM     77  C   UNL A   1      32.602  23.454  24.937  1.00  0.00     0.130 A 
ATOM     78  C   UNL A   1      32.925  24.809  25.082  1.00  0.00     0.060 A 
ATOM     79  C   UNL A   1      33.176  22.753  23.868  1.00  0.00     0.282 A 
ATOM     80  C   UNL A   1      33.913  25.384  24.263  1.00  0.00     0.015 A 
ATOM     81  C   UNL A   1      34.191  23.311  23.078  1.00  0.00     0.086 A 
ATOM     82  C   UNL A   1      34.581  24.624  23.302  1.00  0.00     0.008 A 
BRANCH  78  83
ATOM     83  C   UNL A   1      32.206  25.718  26.009  1.00  0.00     0.259 C 
ATOM     84  O   UNL A   1      31.730  25.256  27.039  1.00  0.00    -0.269 OA
BRANCH  83  85
ATOM     85  N   UNL A   1      31.973  26.973  25.514  1.00  0.00    -0.308 N 
ATOM     86  C   UNL A   1      32.678  28.189  25.929  1.00  0.00     0.131 C 
ATOM     87  C   UNL A   1      30.854  27.348  24.763  1.00  0.00     0.047 A 
ATOM     88  C   UNL A   1      32.202  29.300  24.977  1.00  0.00     0.059 C 
ATOM     89  C   UNL A   1      30.986  28.676  24.364  1.00  0.00    -0.022 A 
ATOM     90  C   UNL A   1      29.766  26.581  24.385  1.00  0.00     0.026 A 
ATOM     91  C   UNL A   1      30.093  29.232  23.465  1.00  0.00     0.006 A 
ATOM     92  C   UNL A   1      28.848  27.140  23.494  1.00  0.00     0.002 A 
ATOM     93  C   UNL A   1      29.027  28.447  23.016  1.00  0.00     0.000 A 
ENDBRANCH  83  85
ENDBRANCH  78  83
BRANCH  79  94
ATOM     94  N   UNL A   1      32.697  21.428  23.506  1.00  0.00     0.063 N 
ATOM     95  O   UNL A   1      31.751  21.371  22.710  1.00  0.00    -0.258 OA
ATOM     96  O   UNL A   1      33.241  20.455  24.042  1.00  0.00    -0.258 OA
ENDBRANCH  79  94
ENDBRANCH  74  77
ENDBRANCH  72  73
ENDBRANCH  71  72
ENDBRANCH   1  71
TORSDOF 16
ENDMDL
MODEL 2
REMARK VINA RESULT:     -12.8      4.965     10.095
REMARK SMILES O=C(NCCCNC(=O)c1c(C(=O)N2CCc3ccccc32)cccc1[N+](=O)[O-])c1ccc(-c2c3nc(c(-c4cc(S(=O)(=O)[O-])ccc4F)c4ccc([nH]4)c(-c4cc(S(=O)(=O)[O-])ccc4F)c4nc(c(-c5cc(S(=O)(=O)[O-])ccc5F)c5ccc2[nH]5)C=C4)C=C3)cc1
REMARK SMILES IDX 4 1 3 2 1 3 2 4 30 6 31 7 92 8 32 9 91 10 33 11 34 12 35 13
REMARK SMILES IDX 85 14 36 15 90 16 84 17 86 18 37 19 89 20 83 21 82 22 38 24
REMARK SMILES IDX 70 25 50 26 69 27 51 28 54 29 68 30 87 31 52 32 53 33 67 35
REMARK SMILES IDX 88 36 55 37 39 38 40 39 48 40 41 41 47 42 49 43 46 44 42 45
REMARK SMILES IDX 43 46 44 47 45 48 71 49 72 50 80 51 73 52 79 53 81 54 78 55
REMARK SMILES IDX 74 56 75 57 76 58 77 59 56 60 57 61 65 62 58 63 64 64 66 65
REMARK SMILES IDX 63 66 59 67 60 68 61 69 62 70 5 71 6 72 7 73 8 74 9 76 10 77
REMARK SMILES IDX 11 78 26 79 23 80 25 81 24 82 12 83 13 84 14 85 15 86 22 87
REMARK SMILES IDX 16 88 17 89 21 90 18 91 20 92 19 93 27 94 28 95 29 96
REMARK H PARENT 3 5 86 23 54 34 7 75
REMARK Flexibility Score: inf
ROOT
ATOM      1  C   UNL A   1      33.259  29.254  25.128  1.00  0.00     0.118 C 
ENDROOT
BRANCH   1   2
ATOM      2  N   UNL A   1      32.660  30.411  25.784  1.00  0.00    -0.352 N 
ATOM      3  O   UNL A   1      32.366  32.035  27.319  1.00  0.00    -0.269 OA
ATOM      4  C   UNL A   1      33.089  31.151  26.866  1.00  0.00     0.251 C 
ATOM      5  H   UNL A   1      31.810  30.714  25.389  1.00  0.00     0.163 HD
BRANCH   4   6
ATOM      6  C   UNL A   1      34.396  30.866  27.504  1.00  0.00     0.039 A 
ATOM      7  C   UNL A   1      34.711  29.580  27.934  1.00  0.00     0.014 A 
ATOM      8  C   UNL A   1      35.324  31.899  27.679  1.00  0.00     0.014 A 
ATOM      9  C   UNL A   1      35.828  29.374  28.731  1.00  0.00     0.010 A 
ATOM     10  C   UNL A   1      36.522  31.656  28.364  1.00  0.00     0.010 A 
ATOM     11  C   UNL A   1      36.765  30.401  28.938  1.00  0.00    -0.014 A 
BRANCH  11  12
ATOM     12  C   UNL A   1      38.000  30.082  29.707  1.00  0.00     0.031 A 
ATOM     13  C   UNL A   1      38.182  30.536  31.131  1.00  0.00     0.074 A 
ATOM     14  C   UNL A   1      38.923  29.288  29.126  1.00  0.00     0.049 A 
ATOM     15  N   UNL A   1      39.161  30.268  31.960  1.00  0.00    -0.248 NA
ATOM     16  C   UNL A   1      37.144  31.409  31.699  1.00  0.00     0.031 C 
ATOM     17  C   UNL A   1      38.858  28.803  27.742  1.00  0.00     0.029 A 
ATOM     18  N   UNL A   1      40.061  28.708  29.623  1.00  0.00    -0.354 N 
ATOM     19  C   UNL A   1      38.868  30.949  33.138  1.00  0.00     0.074 A 
ATOM     20  C   UNL A   1      37.633  31.668  32.904  1.00  0.00     0.031 C 
ATOM     21  C   UNL A   1      39.855  27.934  27.531  1.00  0.00     0.029 A 
ATOM     22  C   UNL A   1      40.684  27.867  28.727  1.00  0.00     0.049 A 
ATOM     23  H   UNL A   1      40.400  28.876  30.531  1.00  0.00     0.167 HD
ATOM     24  C   UNL A   1      39.562  30.964  34.304  1.00  0.00     0.034 A 
ATOM     25  C   UNL A   1      41.807  27.133  28.845  1.00  0.00     0.034 A 
ATOM     26  C   UNL A   1      40.791  30.236  34.520  1.00  0.00     0.049 A 
ATOM     27  C   UNL A   1      42.553  27.172  30.149  1.00  0.00     0.074 A 
ATOM     28  C   UNL A   1      41.576  30.184  35.661  1.00  0.00     0.029 A 
ATOM     29  N   UNL A   1      41.417  29.429  33.577  1.00  0.00    -0.354 N 
ATOM     30  N   UNL A   1      42.258  27.829  31.247  1.00  0.00    -0.248 NA
ATOM     31  C   UNL A   1      43.779  26.372  30.229  1.00  0.00     0.031 C 
ATOM     32  C   UNL A   1      42.699  29.393  35.390  1.00  0.00     0.029 A 
ATOM     33  C   UNL A   1      42.584  28.894  34.103  1.00  0.00     0.049 A 
ATOM     34  H   UNL A   1      41.081  29.262  32.667  1.00  0.00     0.167 HD
ATOM     35  C   UNL A   1      43.271  27.522  32.150  1.00  0.00     0.074 A 
ATOM     36  C   UNL A   1      44.151  26.584  31.482  1.00  0.00     0.031 C 
ATOM     37  C   UNL A   1      43.466  27.984  33.410  1.00  0.00     0.034 A 
BRANCH  24  38
ATOM     38  C   UNL A   1      39.027  31.826  35.425  1.00  0.00     0.023 A 
ATOM     39  C   UNL A   1      38.401  31.268  36.553  1.00  0.00     0.031 A 
ATOM     40  C   UNL A   1      39.150  33.225  35.364  1.00  0.00     0.131 A 
ATOM     41  C   UNL A   1      37.875  32.107  37.549  1.00  0.00     0.055 A 
ATOM     42  C   UNL A   1      38.686  34.051  36.389  1.00  0.00     0.041 A 
ATOM     43  F   UNL A   1      39.722  33.815  34.302  1.00  0.00    -0.206 F 
ATOM     44  C   UNL A   1      38.035  33.495  37.486  1.00  0.00     0.022 A 
BRANCH  41  45
ATOM     45  S   UNL A   1      36.887  31.368  38.878  1.00  0.00     0.124 S 
ATOM     46  O   UNL A   1      37.778  31.520  40.028  1.00  0.00    -0.237 OA
ATOM     47  O   UNL A   1      35.690  32.199  38.885  1.00  0.00    -0.237 OA
ATOM     48  O   UNL A   1      36.688  29.990  38.433  1.00  0.00    -0.744 OA
ENDBRANCH  41  45
ENDBRANCH  24  38
BRANCH  25  49
ATOM     49  C   UNL A   1      42.315  26.343  27.686  1.00  0.00     0.023 A 
ATOM     50  C   UNL A   1      41.901  25.020  27.467  1.00  0.00     0.031 A 
ATOM     51  C   UNL A   1      43.253  26.897  26.796  1.00  0.00     0.131 A 
ATOM     52  C   UNL A   1      42.457  24.282  26.411  1.00  0.00     0.055 A 
ATOM     53  C   UNL A   1      43.756  26.180  25.711  1.00  0.00     0.041 A 
ATOM     54  F   UNL A   1      43.680  28.160  26.957  1.00  0.00    -0.206 F 
ATOM     55  C   UNL A   1      43.369  24.857  25.523  1.00  0.00     0.022 A 
BRANCH  52  56
ATOM     56  S   UNL A   1      42.044  22.522  26.270  1.00  0.00     0.124 S 
ATOM     57  O   UNL A   1      42.679  21.969  27.462  1.00  0.00    -0.237 OA
ATOM     58  O   UNL A   1      40.586  22.553  26.276  1.00  0.00    -0.237 OA
ATOM     59  O   UNL A   1      42.653  22.130  25.001  1.00  0.00    -0.744 OA
ENDBRANCH  52  56
ENDBRANCH  25  49
BRANCH  37  60
ATOM     60  C   UNL A   1      44.682  27.460  34.132  1.00  0.00     0.023 A 
ATOM     61  C   UNL A   1      44.619  26.293  34.914  1.00  0.00     0.031 A 
ATOM     62  C   UNL A   1      45.896  28.165  34.087  1.00  0.00     0.131 A 
ATOM     63  C   UNL A   1      45.726  25.908  35.682  1.00  0.00     0.055 A 
ATOM     64  C   UNL A   1      47.016  27.740  34.803  1.00  0.00     0.041 A 
ATOM     65  F   UNL A   1      46.010  29.286  33.356  1.00  0.00    -0.206 F 
ATOM     66  C   UNL A   1      46.929  26.616  35.621  1.00  0.00     0.022 A 
BRANCH  63  67
ATOM     67  S   UNL A   1      45.535  24.535  36.852  1.00  0.00     0.124 S 
ATOM     68  O   UNL A   1      44.621  23.650  36.136  1.00  0.00    -0.237 OA
ATOM     69  O   UNL A   1      46.905  24.055  36.996  1.00  0.00    -0.237 OA
ATOM     70  O   UNL A   1      44.975  25.175  38.041  1.00  0.00    -0.744 OA
ENDBRANCH  63  67
ENDBRANCH  37  60
ENDBRANCH  11  12
ENDBRANCH   4   6
ENDBRANCH   1   2
BRANCH   1  71
ATOM     71  C   UNL A   1      33.241  29.327  23.610  1.00  0.00     0.042 C 
BRANCH  71  72
ATOM     72  C   UNL A   1      34.001  28.214  22.913  1.00  0.00     0.118 C 
BRANCH  72  73
ATOM     73  N   UNL A   1      33.175  27.387  22.037  1.00  0.00    -0.352 N 
ATOM     74  C   UNL A   1      32.267  26.390  22.321  1.00  0.00     0.259 C 
ATOM     75  H   UNL A   1      33.285  27.576  21.076  1.00  0.00     0.163 HD
ATOM     76  O   UNL A   1      31.700  25.809  21.409  1.00  0.00    -0.269 OA
BRANCH  74  77
ATOM     77  C   UNL A   1      32.030  25.989  23.721  1.00  0.00     0.130 A 
ATOM     78  C   UNL A   1      32.948  25.169  24.388  1.00  0.00     0.060 A 
ATOM     79  C   UNL A   1      30.924  26.460  24.442  1.00  0.00     0.282 A 
ATOM     80  C   UNL A   1      32.826  24.966  25.774  1.00  0.00     0.015 A 
ATOM     81  C   UNL A   1      30.823  26.294  25.832  1.00  0.00     0.086 A 
ATOM     82  C   UNL A   1      31.801  25.569  26.501  1.00  0.00     0.008 A 
BRANCH  78  83
ATOM     83  C   UNL A   1      34.016  24.412  23.687  1.00  0.00     0.259 C 
ATOM     84  O   UNL A   1      34.403  24.810  22.595  1.00  0.00    -0.269 OA
BRANCH  83  85
ATOM     85  N   UNL A   1      34.329  23.206  24.255  1.00  0.00    -0.308 N 
ATOM     86  C   UNL A   1      35.536  22.931  25.040  1.00  0.00     0.131 C 
ATOM     87  C   UNL A   1      33.717  21.987  23.947  1.00  0.00     0.047 A 
ATOM     88  C   UNL A   1      35.356  21.513  25.609  1.00  0.00     0.059 C 
ATOM     89  C   UNL A   1      34.231  20.988  24.770  1.00  0.00    -0.022 A 
ATOM     90  C   UNL A   1      32.717  21.726  23.026  1.00  0.00     0.026 A 
ATOM     91  C   UNL A   1      33.666  19.725  24.781  1.00  0.00     0.006 A 
ATOM     92  C   UNL A   1      32.153  20.449  23.015  1.00  0.00     0.002 A 
ATOM     93  C   UNL A   1      32.606  19.464  23.907  1.00  0.00     0.000 A 
ENDBRANCH  83  85
ENDBRANCH  78  83
BRANCH  79  94
ATOM     94  N   UNL A   1      29.809  27.097  23.761  1.00  0.00     0.063 N 
ATOM     95  O   UNL A   1      29.954  28.281  23.430  1.00  0.00    -0.258 OA
ATOM     96  O   UNL A   1      28.783  26.427  23.589  1.00  0.00    -0.258 OA
ENDBRANCH  79  94
ENDBRANCH  74  77
ENDBRANCH  72  73
ENDBRANCH  71  72
ENDBRANCH   1  71
TORSDOF 16
ENDMDL
MODEL 3
REMARK VINA RESULT:     -12.6      4.895      9.877
REMARK SMILES O=C(NCCCNC(=O)c1c(C(=O)N2CCc3ccccc32)cccc1[N+](=O)[O-])c1ccc(-c2c3nc(c(-c4cc(S(=O)(=O)[O-])ccc4F)c4ccc([nH]4)c(-c4cc(S(=O)(=O)[O-])ccc4F)c4nc(c(-c5cc(S(=O)(=O)[O-])ccc5F)c5ccc2[nH]5)C=C4)C=C3)cc1
REMARK SMILES IDX 4 1 3 2 1 3 2 4 30 6 31 7 92 8 32 9 91 10 33 11 34 12 35 13
REMARK SMILES IDX 85 14 36 15 90 16 84 17 86 18 37 19 89 20 83 21 82 22 38 24
REMARK SMILES IDX 70 25 50 26 69 27 51 28 54 29 68 30 87 31 52 32 53 33 67 35
REMARK SMILES IDX 88 36 55 37 39 38 40 39 48 40 41 41 47 42 49 43 46 44 42 45
REMARK SMILES IDX 43 46 44 47 45 48 71 49 72 50 80 51 73 52 79 53 81 54 78 55
REMARK SMILES IDX 74 56 75 57 76 58 77 59 56 60 57 61 65 62 58 63 64 64 66 65
REMARK SMILES IDX 63 66 59 67 60 68 61 69 62 70 5 71 6 72 7 73 8 74 9 76 10 77
REMARK SMILES IDX 11 78 26 79 23 80 25 81 24 82 12 83 13 84 14 85 15 86 22 87
REMARK SMILES IDX 16 88 17 89 21 90 18 91 20 92 19 93 27 94 28 95 29 96
REMARK H PARENT 3 5 86 23 54 34 7 75
REMARK Flexibility Score: inf
ROOT
ATOM      1  C   UNL A   1      33.303  29.316  25.110  1.00  0.00     0.118 C 
ENDROOT
BRANCH   1   2
ATOM      2  N   UNL A   1      32.699  30.457  25.790  1.00  0.00    -0.352 N 
ATOM      3  O   UNL A   1      32.403  32.050  27.355  1.00  0.00    -0.269 OA
ATOM      4  C   UNL A   1      33.129  31.180  26.883  1.00  0.00     0.251 C 
ATOM      5  H   UNL A   1      31.845  30.759  25.406  1.00  0.00     0.163 HD
BRANCH   4   6
ATOM      6  C   UNL A   1      34.442  30.894  27.507  1.00  0.00     0.039 A 
ATOM      7  C   UNL A   1      34.753  29.612  27.951  1.00  0.00     0.014 A 
ATOM      8  C   UNL A   1      35.380  31.923  27.656  1.00  0.00     0.014 A 
ATOM      9  C   UNL A   1      35.879  29.409  28.736  1.00  0.00     0.010 A 
ATOM     10  C   UNL A   1      36.585  31.680  28.330  1.00  0.00     0.010 A 
ATOM     11  C   UNL A   1      36.826  30.431  28.917  1.00  0.00    -0.014 A 
BRANCH  11  12
ATOM     12  C   UNL A   1      38.068  30.113  29.675  1.00  0.00     0.031 A 
ATOM     13  C   UNL A   1      38.288  30.616  31.077  1.00  0.00     0.074 A 
ATOM     14  C   UNL A   1      38.962  29.277  29.107  1.00  0.00     0.049 A 
ATOM     15  N   UNL A   1      39.277  30.358  31.897  1.00  0.00    -0.248 NA
ATOM     16  C   UNL A   1      37.281  31.534  31.630  1.00  0.00     0.031 C 
ATOM     17  C   UNL A   1      38.859  28.741  27.745  1.00  0.00     0.029 A 
ATOM     18  N   UNL A   1      40.096  28.690  29.605  1.00  0.00    -0.354 N 
ATOM     19  C   UNL A   1      39.022  31.089  33.053  1.00  0.00     0.074 A 
ATOM     20  C   UNL A   1      37.799  31.827  32.815  1.00  0.00     0.031 C 
ATOM     21  C   UNL A   1      39.832  27.842  27.549  1.00  0.00     0.029 A 
ATOM     22  C   UNL A   1      40.682  27.802  28.731  1.00  0.00     0.049 A 
ATOM     23  H   UNL A   1      40.456  28.885  30.499  1.00  0.00     0.167 HD
ATOM     24  C   UNL A   1      39.739  31.132  34.205  1.00  0.00     0.034 A 
ATOM     25  C   UNL A   1      41.791  27.047  28.856  1.00  0.00     0.034 A 
ATOM     26  C   UNL A   1      40.955  30.385  34.426  1.00  0.00     0.049 A 
ATOM     27  C   UNL A   1      42.564  27.118  30.143  1.00  0.00     0.074 A 
ATOM     28  C   UNL A   1      41.761  30.359  35.553  1.00  0.00     0.029 A 
ATOM     29  N   UNL A   1      41.545  29.529  33.502  1.00  0.00    -0.354 N 
ATOM     30  N   UNL A   1      42.305  27.823  31.220  1.00  0.00    -0.248 NA
ATOM     31  C   UNL A   1      43.772  26.294  30.231  1.00  0.00     0.031 C 
ATOM     32  C   UNL A   1      42.861  29.532  35.291  1.00  0.00     0.029 A 
ATOM     33  C   UNL A   1      42.710  28.988  34.027  1.00  0.00     0.049 A 
ATOM     34  H   UNL A   1      41.188  29.336  32.606  1.00  0.00     0.167 HD
ATOM     35  C   UNL A   1      43.328  27.528  32.115  1.00  0.00     0.074 A 
ATOM     36  C   UNL A   1      44.174  26.545  31.468  1.00  0.00     0.031 C 
ATOM     37  C   UNL A   1      43.558  28.032  33.353  1.00  0.00     0.034 A 
BRANCH  24  38
ATOM     38  C   UNL A   1      39.246  32.048  35.301  1.00  0.00     0.023 A 
ATOM     39  C   UNL A   1      39.700  33.373  35.420  1.00  0.00     0.031 A 
ATOM     40  C   UNL A   1      38.304  31.589  36.239  1.00  0.00     0.131 A 
ATOM     41  C   UNL A   1      39.253  34.175  36.482  1.00  0.00     0.055 A 
ATOM     42  C   UNL A   1      37.811  32.413  37.253  1.00  0.00     0.041 A 
ATOM     43  F   UNL A   1      37.848  30.327  36.188  1.00  0.00    -0.206 F 
ATOM     44  C   UNL A   1      38.293  33.711  37.386  1.00  0.00     0.022 A 
BRANCH  41  45
ATOM     45  S   UNL A   1      40.021  35.800  36.729  1.00  0.00     0.124 S 
ATOM     46  O   UNL A   1      41.433  35.444  36.858  1.00  0.00    -0.237 OA
ATOM     47  O   UNL A   1      39.653  36.513  35.512  1.00  0.00    -0.237 OA
ATOM     48  O   UNL A   1      39.396  36.293  37.954  1.00  0.00    -0.744 OA
ENDBRANCH  41  45
ENDBRANCH  24  38
BRANCH  25  49
ATOM     49  C   UNL A   1      42.258  26.202  27.719  1.00  0.00     0.023 A 
ATOM     50  C   UNL A   1      41.844  24.868  27.582  1.00  0.00     0.031 A 
ATOM     51  C   UNL A   1      43.159  26.714  26.766  1.00  0.00     0.131 A 
ATOM     52  C   UNL A   1      42.363  24.081  26.542  1.00  0.00     0.055 A 
ATOM     53  C   UNL A   1      43.624  25.946  25.700  1.00  0.00     0.041 A 
ATOM     54  F   UNL A   1      43.585  27.985  26.849  1.00  0.00    -0.206 F 
ATOM     55  C   UNL A   1      43.237  24.614  25.593  1.00  0.00     0.022 A 
BRANCH  52  56
ATOM     56  S   UNL A   1      41.954  22.314  26.505  1.00  0.00     0.124 S 
ATOM     57  O   UNL A   1      40.499  22.346  26.406  1.00  0.00    -0.237 OA
ATOM     58  O   UNL A   1      42.668  21.865  25.315  1.00  0.00    -0.237 OA
ATOM     59  O   UNL A   1      42.482  21.816  27.773  1.00  0.00    -0.744 OA
ENDBRANCH  52  56
ENDBRANCH  25  49
BRANCH  37  60
ATOM     60  C   UNL A   1      44.775  27.508  34.071  1.00  0.00     0.023 A 
ATOM     61  C   UNL A   1      44.704  26.369  34.893  1.00  0.00     0.031 A 
ATOM     62  C   UNL A   1      46.002  28.186  33.983  1.00  0.00     0.131 A 
ATOM     63  C   UNL A   1      45.816  25.987  35.655  1.00  0.00     0.055 A 
ATOM     64  C   UNL A   1      47.125  27.763  34.694  1.00  0.00     0.041 A 
ATOM     65  F   UNL A   1      46.125  29.280  33.213  1.00  0.00    -0.206 F 
ATOM     66  C   UNL A   1      47.032  26.669  35.550  1.00  0.00     0.022 A 
BRANCH  63  67
ATOM     67  S   UNL A   1      45.618  24.659  36.873  1.00  0.00     0.124 S 
ATOM     68  O   UNL A   1      46.176  25.266  38.078  1.00  0.00    -0.237 OA
ATOM     69  O   UNL A   1      44.174  24.450  36.875  1.00  0.00    -0.237 OA
ATOM     70  O   UNL A   1      46.402  23.560  36.313  1.00  0.00    -0.744 OA
ENDBRANCH  63  67
ENDBRANCH  37  60
ENDBRANCH  11  12
ENDBRANCH   4   6
ENDBRANCH   1   2
BRANCH   1  71
ATOM     71  C   UNL A   1      33.088  29.309  23.605  1.00  0.00     0.042 C 
BRANCH  71  72
ATOM     72  C   UNL A   1      33.928  28.297  22.850  1.00  0.00     0.118 C 
BRANCH  72  73
ATOM     73  N   UNL A   1      33.150  27.373  22.028  1.00  0.00    -0.352 N 
ATOM     74  C   UNL A   1      32.308  26.339  22.375  1.00  0.00     0.259 C 
ATOM     75  H   UNL A   1      33.243  27.514  21.058  1.00  0.00     0.163 HD
ATOM     76  O   UNL A   1      31.773  25.674  21.502  1.00  0.00    -0.269 OA
BRANCH  74  77
ATOM     77  C   UNL A   1      32.104  26.003  23.798  1.00  0.00     0.130 A 
ATOM     78  C   UNL A   1      33.048  25.232  24.485  1.00  0.00     0.060 A 
ATOM     79  C   UNL A   1      31.004  26.489  24.516  1.00  0.00     0.282 A 
ATOM     80  C   UNL A   1      32.956  25.095  25.882  1.00  0.00     0.015 A 
ATOM     81  C   UNL A   1      30.932  26.390  25.914  1.00  0.00     0.086 A 
ATOM     82  C   UNL A   1      31.934  25.715  26.598  1.00  0.00     0.008 A 
BRANCH  78  83
ATOM     83  C   UNL A   1      34.116  24.459  23.801  1.00  0.00     0.259 C 
ATOM     84  O   UNL A   1      34.550  24.870  22.732  1.00  0.00    -0.269 OA
BRANCH  83  85
ATOM     85  N   UNL A   1      34.376  23.233  24.351  1.00  0.00    -0.308 N 
ATOM     86  C   UNL A   1      35.552  22.903  25.162  1.00  0.00     0.131 C 
ATOM     87  C   UNL A   1      33.735  22.040  24.000  1.00  0.00     0.047 A 
ATOM     88  C   UNL A   1      35.312  21.479  25.695  1.00  0.00     0.059 C 
ATOM     89  C   UNL A   1      34.195  21.008  24.814  1.00  0.00    -0.022 A 
ATOM     90  C   UNL A   1      32.754  21.830  23.047  1.00  0.00     0.026 A 
ATOM     91  C   UNL A   1      33.591  19.764  24.782  1.00  0.00     0.006 A 
ATOM     92  C   UNL A   1      32.151  20.572  22.993  1.00  0.00     0.002 A 
ATOM     93  C   UNL A   1      32.548  19.555  23.875  1.00  0.00     0.000 A 
ENDBRANCH  83  85
ENDBRANCH  78  83
BRANCH  79  94
ATOM     94  N   UNL A   1      29.865  27.074  23.827  1.00  0.00     0.063 N 
ATOM     95  O   UNL A   1      28.948  26.306  23.504  1.00  0.00    -0.258 OA
ATOM     96  O   UNL A   1      29.903  28.285  23.580  1.00  0.00    -0.258 OA
ENDBRANCH  79  94
ENDBRANCH  74  77
ENDBRANCH  72  73
ENDBRANCH  71  72
ENDBRANCH   1  71
TORSDOF 16
ENDMDL
