MODEL 1
REMARK VINA RESULT:     -11.0      0.000      0.000
REMARK SMILES CC[NH2+][C@]1(C(=O)NCCCNC(=O)c2ccc(-c3c4nc(c(-c5cc(S(=O)(=O)[O-])ccc5F)c5ccc([nH]5)c(-c5cc(S(=O)(=O)[O-])ccc5F)c5nc(c(-c6cc(S(=O)(=O)[O-])ccc6F)c6ccc3[nH]6)C=C5)C=C4)cc2)CC[C@H]([N@H+](C)CC[NH+]2CCCC2)C1
REMARK SMILES IDX 8 1 7 2 5 3 6 4 4 6 77 7 89 8 78 9 79 10 3 11 2 14 1 15
REMARK SMILES IDX 80 16 81 17 82 19 83 20 84 21 85 22 88 23 86 25 87 26 9 27
REMARK SMILES IDX 10 28 11 29 12 30 13 32 14 33 15 34 76 35 16 36 75 37 17 38
REMARK SMILES IDX 18 39 19 40 69 41 20 42 74 43 68 44 70 45 21 46 73 47 67 48
REMARK SMILES IDX 66 49 22 51 54 52 34 53 53 54 35 55 38 56 52 57 71 58 36 59
REMARK SMILES IDX 37 60 51 62 72 63 39 64 23 65 24 66 32 67 25 68 31 69 33 70
REMARK SMILES IDX 30 71 26 72 27 73 28 74 29 75 55 76 56 77 64 78 57 79 63 80
REMARK SMILES IDX 65 81 62 82 58 83 59 84 60 85 61 86 40 87 41 88 49 89 42 90
REMARK SMILES IDX 48 91 50 92 47 93 43 94 44 95 45 96 46 97
REMARK H PARENT 7 5 3 12 3 13 80 18 84 24 11 31 70 50 38 61
REMARK Flexibility Score: inf
ROOT
ATOM      1  C   UNL A   1      31.902  27.681  26.744  1.00  0.00     0.118 C 
ENDROOT
BRANCH   1   2
ATOM      2  N   UNL A   1      31.658  27.637  25.328  1.00  0.00    -0.351 N 
ATOM      3  C   UNL A   1      31.642  26.562  24.493  1.00  0.00     0.281 C 
ATOM      4  O   UNL A   1      31.361  26.825  23.315  1.00  0.00    -0.268 OA
ATOM      5  H   UNL A   1      31.477  28.506  24.902  1.00  0.00     0.163 HD
BRANCH   3   6
ATOM      6  C   UNL A   1      31.895  25.088  24.958  1.00  0.00     0.181 C 
ATOM      7  C   UNL A   1      31.034  24.689  26.165  1.00  0.00     0.085 C 
ATOM      8  C   UNL A   1      31.223  24.178  23.901  1.00  0.00     0.144 C 
ATOM      9  C   UNL A   1      30.897  23.159  26.058  1.00  0.00     0.072 C 
ATOM     10  C   UNL A   1      31.094  22.794  24.557  1.00  0.00     0.191 C 
BRANCH   6  11
ATOM     11  N   UNL A   1      33.320  24.700  25.052  1.00  0.00    -0.334 N 
ATOM     12  H   UNL A   1      33.728  25.249  25.807  1.00  0.00     0.347 HD
ATOM     13  H   UNL A   1      33.289  23.689  25.183  1.00  0.00     0.347 HD
BRANCH  11  14
ATOM     14  C   UNL A   1      34.182  24.872  23.888  1.00  0.00     0.257 C 
ATOM     15  C   UNL A   1      35.234  23.767  23.772  1.00  0.00     0.071 C 
ENDBRANCH  11  14
ENDBRANCH   6  11
BRANCH  10  16
ATOM     16  N   UNL A   1      32.233  21.870  24.370  1.00  0.00    -0.330 N 
ATOM     17  C   UNL A   1      32.454  21.453  22.987  1.00  0.00     0.333 C 
ATOM     18  H   UNL A   1      33.063  22.411  24.612  1.00  0.00     0.348 HD
BRANCH  16  19
ATOM     19  C   UNL A   1      32.156  20.721  25.288  1.00  0.00     0.324 C 
BRANCH  19  20
ATOM     20  C   UNL A   1      33.059  19.491  24.976  1.00  0.00     0.324 C 
BRANCH  20  21
ATOM     21  N   UNL A   1      32.497  18.156  24.666  1.00  0.00    -0.330 N 
ATOM     22  C   UNL A   1      33.214  17.095  25.389  1.00  0.00     0.262 C 
ATOM     23  C   UNL A   1      32.579  17.718  23.268  1.00  0.00     0.262 C 
ATOM     24  H   UNL A   1      31.520  18.283  24.932  1.00  0.00     0.348 HD
ATOM     25  C   UNL A   1      34.436  16.828  24.525  1.00  0.00     0.067 C 
ATOM     26  C   UNL A   1      33.925  17.022  23.104  1.00  0.00     0.067 C 
ENDBRANCH  20  21
ENDBRANCH  19  20
ENDBRANCH  16  19
ENDBRANCH  10  16
ENDBRANCH   3   6
ENDBRANCH   1   2
BRANCH   1  27
ATOM     27  C   UNL A   1      33.195  28.339  27.149  1.00  0.00     0.042 C 
BRANCH  27  28
ATOM     28  C   UNL A   1      33.722  29.276  26.090  1.00  0.00     0.118 C 
BRANCH  28  29
ATOM     29  N   UNL A   1      33.858  30.645  26.581  1.00  0.00    -0.352 N 
ATOM     30  C   UNL A   1      34.715  31.189  27.509  1.00  0.00     0.251 C 
ATOM     31  H   UNL A   1      33.228  31.288  26.180  1.00  0.00     0.163 HD
ATOM     32  O   UNL A   1      34.482  32.310  27.961  1.00  0.00    -0.269 OA
BRANCH  30  33
ATOM     33  C   UNL A   1      35.882  30.419  27.985  1.00  0.00     0.039 A 
ATOM     34  C   UNL A   1      37.071  30.414  27.251  1.00  0.00     0.014 A 
ATOM     35  C   UNL A   1      35.809  29.708  29.180  1.00  0.00     0.014 A 
ATOM     36  C   UNL A   1      38.198  29.771  27.771  1.00  0.00     0.010 A 
ATOM     37  C   UNL A   1      36.965  29.239  29.777  1.00  0.00     0.010 A 
ATOM     38  C   UNL A   1      38.169  29.226  29.065  1.00  0.00    -0.014 A 
BRANCH  38  39
ATOM     39  C   UNL A   1      39.353  28.582  29.690  1.00  0.00     0.031 A 
ATOM     40  C   UNL A   1      39.902  29.135  30.983  1.00  0.00     0.074 A 
ATOM     41  C   UNL A   1      39.984  27.574  29.057  1.00  0.00     0.049 A 
ATOM     42  N   UNL A   1      40.996  28.816  31.624  1.00  0.00    -0.248 NA
ATOM     43  C   UNL A   1      39.148  30.238  31.604  1.00  0.00     0.031 C 
ATOM     44  C   UNL A   1      39.584  27.000  27.770  1.00  0.00     0.029 A 
ATOM     45  N   UNL A   1      41.099  26.857  29.405  1.00  0.00    -0.354 N 
ATOM     46  C   UNL A   1      41.072  29.699  32.699  1.00  0.00     0.074 A 
ATOM     47  C   UNL A   1      39.974  30.628  32.559  1.00  0.00     0.031 C 
ATOM     48  C   UNL A   1      40.413  25.990  27.463  1.00  0.00     0.029 A 
ATOM     49  C   UNL A   1      41.438  25.883  28.495  1.00  0.00     0.049 A 
ATOM     50  H   UNL A   1      41.610  27.024  30.231  1.00  0.00     0.167 HD
ATOM     51  C   UNL A   1      41.951  29.709  33.731  1.00  0.00     0.034 A 
ATOM     52  C   UNL A   1      42.464  25.010  28.489  1.00  0.00     0.034 A 
ATOM     53  C   UNL A   1      43.019  28.750  33.863  1.00  0.00     0.049 A 
ATOM     54  C   UNL A   1      43.435  25.036  29.641  1.00  0.00     0.074 A 
ATOM     55  C   UNL A   1      43.931  28.612  34.893  1.00  0.00     0.029 A 
ATOM     56  N   UNL A   1      43.319  27.765  32.929  1.00  0.00    -0.354 N 
ATOM     57  N   UNL A   1      43.461  25.838  30.682  1.00  0.00    -0.248 NA
ATOM     58  C   UNL A   1      44.507  24.035  29.623  1.00  0.00     0.031 C 
ATOM     59  C   UNL A   1      44.829  27.597  34.546  1.00  0.00     0.029 A 
ATOM     60  C   UNL A   1      44.424  27.039  33.343  1.00  0.00     0.049 A 
ATOM     61  H   UNL A   1      42.820  27.606  32.096  1.00  0.00     0.167 HD
ATOM     62  C   UNL A   1      44.537  25.416  31.459  1.00  0.00     0.074 A 
ATOM     63  C   UNL A   1      45.120  24.280  30.773  1.00  0.00     0.031 C 
ATOM     64  C   UNL A   1      44.999  25.917  32.635  1.00  0.00     0.034 A 
BRANCH  51  65
ATOM     65  C   UNL A   1      41.792  30.797  34.770  1.00  0.00     0.023 A 
ATOM     66  C   UNL A   1      40.683  30.837  35.637  1.00  0.00     0.031 A 
ATOM     67  C   UNL A   1      42.724  31.846  34.856  1.00  0.00     0.131 A 
ATOM     68  C   UNL A   1      40.480  31.947  36.469  1.00  0.00     0.055 A 
ATOM     69  C   UNL A   1      42.569  32.898  35.762  1.00  0.00     0.041 A 
ATOM     70  F   UNL A   1      43.791  31.882  34.044  1.00  0.00    -0.206 F 
ATOM     71  C   UNL A   1      41.430  32.965  36.560  1.00  0.00     0.022 A 
BRANCH  68  72
ATOM     72  S   UNL A   1      38.868  32.132  37.282  1.00  0.00     0.124 S 
ATOM     73  O   UNL A   1      39.264  32.332  38.674  1.00  0.00    -0.237 OA
ATOM     74  O   UNL A   1      38.305  33.294  36.605  1.00  0.00    -0.237 OA
ATOM     75  O   UNL A   1      38.198  30.862  37.010  1.00  0.00    -0.744 OA
ENDBRANCH  68  72
ENDBRANCH  51  65
BRANCH  52  76
ATOM     76  C   UNL A   1      42.622  24.044  27.365  1.00  0.00     0.023 A 
ATOM     77  C   UNL A   1      41.926  22.824  27.355  1.00  0.00     0.031 A 
ATOM     78  C   UNL A   1      43.480  24.320  26.286  1.00  0.00     0.131 A 
ATOM     79  C   UNL A   1      42.129  21.910  26.308  1.00  0.00     0.055 A 
ATOM     80  C   UNL A   1      43.637  23.432  25.220  1.00  0.00     0.041 A 
ATOM     81  F   UNL A   1      44.165  25.475  26.241  1.00  0.00    -0.206 F 
ATOM     82  C   UNL A   1      42.967  22.213  25.232  1.00  0.00     0.022 A 
BRANCH  79  83
ATOM     83  S   UNL A   1      41.334  20.283  26.408  1.00  0.00     0.124 S 
ATOM     84  O   UNL A   1      42.035  19.545  25.363  1.00  0.00    -0.237 OA
ATOM     85  O   UNL A   1      41.626  19.886  27.781  1.00  0.00    -0.237 OA
ATOM     86  O   UNL A   1      39.929  20.573  26.131  1.00  0.00    -0.744 OA
ENDBRANCH  79  83
ENDBRANCH  52  76
BRANCH  64  87
ATOM     87  C   UNL A   1      46.169  25.206  33.270  1.00  0.00     0.023 A 
ATOM     88  C   UNL A   1      45.992  24.113  34.134  1.00  0.00     0.031 A 
ATOM     89  C   UNL A   1      47.482  25.634  33.003  1.00  0.00     0.131 A 
ATOM     90  C   UNL A   1      47.105  23.522  34.748  1.00  0.00     0.055 A 
ATOM     91  C   UNL A   1      48.589  24.997  33.562  1.00  0.00     0.041 A 
ATOM     92  F   UNL A   1      47.710  26.677  32.189  1.00  0.00    -0.206 F 
ATOM     93  C   UNL A   1      48.404  23.943  34.451  1.00  0.00     0.022 A 
BRANCH  90  94
ATOM     94  S   UNL A   1      46.828  22.263  36.023  1.00  0.00     0.124 S 
ATOM     95  O   UNL A   1      46.489  23.079  37.184  1.00  0.00    -0.237 OA
ATOM     96  O   UNL A   1      45.737  21.477  35.455  1.00  0.00    -0.237 OA
ATOM     97  O   UNL A   1      48.112  21.570  36.106  1.00  0.00    -0.744 OA
ENDBRANCH  90  94
ENDBRANCH  64  87
ENDBRANCH  38  39
ENDBRANCH  30  33
ENDBRANCH  28  29
ENDBRANCH  27  28
ENDBRANCH   1  27
TORSDOF 19
ENDMDL
MODEL 2
REMARK VINA RESULT:     -11.0      1.616      2.420
REMARK SMILES CC[NH2+][C@]1(C(=O)NCCCNC(=O)c2ccc(-c3c4nc(c(-c5cc(S(=O)(=O)[O-])ccc5F)c5ccc([nH]5)c(-c5cc(S(=O)(=O)[O-])ccc5F)c5nc(c(-c6cc(S(=O)(=O)[O-])ccc6F)c6ccc3[nH]6)C=C5)C=C4)cc2)CC[C@H]([N@H+](C)CC[NH+]2CCCC2)C1
REMARK SMILES IDX 8 1 7 2 5 3 6 4 4 6 77 7 89 8 78 9 79 10 3 11 2 14 1 15
REMARK SMILES IDX 80 16 81 17 82 19 83 20 84 21 85 22 88 23 86 25 87 26 9 27
REMARK SMILES IDX 10 28 11 29 12 30 13 32 14 33 15 34 76 35 16 36 75 37 17 38
REMARK SMILES IDX 18 39 19 40 69 41 20 42 74 43 68 44 70 45 21 46 73 47 67 48
REMARK SMILES IDX 66 49 22 51 54 52 34 53 53 54 35 55 38 56 52 57 71 58 36 59
REMARK SMILES IDX 37 60 51 62 72 63 39 64 23 65 24 66 32 67 25 68 31 69 33 70
REMARK SMILES IDX 30 71 26 72 27 73 28 74 29 75 55 76 56 77 64 78 57 79 63 80
REMARK SMILES IDX 65 81 62 82 58 83 59 84 60 85 61 86 40 87 41 88 49 89 42 90
REMARK SMILES IDX 48 91 50 92 47 93 43 94 44 95 45 96 46 97
REMARK H PARENT 7 5 3 12 3 13 80 18 84 24 11 31 70 50 38 61
REMARK Flexibility Score: inf
ROOT
ATOM      1  C   UNL A   1      32.885  29.494  24.681  1.00  0.00     0.118 C 
ENDROOT
BRANCH   1   2
ATOM      2  N   UNL A   1      33.604  29.251  23.460  1.00  0.00    -0.351 N 
ATOM      3  C   UNL A   1      33.560  28.166  22.640  1.00  0.00     0.281 C 
ATOM      4  O   UNL A   1      34.267  28.253  21.627  1.00  0.00    -0.268 OA
ATOM      5  H   UNL A   1      34.215  29.970  23.179  1.00  0.00     0.163 HD
BRANCH   3   6
ATOM      6  C   UNL A   1      32.654  26.913  22.892  1.00  0.00     0.181 C 
ATOM      7  C   UNL A   1      32.833  25.826  21.823  1.00  0.00     0.085 C 
ATOM      8  C   UNL A   1      33.286  26.153  24.083  1.00  0.00     0.144 C 
ATOM      9  C   UNL A   1      32.447  24.514  22.531  1.00  0.00     0.072 C 
ATOM     10  C   UNL A   1      32.676  24.743  24.055  1.00  0.00     0.191 C 
BRANCH   6  11
ATOM     11  N   UNL A   1      31.249  27.220  23.242  1.00  0.00    -0.334 N 
ATOM     12  H   UNL A   1      30.774  26.328  23.375  1.00  0.00     0.347 HD
ATOM     13  H   UNL A   1      31.329  27.824  24.060  1.00  0.00     0.347 HD
BRANCH  11  14
ATOM     14  C   UNL A   1      30.439  28.000  22.313  1.00  0.00     0.257 C 
ATOM     15  C   UNL A   1      29.495  28.966  23.031  1.00  0.00     0.071 C 
ENDBRANCH  11  14
ENDBRANCH   6  11
BRANCH  10  16
ATOM     16  N   UNL A   1      31.428  24.551  24.824  1.00  0.00    -0.330 N 
ATOM     17  C   UNL A   1      31.348  25.336  26.054  1.00  0.00     0.333 C 
ATOM     18  H   UNL A   1      30.686  24.923  24.232  1.00  0.00     0.348 HD
BRANCH  16  19
ATOM     19  C   UNL A   1      31.149  23.125  25.060  1.00  0.00     0.324 C 
BRANCH  19  20
ATOM     20  C   UNL A   1      31.831  22.454  26.290  1.00  0.00     0.324 C 
BRANCH  20  21
ATOM     21  N   UNL A   1      32.697  21.260  26.160  1.00  0.00    -0.330 N 
ATOM     22  C   UNL A   1      33.901  21.382  26.996  1.00  0.00     0.262 C 
ATOM     23  C   UNL A   1      33.245  20.988  24.827  1.00  0.00     0.262 C 
ATOM     24  H   UNL A   1      32.054  20.515  26.427  1.00  0.00     0.348 HD
ATOM     25  C   UNL A   1      34.849  22.214  26.148  1.00  0.00     0.067 C 
ATOM     26  C   UNL A   1      34.555  21.762  24.725  1.00  0.00     0.067 C 
ENDBRANCH  20  21
ENDBRANCH  19  20
ENDBRANCH  16  19
ENDBRANCH  10  16
ENDBRANCH   3   6
ENDBRANCH   1   2
BRANCH   1  27
ATOM     27  C   UNL A   1      33.624  29.128  25.942  1.00  0.00     0.042 C 
BRANCH  27  28
ATOM     28  C   UNL A   1      32.948  29.658  27.181  1.00  0.00     0.118 C 
BRANCH  28  29
ATOM     29  N   UNL A   1      33.080  31.108  27.306  1.00  0.00    -0.352 N 
ATOM     30  C   UNL A   1      34.050  31.877  27.905  1.00  0.00     0.251 C 
ATOM     31  H   UNL A   1      32.349  31.622  26.890  1.00  0.00     0.163 HD
ATOM     32  O   UNL A   1      33.828  33.069  28.119  1.00  0.00    -0.269 OA
BRANCH  30  33
ATOM     33  C   UNL A   1      35.330  31.268  28.321  1.00  0.00     0.039 A 
ATOM     34  C   UNL A   1      36.530  31.961  28.149  1.00  0.00     0.014 A 
ATOM     35  C   UNL A   1      35.344  30.004  28.905  1.00  0.00     0.014 A 
ATOM     36  C   UNL A   1      37.717  31.418  28.648  1.00  0.00     0.010 A 
ATOM     37  C   UNL A   1      36.477  29.559  29.561  1.00  0.00     0.010 A 
ATOM     38  C   UNL A   1      37.691  30.237  29.408  1.00  0.00    -0.014 A 
BRANCH  38  39
ATOM     39  C   UNL A   1      38.913  29.645  30.011  1.00  0.00     0.031 A 
ATOM     40  C   UNL A   1      39.399  30.149  31.348  1.00  0.00     0.074 A 
ATOM     41  C   UNL A   1      39.629  28.734  29.324  1.00  0.00     0.049 A 
ATOM     42  N   UNL A   1      40.506  29.872  31.988  1.00  0.00    -0.248 NA
ATOM     43  C   UNL A   1      38.553  31.146  32.027  1.00  0.00     0.031 C 
ATOM     44  C   UNL A   1      39.293  28.219  27.994  1.00  0.00     0.029 A 
ATOM     45  N   UNL A   1      40.792  28.082  29.645  1.00  0.00    -0.354 N 
ATOM     46  C   UNL A   1      40.498  30.683  33.120  1.00  0.00     0.074 A 
ATOM     47  C   UNL A   1      39.333  31.532  33.022  1.00  0.00     0.031 C 
ATOM     48  C   UNL A   1      40.203  27.299  27.636  1.00  0.00     0.029 A 
ATOM     49  C   UNL A   1      41.218  27.202  28.678  1.00  0.00     0.049 A 
ATOM     50  H   UNL A   1      41.277  28.231  30.489  1.00  0.00     0.167 HD
ATOM     51  C   UNL A   1      41.359  30.690  34.167  1.00  0.00     0.034 A 
ATOM     52  C   UNL A   1      42.309  26.412  28.634  1.00  0.00     0.034 A 
ATOM     53  C   UNL A   1      42.496  29.810  34.255  1.00  0.00     0.049 A 
ATOM     54  C   UNL A   1      43.259  26.435  29.803  1.00  0.00     0.074 A 
ATOM     55  C   UNL A   1      43.403  29.672  35.290  1.00  0.00     0.029 A 
ATOM     56  N   UNL A   1      42.885  28.916  33.263  1.00  0.00    -0.354 N 
ATOM     57  N   UNL A   1      43.209  27.163  30.896  1.00  0.00    -0.248 NA
ATOM     58  C   UNL A   1      44.406  25.522  29.739  1.00  0.00     0.031 C 
ATOM     59  C   UNL A   1      44.382  28.755  34.894  1.00  0.00     0.029 A 
ATOM     60  C   UNL A   1      44.038  28.250  33.648  1.00  0.00     0.049 A 
ATOM     61  H   UNL A   1      42.412  28.777  32.412  1.00  0.00     0.167 HD
ATOM     62  C   UNL A   1      44.303  26.774  31.663  1.00  0.00     0.074 A 
ATOM     63  C   UNL A   1      44.982  25.735  30.913  1.00  0.00     0.031 C 
ATOM     64  C   UNL A   1      44.708  27.227  32.878  1.00  0.00     0.034 A 
BRANCH  51  65
ATOM     65  C   UNL A   1      41.101  31.690  35.273  1.00  0.00     0.023 A 
ATOM     66  C   UNL A   1      40.069  31.505  36.212  1.00  0.00     0.031 A 
ATOM     67  C   UNL A   1      41.853  32.874  35.356  1.00  0.00     0.131 A 
ATOM     68  C   UNL A   1      39.748  32.528  37.116  1.00  0.00     0.055 A 
ATOM     69  C   UNL A   1      41.595  33.845  36.328  1.00  0.00     0.041 A 
ATOM     70  F   UNL A   1      42.836  33.125  34.478  1.00  0.00    -0.206 F 
ATOM     71  C   UNL A   1      40.523  33.686  37.201  1.00  0.00     0.022 A 
BRANCH  68  72
ATOM     72  S   UNL A   1      38.193  32.405  38.043  1.00  0.00     0.124 S 
ATOM     73  O   UNL A   1      37.660  31.135  37.554  1.00  0.00    -0.237 OA
ATOM     74  O   UNL A   1      38.650  32.415  39.428  1.00  0.00    -0.237 OA
ATOM     75  O   UNL A   1      37.447  33.589  37.620  1.00  0.00    -0.744 OA
ENDBRANCH  68  72
ENDBRANCH  51  65
BRANCH  52  76
ATOM     76  C   UNL A   1      42.557  25.540  27.450  1.00  0.00     0.023 A 
ATOM     77  C   UNL A   1      42.098  24.213  27.419  1.00  0.00     0.031 A 
ATOM     78  C   UNL A   1      43.267  26.016  26.334  1.00  0.00     0.131 A 
ATOM     79  C   UNL A   1      42.387  23.398  26.313  1.00  0.00     0.055 A 
ATOM     80  C   UNL A   1      43.505  25.218  25.214  1.00  0.00     0.041 A 
ATOM     81  F   UNL A   1      43.723  27.280  26.308  1.00  0.00    -0.206 F 
ATOM     82  C   UNL A   1      43.073  23.896  25.203  1.00  0.00     0.022 A 
BRANCH  79  83
ATOM     83  S   UNL A   1      41.914  21.648  26.376  1.00  0.00     0.124 S 
ATOM     84  O   UNL A   1      42.766  21.072  25.342  1.00  0.00    -0.237 OA
ATOM     85  O   UNL A   1      42.245  21.293  27.753  1.00  0.00    -0.237 OA
ATOM     86  O   UNL A   1      40.485  21.670  26.068  1.00  0.00    -0.744 OA
ENDBRANCH  79  83
ENDBRANCH  52  76
BRANCH  64  87
ATOM     87  C   UNL A   1      45.921  26.566  33.486  1.00  0.00     0.023 A 
ATOM     88  C   UNL A   1      45.817  25.410  34.277  1.00  0.00     0.031 A 
ATOM     89  C   UNL A   1      47.201  27.108  33.269  1.00  0.00     0.131 A 
ATOM     90  C   UNL A   1      46.965  24.866  34.871  1.00  0.00     0.055 A 
ATOM     91  C   UNL A   1      48.347  26.520  33.804  1.00  0.00     0.041 A 
ATOM     92  F   UNL A   1      47.359  28.214  32.525  1.00  0.00    -0.206 F 
ATOM     93  C   UNL A   1      48.231  25.401  34.622  1.00  0.00     0.022 A 
BRANCH  90  94
ATOM     94  S   UNL A   1      46.769  23.512  36.060  1.00  0.00     0.124 S 
ATOM     95  O   UNL A   1      48.155  23.127  36.309  1.00  0.00    -0.237 OA
ATOM     96  O   UNL A   1      46.080  24.166  37.168  1.00  0.00    -0.237 OA
ATOM     97  O   UNL A   1      45.973  22.526  35.331  1.00  0.00    -0.744 OA
ENDBRANCH  90  94
ENDBRANCH  64  87
ENDBRANCH  38  39
ENDBRANCH  30  33
ENDBRANCH  28  29
ENDBRANCH  27  28
ENDBRANCH   1  27
TORSDOF 19
ENDMDL
MODEL 3
REMARK VINA RESULT:     -10.8      1.458      1.684
REMARK SMILES CC[NH2+][C@]1(C(=O)NCCCNC(=O)c2ccc(-c3c4nc(c(-c5cc(S(=O)(=O)[O-])ccc5F)c5ccc([nH]5)c(-c5cc(S(=O)(=O)[O-])ccc5F)c5nc(c(-c6cc(S(=O)(=O)[O-])ccc6F)c6ccc3[nH]6)C=C5)C=C4)cc2)CC[C@H]([N@H+](C)CC[NH+]2CCCC2)C1
REMARK SMILES IDX 8 1 7 2 5 3 6 4 4 6 77 7 89 8 78 9 79 10 3 11 2 14 1 15
REMARK SMILES IDX 80 16 81 17 82 19 83 20 84 21 85 22 88 23 86 25 87 26 9 27
REMARK SMILES IDX 10 28 11 29 12 30 13 32 14 33 15 34 76 35 16 36 75 37 17 38
REMARK SMILES IDX 18 39 19 40 69 41 20 42 74 43 68 44 70 45 21 46 73 47 67 48
REMARK SMILES IDX 66 49 22 51 54 52 34 53 53 54 35 55 38 56 52 57 71 58 36 59
REMARK SMILES IDX 37 60 51 62 72 63 39 64 23 65 24 66 32 67 25 68 31 69 33 70
REMARK SMILES IDX 30 71 26 72 27 73 28 74 29 75 55 76 56 77 64 78 57 79 63 80
REMARK SMILES IDX 65 81 62 82 58 83 59 84 60 85 61 86 40 87 41 88 49 89 42 90
REMARK SMILES IDX 48 91 50 92 47 93 43 94 44 95 45 96 46 97
REMARK H PARENT 7 5 3 12 3 13 80 18 84 24 11 31 70 50 38 61
REMARK Flexibility Score: inf
ROOT
ATOM      1  C   UNL A   1      31.847  27.730  26.843  1.00  0.00     0.118 C 
ENDROOT
BRANCH   1   2
ATOM      2  N   UNL A   1      31.625  27.732  25.423  1.00  0.00    -0.351 N 
ATOM      3  C   UNL A   1      31.584  26.681  24.559  1.00  0.00     0.281 C 
ATOM      4  O   UNL A   1      31.333  26.985  23.385  1.00  0.00    -0.268 OA
ATOM      5  H   UNL A   1      31.484  28.618  25.018  1.00  0.00     0.163 HD
BRANCH   3   6
ATOM      6  C   UNL A   1      31.777  25.186  24.988  1.00  0.00     0.181 C 
ATOM      7  C   UNL A   1      30.714  24.715  25.991  1.00  0.00     0.085 C 
ATOM      8  C   UNL A   1      31.330  24.327  23.780  1.00  0.00     0.144 C 
ATOM      9  C   UNL A   1      30.630  23.192  25.784  1.00  0.00     0.072 C 
ATOM     10  C   UNL A   1      31.110  22.910  24.329  1.00  0.00     0.191 C 
BRANCH   6  11
ATOM     11  N   UNL A   1      33.167  24.809  25.326  1.00  0.00    -0.334 N 
ATOM     12  H   UNL A   1      33.417  25.323  26.170  1.00  0.00     0.347 HD
ATOM     13  H   UNL A   1      33.131  23.793  25.400  1.00  0.00     0.347 HD
BRANCH  11  14
ATOM     14  C   UNL A   1      34.225  25.049  24.352  1.00  0.00     0.257 C 
ATOM     15  C   UNL A   1      35.302  23.962  24.381  1.00  0.00     0.071 C 
ENDBRANCH  11  14
ENDBRANCH   6  11
BRANCH  10  16
ATOM     16  N   UNL A   1      32.282  22.008  24.311  1.00  0.00    -0.330 N 
ATOM     17  C   UNL A   1      32.658  21.530  22.983  1.00  0.00     0.333 C 
ATOM     18  H   UNL A   1      33.070  22.583  24.611  1.00  0.00     0.348 HD
BRANCH  16  19
ATOM     19  C   UNL A   1      32.133  20.905  25.275  1.00  0.00     0.324 C 
BRANCH  19  20
ATOM     20  C   UNL A   1      32.959  19.610  25.017  1.00  0.00     0.324 C 
BRANCH  20  21
ATOM     21  N   UNL A   1      32.328  18.344  24.578  1.00  0.00    -0.330 N 
ATOM     22  C   UNL A   1      32.902  17.189  25.286  1.00  0.00     0.262 C 
ATOM     23  C   UNL A   1      32.492  17.983  23.166  1.00  0.00     0.262 C 
ATOM     24  H   UNL A   1      31.344  18.531  24.775  1.00  0.00     0.348 HD
ATOM     25  C   UNL A   1      34.168  16.877  24.504  1.00  0.00     0.067 C 
ATOM     26  C   UNL A   1      33.792  17.193  23.064  1.00  0.00     0.067 C 
ENDBRANCH  20  21
ENDBRANCH  19  20
ENDBRANCH  16  19
ENDBRANCH  10  16
ENDBRANCH   3   6
ENDBRANCH   1   2
BRANCH   1  27
ATOM     27  C   UNL A   1      33.157  28.329  27.286  1.00  0.00     0.042 C 
BRANCH  27  28
ATOM     28  C   UNL A   1      33.710  29.311  26.284  1.00  0.00     0.118 C 
BRANCH  28  29
ATOM     29  N   UNL A   1      33.805  30.663  26.830  1.00  0.00    -0.352 N 
ATOM     30  C   UNL A   1      34.665  31.202  27.758  1.00  0.00     0.251 C 
ATOM     31  H   UNL A   1      33.141  31.297  26.472  1.00  0.00     0.163 HD
ATOM     32  O   UNL A   1      34.401  32.293  28.264  1.00  0.00    -0.269 OA
BRANCH  30  33
ATOM     33  C   UNL A   1      35.873  30.460  28.171  1.00  0.00     0.039 A 
ATOM     34  C   UNL A   1      37.031  30.506  27.391  1.00  0.00     0.014 A 
ATOM     35  C   UNL A   1      35.870  29.723  29.353  1.00  0.00     0.014 A 
ATOM     36  C   UNL A   1      38.198  29.889  27.852  1.00  0.00     0.010 A 
ATOM     37  C   UNL A   1      37.063  29.279  29.894  1.00  0.00     0.010 A 
ATOM     38  C   UNL A   1      38.237  29.318  29.135  1.00  0.00    -0.014 A 
BRANCH  38  39
ATOM     39  C   UNL A   1      39.465  28.700  29.698  1.00  0.00     0.031 A 
ATOM     40  C   UNL A   1      40.074  29.273  30.955  1.00  0.00     0.074 A 
ATOM     41  C   UNL A   1      40.077  27.697  29.039  1.00  0.00     0.049 A 
ATOM     42  N   UNL A   1      41.207  28.978  31.538  1.00  0.00    -0.248 NA
ATOM     43  C   UNL A   1      39.336  30.369  31.608  1.00  0.00     0.031 C 
ATOM     44  C   UNL A   1      39.618  27.105  27.780  1.00  0.00     0.029 A 
ATOM     45  N   UNL A   1      41.223  27.002  29.331  1.00  0.00    -0.354 N 
ATOM     46  C   UNL A   1      41.326  29.871  32.600  1.00  0.00     0.074 A 
ATOM     47  C   UNL A   1      40.207  30.780  32.514  1.00  0.00     0.031 C 
ATOM     48  C   UNL A   1      40.447  26.107  27.436  1.00  0.00     0.029 A 
ATOM     49  C   UNL A   1      41.528  26.026  28.411  1.00  0.00     0.049 A 
ATOM     50  H   UNL A   1      41.775  27.184  30.126  1.00  0.00     0.167 HD
ATOM     51  C   UNL A   1      42.260  29.904  33.582  1.00  0.00     0.034 A 
ATOM     52  C   UNL A   1      42.567  25.170  28.356  1.00  0.00     0.034 A 
ATOM     53  C   UNL A   1      43.350  28.965  33.663  1.00  0.00     0.049 A 
ATOM     54  C   UNL A   1      43.599  25.223  29.452  1.00  0.00     0.074 A 
ATOM     55  C   UNL A   1      44.320  28.851  34.642  1.00  0.00     0.029 A 
ATOM     56  N   UNL A   1      43.616  27.977  32.721  1.00  0.00    -0.354 N 
ATOM     57  N   UNL A   1      43.668  26.034  30.485  1.00  0.00    -0.248 NA
ATOM     58  C   UNL A   1      44.685  24.240  29.383  1.00  0.00     0.031 C 
ATOM     59  C   UNL A   1      45.215  27.848  34.254  1.00  0.00     0.029 A 
ATOM     60  C   UNL A   1      44.754  27.273  33.079  1.00  0.00     0.049 A 
ATOM     61  H   UNL A   1      43.074  27.803  31.918  1.00  0.00     0.167 HD
ATOM     62  C   UNL A   1      44.792  25.637  31.204  1.00  0.00     0.074 A 
ATOM     63  C   UNL A   1      45.356  24.506  30.496  1.00  0.00     0.031 C 
ATOM     64  C   UNL A   1      45.309  26.156  32.349  1.00  0.00     0.034 A 
BRANCH  51  65
ATOM     65  C   UNL A   1      42.139  30.999  34.620  1.00  0.00     0.023 A 
ATOM     66  C   UNL A   1      42.881  32.192  34.528  1.00  0.00     0.031 A 
ATOM     67  C   UNL A   1      41.321  30.826  35.750  1.00  0.00     0.131 A 
ATOM     68  C   UNL A   1      42.874  33.108  35.589  1.00  0.00     0.055 A 
ATOM     69  C   UNL A   1      41.239  31.792  36.756  1.00  0.00     0.041 A 
ATOM     70  F   UNL A   1      40.605  29.703  35.912  1.00  0.00    -0.206 F 
ATOM     71  C   UNL A   1      42.035  32.931  36.691  1.00  0.00     0.022 A 
BRANCH  68  72
ATOM     72  S   UNL A   1      44.117  34.430  35.596  1.00  0.00     0.124 S 
ATOM     73  O   UNL A   1      43.858  35.070  36.884  1.00  0.00    -0.237 OA
ATOM     74  O   UNL A   1      45.368  33.688  35.491  1.00  0.00    -0.237 OA
ATOM     75  O   UNL A   1      43.767  35.236  34.428  1.00  0.00    -0.744 OA
ENDBRANCH  68  72
ENDBRANCH  51  65
BRANCH  52  76
ATOM     76  C   UNL A   1      42.680  24.198  27.232  1.00  0.00     0.023 A 
ATOM     77  C   UNL A   1      42.081  22.930  27.308  1.00  0.00     0.031 A 
ATOM     78  C   UNL A   1      43.398  24.517  26.066  1.00  0.00     0.131 A 
ATOM     79  C   UNL A   1      42.243  22.014  26.256  1.00  0.00     0.055 A 
ATOM     80  C   UNL A   1      43.511  23.623  25.000  1.00  0.00     0.041 A 
ATOM     81  F   UNL A   1      43.985  25.718  25.937  1.00  0.00    -0.206 F 
ATOM     82  C   UNL A   1      42.939  22.358  25.095  1.00  0.00     0.022 A 
BRANCH  79  83
ATOM     83  S   UNL A   1      41.588  20.335  26.456  1.00  0.00     0.124 S 
ATOM     84  O   UNL A   1      42.175  19.648  25.311  1.00  0.00    -0.237 OA
ATOM     85  O   UNL A   1      42.109  19.960  27.767  1.00  0.00    -0.237 OA
ATOM     86  O   UNL A   1      40.140  20.525  26.395  1.00  0.00    -0.744 OA
ENDBRANCH  79  83
ENDBRANCH  52  76
BRANCH  64  87
ATOM     87  C   UNL A   1      46.524  25.470  32.924  1.00  0.00     0.023 A 
ATOM     88  C   UNL A   1      46.414  24.360  33.779  1.00  0.00     0.031 A 
ATOM     89  C   UNL A   1      47.812  25.940  32.610  1.00  0.00     0.131 A 
ATOM     90  C   UNL A   1      47.568  23.793  34.337  1.00  0.00     0.055 A 
ATOM     91  C   UNL A   1      48.959  25.326  33.113  1.00  0.00     0.041 A 
ATOM     92  F   UNL A   1      47.976  26.999  31.803  1.00  0.00    -0.206 F 
ATOM     93  C   UNL A   1      48.841  24.255  33.993  1.00  0.00     0.022 A 
BRANCH  90  94
ATOM     94  S   UNL A   1      47.381  22.509  35.603  1.00  0.00     0.124 S 
ATOM     95  O   UNL A   1      47.076  21.332  34.796  1.00  0.00    -0.237 OA
ATOM     96  O   UNL A   1      48.688  22.517  36.252  1.00  0.00    -0.237 OA
ATOM     97  O   UNL A   1      46.277  22.998  36.428  1.00  0.00    -0.744 OA
ENDBRANCH  90  94
ENDBRANCH  64  87
ENDBRANCH  38  39
ENDBRANCH  30  33
ENDBRANCH  28  29
ENDBRANCH  27  28
ENDBRANCH   1  27
TORSDOF 19
ENDMDL
