MODEL 1
REMARK VINA RESULT:     -12.4      0.000      0.000
REMARK SMILES COc1cccc(C(=O)N[C@H]2C=C[C@@H](C(=O)NCCCNC(=O)c3ccc(-c4c5nc(c(-c6cc(S(=O)(=O)[O-])ccc6F)c6ccc([nH]6)c(-c6cc(S(=O)(=O)[O-])ccc6F)c6nc(c(-c7cc(S(=O)(=O)[O-])ccc7F)c7ccc4[nH]7)C=C6)C=C5)cc3)C2)c1
REMARK SMILES IDX 19 1 18 2 17 3 15 4 16 5 14 7 11 8 12 9 87 10 13 11 10 12
REMARK SMILES IDX 8 13 9 14 7 16 3 17 4 18 88 19 5 20 6 21 2 22 1 23 20 24
REMARK SMILES IDX 21 25 22 26 23 28 24 29 25 30 86 31 26 32 85 33 27 34 28 35
REMARK SMILES IDX 29 36 79 37 30 38 84 39 78 40 80 41 31 42 83 43 77 44 76 45
REMARK SMILES IDX 32 47 64 48 44 49 63 50 45 51 48 52 62 53 81 54 46 55 47 56
REMARK SMILES IDX 61 58 82 59 49 60 33 61 34 62 42 63 35 64 41 65 43 66 40 67
REMARK SMILES IDX 36 68 37 69 38 70 39 71 65 72 66 73 74 74 67 75 73 76 75 77
REMARK SMILES IDX 72 78 68 79 69 80 70 81 71 82 50 83 51 84 59 85 52 86 58 87
REMARK SMILES IDX 60 88 57 89 53 90 54 91 55 92 56 93
REMARK H PARENT 17 6 10 15 21 27 80 46 48 57
REMARK Flexibility Score: inf
ROOT
ATOM      1  C   UNL A   1      31.662  31.818  26.743  1.00  0.00     0.042 C 
ENDROOT
BRANCH   1   2
ATOM      2  C   UNL A   1      31.846  30.366  26.334  1.00  0.00     0.117 C 
BRANCH   2   3
ATOM      3  N   UNL A   1      31.528  30.134  24.935  1.00  0.00    -0.356 N 
ATOM      4  C   UNL A   1      31.461  28.973  24.224  1.00  0.00     0.227 C 
ATOM      5  O   UNL A   1      31.129  29.043  23.037  1.00  0.00    -0.274 OA
ATOM      6  H   UNL A   1      31.329  30.946  24.417  1.00  0.00     0.163 HD
BRANCH   4   7
ATOM      7  C   UNL A   1      31.806  27.620  24.844  1.00  0.00     0.103 C 
ATOM      8  C   UNL A   1      32.538  25.414  24.065  1.00  0.00     0.106 C 
ATOM      9  C   UNL A   1      33.676  26.215  24.610  1.00  0.00    -0.006 C 
ATOM     10  C   UNL A   1      31.398  26.440  23.963  1.00  0.00     0.047 C 
ATOM     11  C   UNL A   1      33.269  27.399  25.084  1.00  0.00    -0.016 C 
BRANCH   8  12
ATOM     12  N   UNL A   1      32.868  24.847  22.780  1.00  0.00    -0.346 N 
ATOM     13  C   UNL A   1      33.282  23.590  22.403  1.00  0.00     0.251 C 
ATOM     14  O   UNL A   1      33.433  23.410  21.192  1.00  0.00    -0.269 OA
ATOM     15  H   UNL A   1      32.780  25.479  22.031  1.00  0.00     0.164 HD
BRANCH  13  16
ATOM     16  C   UNL A   1      33.567  22.451  23.340  1.00  0.00     0.043 A 
ATOM     17  C   UNL A   1      32.980  20.430  24.590  1.00  0.00     0.119 A 
ATOM     18  C   UNL A   1      34.248  20.395  25.154  1.00  0.00     0.046 A 
ATOM     19  C   UNL A   1      32.652  21.463  23.709  1.00  0.00     0.060 A 
ATOM     20  C   UNL A   1      35.191  21.358  24.799  1.00  0.00     0.005 A 
ATOM     21  C   UNL A   1      34.856  22.371  23.893  1.00  0.00     0.014 A 
BRANCH  17  22
ATOM     22  O   UNL A   1      32.110  19.445  24.978  1.00  0.00    -0.497 OA
ATOM     23  C   UNL A   1      32.708  18.237  25.449  1.00  0.00     0.278 C 
ENDBRANCH  17  22
ENDBRANCH  13  16
ENDBRANCH   8  12
ENDBRANCH   4   7
ENDBRANCH   2   3
ENDBRANCH   1   2
BRANCH   1  24
ATOM     24  C   UNL A   1      32.899  32.423  27.385  1.00  0.00     0.118 C 
BRANCH  24  25
ATOM     25  N   UNL A   1      32.712  33.830  27.715  1.00  0.00    -0.352 N 
ATOM     26  C   UNL A   1      33.271  34.580  28.718  1.00  0.00     0.251 C 
ATOM     27  H   UNL A   1      32.090  34.318  27.127  1.00  0.00     0.163 HD
ATOM     28  O   UNL A   1      32.789  35.681  28.984  1.00  0.00    -0.269 OA
BRANCH  26  29
ATOM     29  C   UNL A   1      34.426  34.063  29.479  1.00  0.00     0.039 A 
ATOM     30  C   UNL A   1      34.202  33.231  30.578  1.00  0.00     0.014 A 
ATOM     31  C   UNL A   1      35.731  34.408  29.117  1.00  0.00     0.014 A 
ATOM     32  C   UNL A   1      35.289  32.696  31.272  1.00  0.00     0.010 A 
ATOM     33  C   UNL A   1      36.810  33.798  29.746  1.00  0.00     0.010 A 
ATOM     34  C   UNL A   1      36.602  32.944  30.837  1.00  0.00    -0.014 A 
BRANCH  34  35
ATOM     35  C   UNL A   1      37.772  32.332  31.519  1.00  0.00     0.031 A 
ATOM     36  C   UNL A   1      38.537  31.225  30.844  1.00  0.00     0.074 A 
ATOM     37  C   UNL A   1      38.099  32.727  32.764  1.00  0.00     0.049 A 
ATOM     38  N   UNL A   1      39.533  30.509  31.302  1.00  0.00    -0.248 NA
ATOM     39  C   UNL A   1      38.106  30.852  29.488  1.00  0.00     0.031 C 
ATOM     40  C   UNL A   1      37.401  33.759  33.534  1.00  0.00     0.029 A 
ATOM     41  N   UNL A   1      39.095  32.304  33.608  1.00  0.00    -0.354 N 
ATOM     42  C   UNL A   1      39.833  29.593  30.299  1.00  0.00     0.074 A 
ATOM     43  C   UNL A   1      38.874  29.803  29.237  1.00  0.00     0.031 C 
ATOM     44  C   UNL A   1      38.008  33.909  34.722  1.00  0.00     0.029 A 
ATOM     45  C   UNL A   1      39.101  32.948  34.824  1.00  0.00     0.049 A 
ATOM     46  H   UNL A   1      39.746  31.605  33.365  1.00  0.00     0.167 HD
ATOM     47  C   UNL A   1      40.834  28.679  30.259  1.00  0.00     0.034 A 
ATOM     48  C   UNL A   1      39.887  32.773  35.905  1.00  0.00     0.034 A 
ATOM     49  C   UNL A   1      41.789  28.496  31.324  1.00  0.00     0.049 A 
ATOM     50  C   UNL A   1      40.976  31.731  35.847  1.00  0.00     0.074 A 
ATOM     51  C   UNL A   1      42.880  27.644  31.364  1.00  0.00     0.029 A 
ATOM     52  N   UNL A   1      41.765  29.166  32.541  1.00  0.00    -0.354 N 
ATOM     53  N   UNL A   1      41.285  30.913  34.866  1.00  0.00    -0.248 NA
ATOM     54  C   UNL A   1      41.828  31.596  37.035  1.00  0.00     0.031 C 
ATOM     55  C   UNL A   1      43.464  27.741  32.631  1.00  0.00     0.029 A 
ATOM     56  C   UNL A   1      42.797  28.719  33.352  1.00  0.00     0.049 A 
ATOM     57  H   UNL A   1      41.110  29.858  32.791  1.00  0.00     0.167 HD
ATOM     58  C   UNL A   1      42.390  30.190  35.311  1.00  0.00     0.074 A 
ATOM     59  C   UNL A   1      42.701  30.682  36.636  1.00  0.00     0.031 C 
ATOM     60  C   UNL A   1      43.089  29.212  34.678  1.00  0.00     0.034 A 
BRANCH  47  61
ATOM     61  C   UNL A   1      40.923  27.791  29.039  1.00  0.00     0.023 A 
ATOM     62  C   UNL A   1      41.910  27.978  28.055  1.00  0.00     0.031 A 
ATOM     63  C   UNL A   1      39.993  26.753  28.847  1.00  0.00     0.131 A 
ATOM     64  C   UNL A   1      41.900  27.192  26.893  1.00  0.00     0.055 A 
ATOM     65  C   UNL A   1      40.043  25.917  27.729  1.00  0.00     0.041 A 
ATOM     66  F   UNL A   1      39.013  26.539  29.738  1.00  0.00    -0.206 F 
ATOM     67  C   UNL A   1      40.990  26.144  26.736  1.00  0.00     0.022 A 
BRANCH  64  68
ATOM     68  S   UNL A   1      42.997  27.654  25.524  1.00  0.00     0.124 S 
ATOM     69  O   UNL A   1      43.417  26.345  25.030  1.00  0.00    -0.237 OA
ATOM     70  O   UNL A   1      42.109  28.412  24.651  1.00  0.00    -0.237 OA
ATOM     71  O   UNL A   1      44.048  28.432  26.175  1.00  0.00    -0.744 OA
ENDBRANCH  64  68
ENDBRANCH  47  61
BRANCH  48  72
ATOM     72  C   UNL A   1      39.671  33.583  37.139  1.00  0.00     0.023 A 
ATOM     73  C   UNL A   1      39.116  33.010  38.294  1.00  0.00     0.031 A 
ATOM     74  C   UNL A   1      39.972  34.957  37.167  1.00  0.00     0.131 A 
ATOM     75  C   UNL A   1      38.828  33.816  39.407  1.00  0.00     0.055 A 
ATOM     76  C   UNL A   1      39.743  35.742  38.299  1.00  0.00     0.041 A 
ATOM     77  F   UNL A   1      40.504  35.557  36.091  1.00  0.00    -0.206 F 
ATOM     78  C   UNL A   1      39.153  35.173  39.423  1.00  0.00     0.022 A 
BRANCH  75  79
ATOM     79  S   UNL A   1      37.926  33.081  40.800  1.00  0.00     0.124 S 
ATOM     80  O   UNL A   1      38.324  33.949  41.902  1.00  0.00    -0.237 OA
ATOM     81  O   UNL A   1      36.540  33.199  40.359  1.00  0.00    -0.237 OA
ATOM     82  O   UNL A   1      38.445  31.716  40.859  1.00  0.00    -0.744 OA
ENDBRANCH  75  79
ENDBRANCH  48  72
BRANCH  60  83
ATOM     83  C   UNL A   1      44.289  28.648  35.400  1.00  0.00     0.023 A 
ATOM     84  C   UNL A   1      44.166  27.641  36.373  1.00  0.00     0.031 A 
ATOM     85  C   UNL A   1      45.577  29.136  35.113  1.00  0.00     0.131 A 
ATOM     86  C   UNL A   1      45.303  27.195  37.065  1.00  0.00     0.055 A 
ATOM     87  C   UNL A   1      46.712  28.640  35.755  1.00  0.00     0.041 A 
ATOM     88  F   UNL A   1      45.755  30.100  34.195  1.00  0.00    -0.206 F 
ATOM     89  C   UNL A   1      46.577  27.674  36.748  1.00  0.00     0.022 A 
BRANCH  86  90
ATOM     90  S   UNL A   1      45.084  26.055  38.458  1.00  0.00     0.124 S 
ATOM     91  O   UNL A   1      45.078  24.758  37.790  1.00  0.00    -0.237 OA
ATOM     92  O   UNL A   1      46.253  26.342  39.284  1.00  0.00    -0.237 OA
ATOM     93  O   UNL A   1      43.804  26.461  39.035  1.00  0.00    -0.744 OA
ENDBRANCH  86  90
ENDBRANCH  60  83
ENDBRANCH  34  35
ENDBRANCH  26  29
ENDBRANCH  24  25
ENDBRANCH   1  24
TORSDOF 16
ENDMDL
MODEL 2
REMARK VINA RESULT:     -12.2      6.196     11.623
REMARK SMILES COc1cccc(C(=O)N[C@H]2C=C[C@@H](C(=O)NCCCNC(=O)c3ccc(-c4c5nc(c(-c6cc(S(=O)(=O)[O-])ccc6F)c6ccc([nH]6)c(-c6cc(S(=O)(=O)[O-])ccc6F)c6nc(c(-c7cc(S(=O)(=O)[O-])ccc7F)c7ccc4[nH]7)C=C6)C=C5)cc3)C2)c1
REMARK SMILES IDX 19 1 18 2 17 3 15 4 16 5 14 7 11 8 12 9 87 10 13 11 10 12
REMARK SMILES IDX 8 13 9 14 7 16 3 17 4 18 88 19 5 20 6 21 2 22 1 23 20 24
REMARK SMILES IDX 21 25 22 26 23 28 24 29 25 30 86 31 26 32 85 33 27 34 28 35
REMARK SMILES IDX 29 36 79 37 30 38 84 39 78 40 80 41 31 42 83 43 77 44 76 45
REMARK SMILES IDX 32 47 64 48 44 49 63 50 45 51 48 52 62 53 81 54 46 55 47 56
REMARK SMILES IDX 61 58 82 59 49 60 33 61 34 62 42 63 35 64 41 65 43 66 40 67
REMARK SMILES IDX 36 68 37 69 38 70 39 71 65 72 66 73 74 74 67 75 73 76 75 77
REMARK SMILES IDX 72 78 68 79 69 80 70 81 71 82 50 83 51 84 59 85 52 86 58 87
REMARK SMILES IDX 60 88 57 89 53 90 54 91 55 92 56 93
REMARK H PARENT 17 6 10 15 21 27 80 46 48 57
REMARK Flexibility Score: inf
ROOT
ATOM      1  C   UNL A   1      37.832  19.467  25.010  1.00  0.00     0.042 C 
ENDROOT
BRANCH   1   2
ATOM      2  C   UNL A   1      36.746  20.459  24.630  1.00  0.00     0.117 C 
BRANCH   2   3
ATOM      3  N   UNL A   1      35.430  20.054  25.096  1.00  0.00    -0.356 N 
ATOM      4  C   UNL A   1      34.263  20.754  25.169  1.00  0.00     0.227 C 
ATOM      5  O   UNL A   1      33.260  20.161  25.575  1.00  0.00    -0.274 OA
ATOM      6  H   UNL A   1      35.372  19.123  25.409  1.00  0.00     0.163 HD
BRANCH   4   7
ATOM      7  C   UNL A   1      34.179  22.233  24.792  1.00  0.00     0.103 C 
ATOM      8  C   UNL A   1      32.641  24.104  25.170  1.00  0.00     0.106 C 
ATOM      9  C   UNL A   1      33.824  24.165  26.082  1.00  0.00    -0.006 C 
ATOM     10  C   UNL A   1      32.745  22.702  24.547  1.00  0.00     0.047 C 
ATOM     11  C   UNL A   1      34.691  23.173  25.841  1.00  0.00    -0.016 C 
BRANCH   8  12
ATOM     12  N   UNL A   1      31.410  24.277  25.902  1.00  0.00    -0.346 N 
ATOM     13  C   UNL A   1      30.506  25.313  25.959  1.00  0.00     0.251 C 
ATOM     14  O   UNL A   1      29.507  25.122  26.657  1.00  0.00    -0.269 OA
ATOM     15  H   UNL A   1      31.172  23.508  26.469  1.00  0.00     0.164 HD
BRANCH  13  16
ATOM     16  C   UNL A   1      30.651  26.632  25.255  1.00  0.00     0.043 A 
ATOM     17  C   UNL A   1      30.301  28.184  23.395  1.00  0.00     0.119 A 
ATOM     18  C   UNL A   1      31.049  29.155  24.048  1.00  0.00     0.046 A 
ATOM     19  C   UNL A   1      30.128  26.936  23.997  1.00  0.00     0.060 A 
ATOM     20  C   UNL A   1      31.575  28.891  25.311  1.00  0.00     0.005 A 
ATOM     21  C   UNL A   1      31.369  27.644  25.913  1.00  0.00     0.014 A 
BRANCH  17  22
ATOM     22  O   UNL A   1      29.807  28.519  22.161  1.00  0.00    -0.497 OA
ATOM     23  C   UNL A   1      29.406  29.879  22.000  1.00  0.00     0.278 C 
ENDBRANCH  17  22
ENDBRANCH  13  16
ENDBRANCH   8  12
ENDBRANCH   4   7
ENDBRANCH   2   3
ENDBRANCH   1   2
BRANCH   1  24
ATOM     24  C   UNL A   1      38.865  20.043  25.964  1.00  0.00     0.118 C 
BRANCH  24  25
ATOM     25  N   UNL A   1      40.073  19.229  26.019  1.00  0.00    -0.352 N 
ATOM     26  C   UNL A   1      41.387  19.612  26.110  1.00  0.00     0.251 C 
ATOM     27  H   UNL A   1      39.924  18.257  25.985  1.00  0.00     0.163 HD
ATOM     28  O   UNL A   1      42.271  18.784  25.884  1.00  0.00    -0.269 OA
BRANCH  26  29
ATOM     29  C   UNL A   1      41.735  21.004  26.461  1.00  0.00     0.039 A 
ATOM     30  C   UNL A   1      42.174  21.291  27.755  1.00  0.00     0.014 A 
ATOM     31  C   UNL A   1      41.615  22.028  25.519  1.00  0.00     0.014 A 
ATOM     32  C   UNL A   1      42.554  22.594  28.081  1.00  0.00     0.010 A 
ATOM     33  C   UNL A   1      42.085  23.302  25.815  1.00  0.00     0.010 A 
ATOM     34  C   UNL A   1      42.549  23.603  27.103  1.00  0.00    -0.014 A 
BRANCH  34  35
ATOM     35  C   UNL A   1      43.013  24.981  27.410  1.00  0.00     0.031 A 
ATOM     36  C   UNL A   1      42.075  25.959  28.066  1.00  0.00     0.074 A 
ATOM     37  C   UNL A   1      44.249  25.365  27.038  1.00  0.00     0.049 A 
ATOM     38  N   UNL A   1      42.261  27.224  28.342  1.00  0.00    -0.248 NA
ATOM     39  C   UNL A   1      40.742  25.456  28.431  1.00  0.00     0.031 C 
ATOM     40  C   UNL A   1      45.229  24.517  26.355  1.00  0.00     0.029 A 
ATOM     41  N   UNL A   1      44.894  26.569  27.172  1.00  0.00    -0.354 N 
ATOM     42  C   UNL A   1      41.065  27.671  28.896  1.00  0.00     0.074 A 
ATOM     43  C   UNL A   1      40.143  26.557  28.856  1.00  0.00     0.031 C 
ATOM     44  C   UNL A   1      46.357  25.217  26.158  1.00  0.00     0.029 A 
ATOM     45  C   UNL A   1      46.165  26.578  26.646  1.00  0.00     0.049 A 
ATOM     46  H   UNL A   1      44.485  27.354  27.605  1.00  0.00     0.167 HD
ATOM     47  C   UNL A   1      40.774  28.890  29.412  1.00  0.00     0.034 A 
ATOM     48  C   UNL A   1      47.069  27.574  26.553  1.00  0.00     0.034 A 
ATOM     49  C   UNL A   1      41.714  29.983  29.454  1.00  0.00     0.049 A 
ATOM     50  C   UNL A   1      46.711  28.930  27.110  1.00  0.00     0.074 A 
ATOM     51  C   UNL A   1      41.547  31.241  30.009  1.00  0.00     0.029 A 
ATOM     52  N   UNL A   1      42.993  29.956  28.913  1.00  0.00    -0.354 N 
ATOM     53  N   UNL A   1      45.596  29.319  27.685  1.00  0.00    -0.248 NA
ATOM     54  C   UNL A   1      47.737  29.976  27.016  1.00  0.00     0.031 C 
ATOM     55  C   UNL A   1      42.690  31.996  29.732  1.00  0.00     0.029 A 
ATOM     56  C   UNL A   1      43.610  31.186  29.086  1.00  0.00     0.049 A 
ATOM     57  H   UNL A   1      43.402  29.177  28.470  1.00  0.00     0.167 HD
ATOM     58  C   UNL A   1      45.802  30.647  28.050  1.00  0.00     0.074 A 
ATOM     59  C   UNL A   1      47.151  30.983  27.646  1.00  0.00     0.031 C 
ATOM     60  C   UNL A   1      44.955  31.510  28.669  1.00  0.00     0.034 A 
BRANCH  47  61
ATOM     61  C   UNL A   1      39.375  29.110  29.941  1.00  0.00     0.023 A 
ATOM     62  C   UNL A   1      38.399  29.797  29.197  1.00  0.00     0.031 A 
ATOM     63  C   UNL A   1      39.017  28.642  31.218  1.00  0.00     0.131 A 
ATOM     64  C   UNL A   1      37.142  30.061  29.763  1.00  0.00     0.055 A 
ATOM     65  C   UNL A   1      37.736  28.831  31.740  1.00  0.00     0.041 A 
ATOM     66  F   UNL A   1      39.911  28.000  31.987  1.00  0.00    -0.206 F 
ATOM     67  C   UNL A   1      36.795  29.558  31.019  1.00  0.00     0.022 A 
BRANCH  64  68
ATOM     68  S   UNL A   1      36.023  31.195  28.897  1.00  0.00     0.124 S 
ATOM     69  O   UNL A   1      36.957  32.192  28.379  1.00  0.00    -0.237 OA
ATOM     70  O   UNL A   1      35.399  30.327  27.906  1.00  0.00    -0.237 OA
ATOM     71  O   UNL A   1      35.136  31.675  29.954  1.00  0.00    -0.744 OA
ENDBRANCH  64  68
ENDBRANCH  47  61
BRANCH  48  72
ATOM     72  C   UNL A   1      48.389  27.343  25.897  1.00  0.00     0.023 A 
ATOM     73  C   UNL A   1      48.551  27.516  24.514  1.00  0.00     0.031 A 
ATOM     74  C   UNL A   1      49.498  26.896  26.638  1.00  0.00     0.131 A 
ATOM     75  C   UNL A   1      49.774  27.194  23.906  1.00  0.00     0.055 A 
ATOM     76  C   UNL A   1      50.732  26.637  26.038  1.00  0.00     0.041 A 
ATOM     77  F   UNL A   1      49.400  26.713  27.964  1.00  0.00    -0.206 F 
ATOM     78  C   UNL A   1      50.870  26.772  24.660  1.00  0.00     0.022 A 
BRANCH  75  79
ATOM     79  S   UNL A   1      49.881  27.237  22.095  1.00  0.00     0.124 S 
ATOM     80  O   UNL A   1      48.803  26.333  21.713  1.00  0.00    -0.237 OA
ATOM     81  O   UNL A   1      49.663  28.652  21.811  1.00  0.00    -0.237 OA
ATOM     82  O   UNL A   1      51.232  26.750  21.823  1.00  0.00    -0.744 OA
ENDBRANCH  75  79
ENDBRANCH  48  72
BRANCH  60  83
ATOM     83  C   UNL A   1      45.487  32.886  28.987  1.00  0.00     0.023 A 
ATOM     84  C   UNL A   1      45.409  33.946  28.067  1.00  0.00     0.031 A 
ATOM     85  C   UNL A   1      46.092  33.136  30.234  1.00  0.00     0.131 A 
ATOM     86  C   UNL A   1      45.978  35.190  28.384  1.00  0.00     0.055 A 
ATOM     87  C   UNL A   1      46.594  34.394  30.569  1.00  0.00     0.041 A 
ATOM     88  F   UNL A   1      46.198  32.160  31.150  1.00  0.00    -0.206 F 
ATOM     89  C   UNL A   1      46.552  35.426  29.636  1.00  0.00     0.022 A 
BRANCH  86  90
ATOM     90  S   UNL A   1      46.050  36.467  27.099  1.00  0.00     0.124 S 
ATOM     91  O   UNL A   1      46.328  35.678  25.903  1.00  0.00    -0.237 OA
ATOM     92  O   UNL A   1      44.719  37.062  27.174  1.00  0.00    -0.237 OA
ATOM     93  O   UNL A   1      47.142  37.334  27.537  1.00  0.00    -0.744 OA
ENDBRANCH  86  90
ENDBRANCH  60  83
ENDBRANCH  34  35
ENDBRANCH  26  29
ENDBRANCH  24  25
ENDBRANCH   1  24
TORSDOF 16
ENDMDL
MODEL 3
REMARK VINA RESULT:     -12.2      5.651     11.901
REMARK SMILES COc1cccc(C(=O)N[C@H]2C=C[C@@H](C(=O)NCCCNC(=O)c3ccc(-c4c5nc(c(-c6cc(S(=O)(=O)[O-])ccc6F)c6ccc([nH]6)c(-c6cc(S(=O)(=O)[O-])ccc6F)c6nc(c(-c7cc(S(=O)(=O)[O-])ccc7F)c7ccc4[nH]7)C=C6)C=C5)cc3)C2)c1
REMARK SMILES IDX 19 1 18 2 17 3 15 4 16 5 14 7 11 8 12 9 87 10 13 11 10 12
REMARK SMILES IDX 8 13 9 14 7 16 3 17 4 18 88 19 5 20 6 21 2 22 1 23 20 24
REMARK SMILES IDX 21 25 22 26 23 28 24 29 25 30 86 31 26 32 85 33 27 34 28 35
REMARK SMILES IDX 29 36 79 37 30 38 84 39 78 40 80 41 31 42 83 43 77 44 76 45
REMARK SMILES IDX 32 47 64 48 44 49 63 50 45 51 48 52 62 53 81 54 46 55 47 56
REMARK SMILES IDX 61 58 82 59 49 60 33 61 34 62 42 63 35 64 41 65 43 66 40 67
REMARK SMILES IDX 36 68 37 69 38 70 39 71 65 72 66 73 74 74 67 75 73 76 75 77
REMARK SMILES IDX 72 78 68 79 69 80 70 81 71 82 50 83 51 84 59 85 52 86 58 87
REMARK SMILES IDX 60 88 57 89 53 90 54 91 55 92 56 93
REMARK H PARENT 17 6 10 15 21 27 80 46 48 57
REMARK Flexibility Score: inf
ROOT
ATOM      1  C   UNL A   1      38.285  19.653  24.989  1.00  0.00     0.042 C 
ENDROOT
BRANCH   1   2
ATOM      2  C   UNL A   1      37.183  20.671  24.747  1.00  0.00     0.117 C 
BRANCH   2   3
ATOM      3  N   UNL A   1      35.862  20.148  25.051  1.00  0.00    -0.356 N 
ATOM      4  C   UNL A   1      34.644  20.757  25.030  1.00  0.00     0.227 C 
ATOM      5  O   UNL A   1      33.652  20.073  25.301  1.00  0.00    -0.274 OA
ATOM      6  H   UNL A   1      35.844  19.200  25.315  1.00  0.00     0.163 HD
BRANCH   4   7
ATOM      7  C   UNL A   1      34.484  22.244  24.712  1.00  0.00     0.103 C 
ATOM      8  C   UNL A   1      32.862  24.022  25.176  1.00  0.00     0.106 C 
ATOM      9  C   UNL A   1      34.050  24.105  26.079  1.00  0.00    -0.006 C 
ATOM     10  C   UNL A   1      33.027  22.653  24.497  1.00  0.00     0.047 C 
ATOM     11  C   UNL A   1      34.960  23.166  25.792  1.00  0.00    -0.016 C 
BRANCH   8  12
ATOM     12  N   UNL A   1      31.631  24.107  25.923  1.00  0.00    -0.346 N 
ATOM     13  C   UNL A   1      30.656  25.076  25.993  1.00  0.00     0.251 C 
ATOM     14  O   UNL A   1      29.683  24.814  26.704  1.00  0.00    -0.269 OA
ATOM     15  H   UNL A   1      31.456  23.323  26.492  1.00  0.00     0.164 HD
BRANCH  13  16
ATOM     16  C   UNL A   1      30.697  26.402  25.289  1.00  0.00     0.043 A 
ATOM     17  C   UNL A   1      31.441  28.716  24.996  1.00  0.00     0.119 A 
ATOM     18  C   UNL A   1      30.633  28.847  23.874  1.00  0.00     0.046 A 
ATOM     19  C   UNL A   1      31.448  27.507  25.696  1.00  0.00     0.060 A 
ATOM     20  C   UNL A   1      29.880  27.761  23.432  1.00  0.00     0.005 A 
ATOM     21  C   UNL A   1      29.920  26.546  24.128  1.00  0.00     0.014 A 
BRANCH  17  22
ATOM     22  O   UNL A   1      32.160  29.822  25.366  1.00  0.00    -0.497 OA
ATOM     23  C   UNL A   1      33.276  29.581  26.222  1.00  0.00     0.278 C 
ENDBRANCH  17  22
ENDBRANCH  13  16
ENDBRANCH   8  12
ENDBRANCH   4   7
ENDBRANCH   2   3
ENDBRANCH   1   2
BRANCH   1  24
ATOM     24  C   UNL A   1      39.244  20.057  26.096  1.00  0.00     0.118 C 
BRANCH  24  25
ATOM     25  N   UNL A   1      40.442  19.228  26.113  1.00  0.00    -0.352 N 
ATOM     26  C   UNL A   1      41.764  19.593  26.125  1.00  0.00     0.251 C 
ATOM     27  H   UNL A   1      40.278  18.257  26.118  1.00  0.00     0.163 HD
ATOM     28  O   UNL A   1      42.623  18.746  25.879  1.00  0.00    -0.269 OA
BRANCH  26  29
ATOM     29  C   UNL A   1      42.148  20.989  26.415  1.00  0.00     0.039 A 
ATOM     30  C   UNL A   1      42.399  21.367  27.735  1.00  0.00     0.014 A 
ATOM     31  C   UNL A   1      42.249  21.930  25.387  1.00  0.00     0.014 A 
ATOM     32  C   UNL A   1      42.813  22.671  28.013  1.00  0.00     0.010 A 
ATOM     33  C   UNL A   1      42.754  23.197  25.652  1.00  0.00     0.010 A 
ATOM     34  C   UNL A   1      43.031  23.586  26.970  1.00  0.00    -0.014 A 
BRANCH  34  35
ATOM     35  C   UNL A   1      43.536  24.958  27.235  1.00  0.00     0.031 A 
ATOM     36  C   UNL A   1      42.604  26.008  27.779  1.00  0.00     0.074 A 
ATOM     37  C   UNL A   1      44.809  25.270  26.926  1.00  0.00     0.049 A 
ATOM     38  N   UNL A   1      42.828  27.278  28.002  1.00  0.00    -0.248 NA
ATOM     39  C   UNL A   1      41.229  25.581  28.081  1.00  0.00     0.031 C 
ATOM     40  C   UNL A   1      45.791  24.346  26.353  1.00  0.00     0.029 A 
ATOM     41  N   UNL A   1      45.498  26.452  27.041  1.00  0.00    -0.354 N 
ATOM     42  C   UNL A   1      41.621  27.802  28.452  1.00  0.00     0.074 A 
ATOM     43  C   UNL A   1      40.654  26.727  28.409  1.00  0.00     0.031 C 
ATOM     44  C   UNL A   1      46.959  24.988  26.194  1.00  0.00     0.029 A 
ATOM     45  C   UNL A   1      46.799  26.380  26.599  1.00  0.00     0.049 A 
ATOM     46  H   UNL A   1      45.097  27.275  27.406  1.00  0.00     0.167 HD
ATOM     47  C   UNL A   1      41.352  29.059  28.885  1.00  0.00     0.034 A 
ATOM     48  C   UNL A   1      47.750  27.331  26.516  1.00  0.00     0.034 A 
ATOM     49  C   UNL A   1      42.336  30.112  28.934  1.00  0.00     0.049 A 
ATOM     50  C   UNL A   1      47.419  28.728  26.979  1.00  0.00     0.074 A 
ATOM     51  C   UNL A   1      42.191  31.404  29.412  1.00  0.00     0.029 A 
ATOM     52  N   UNL A   1      43.644  30.003  28.480  1.00  0.00    -0.354 N 
ATOM     53  N   UNL A   1      46.289  29.194  27.459  1.00  0.00    -0.248 NA
ATOM     54  C   UNL A   1      48.495  29.725  26.898  1.00  0.00     0.031 C 
ATOM     55  C   UNL A   1      43.382  32.095  29.173  1.00  0.00     0.029 A 
ATOM     56  C   UNL A   1      44.304  31.214  28.630  1.00  0.00     0.049 A 
ATOM     57  H   UNL A   1      44.045  29.186  28.105  1.00  0.00     0.167 HD
ATOM     58  C   UNL A   1      46.531  30.530  27.769  1.00  0.00     0.074 A 
ATOM     59  C   UNL A   1      47.916  30.788  27.437  1.00  0.00     0.031 C 
ATOM     60  C   UNL A   1      45.685  31.459  28.286  1.00  0.00     0.034 A 
BRANCH  47  61
ATOM     61  C   UNL A   1      39.935  29.364  29.310  1.00  0.00     0.023 A 
ATOM     62  C   UNL A   1      39.581  29.516  30.663  1.00  0.00     0.031 A 
ATOM     63  C   UNL A   1      38.915  29.487  28.348  1.00  0.00     0.131 A 
ATOM     64  C   UNL A   1      38.237  29.706  31.020  1.00  0.00     0.055 A 
ATOM     65  C   UNL A   1      37.594  29.764  28.705  1.00  0.00     0.041 A 
ATOM     66  F   UNL A   1      39.185  29.329  27.043  1.00  0.00    -0.206 F 
ATOM     67  C   UNL A   1      37.246  29.860  30.049  1.00  0.00     0.022 A 
BRANCH  64  68
ATOM     68  S   UNL A   1      37.783  29.603  32.773  1.00  0.00     0.124 S 
ATOM     69  O   UNL A   1      39.033  29.988  33.424  1.00  0.00    -0.237 OA
ATOM     70  O   UNL A   1      36.689  30.562  32.872  1.00  0.00    -0.237 OA
ATOM     71  O   UNL A   1      37.405  28.203  32.947  1.00  0.00    -0.744 OA
ENDBRANCH  64  68
ENDBRANCH  47  61
BRANCH  48  72
ATOM     72  C   UNL A   1      49.097  27.010  25.960  1.00  0.00     0.023 A 
ATOM     73  C   UNL A   1      49.462  27.414  24.666  1.00  0.00     0.031 A 
ATOM     74  C   UNL A   1      50.024  26.252  26.698  1.00  0.00     0.131 A 
ATOM     75  C   UNL A   1      50.695  27.012  24.129  1.00  0.00     0.055 A 
ATOM     76  C   UNL A   1      51.276  25.908  26.183  1.00  0.00     0.041 A 
ATOM     77  F   UNL A   1      49.728  25.839  27.941  1.00  0.00    -0.206 F 
ATOM     78  C   UNL A   1      51.610  26.276  24.884  1.00  0.00     0.022 A 
BRANCH  75  79
ATOM     79  S   UNL A   1      51.043  27.379  22.386  1.00  0.00     0.124 S 
ATOM     80  O   UNL A   1      52.347  26.752  22.206  1.00  0.00    -0.237 OA
ATOM     81  O   UNL A   1      49.922  26.734  21.711  1.00  0.00    -0.237 OA
ATOM     82  O   UNL A   1      51.039  28.840  22.339  1.00  0.00    -0.744 OA
ENDBRANCH  75  79
ENDBRANCH  48  72
BRANCH  60  83
ATOM     83  C   UNL A   1      46.258  32.827  28.569  1.00  0.00     0.023 A 
ATOM     84  C   UNL A   1      46.233  33.857  27.612  1.00  0.00     0.031 A 
ATOM     85  C   UNL A   1      46.847  33.099  29.817  1.00  0.00     0.131 A 
ATOM     86  C   UNL A   1      46.837  35.091  27.898  1.00  0.00     0.055 A 
ATOM     87  C   UNL A   1      47.384  34.351  30.120  1.00  0.00     0.041 A 
ATOM     88  F   UNL A   1      46.903  32.153  30.769  1.00  0.00    -0.206 F 
ATOM     89  C   UNL A   1      47.395  35.351  29.152  1.00  0.00     0.022 A 
BRANCH  86  90
ATOM     90  S   UNL A   1      46.977  36.320  26.572  1.00  0.00     0.124 S 
ATOM     91  O   UNL A   1      45.676  36.979  26.629  1.00  0.00    -0.237 OA
ATOM     92  O   UNL A   1      48.117  37.121  27.007  1.00  0.00    -0.237 OA
ATOM     93  O   UNL A   1      47.210  35.511  25.377  1.00  0.00    -0.744 OA
ENDBRANCH  86  90
ENDBRANCH  60  83
ENDBRANCH  34  35
ENDBRANCH  26  29
ENDBRANCH  24  25
ENDBRANCH   1  24
TORSDOF 16
ENDMDL
