MODEL 1
REMARK VINA RESULT:     -11.8      0.000      0.000
REMARK SMILES O=C(NCCCNC(=O)[C@H]1CC[C@@H](CNC(=O)[C@H]2CCSC2)CC1)c1ccc(-c2c3nc(c(-c4cc(S(=O)(=O)[O-])ccc4F)c4ccc([nH]4)c(-c4cc(S(=O)(=O)[O-])ccc4F)c4nc(c(-c5cc(S(=O)(=O)[O-])ccc5F)c5ccc2[nH]5)C=C4)C=C3)cc1
REMARK SMILES IDX 5 1 4 2 3 3 1 4 2 5 25 7 26 8 87 9 27 10 86 11 28 12 29 13
REMARK SMILES IDX 30 14 80 15 31 16 85 17 79 18 81 19 32 20 84 21 78 22 77 23
REMARK SMILES IDX 33 25 65 26 45 27 64 28 46 29 49 30 63 31 82 32 47 33 48 34
REMARK SMILES IDX 62 36 83 37 50 38 34 39 35 40 43 41 36 42 42 43 44 44 41 45
REMARK SMILES IDX 37 46 38 47 39 48 40 49 66 50 67 51 75 52 68 53 74 54 76 55
REMARK SMILES IDX 73 56 69 57 70 58 71 59 72 60 51 61 52 62 60 63 53 64 59 65
REMARK SMILES IDX 61 66 58 67 54 68 55 69 56 70 57 71 6 72 7 73 8 74 9 76
REMARK SMILES IDX 10 77 24 78 11 79 23 80 12 81 13 82 14 83 15 84 16 85 17 87
REMARK SMILES IDX 18 88 19 89 22 90 20 91 21 92
REMARK H PARENT 3 6 81 24 49 35 7 75 15 86
REMARK Flexibility Score: inf
ROOT
ATOM      1  C   UNL A   1      31.620  32.159  26.745  1.00  0.00     0.042 C 
ENDROOT
BRANCH   1   2
ATOM      2  C   UNL A   1      32.926  32.778  27.224  1.00  0.00     0.118 C 
BRANCH   2   3
ATOM      3  N   UNL A   1      32.736  34.139  27.724  1.00  0.00    -0.352 N 
ATOM      4  O   UNL A   1      32.708  35.807  29.232  1.00  0.00    -0.269 OA
ATOM      5  C   UNL A   1      33.194  34.742  28.871  1.00  0.00     0.251 C 
ATOM      6  H   UNL A   1      32.191  34.720  27.143  1.00  0.00     0.163 HD
BRANCH   5   7
ATOM      7  C   UNL A   1      34.266  34.103  29.664  1.00  0.00     0.039 A 
ATOM      8  C   UNL A   1      35.603  34.359  29.367  1.00  0.00     0.014 A 
ATOM      9  C   UNL A   1      33.938  33.255  30.726  1.00  0.00     0.014 A 
ATOM     10  C   UNL A   1      36.600  33.621  29.984  1.00  0.00     0.010 A 
ATOM     11  C   UNL A   1      34.955  32.609  31.437  1.00  0.00     0.010 A 
ATOM     12  C   UNL A   1      36.294  32.752  31.042  1.00  0.00    -0.014 A 
BRANCH  12  13
ATOM     13  C   UNL A   1      37.409  32.043  31.723  1.00  0.00     0.031 A 
ATOM     14  C   UNL A   1      38.217  30.996  31.005  1.00  0.00     0.074 A 
ATOM     15  C   UNL A   1      37.732  32.408  32.981  1.00  0.00     0.049 A 
ATOM     16  N   UNL A   1      39.254  30.319  31.431  1.00  0.00    -0.248 NA
ATOM     17  C   UNL A   1      37.799  30.652  29.638  1.00  0.00     0.031 C 
ATOM     18  C   UNL A   1      37.014  33.412  33.774  1.00  0.00     0.029 A 
ATOM     19  N   UNL A   1      38.758  32.015  33.800  1.00  0.00    -0.354 N 
ATOM     20  C   UNL A   1      39.596  29.452  30.398  1.00  0.00     0.074 A 
ATOM     21  C   UNL A   1      38.633  29.667  29.339  1.00  0.00     0.031 C 
ATOM     22  C   UNL A   1      37.666  33.612  34.928  1.00  0.00     0.029 A 
ATOM     23  C   UNL A   1      38.795  32.692  34.998  1.00  0.00     0.049 A 
ATOM     24  H   UNL A   1      39.406  31.316  33.556  1.00  0.00     0.167 HD
ATOM     25  C   UNL A   1      40.623  28.567  30.340  1.00  0.00     0.034 A 
ATOM     26  C   UNL A   1      39.633  32.578  36.046  1.00  0.00     0.034 A 
ATOM     27  C   UNL A   1      41.581  28.381  31.407  1.00  0.00     0.049 A 
ATOM     28  C   UNL A   1      40.749  31.574  35.962  1.00  0.00     0.074 A 
ATOM     29  C   UNL A   1      42.675  27.532  31.446  1.00  0.00     0.029 A 
ATOM     30  N   UNL A   1      41.559  29.050  32.625  1.00  0.00    -0.354 N 
ATOM     31  N   UNL A   1      41.063  30.767  34.975  1.00  0.00    -0.248 NA
ATOM     32  C   UNL A   1      41.626  31.468  37.133  1.00  0.00     0.031 C 
ATOM     33  C   UNL A   1      43.270  27.637  32.709  1.00  0.00     0.029 A 
ATOM     34  C   UNL A   1      42.601  28.612  33.431  1.00  0.00     0.049 A 
ATOM     35  H   UNL A   1      40.900  29.735  32.880  1.00  0.00     0.167 HD
ATOM     36  C   UNL A   1      42.193  30.076  35.397  1.00  0.00     0.074 A 
ATOM     37  C   UNL A   1      42.515  30.579  36.719  1.00  0.00     0.031 C 
ATOM     38  C   UNL A   1      42.903  29.114  34.752  1.00  0.00     0.034 A 
BRANCH  25  39
ATOM     39  C   UNL A   1      40.725  27.696  29.109  1.00  0.00     0.023 A 
ATOM     40  C   UNL A   1      41.668  27.944  28.094  1.00  0.00     0.031 A 
ATOM     41  C   UNL A   1      39.843  26.614  28.932  1.00  0.00     0.131 A 
ATOM     42  C   UNL A   1      41.655  27.174  26.920  1.00  0.00     0.055 A 
ATOM     43  C   UNL A   1      39.890  25.799  27.798  1.00  0.00     0.041 A 
ATOM     44  F   UNL A   1      38.906  26.339  29.853  1.00  0.00    -0.206 F 
ATOM     45  C   UNL A   1      40.790  26.087  26.776  1.00  0.00     0.022 A 
BRANCH  42  46
ATOM     46  S   UNL A   1      42.681  27.708  25.521  1.00  0.00     0.124 S 
ATOM     47  O   UNL A   1      43.954  27.992  26.179  1.00  0.00    -0.237 OA
ATOM     48  O   UNL A   1      42.659  26.539  24.650  1.00  0.00    -0.237 OA
ATOM     49  O   UNL A   1      41.978  28.883  25.010  1.00  0.00    -0.744 OA
ENDBRANCH  42  46
ENDBRANCH  25  39
BRANCH  26  50
ATOM     50  C   UNL A   1      39.434  33.414  37.263  1.00  0.00     0.023 A 
ATOM     51  C   UNL A   1      40.129  34.621  37.435  1.00  0.00     0.031 A 
ATOM     52  C   UNL A   1      38.564  33.003  38.289  1.00  0.00     0.131 A 
ATOM     53  C   UNL A   1      39.976  35.352  38.623  1.00  0.00     0.055 A 
ATOM     54  C   UNL A   1      38.369  33.763  39.443  1.00  0.00     0.041 A 
ATOM     55  F   UNL A   1      37.872  31.858  38.174  1.00  0.00    -0.206 F 
ATOM     56  C   UNL A   1      39.089  34.939  39.621  1.00  0.00     0.022 A 
BRANCH  53  57
ATOM     57  S   UNL A   1      41.018  36.813  38.884  1.00  0.00     0.124 S 
ATOM     58  O   UNL A   1      40.021  37.870  39.013  1.00  0.00    -0.237 OA
ATOM     59  O   UNL A   1      41.738  36.458  40.102  1.00  0.00    -0.237 OA
ATOM     60  O   UNL A   1      41.834  36.869  37.673  1.00  0.00    -0.744 OA
ENDBRANCH  53  57
ENDBRANCH  26  50
BRANCH  38  61
ATOM     61  C   UNL A   1      44.128  28.590  35.459  1.00  0.00     0.023 A 
ATOM     62  C   UNL A   1      44.059  27.523  36.373  1.00  0.00     0.031 A 
ATOM     63  C   UNL A   1      45.378  29.196  35.245  1.00  0.00     0.131 A 
ATOM     64  C   UNL A   1      45.202  27.143  37.091  1.00  0.00     0.055 A 
ATOM     65  C   UNL A   1      46.527  28.768  35.912  1.00  0.00     0.041 A 
ATOM     66  F   UNL A   1      45.503  30.221  34.386  1.00  0.00    -0.206 F 
ATOM     67  C   UNL A   1      46.439  27.748  36.854  1.00  0.00     0.022 A 
BRANCH  64  68
ATOM     68  S   UNL A   1      45.026  25.929  38.428  1.00  0.00     0.124 S 
ATOM     69  O   UNL A   1      44.371  26.716  39.468  1.00  0.00    -0.237 OA
ATOM     70  O   UNL A   1      44.209  24.894  37.802  1.00  0.00    -0.237 OA
ATOM     71  O   UNL A   1      46.404  25.539  38.720  1.00  0.00    -0.744 OA
ENDBRANCH  64  68
ENDBRANCH  38  61
ENDBRANCH  12  13
ENDBRANCH   5   7
ENDBRANCH   2   3
ENDBRANCH   1   2
BRANCH   1  72
ATOM     72  C   UNL A   1      31.802  30.716  26.310  1.00  0.00     0.117 C 
BRANCH  72  73
ATOM     73  N   UNL A   1      33.125  30.212  26.647  1.00  0.00    -0.356 N 
ATOM     74  C   UNL A   1      33.699  28.990  26.730  1.00  0.00     0.223 C 
ATOM     75  H   UNL A   1      33.754  30.936  26.867  1.00  0.00     0.163 HD
ATOM     76  O   UNL A   1      34.869  28.996  27.137  1.00  0.00    -0.275 OA
BRANCH  74  77
ATOM     77  C   UNL A   1      33.010  27.653  26.398  1.00  0.00     0.078 C 
ATOM     78  C   UNL A   1      31.492  27.626  26.570  1.00  0.00     0.014 C 
ATOM     79  C   UNL A   1      33.464  27.271  24.962  1.00  0.00     0.014 C 
ATOM     80  C   UNL A   1      30.768  26.501  25.852  1.00  0.00     0.006 C 
ATOM     81  C   UNL A   1      32.618  26.216  24.252  1.00  0.00     0.006 C 
ATOM     82  C   UNL A   1      31.114  26.482  24.368  1.00  0.00     0.008 C 
BRANCH  82  83
ATOM     83  C   UNL A   1      30.682  27.785  23.656  1.00  0.00     0.119 C 
BRANCH  83  84
ATOM     84  N   UNL A   1      29.257  27.784  23.413  1.00  0.00    -0.356 N 
ATOM     85  C   UNL A   1      28.409  28.775  23.044  1.00  0.00     0.223 C 
ATOM     86  H   UNL A   1      28.826  26.908  23.537  1.00  0.00     0.163 HD
ATOM     87  O   UNL A   1      27.212  28.476  22.990  1.00  0.00    -0.275 OA
BRANCH  85  88
ATOM     88  C   UNL A   1      28.900  30.152  22.594  1.00  0.00     0.089 C 
ATOM     89  C   UNL A   1      27.995  30.653  21.456  1.00  0.00     0.025 C 
ATOM     90  C   UNL A   1      28.878  31.258  23.640  1.00  0.00     0.083 C 
ATOM     91  C   UNL A   1      28.397  32.076  21.136  1.00  0.00     0.070 C 
ATOM     92  S   UNL A   1      28.685  32.831  22.749  1.00  0.00    -0.161 SA
ENDBRANCH  85  88
ENDBRANCH  83  84
ENDBRANCH  82  83
ENDBRANCH  74  77
ENDBRANCH  72  73
ENDBRANCH   1  72
TORSDOF 16
ENDMDL
MODEL 2
REMARK VINA RESULT:     -11.8      4.072      9.351
REMARK SMILES O=C(NCCCNC(=O)[C@H]1CC[C@@H](CNC(=O)[C@H]2CCSC2)CC1)c1ccc(-c2c3nc(c(-c4cc(S(=O)(=O)[O-])ccc4F)c4ccc([nH]4)c(-c4cc(S(=O)(=O)[O-])ccc4F)c4nc(c(-c5cc(S(=O)(=O)[O-])ccc5F)c5ccc2[nH]5)C=C4)C=C3)cc1
REMARK SMILES IDX 5 1 4 2 3 3 1 4 2 5 25 7 26 8 87 9 27 10 86 11 28 12 29 13
REMARK SMILES IDX 30 14 80 15 31 16 85 17 79 18 81 19 32 20 84 21 78 22 77 23
REMARK SMILES IDX 33 25 65 26 45 27 64 28 46 29 49 30 63 31 82 32 47 33 48 34
REMARK SMILES IDX 62 36 83 37 50 38 34 39 35 40 43 41 36 42 42 43 44 44 41 45
REMARK SMILES IDX 37 46 38 47 39 48 40 49 66 50 67 51 75 52 68 53 74 54 76 55
REMARK SMILES IDX 73 56 69 57 70 58 71 59 72 60 51 61 52 62 60 63 53 64 59 65
REMARK SMILES IDX 61 66 58 67 54 68 55 69 56 70 57 71 6 72 7 73 8 74 9 76
REMARK SMILES IDX 10 77 24 78 11 79 23 80 12 81 13 82 14 83 15 84 16 85 17 87
REMARK SMILES IDX 18 88 19 89 22 90 20 91 21 92
REMARK H PARENT 3 6 81 24 49 35 7 75 15 86
REMARK Flexibility Score: inf
ROOT
ATOM      1  C   UNL A   1      31.867  28.412  27.215  1.00  0.00     0.042 C 
ENDROOT
BRANCH   1   2
ATOM      2  C   UNL A   1      32.985  29.154  26.495  1.00  0.00     0.118 C 
BRANCH   2   3
ATOM      3  N   UNL A   1      32.848  30.604  26.618  1.00  0.00    -0.352 N 
ATOM      4  O   UNL A   1      33.136  32.644  27.523  1.00  0.00    -0.269 OA
ATOM      5  C   UNL A   1      33.574  31.512  27.353  1.00  0.00     0.251 C 
ATOM      6  H   UNL A   1      32.117  30.997  26.087  1.00  0.00     0.163 HD
BRANCH   5   7
ATOM      7  C   UNL A   1      34.875  31.118  27.936  1.00  0.00     0.039 A 
ATOM      8  C   UNL A   1      35.067  29.820  28.403  1.00  0.00     0.014 A 
ATOM      9  C   UNL A   1      35.920  32.044  28.001  1.00  0.00     0.014 A 
ATOM     10  C   UNL A   1      36.214  29.505  29.113  1.00  0.00     0.010 A 
ATOM     11  C   UNL A   1      37.130  31.683  28.603  1.00  0.00     0.010 A 
ATOM     12  C   UNL A   1      37.271  30.423  29.205  1.00  0.00    -0.014 A 
BRANCH  12  13
ATOM     13  C   UNL A   1      38.512  30.008  29.911  1.00  0.00     0.031 A 
ATOM     14  C   UNL A   1      38.816  30.499  31.301  1.00  0.00     0.074 A 
ATOM     15  C   UNL A   1      39.330  29.122  29.308  1.00  0.00     0.049 A 
ATOM     16  N   UNL A   1      39.823  30.196  32.080  1.00  0.00    -0.248 NA
ATOM     17  C   UNL A   1      37.877  31.467  31.887  1.00  0.00     0.031 C 
ATOM     18  C   UNL A   1      39.133  28.580  27.959  1.00  0.00     0.029 A 
ATOM     19  N   UNL A   1      40.461  28.489  29.753  1.00  0.00    -0.354 N 
ATOM     20  C   UNL A   1      39.656  30.953  33.235  1.00  0.00     0.074 A 
ATOM     21  C   UNL A   1      38.466  31.756  33.037  1.00  0.00     0.031 C 
ATOM     22  C   UNL A   1      40.061  27.643  27.720  1.00  0.00     0.029 A 
ATOM     23  C   UNL A   1      40.970  27.577  28.857  1.00  0.00     0.049 A 
ATOM     24  H   UNL A   1      40.871  28.670  30.630  1.00  0.00     0.167 HD
ATOM     25  C   UNL A   1      40.420  30.970  34.356  1.00  0.00     0.034 A 
ATOM     26  C   UNL A   1      42.057  26.785  28.931  1.00  0.00     0.034 A 
ATOM     27  C   UNL A   1      41.596  30.148  34.535  1.00  0.00     0.049 A 
ATOM     28  C   UNL A   1      42.897  26.839  30.177  1.00  0.00     0.074 A 
ATOM     29  C   UNL A   1      42.430  30.064  35.638  1.00  0.00     0.029 A 
ATOM     30  N   UNL A   1      42.110  29.271  33.587  1.00  0.00    -0.354 N 
ATOM     31  N   UNL A   1      42.720  27.556  31.262  1.00  0.00    -0.248 NA
ATOM     32  C   UNL A   1      44.082  25.976  30.207  1.00  0.00     0.031 C 
ATOM     33  C   UNL A   1      43.482  29.193  35.330  1.00  0.00     0.029 A 
ATOM     34  C   UNL A   1      43.262  28.666  34.067  1.00  0.00     0.049 A 
ATOM     35  H   UNL A   1      41.713  29.103  32.702  1.00  0.00     0.167 HD
ATOM     36  C   UNL A   1      43.759  27.207  32.119  1.00  0.00     0.074 A 
ATOM     37  C   UNL A   1      44.542  26.201  31.428  1.00  0.00     0.031 C 
ATOM     38  C   UNL A   1      44.040  27.673  33.362  1.00  0.00     0.034 A 
BRANCH  25  39
ATOM     39  C   UNL A   1      40.040  31.945  35.447  1.00  0.00     0.023 A 
ATOM     40  C   UNL A   1      39.124  31.611  36.461  1.00  0.00     0.031 A 
ATOM     41  C   UNL A   1      40.581  33.244  35.454  1.00  0.00     0.131 A 
ATOM     42  C   UNL A   1      38.720  32.585  37.391  1.00  0.00     0.055 A 
ATOM     43  C   UNL A   1      40.238  34.182  36.432  1.00  0.00     0.041 A 
ATOM     44  F   UNL A   1      41.442  33.632  34.501  1.00  0.00    -0.206 F 
ATOM     45  C   UNL A   1      39.290  33.860  37.398  1.00  0.00     0.022 A 
BRANCH  42  46
ATOM     46  S   UNL A   1      37.329  32.207  38.492  1.00  0.00     0.124 S 
ATOM     47  O   UNL A   1      36.283  33.076  37.957  1.00  0.00    -0.237 OA
ATOM     48  O   UNL A   1      37.139  30.776  38.281  1.00  0.00    -0.237 OA
ATOM     49  O   UNL A   1      37.824  32.585  39.813  1.00  0.00    -0.744 OA
ENDBRANCH  42  46
ENDBRANCH  25  39
BRANCH  26  50
ATOM     50  C   UNL A   1      42.421  25.899  27.791  1.00  0.00     0.023 A 
ATOM     51  C   UNL A   1      41.945  24.580  27.715  1.00  0.00     0.031 A 
ATOM     52  C   UNL A   1      43.276  26.349  26.768  1.00  0.00     0.131 A 
ATOM     53  C   UNL A   1      42.361  23.746  26.667  1.00  0.00     0.055 A 
ATOM     54  C   UNL A   1      43.641  25.535  25.695  1.00  0.00     0.041 A 
ATOM     55  F   UNL A   1      43.757  27.602  26.789  1.00  0.00    -0.206 F 
ATOM     56  C   UNL A   1      43.193  24.219  25.648  1.00  0.00     0.022 A 
BRANCH  53  57
ATOM     57  S   UNL A   1      41.867  22.001  26.697  1.00  0.00     0.124 S 
ATOM     58  O   UNL A   1      42.654  21.489  27.813  1.00  0.00    -0.237 OA
ATOM     59  O   UNL A   1      40.428  22.099  26.917  1.00  0.00    -0.237 OA
ATOM     60  O   UNL A   1      42.262  21.513  25.377  1.00  0.00    -0.744 OA
ENDBRANCH  53  57
ENDBRANCH  26  50
BRANCH  38  61
ATOM     61  C   UNL A   1      45.220  27.050  34.067  1.00  0.00     0.023 A 
ATOM     62  C   UNL A   1      45.081  25.912  34.884  1.00  0.00     0.031 A 
ATOM     63  C   UNL A   1      46.496  27.628  33.952  1.00  0.00     0.131 A 
ATOM     64  C   UNL A   1      46.182  25.435  35.610  1.00  0.00     0.055 A 
ATOM     65  C   UNL A   1      47.603  27.107  34.623  1.00  0.00     0.041 A 
ATOM     66  F   UNL A   1      46.686  28.716  33.188  1.00  0.00    -0.206 F 
ATOM     67  C   UNL A   1      47.446  26.015  35.471  1.00  0.00     0.022 A 
BRANCH  64  68
ATOM     68  S   UNL A   1      45.915  24.121  36.831  1.00  0.00     0.124 S 
ATOM     69  O   UNL A   1      45.138  23.150  36.067  1.00  0.00    -0.237 OA
ATOM     70  O   UNL A   1      47.279  23.725  37.166  1.00  0.00    -0.237 OA
ATOM     71  O   UNL A   1      45.184  24.794  37.903  1.00  0.00    -0.744 OA
ENDBRANCH  64  68
ENDBRANCH  38  61
ENDBRANCH  12  13
ENDBRANCH   5   7
ENDBRANCH   2   3
ENDBRANCH   1   2
BRANCH   1  72
ATOM     72  C   UNL A   1      31.112  27.481  26.285  1.00  0.00     0.117 C 
BRANCH  72  73
ATOM     73  N   UNL A   1      31.080  26.118  26.794  1.00  0.00    -0.356 N 
ATOM     74  C   UNL A   1      31.769  24.980  26.549  1.00  0.00     0.223 C 
ATOM     75  H   UNL A   1      30.390  25.994  27.486  1.00  0.00     0.163 HD
ATOM     76  O   UNL A   1      31.364  23.987  27.169  1.00  0.00    -0.275 OA
BRANCH  74  77
ATOM     77  C   UNL A   1      32.948  24.842  25.567  1.00  0.00     0.078 C 
ATOM     78  C   UNL A   1      34.204  24.174  26.126  1.00  0.00     0.014 C 
ATOM     79  C   UNL A   1      32.388  24.124  24.309  1.00  0.00     0.014 C 
ATOM     80  C   UNL A   1      35.183  23.645  25.093  1.00  0.00     0.006 C 
ATOM     81  C   UNL A   1      33.427  23.511  23.371  1.00  0.00     0.006 C 
ATOM     82  C   UNL A   1      34.495  22.701  24.114  1.00  0.00     0.008 C 
BRANCH  82  83
ATOM     83  C   UNL A   1      33.914  21.456  24.822  1.00  0.00     0.119 C 
BRANCH  83  84
ATOM     84  N   UNL A   1      33.069  20.705  23.920  1.00  0.00    -0.356 N 
ATOM     85  C   UNL A   1      32.901  19.371  23.749  1.00  0.00     0.223 C 
ATOM     86  H   UNL A   1      32.519  21.262  23.324  1.00  0.00     0.163 HD
ATOM     87  O   UNL A   1      32.152  19.030  22.829  1.00  0.00    -0.275 OA
BRANCH  85  88
ATOM     88  C   UNL A   1      33.495  18.339  24.710  1.00  0.00     0.089 C 
ATOM     89  C   UNL A   1      32.465  17.218  24.929  1.00  0.00     0.025 C 
ATOM     90  C   UNL A   1      34.763  17.632  24.251  1.00  0.00     0.083 C 
ATOM     91  C   UNL A   1      33.127  16.133  25.750  1.00  0.00     0.070 C 
ATOM     92  S   UNL A   1      34.788  16.003  25.059  1.00  0.00    -0.161 SA
ENDBRANCH  85  88
ENDBRANCH  83  84
ENDBRANCH  82  83
ENDBRANCH  74  77
ENDBRANCH  72  73
ENDBRANCH   1  72
TORSDOF 16
ENDMDL
MODEL 3
REMARK VINA RESULT:     -11.8      1.293      7.733
REMARK SMILES O=C(NCCCNC(=O)[C@H]1CC[C@@H](CNC(=O)[C@H]2CCSC2)CC1)c1ccc(-c2c3nc(c(-c4cc(S(=O)(=O)[O-])ccc4F)c4ccc([nH]4)c(-c4cc(S(=O)(=O)[O-])ccc4F)c4nc(c(-c5cc(S(=O)(=O)[O-])ccc5F)c5ccc2[nH]5)C=C4)C=C3)cc1
REMARK SMILES IDX 5 1 4 2 3 3 1 4 2 5 25 7 26 8 87 9 27 10 86 11 28 12 29 13
REMARK SMILES IDX 30 14 80 15 31 16 85 17 79 18 81 19 32 20 84 21 78 22 77 23
REMARK SMILES IDX 33 25 65 26 45 27 64 28 46 29 49 30 63 31 82 32 47 33 48 34
REMARK SMILES IDX 62 36 83 37 50 38 34 39 35 40 43 41 36 42 42 43 44 44 41 45
REMARK SMILES IDX 37 46 38 47 39 48 40 49 66 50 67 51 75 52 68 53 74 54 76 55
REMARK SMILES IDX 73 56 69 57 70 58 71 59 72 60 51 61 52 62 60 63 53 64 59 65
REMARK SMILES IDX 61 66 58 67 54 68 55 69 56 70 57 71 6 72 7 73 8 74 9 76
REMARK SMILES IDX 10 77 24 78 11 79 23 80 12 81 13 82 14 83 15 84 16 85 17 87
REMARK SMILES IDX 18 88 19 89 22 90 20 91 21 92
REMARK H PARENT 3 6 81 24 49 35 7 75 15 86
REMARK Flexibility Score: inf
ROOT
ATOM      1  C   UNL A   1      31.559  32.070  26.630  1.00  0.00     0.042 C 
ENDROOT
BRANCH   1   2
ATOM      2  C   UNL A   1      32.787  32.655  27.314  1.00  0.00     0.118 C 
BRANCH   2   3
ATOM      3  N   UNL A   1      32.580  34.045  27.718  1.00  0.00    -0.352 N 
ATOM      4  O   UNL A   1      32.610  35.831  29.085  1.00  0.00    -0.269 OA
ATOM      5  C   UNL A   1      33.111  34.759  28.767  1.00  0.00     0.251 C 
ATOM      6  H   UNL A   1      31.959  34.553  27.147  1.00  0.00     0.163 HD
BRANCH   5   7
ATOM      7  C   UNL A   1      34.278  34.230  29.505  1.00  0.00     0.039 A 
ATOM      8  C   UNL A   1      35.569  34.512  29.066  1.00  0.00     0.014 A 
ATOM      9  C   UNL A   1      34.085  33.462  30.657  1.00  0.00     0.014 A 
ATOM     10  C   UNL A   1      36.651  33.868  29.645  1.00  0.00     0.010 A 
ATOM     11  C   UNL A   1      35.190  32.918  31.320  1.00  0.00     0.010 A 
ATOM     12  C   UNL A   1      36.481  33.079  30.793  1.00  0.00    -0.014 A 
BRANCH  12  13
ATOM     13  C   UNL A   1      37.683  32.473  31.421  1.00  0.00     0.031 A 
ATOM     14  C   UNL A   1      38.114  32.862  32.810  1.00  0.00     0.074 A 
ATOM     15  C   UNL A   1      38.345  31.509  30.748  1.00  0.00     0.049 A 
ATOM     16  N   UNL A   1      39.105  32.394  33.527  1.00  0.00    -0.248 NA
ATOM     17  C   UNL A   1      37.343  33.923  33.475  1.00  0.00     0.031 C 
ATOM     18  C   UNL A   1      38.015  31.053  29.394  1.00  0.00     0.029 A 
ATOM     19  N   UNL A   1      39.398  30.712  31.115  1.00  0.00    -0.354 N 
ATOM     20  C   UNL A   1      39.094  33.120  34.714  1.00  0.00     0.074 A 
ATOM     21  C   UNL A   1      38.018  34.083  34.603  1.00  0.00     0.031 C 
ATOM     22  C   UNL A   1      38.794  30.010  29.076  1.00  0.00     0.029 A 
ATOM     23  C   UNL A   1      39.736  29.777  30.163  1.00  0.00     0.049 A 
ATOM     24  H   UNL A   1      39.868  30.801  31.975  1.00  0.00     0.167 HD
ATOM     25  C   UNL A   1      39.904  32.988  35.795  1.00  0.00     0.034 A 
ATOM     26  C   UNL A   1      40.707  28.843  30.156  1.00  0.00     0.034 A 
ATOM     27  C   UNL A   1      40.963  32.009  35.887  1.00  0.00     0.049 A 
ATOM     28  C   UNL A   1      41.602  28.733  31.359  1.00  0.00     0.074 A 
ATOM     29  C   UNL A   1      41.827  31.769  36.943  1.00  0.00     0.029 A 
ATOM     30  N   UNL A   1      41.309  31.110  34.885  1.00  0.00    -0.354 N 
ATOM     31  N   UNL A   1      41.574  29.422  32.476  1.00  0.00    -0.248 NA
ATOM     32  C   UNL A   1      42.658  27.717  31.301  1.00  0.00     0.031 C 
ATOM     33  C   UNL A   1      42.735  30.777  36.554  1.00  0.00     0.029 A 
ATOM     34  C   UNL A   1      42.388  30.335  35.286  1.00  0.00     0.049 A 
ATOM     35  H   UNL A   1      40.853  31.032  34.016  1.00  0.00     0.167 HD
ATOM     36  C   UNL A   1      42.593  28.902  33.267  1.00  0.00     0.074 A 
ATOM     37  C   UNL A   1      43.199  27.828  32.504  1.00  0.00     0.031 C 
ATOM     38  C   UNL A   1      42.991  29.276  34.510  1.00  0.00     0.034 A 
BRANCH  25  39
ATOM     39  C   UNL A   1      39.710  33.961  36.935  1.00  0.00     0.023 A 
ATOM     40  C   UNL A   1      39.192  33.559  38.181  1.00  0.00     0.031 A 
ATOM     41  C   UNL A   1      40.020  35.323  36.764  1.00  0.00     0.131 A 
ATOM     42  C   UNL A   1      38.929  34.517  39.174  1.00  0.00     0.055 A 
ATOM     43  C   UNL A   1      39.835  36.258  37.786  1.00  0.00     0.041 A 
ATOM     44  F   UNL A   1      40.496  35.774  35.593  1.00  0.00    -0.206 F 
ATOM     45  C   UNL A   1      39.271  35.860  38.994  1.00  0.00     0.022 A 
BRANCH  42  46
ATOM     46  S   UNL A   1      37.995  34.008  40.643  1.00  0.00     0.124 S 
ATOM     47  O   UNL A   1      38.991  33.227  41.373  1.00  0.00    -0.237 OA
ATOM     48  O   UNL A   1      37.625  35.286  41.240  1.00  0.00    -0.237 OA
ATOM     49  O   UNL A   1      36.887  33.231  40.093  1.00  0.00    -0.744 OA
ENDBRANCH  42  46
ENDBRANCH  25  39
BRANCH  26  50
ATOM     50  C   UNL A   1      40.895  27.962  28.970  1.00  0.00     0.023 A 
ATOM     51  C   UNL A   1      41.934  28.190  28.054  1.00  0.00     0.031 A 
ATOM     52  C   UNL A   1      40.019  26.890  28.718  1.00  0.00     0.131 A 
ATOM     53  C   UNL A   1      42.044  27.387  26.909  1.00  0.00     0.055 A 
ATOM     54  C   UNL A   1      40.168  26.057  27.609  1.00  0.00     0.041 A 
ATOM     55  F   UNL A   1      39.011  26.625  29.564  1.00  0.00    -0.206 F 
ATOM     56  C   UNL A   1      41.178  26.313  26.688  1.00  0.00     0.022 A 
BRANCH  53  57
ATOM     57  S   UNL A   1      43.289  27.819  25.663  1.00  0.00     0.124 S 
ATOM     58  O   UNL A   1      42.493  27.834  24.441  1.00  0.00    -0.237 OA
ATOM     59  O   UNL A   1      43.757  29.116  26.139  1.00  0.00    -0.237 OA
ATOM     60  O   UNL A   1      44.261  26.732  25.761  1.00  0.00    -0.744 OA
ENDBRANCH  53  57
ENDBRANCH  26  50
BRANCH  38  61
ATOM     61  C   UNL A   1      44.104  28.471  35.133  1.00  0.00     0.023 A 
ATOM     62  C   UNL A   1      43.849  27.319  35.899  1.00  0.00     0.031 A 
ATOM     63  C   UNL A   1      45.439  28.889  34.993  1.00  0.00     0.131 A 
ATOM     64  C   UNL A   1      44.906  26.668  36.553  1.00  0.00     0.055 A 
ATOM     65  C   UNL A   1      46.493  28.197  35.591  1.00  0.00     0.041 A 
ATOM     66  F   UNL A   1      45.741  29.984  34.277  1.00  0.00    -0.206 F 
ATOM     67  C   UNL A   1      46.227  27.089  36.391  1.00  0.00     0.022 A 
BRANCH  64  68
ATOM     68  S   UNL A   1      44.515  25.333  37.719  1.00  0.00     0.124 S 
ATOM     69  O   UNL A   1      43.132  25.022  37.371  1.00  0.00    -0.237 OA
ATOM     70  O   UNL A   1      45.504  24.318  37.373  1.00  0.00    -0.237 OA
ATOM     71  O   UNL A   1      44.699  25.958  39.028  1.00  0.00    -0.744 OA
ENDBRANCH  64  68
ENDBRANCH  38  61
ENDBRANCH  12  13
ENDBRANCH   5   7
ENDBRANCH   2   3
ENDBRANCH   1   2
BRANCH   1  72
ATOM     72  C   UNL A   1      31.780  30.634  26.194  1.00  0.00     0.117 C 
BRANCH  72  73
ATOM     73  N   UNL A   1      33.074  30.130  26.631  1.00  0.00    -0.356 N 
ATOM     74  C   UNL A   1      33.639  28.907  26.760  1.00  0.00     0.223 C 
ATOM     75  H   UNL A   1      33.686  30.854  26.895  1.00  0.00     0.163 HD
ATOM     76  O   UNL A   1      34.775  28.914  27.254  1.00  0.00    -0.275 OA
BRANCH  74  77
ATOM     77  C   UNL A   1      32.975  27.570  26.382  1.00  0.00     0.078 C 
ATOM     78  C   UNL A   1      31.458  27.508  26.554  1.00  0.00     0.014 C 
ATOM     79  C   UNL A   1      33.435  27.248  24.933  1.00  0.00     0.014 C 
ATOM     80  C   UNL A   1      30.755  26.396  25.797  1.00  0.00     0.006 C 
ATOM     81  C   UNL A   1      32.608  26.202  24.187  1.00  0.00     0.006 C 
ATOM     82  C   UNL A   1      31.099  26.435  24.313  1.00  0.00     0.008 C 
BRANCH  82  83
ATOM     83  C   UNL A   1      30.642  27.754  23.648  1.00  0.00     0.119 C 
BRANCH  83  84
ATOM     84  N   UNL A   1      29.207  27.763  23.470  1.00  0.00    -0.356 N 
ATOM     85  C   UNL A   1      28.353  28.752  23.110  1.00  0.00     0.223 C 
ATOM     86  H   UNL A   1      28.773  26.896  23.639  1.00  0.00     0.163 HD
ATOM     87  O   UNL A   1      27.152  28.467  23.119  1.00  0.00    -0.275 OA
BRANCH  85  88
ATOM     88  C   UNL A   1      28.839  30.110  22.598  1.00  0.00     0.089 C 
ATOM     89  C   UNL A   1      28.067  30.460  21.315  1.00  0.00     0.025 C 
ATOM     90  C   UNL A   1      28.633  31.301  23.525  1.00  0.00     0.083 C 
ATOM     91  C   UNL A   1      28.444  31.869  20.915  1.00  0.00     0.070 C 
ATOM     92  S   UNL A   1      28.488  32.777  22.473  1.00  0.00    -0.161 SA
ENDBRANCH  85  88
ENDBRANCH  83  84
ENDBRANCH  82  83
ENDBRANCH  74  77
ENDBRANCH  72  73
ENDBRANCH   1  72
TORSDOF 16
ENDMDL
