MODEL 1
REMARK VINA RESULT:     -11.0      0.000      0.000
REMARK SMILES CCC[NH2+][C@]1(C(=O)NCCCNC(=O)c2ccc(-c3c4nc(c(-c5cc(S(=O)(=O)[O-])ccc5F)c5ccc([nH]5)c(-c5cc(S(=O)(=O)[O-])ccc5F)c5nc(c(-c6cc(S(=O)(=O)[O-])ccc6F)c6ccc3[nH]6)C=C5)C=C4)cc2)CCC[C@H](n2ccc(C)n2)C1
REMARK SMILES IDX 10 1 9 2 8 3 6 4 7 5 5 7 78 8 88 9 79 10 81 11 80 12 4 13
REMARK SMILES IDX 3 16 2 17 1 18 82 19 83 20 87 21 84 22 85 23 86 24 11 25
REMARK SMILES IDX 12 26 13 27 14 29 15 30 16 31 77 32 17 33 76 34 18 35 19 36
REMARK SMILES IDX 20 37 70 38 21 39 75 40 69 41 71 42 22 43 74 44 68 45 67 46
REMARK SMILES IDX 23 48 55 49 35 50 54 51 36 52 39 53 53 54 72 55 37 56 38 57
REMARK SMILES IDX 52 59 73 60 40 61 24 62 25 63 33 64 26 65 32 66 34 67 31 68
REMARK SMILES IDX 27 69 28 70 29 71 30 72 56 73 57 74 65 75 58 76 64 77 66 78
REMARK SMILES IDX 63 79 59 80 60 81 61 82 62 83 41 84 42 85 50 86 43 87 49 88
REMARK SMILES IDX 51 89 48 90 44 91 45 92 46 93 47 94
REMARK H PARENT 8 6 4 14 4 15 12 28 71 47 39 58
REMARK Flexibility Score: inf
ROOT
ATOM      1  C   UNL A   1      32.915  27.946  26.573  1.00  0.00     0.042 C 
ENDROOT
BRANCH   1   2
ATOM      2  C   UNL A   1      31.798  27.768  25.541  1.00  0.00     0.118 C 
BRANCH   2   3
ATOM      3  N   UNL A   1      30.833  26.768  25.952  1.00  0.00    -0.351 N 
ATOM      4  C   UNL A   1      30.751  25.412  25.895  1.00  0.00     0.281 C 
ATOM      5  O   UNL A   1      29.703  25.003  26.411  1.00  0.00    -0.268 OA
ATOM      6  H   UNL A   1      30.042  27.170  26.377  1.00  0.00     0.163 HD
BRANCH   4   7
ATOM      7  C   UNL A   1      31.922  24.460  25.388  1.00  0.00     0.177 C 
ATOM      8  C   UNL A   1      31.377  23.102  24.876  1.00  0.00     0.079 C 
ATOM      9  C   UNL A   1      32.695  25.259  24.292  1.00  0.00     0.106 C 
ATOM     10  C   UNL A   1      32.271  22.354  23.892  1.00  0.00     0.009 C 
ATOM     11  C   UNL A   1      33.512  24.447  23.258  1.00  0.00     0.114 C 
ATOM     12  C   UNL A   1      32.685  23.265  22.744  1.00  0.00     0.028 C 
BRANCH   7  13
ATOM     13  N   UNL A   1      32.886  24.035  26.453  1.00  0.00    -0.334 N 
ATOM     14  H   UNL A   1      33.711  23.668  25.977  1.00  0.00     0.347 HD
ATOM     15  H   UNL A   1      33.014  24.876  27.014  1.00  0.00     0.347 HD
BRANCH  13  16
ATOM     16  C   UNL A   1      32.475  23.030  27.426  1.00  0.00     0.261 C 
BRANCH  16  17
ATOM     17  C   UNL A   1      33.645  22.142  27.862  1.00  0.00     0.058 C 
ATOM     18  C   UNL A   1      34.355  21.507  26.675  1.00  0.00     0.010 C 
ENDBRANCH  16  17
ENDBRANCH  13  16
ENDBRANCH   7  13
BRANCH  11  19
ATOM     19  N   UNL A   1      34.849  24.004  23.656  1.00  0.00    -0.269 N 
ATOM     20  C   UNL A   1      35.591  23.038  23.024  1.00  0.00     0.109 A 
ATOM     21  N   UNL A   1      35.439  24.451  24.778  1.00  0.00    -0.178 NA
ATOM     22  C   UNL A   1      36.663  22.779  23.843  1.00  0.00     0.045 A 
ATOM     23  C   UNL A   1      36.516  23.670  24.926  1.00  0.00     0.059 A 
ATOM     24  C   UNL A   1      37.379  23.799  26.123  1.00  0.00     0.069 C 
ENDBRANCH  11  19
ENDBRANCH   4   7
ENDBRANCH   2   3
ENDBRANCH   1   2
BRANCH   1  25
ATOM     25  C   UNL A   1      34.005  28.937  26.168  1.00  0.00     0.118 C 
BRANCH  25  26
ATOM     26  N   UNL A   1      33.754  30.279  26.667  1.00  0.00    -0.352 N 
ATOM     27  C   UNL A   1      34.413  31.000  27.629  1.00  0.00     0.251 C 
ATOM     28  H   UNL A   1      32.992  30.741  26.251  1.00  0.00     0.163 HD
ATOM     29  O   UNL A   1      33.899  32.040  28.046  1.00  0.00    -0.269 OA
BRANCH  27  30
ATOM     30  C   UNL A   1      35.708  30.540  28.181  1.00  0.00     0.039 A 
ATOM     31  C   UNL A   1      35.697  29.703  29.301  1.00  0.00     0.014 A 
ATOM     32  C   UNL A   1      36.927  30.958  27.639  1.00  0.00     0.014 A 
ATOM     33  C   UNL A   1      36.901  29.240  29.839  1.00  0.00     0.010 A 
ATOM     34  C   UNL A   1      38.125  30.443  28.135  1.00  0.00     0.010 A 
ATOM     35  C   UNL A   1      38.125  29.579  29.242  1.00  0.00    -0.014 A 
BRANCH  35  36
ATOM     36  C   UNL A   1      39.405  29.030  29.763  1.00  0.00     0.031 A 
ATOM     37  C   UNL A   1      40.096  29.677  30.933  1.00  0.00     0.074 A 
ATOM     38  C   UNL A   1      39.968  27.970  29.148  1.00  0.00     0.049 A 
ATOM     39  N   UNL A   1      41.233  29.362  31.501  1.00  0.00    -0.248 NA
ATOM     40  C   UNL A   1      39.435  30.850  31.522  1.00  0.00     0.031 C 
ATOM     41  C   UNL A   1      39.417  27.285  27.976  1.00  0.00     0.029 A 
ATOM     42  N   UNL A   1      41.127  27.286  29.416  1.00  0.00    -0.354 N 
ATOM     43  C   UNL A   1      41.428  30.300  32.510  1.00  0.00     0.074 A 
ATOM     44  C   UNL A   1      40.319  31.229  32.433  1.00  0.00     0.031 C 
ATOM     45  C   UNL A   1      40.225  26.266  27.642  1.00  0.00     0.029 A 
ATOM     46  C   UNL A   1      41.369  26.246  28.548  1.00  0.00     0.049 A 
ATOM     47  H   UNL A   1      41.730  27.518  30.159  1.00  0.00     0.167 HD
ATOM     48  C   UNL A   1      42.427  30.369  33.426  1.00  0.00     0.034 A 
ATOM     49  C   UNL A   1      42.398  25.378  28.484  1.00  0.00     0.034 A 
ATOM     50  C   UNL A   1      43.522  29.430  33.493  1.00  0.00     0.049 A 
ATOM     51  C   UNL A   1      43.498  25.477  29.509  1.00  0.00     0.074 A 
ATOM     52  C   UNL A   1      44.558  29.376  34.410  1.00  0.00     0.029 A 
ATOM     53  N   UNL A   1      43.730  28.384  32.602  1.00  0.00    -0.354 N 
ATOM     54  N   UNL A   1      43.639  26.338  30.491  1.00  0.00    -0.248 NA
ATOM     55  C   UNL A   1      44.566  24.474  29.428  1.00  0.00     0.031 C 
ATOM     56  C   UNL A   1      45.423  28.340  34.038  1.00  0.00     0.029 A 
ATOM     57  C   UNL A   1      44.890  27.697  32.932  1.00  0.00     0.049 A 
ATOM     58  H   UNL A   1      43.140  28.162  31.847  1.00  0.00     0.167 HD
ATOM     59  C   UNL A   1      44.801  25.963  31.158  1.00  0.00     0.074 A 
ATOM     60  C   UNL A   1      45.306  24.786  30.480  1.00  0.00     0.031 C 
ATOM     61  C   UNL A   1      45.394  26.537  32.236  1.00  0.00     0.034 A 
BRANCH  48  62
ATOM     62  C   UNL A   1      42.388  31.516  34.410  1.00  0.00     0.023 A 
ATOM     63  C   UNL A   1      41.539  31.499  35.531  1.00  0.00     0.031 A 
ATOM     64  C   UNL A   1      43.190  32.654  34.211  1.00  0.00     0.131 A 
ATOM     65  C   UNL A   1      41.454  32.624  36.365  1.00  0.00     0.055 A 
ATOM     66  C   UNL A   1      43.161  33.738  35.092  1.00  0.00     0.041 A 
ATOM     67  F   UNL A   1      44.007  32.737  33.150  1.00  0.00    -0.206 F 
ATOM     68  C   UNL A   1      42.278  33.735  36.167  1.00  0.00     0.022 A 
BRANCH  65  69
ATOM     69  S   UNL A   1      40.151  32.673  37.625  1.00  0.00     0.124 S 
ATOM     70  O   UNL A   1      39.731  34.070  37.561  1.00  0.00    -0.237 OA
ATOM     71  O   UNL A   1      39.192  31.693  37.127  1.00  0.00    -0.237 OA
ATOM     72  O   UNL A   1      40.847  32.294  38.853  1.00  0.00    -0.744 OA
ENDBRANCH  65  69
ENDBRANCH  48  62
BRANCH  49  73
ATOM     73  C   UNL A   1      42.444  24.342  27.414  1.00  0.00     0.023 A 
ATOM     74  C   UNL A   1      41.642  23.192  27.486  1.00  0.00     0.031 A 
ATOM     75  C   UNL A   1      43.318  24.471  26.320  1.00  0.00     0.131 A 
ATOM     76  C   UNL A   1      41.762  22.194  26.505  1.00  0.00     0.055 A 
ATOM     77  C   UNL A   1      43.398  23.500  25.322  1.00  0.00     0.041 A 
ATOM     78  F   UNL A   1      44.100  25.556  26.200  1.00  0.00    -0.206 F 
ATOM     79  C   UNL A   1      42.626  22.346  25.418  1.00  0.00     0.022 A 
BRANCH  76  80
ATOM     80  S   UNL A   1      40.824  20.656  26.713  1.00  0.00     0.124 S 
ATOM     81  O   UNL A   1      39.539  21.009  26.121  1.00  0.00    -0.237 OA
ATOM     82  O   UNL A   1      41.636  19.703  25.963  1.00  0.00    -0.237 OA
ATOM     83  O   UNL A   1      40.813  20.458  28.160  1.00  0.00    -0.744 OA
ENDBRANCH  76  80
ENDBRANCH  49  73
BRANCH  61  84
ATOM     84  C   UNL A   1      46.640  25.865  32.763  1.00  0.00     0.023 A 
ATOM     85  C   UNL A   1      47.904  26.098  32.192  1.00  0.00     0.031 A 
ATOM     86  C   UNL A   1      46.555  24.951  33.828  1.00  0.00     0.131 A 
ATOM     87  C   UNL A   1      49.019  25.376  32.642  1.00  0.00     0.055 A 
ATOM     88  C   UNL A   1      47.679  24.283  34.315  1.00  0.00     0.041 A 
ATOM     89  F   UNL A   1      45.373  24.688  34.410  1.00  0.00    -0.206 F 
ATOM     90  C   UNL A   1      48.917  24.481  33.711  1.00  0.00     0.022 A 
BRANCH  87  91
ATOM     91  S   UNL A   1      50.585  25.539  31.741  1.00  0.00     0.124 S 
ATOM     92  O   UNL A   1      51.507  25.931  32.803  1.00  0.00    -0.237 OA
ATOM     93  O   UNL A   1      50.772  24.198  31.198  1.00  0.00    -0.237 OA
ATOM     94  O   UNL A   1      50.305  26.575  30.750  1.00  0.00    -0.744 OA
ENDBRANCH  87  91
ENDBRANCH  61  84
ENDBRANCH  35  36
ENDBRANCH  27  30
ENDBRANCH  25  26
ENDBRANCH   1  25
TORSDOF 17
ENDMDL
MODEL 2
REMARK VINA RESULT:     -10.9      3.485      8.792
REMARK SMILES CCC[NH2+][C@]1(C(=O)NCCCNC(=O)c2ccc(-c3c4nc(c(-c5cc(S(=O)(=O)[O-])ccc5F)c5ccc([nH]5)c(-c5cc(S(=O)(=O)[O-])ccc5F)c5nc(c(-c6cc(S(=O)(=O)[O-])ccc6F)c6ccc3[nH]6)C=C5)C=C4)cc2)CCC[C@H](n2ccc(C)n2)C1
REMARK SMILES IDX 10 1 9 2 8 3 6 4 7 5 5 7 78 8 88 9 79 10 81 11 80 12 4 13
REMARK SMILES IDX 3 16 2 17 1 18 82 19 83 20 87 21 84 22 85 23 86 24 11 25
REMARK SMILES IDX 12 26 13 27 14 29 15 30 16 31 77 32 17 33 76 34 18 35 19 36
REMARK SMILES IDX 20 37 70 38 21 39 75 40 69 41 71 42 22 43 74 44 68 45 67 46
REMARK SMILES IDX 23 48 55 49 35 50 54 51 36 52 39 53 53 54 72 55 37 56 38 57
REMARK SMILES IDX 52 59 73 60 40 61 24 62 25 63 33 64 26 65 32 66 34 67 31 68
REMARK SMILES IDX 27 69 28 70 29 71 30 72 56 73 57 74 65 75 58 76 64 77 66 78
REMARK SMILES IDX 63 79 59 80 60 81 61 82 62 83 41 84 42 85 50 86 43 87 49 88
REMARK SMILES IDX 51 89 48 90 44 91 45 92 46 93 47 94
REMARK H PARENT 8 6 4 14 4 15 12 28 71 47 39 58
REMARK Flexibility Score: inf
ROOT
ATOM      1  C   UNL A   1      31.416  32.144  26.726  1.00  0.00     0.042 C 
ENDROOT
BRANCH   1   2
ATOM      2  C   UNL A   1      31.486  30.623  26.566  1.00  0.00     0.118 C 
BRANCH   2   3
ATOM      3  N   UNL A   1      31.757  30.234  25.196  1.00  0.00    -0.351 N 
ATOM      4  C   UNL A   1      32.143  29.092  24.567  1.00  0.00     0.281 C 
ATOM      5  O   UNL A   1      32.224  29.259  23.343  1.00  0.00    -0.268 OA
ATOM      6  H   UNL A   1      31.629  30.980  24.567  1.00  0.00     0.163 HD
BRANCH   4   7
ATOM      7  C   UNL A   1      32.303  27.680  25.283  1.00  0.00     0.177 C 
ATOM      8  C   UNL A   1      30.976  27.213  25.936  1.00  0.00     0.079 C 
ATOM      9  C   UNL A   1      32.826  26.691  24.194  1.00  0.00     0.106 C 
ATOM     10  C   UNL A   1      30.834  25.710  26.155  1.00  0.00     0.009 C 
ATOM     11  C   UNL A   1      32.572  25.181  24.418  1.00  0.00     0.114 C 
ATOM     12  C   UNL A   1      31.127  24.950  24.869  1.00  0.00     0.028 C 
BRANCH   7  13
ATOM     13  N   UNL A   1      33.249  27.671  26.444  1.00  0.00    -0.334 N 
ATOM     14  H   UNL A   1      32.723  27.990  27.258  1.00  0.00     0.347 HD
ATOM     15  H   UNL A   1      33.596  26.713  26.466  1.00  0.00     0.347 HD
BRANCH  13  16
ATOM     16  C   UNL A   1      34.463  28.475  26.381  1.00  0.00     0.261 C 
BRANCH  16  17
ATOM     17  C   UNL A   1      34.734  29.210  27.699  1.00  0.00     0.058 C 
ATOM     18  C   UNL A   1      35.329  30.592  27.472  1.00  0.00     0.010 C 
ENDBRANCH  16  17
ENDBRANCH  13  16
ENDBRANCH   7  13
BRANCH  11  19
ATOM     19  N   UNL A   1      33.503  24.465  25.291  1.00  0.00    -0.269 N 
ATOM     20  C   UNL A   1      34.864  24.640  25.320  1.00  0.00     0.109 A 
ATOM     21  N   UNL A   1      33.097  23.467  26.095  1.00  0.00    -0.178 NA
ATOM     22  C   UNL A   1      35.366  23.629  26.104  1.00  0.00     0.045 A 
ATOM     23  C   UNL A   1      34.231  22.919  26.549  1.00  0.00     0.059 A 
ATOM     24  C   UNL A   1      34.191  21.708  27.402  1.00  0.00     0.069 C 
ENDBRANCH  11  19
ENDBRANCH   4   7
ENDBRANCH   2   3
ENDBRANCH   1   2
BRANCH   1  25
ATOM     25  C   UNL A   1      32.755  32.816  27.027  1.00  0.00     0.118 C 
BRANCH  25  26
ATOM     26  N   UNL A   1      32.599  34.112  27.667  1.00  0.00    -0.352 N 
ATOM     27  C   UNL A   1      33.194  34.617  28.794  1.00  0.00     0.251 C 
ATOM     28  H   UNL A   1      31.968  34.721  27.221  1.00  0.00     0.163 HD
ATOM     29  O   UNL A   1      32.755  35.663  29.277  1.00  0.00    -0.269 OA
BRANCH  27  30
ATOM     30  C   UNL A   1      34.327  33.919  29.443  1.00  0.00     0.039 A 
ATOM     31  C   UNL A   1      35.629  34.294  29.097  1.00  0.00     0.014 A 
ATOM     32  C   UNL A   1      34.124  32.873  30.348  1.00  0.00     0.014 A 
ATOM     33  C   UNL A   1      36.721  33.665  29.700  1.00  0.00     0.010 A 
ATOM     34  C   UNL A   1      35.213  32.291  30.999  1.00  0.00     0.010 A 
ATOM     35  C   UNL A   1      36.523  32.679  30.680  1.00  0.00    -0.014 A 
BRANCH  35  36
ATOM     36  C   UNL A   1      37.679  32.058  31.380  1.00  0.00     0.031 A 
ATOM     37  C   UNL A   1      38.453  30.940  30.736  1.00  0.00     0.074 A 
ATOM     38  C   UNL A   1      38.002  32.476  32.621  1.00  0.00     0.049 A 
ATOM     39  N   UNL A   1      39.464  30.254  31.207  1.00  0.00    -0.248 NA
ATOM     40  C   UNL A   1      38.013  30.519  29.398  1.00  0.00     0.031 C 
ATOM     41  C   UNL A   1      37.297  33.520  33.368  1.00  0.00     0.029 A 
ATOM     42  N   UNL A   1      38.997  32.073  33.475  1.00  0.00    -0.354 N 
ATOM     43  C   UNL A   1      39.778  29.316  30.228  1.00  0.00     0.074 A 
ATOM     44  C   UNL A   1      38.809  29.486  29.165  1.00  0.00     0.031 C 
ATOM     45  C   UNL A   1      37.897  33.691  34.558  1.00  0.00     0.029 A 
ATOM     46  C   UNL A   1      39.003  32.746  34.675  1.00  0.00     0.049 A 
ATOM     47  H   UNL A   1      39.647  31.368  33.250  1.00  0.00     0.167 HD
ATOM     48  C   UNL A   1      40.790  28.412  30.210  1.00  0.00     0.034 A 
ATOM     49  C   UNL A   1      39.803  32.613  35.751  1.00  0.00     0.034 A 
ATOM     50  C   UNL A   1      41.751  28.260  31.277  1.00  0.00     0.049 A 
ATOM     51  C   UNL A   1      40.917  31.600  35.709  1.00  0.00     0.074 A 
ATOM     52  C   UNL A   1      42.845  27.413  31.339  1.00  0.00     0.029 A 
ATOM     53  N   UNL A   1      41.731  28.965  32.474  1.00  0.00    -0.354 N 
ATOM     54  N   UNL A   1      41.233  30.757  34.753  1.00  0.00    -0.248 NA
ATOM     55  C   UNL A   1      41.792  31.533  36.885  1.00  0.00     0.031 C 
ATOM     56  C   UNL A   1      43.446  27.561  32.594  1.00  0.00     0.029 A 
ATOM     57  C   UNL A   1      42.775  28.553  33.290  1.00  0.00     0.049 A 
ATOM     58  H   UNL A   1      41.072  29.656  32.709  1.00  0.00     0.167 HD
ATOM     59  C   UNL A   1      42.361  30.079  35.205  1.00  0.00     0.074 A 
ATOM     60  C   UNL A   1      42.680  30.627  36.507  1.00  0.00     0.031 C 
ATOM     61  C   UNL A   1      43.071  29.094  34.596  1.00  0.00     0.034 A 
BRANCH  48  62
ATOM     62  C   UNL A   1      40.885  27.503  29.006  1.00  0.00     0.023 A 
ATOM     63  C   UNL A   1      41.836  27.717  27.992  1.00  0.00     0.031 A 
ATOM     64  C   UNL A   1      39.999  26.422  28.855  1.00  0.00     0.131 A 
ATOM     65  C   UNL A   1      41.828  26.916  26.840  1.00  0.00     0.055 A 
ATOM     66  C   UNL A   1      40.049  25.577  27.744  1.00  0.00     0.041 A 
ATOM     67  F   UNL A   1      39.057  26.176  29.780  1.00  0.00    -0.206 F 
ATOM     68  C   UNL A   1      40.956  25.831  26.721  1.00  0.00     0.022 A 
BRANCH  65  69
ATOM     69  S   UNL A   1      42.876  27.399  25.441  1.00  0.00     0.124 S 
ATOM     70  O   UNL A   1      42.946  26.153  24.682  1.00  0.00    -0.237 OA
ATOM     71  O   UNL A   1      42.108  28.478  24.829  1.00  0.00    -0.237 OA
ATOM     72  O   UNL A   1      44.128  27.806  26.074  1.00  0.00    -0.744 OA
ENDBRANCH  65  69
ENDBRANCH  48  62
BRANCH  49  73
ATOM     73  C   UNL A   1      39.584  33.455  36.961  1.00  0.00     0.023 A 
ATOM     74  C   UNL A   1      39.018  32.913  38.126  1.00  0.00     0.031 A 
ATOM     75  C   UNL A   1      39.905  34.823  36.959  1.00  0.00     0.131 A 
ATOM     76  C   UNL A   1      38.749  33.745  39.225  1.00  0.00     0.055 A 
ATOM     77  C   UNL A   1      39.682  35.636  38.070  1.00  0.00     0.041 A 
ATOM     78  F   UNL A   1      40.457  35.389  35.873  1.00  0.00    -0.206 F 
ATOM     79  C   UNL A   1      39.088  35.099  39.209  1.00  0.00     0.022 A 
BRANCH  76  80
ATOM     80  S   UNL A   1      37.877  33.042  40.652  1.00  0.00     0.124 S 
ATOM     81  O   UNL A   1      38.316  33.921  41.730  1.00  0.00    -0.237 OA
ATOM     82  O   UNL A   1      36.481  33.171  40.247  1.00  0.00    -0.237 OA
ATOM     83  O   UNL A   1      38.380  31.673  40.717  1.00  0.00    -0.744 OA
ENDBRANCH  76  80
ENDBRANCH  49  73
BRANCH  61  84
ATOM     84  C   UNL A   1      44.286  28.580  35.331  1.00  0.00     0.023 A 
ATOM     85  C   UNL A   1      44.193  27.551  36.285  1.00  0.00     0.031 A 
ATOM     86  C   UNL A   1      45.549  29.154  35.098  1.00  0.00     0.131 A 
ATOM     87  C   UNL A   1      45.327  27.175  37.020  1.00  0.00     0.055 A 
ATOM     88  C   UNL A   1      46.686  28.730  35.787  1.00  0.00     0.041 A 
ATOM     89  F   UNL A   1      45.697  30.141  34.200  1.00  0.00    -0.206 F 
ATOM     90  C   UNL A   1      46.576  27.747  36.766  1.00  0.00     0.022 A 
BRANCH  87  91
ATOM     91  S   UNL A   1      45.127  26.002  38.391  1.00  0.00     0.124 S 
ATOM     92  O   UNL A   1      44.611  24.821  37.707  1.00  0.00    -0.237 OA
ATOM     93  O   UNL A   1      46.487  25.896  38.908  1.00  0.00    -0.237 OA
ATOM     94  O   UNL A   1      44.178  26.670  39.278  1.00  0.00    -0.744 OA
ENDBRANCH  87  91
ENDBRANCH  61  84
ENDBRANCH  35  36
ENDBRANCH  27  30
ENDBRANCH  25  26
ENDBRANCH   1  25
TORSDOF 17
ENDMDL
MODEL 3
REMARK VINA RESULT:     -10.9      2.860      3.995
REMARK SMILES CCC[NH2+][C@]1(C(=O)NCCCNC(=O)c2ccc(-c3c4nc(c(-c5cc(S(=O)(=O)[O-])ccc5F)c5ccc([nH]5)c(-c5cc(S(=O)(=O)[O-])ccc5F)c5nc(c(-c6cc(S(=O)(=O)[O-])ccc6F)c6ccc3[nH]6)C=C5)C=C4)cc2)CCC[C@H](n2ccc(C)n2)C1
REMARK SMILES IDX 10 1 9 2 8 3 6 4 7 5 5 7 78 8 88 9 79 10 81 11 80 12 4 13
REMARK SMILES IDX 3 16 2 17 1 18 82 19 83 20 87 21 84 22 85 23 86 24 11 25
REMARK SMILES IDX 12 26 13 27 14 29 15 30 16 31 77 32 17 33 76 34 18 35 19 36
REMARK SMILES IDX 20 37 70 38 21 39 75 40 69 41 71 42 22 43 74 44 68 45 67 46
REMARK SMILES IDX 23 48 55 49 35 50 54 51 36 52 39 53 53 54 72 55 37 56 38 57
REMARK SMILES IDX 52 59 73 60 40 61 24 62 25 63 33 64 26 65 32 66 34 67 31 68
REMARK SMILES IDX 27 69 28 70 29 71 30 72 56 73 57 74 65 75 58 76 64 77 66 78
REMARK SMILES IDX 63 79 59 80 60 81 61 82 62 83 41 84 42 85 50 86 43 87 49 88
REMARK SMILES IDX 51 89 48 90 44 91 45 92 46 93 47 94
REMARK H PARENT 8 6 4 14 4 15 12 28 71 47 39 58
REMARK Flexibility Score: inf
ROOT
ATOM      1  C   UNL A   1      32.098  29.765  25.347  1.00  0.00     0.042 C 
ENDROOT
BRANCH   1   2
ATOM      2  C   UNL A   1      33.363  28.924  25.152  1.00  0.00     0.118 C 
BRANCH   2   3
ATOM      3  N   UNL A   1      33.702  28.769  23.752  1.00  0.00    -0.351 N 
ATOM      4  C   UNL A   1      33.697  27.747  22.855  1.00  0.00     0.281 C 
ATOM      5  O   UNL A   1      34.068  28.127  21.737  1.00  0.00    -0.268 OA
ATOM      6  H   UNL A   1      34.012  29.613  23.351  1.00  0.00     0.163 HD
BRANCH   4   7
ATOM      7  C   UNL A   1      33.126  26.291  23.154  1.00  0.00     0.177 C 
ATOM      8  C   UNL A   1      32.906  25.482  21.849  1.00  0.00     0.079 C 
ATOM      9  C   UNL A   1      34.138  25.612  24.128  1.00  0.00     0.106 C 
ATOM     10  C   UNL A   1      32.901  23.965  22.000  1.00  0.00     0.009 C 
ATOM     11  C   UNL A   1      34.160  24.065  24.173  1.00  0.00     0.114 C 
ATOM     12  C   UNL A   1      34.139  23.496  22.752  1.00  0.00     0.028 C 
BRANCH   7  13
ATOM     13  N   UNL A   1      31.763  26.270  23.775  1.00  0.00    -0.334 N 
ATOM     14  H   UNL A   1      31.679  25.386  24.277  1.00  0.00     0.347 HD
ATOM     15  H   UNL A   1      31.739  27.122  24.334  1.00  0.00     0.347 HD
BRANCH  13  16
ATOM     16  C   UNL A   1      30.588  26.386  22.919  1.00  0.00     0.261 C 
BRANCH  16  17
ATOM     17  C   UNL A   1      29.779  27.652  23.225  1.00  0.00     0.058 C 
ATOM     18  C   UNL A   1      30.232  28.837  22.383  1.00  0.00     0.010 C 
ENDBRANCH  16  17
ENDBRANCH  13  16
ENDBRANCH   7  13
BRANCH  11  19
ATOM     19  N   UNL A   1      33.155  23.404  25.007  1.00  0.00    -0.269 N 
ATOM     20  C   UNL A   1      32.991  22.048  25.133  1.00  0.00     0.109 A 
ATOM     21  N   UNL A   1      32.209  24.098  25.662  1.00  0.00    -0.178 NA
ATOM     22  C   UNL A   1      31.814  21.864  25.818  1.00  0.00     0.045 A 
ATOM     23  C   UNL A   1      31.359  23.167  26.111  1.00  0.00     0.059 A 
ATOM     24  C   UNL A   1      30.113  23.561  26.811  1.00  0.00     0.069 C 
ENDBRANCH  11  19
ENDBRANCH   4   7
ENDBRANCH   2   3
ENDBRANCH   1   2
BRANCH   1  25
ATOM     25  C   UNL A   1      31.928  30.344  26.751  1.00  0.00     0.118 C 
BRANCH  25  26
ATOM     26  N   UNL A   1      32.042  31.793  26.775  1.00  0.00    -0.352 N 
ATOM     27  C   UNL A   1      32.956  32.595  27.409  1.00  0.00     0.251 C 
ATOM     28  H   UNL A   1      31.357  32.272  26.257  1.00  0.00     0.163 HD
ATOM     29  O   UNL A   1      32.739  33.807  27.469  1.00  0.00    -0.269 OA
BRANCH  27  30
ATOM     30  C   UNL A   1      34.173  32.028  28.034  1.00  0.00     0.039 A 
ATOM     31  C   UNL A   1      35.234  32.888  28.333  1.00  0.00     0.014 A 
ATOM     32  C   UNL A   1      34.298  30.658  28.285  1.00  0.00     0.014 A 
ATOM     33  C   UNL A   1      36.391  32.388  28.934  1.00  0.00     0.010 A 
ATOM     34  C   UNL A   1      35.427  30.170  28.946  1.00  0.00     0.010 A 
ATOM     35  C   UNL A   1      36.486  31.029  29.276  1.00  0.00    -0.014 A 
BRANCH  35  36
ATOM     36  C   UNL A   1      37.683  30.503  29.984  1.00  0.00     0.031 A 
ATOM     37  C   UNL A   1      37.980  30.921  31.399  1.00  0.00     0.074 A 
ATOM     38  C   UNL A   1      38.530  29.682  29.331  1.00  0.00     0.049 A 
ATOM     39  N   UNL A   1      38.992  30.596  32.164  1.00  0.00    -0.248 NA
ATOM     40  C   UNL A   1      37.027  31.848  32.026  1.00  0.00     0.031 C 
ATOM     41  C   UNL A   1      38.374  29.243  27.942  1.00  0.00     0.029 A 
ATOM     42  N   UNL A   1      39.689  29.074  29.741  1.00  0.00    -0.354 N 
ATOM     43  C   UNL A   1      38.803  31.282  33.359  1.00  0.00     0.074 A 
ATOM     44  C   UNL A   1      37.610  32.087  33.191  1.00  0.00     0.031 C 
ATOM     45  C   UNL A   1      39.386  28.419  27.625  1.00  0.00     0.029 A 
ATOM     46  C   UNL A   1      40.282  28.300  28.771  1.00  0.00     0.049 A 
ATOM     47  H   UNL A   1      40.063  29.182  30.646  1.00  0.00     0.167 HD
ATOM     48  C   UNL A   1      39.544  31.233  34.495  1.00  0.00     0.034 A 
ATOM     49  C   UNL A   1      41.421  27.580  28.797  1.00  0.00     0.034 A 
ATOM     50  C   UNL A   1      40.728  30.420  34.647  1.00  0.00     0.049 A 
ATOM     51  C   UNL A   1      42.229  27.543  30.068  1.00  0.00     0.074 A 
ATOM     52  C   UNL A   1      41.523  30.255  35.769  1.00  0.00     0.029 A 
ATOM     53  N   UNL A   1      41.294  29.642  33.645  1.00  0.00    -0.354 N 
ATOM     54  N   UNL A   1      42.007  28.157  31.208  1.00  0.00    -0.248 NA
ATOM     55  C   UNL A   1      43.431  26.701  30.060  1.00  0.00     0.031 C 
ATOM     56  C   UNL A   1      42.601  29.429  35.427  1.00  0.00     0.029 A 
ATOM     57  C   UNL A   1      42.441  29.017  34.114  1.00  0.00     0.049 A 
ATOM     58  H   UNL A   1      40.934  29.547  32.734  1.00  0.00     0.167 HD
ATOM     59  C   UNL A   1      43.030  27.753  32.060  1.00  0.00     0.074 A 
ATOM     60  C   UNL A   1      43.854  26.828  31.309  1.00  0.00     0.031 C 
ATOM     61  C   UNL A   1      43.266  28.112  33.349  1.00  0.00     0.034 A 
BRANCH  48  62
ATOM     62  C   UNL A   1      39.103  32.104  35.649  1.00  0.00     0.023 A 
ATOM     63  C   UNL A   1      39.520  33.441  35.766  1.00  0.00     0.031 A 
ATOM     64  C   UNL A   1      38.276  31.584  36.660  1.00  0.00     0.131 A 
ATOM     65  C   UNL A   1      39.176  34.188  36.903  1.00  0.00     0.055 A 
ATOM     66  C   UNL A   1      37.868  32.357  37.749  1.00  0.00     0.041 A 
ATOM     67  F   UNL A   1      37.859  30.309  36.614  1.00  0.00    -0.206 F 
ATOM     68  C   UNL A   1      38.332  33.662  37.885  1.00  0.00     0.022 A 
BRANCH  65  69
ATOM     69  S   UNL A   1      39.962  35.803  37.151  1.00  0.00     0.124 S 
ATOM     70  O   UNL A   1      39.654  36.477  35.893  1.00  0.00    -0.237 OA
ATOM     71  O   UNL A   1      39.276  36.311  38.333  1.00  0.00    -0.237 OA
ATOM     72  O   UNL A   1      41.373  35.472  37.343  1.00  0.00    -0.744 OA
ENDBRANCH  65  69
ENDBRANCH  48  62
BRANCH  49  73
ATOM     73  C   UNL A   1      41.871  26.838  27.586  1.00  0.00     0.023 A 
ATOM     74  C   UNL A   1      41.665  25.454  27.467  1.00  0.00     0.031 A 
ATOM     75  C   UNL A   1      42.546  27.496  26.543  1.00  0.00     0.131 A 
ATOM     76  C   UNL A   1      42.168  24.765  26.353  1.00  0.00     0.055 A 
ATOM     77  C   UNL A   1      43.001  26.816  25.413  1.00  0.00     0.041 A 
ATOM     78  F   UNL A   1      42.761  28.820  26.603  1.00  0.00    -0.206 F 
ATOM     79  C   UNL A   1      42.824  25.439  25.320  1.00  0.00     0.022 A 
BRANCH  76  80
ATOM     80  S   UNL A   1      42.018  22.958  26.308  1.00  0.00     0.124 S 
ATOM     81  O   UNL A   1      40.575  22.777  26.416  1.00  0.00    -0.237 OA
ATOM     82  O   UNL A   1      42.609  22.638  25.013  1.00  0.00    -0.237 OA
ATOM     83  O   UNL A   1      42.792  22.524  27.468  1.00  0.00    -0.744 OA
ENDBRANCH  76  80
ENDBRANCH  49  73
BRANCH  61  84
ATOM     84  C   UNL A   1      44.448  27.463  34.029  1.00  0.00     0.023 A 
ATOM     85  C   UNL A   1      44.308  26.295  34.799  1.00  0.00     0.031 A 
ATOM     86  C   UNL A   1      45.725  28.043  33.934  1.00  0.00     0.131 A 
ATOM     87  C   UNL A   1      45.410  25.783  35.499  1.00  0.00     0.055 A 
ATOM     88  C   UNL A   1      46.832  27.492  34.581  1.00  0.00     0.041 A 
ATOM     89  F   UNL A   1      45.917  29.160  33.214  1.00  0.00    -0.206 F 
ATOM     90  C   UNL A   1      46.675  26.365  35.382  1.00  0.00     0.022 A 
BRANCH  87  91
ATOM     91  S   UNL A   1      45.148  24.408  36.654  1.00  0.00     0.124 S 
ATOM     92  O   UNL A   1      43.954  24.839  37.374  1.00  0.00    -0.237 OA
ATOM     93  O   UNL A   1      44.973  23.274  35.752  1.00  0.00    -0.237 OA
ATOM     94  O   UNL A   1      46.375  24.385  37.445  1.00  0.00    -0.744 OA
ENDBRANCH  87  91
ENDBRANCH  61  84
ENDBRANCH  35  36
ENDBRANCH  27  30
ENDBRANCH  25  26
ENDBRANCH   1  25
TORSDOF 17
ENDMDL
