MODEL 1
REMARK VINA RESULT:     -10.2      0.000      0.000
REMARK SMILES CC(C)Cc1ccc([C@@H]2CC[NH2+][C@H]2C(=O)NCCCNC(=O)c2ccc(-c3c4nc(c(-c5cc(S(=O)(=O)[O-])ccc5F)c5ccc([nH]5)c(-c5cc(S(=O)(=O)[O-])ccc5F)c5nc(c(-c6cc(S(=O)(=O)[O-])ccc6F)c6ccc3[nH]6)C=C5)C=C4)cc2)cc1
REMARK SMILES IDX 18 1 17 2 16 3 14 4 15 5 13 7 9 8 10 9 11 10 12 11 8 14 5 15
REMARK SMILES IDX 6 16 87 17 7 18 86 19 4 20 2 21 1 22 3 23 19 24 20 25 21 26
REMARK SMILES IDX 22 28 23 29 24 30 85 31 25 32 84 33 26 34 27 35 28 36 78 37
REMARK SMILES IDX 29 38 83 39 77 40 79 41 30 42 82 43 76 44 75 45 31 47 63 48
REMARK SMILES IDX 43 49 62 50 44 51 47 52 61 53 80 54 45 55 46 56 60 58 81 59
REMARK SMILES IDX 48 60 32 61 33 62 41 63 34 64 40 65 42 66 39 67 35 68 36 69
REMARK SMILES IDX 37 70 38 71 64 72 65 73 73 74 66 75 72 76 74 77 71 78 67 79
REMARK SMILES IDX 68 80 69 81 70 82 49 83 50 84 58 85 51 86 57 87 59 88 56 89
REMARK SMILES IDX 52 90 53 91 54 92 55 93
REMARK H PARENT 16 6 12 12 12 13 20 27 79 46 47 57
REMARK Flexibility Score: inf
ROOT
ATOM      1  C   UNL A   1      41.817  19.721  27.285  1.00  0.00     0.042 C 
ENDROOT
BRANCH   1   2
ATOM      2  C   UNL A   1      41.970  19.419  25.799  1.00  0.00     0.118 C 
BRANCH   2   3
ATOM      3  N   UNL A   1      43.333  19.590  25.333  1.00  0.00    -0.351 N 
ATOM      4  C   UNL A   1      44.155  20.674  25.266  1.00  0.00     0.278 C 
ATOM      5  O   UNL A   1      45.274  20.484  24.775  1.00  0.00    -0.268 OA
ATOM      6  H   UNL A   1      43.744  18.761  24.999  1.00  0.00     0.163 HD
BRANCH   4   7
ATOM      7  C   UNL A   1      43.744  22.081  25.750  1.00  0.00     0.280 C 
ATOM      8  C   UNL A   1      44.933  22.944  26.200  1.00  0.00     0.093 C 
ATOM      9  C   UNL A   1      44.945  24.121  25.228  1.00  0.00     0.076 C 
ATOM     10  C   UNL A   1      43.543  24.175  24.646  1.00  0.00     0.262 C 
ATOM     11  N   UNL A   1      42.976  22.829  24.721  1.00  0.00    -0.335 N 
ATOM     12  H   UNL A   1      43.062  22.364  23.816  1.00  0.00     0.346 HD
ATOM     13  H   UNL A   1      41.987  22.866  24.966  1.00  0.00     0.346 HD
BRANCH   8  14
ATOM     14  C   UNL A   1      44.824  23.430  27.638  1.00  0.00    -0.038 A 
ATOM     15  C   UNL A   1      44.585  24.298  30.317  1.00  0.00    -0.048 A 
ATOM     16  C   UNL A   1      43.556  23.570  29.709  1.00  0.00     0.004 A 
ATOM     17  C   UNL A   1      45.740  24.578  29.581  1.00  0.00     0.004 A 
ATOM     18  C   UNL A   1      43.672  23.143  28.384  1.00  0.00     0.004 A 
ATOM     19  C   UNL A   1      45.859  24.144  28.260  1.00  0.00     0.004 A 
BRANCH  15  20
ATOM     20  C   UNL A   1      44.441  24.807  31.729  1.00  0.00     0.038 C 
BRANCH  20  21
ATOM     21  C   UNL A   1      44.999  26.232  31.923  1.00  0.00    -0.013 C 
ATOM     22  C   UNL A   1      43.885  27.270  32.090  1.00  0.00     0.008 C 
ATOM     23  C   UNL A   1      45.918  26.265  33.145  1.00  0.00     0.008 C 
ENDBRANCH  20  21
ENDBRANCH  15  20
ENDBRANCH   8  14
ENDBRANCH   4   7
ENDBRANCH   2   3
ENDBRANCH   1   2
BRANCH   1  24
ATOM     24  C   UNL A   1      41.073  21.020  27.576  1.00  0.00     0.118 C 
BRANCH  24  25
ATOM     25  N   UNL A   1      40.013  21.272  26.609  1.00  0.00    -0.352 N 
ATOM     26  C   UNL A   1      39.312  22.415  26.333  1.00  0.00     0.251 C 
ATOM     27  H   UNL A   1      39.760  20.493  26.063  1.00  0.00     0.163 HD
ATOM     28  O   UNL A   1      38.288  22.325  25.645  1.00  0.00    -0.269 OA
BRANCH  26  29
ATOM     29  C   UNL A   1      39.746  23.734  26.841  1.00  0.00     0.039 A 
ATOM     30  C   UNL A   1      40.062  24.739  25.921  1.00  0.00     0.014 A 
ATOM     31  C   UNL A   1      39.907  23.973  28.209  1.00  0.00     0.014 A 
ATOM     32  C   UNL A   1      40.491  25.989  26.372  1.00  0.00     0.010 A 
ATOM     33  C   UNL A   1      40.259  25.244  28.661  1.00  0.00     0.010 A 
ATOM     34  C   UNL A   1      40.567  26.262  27.747  1.00  0.00    -0.014 A 
BRANCH  34  35
ATOM     35  C   UNL A   1      40.982  27.603  28.237  1.00  0.00     0.031 A 
ATOM     36  C   UNL A   1      42.443  27.952  28.350  1.00  0.00     0.074 A 
ATOM     37  C   UNL A   1      40.041  28.485  28.626  1.00  0.00     0.049 A 
ATOM     38  N   UNL A   1      43.000  29.049  28.793  1.00  0.00    -0.248 NA
ATOM     39  C   UNL A   1      43.404  26.916  27.939  1.00  0.00     0.031 C 
ATOM     40  C   UNL A   1      38.597  28.239  28.613  1.00  0.00     0.029 A 
ATOM     41  N   UNL A   1      40.153  29.763  29.112  1.00  0.00    -0.354 N 
ATOM     42  C   UNL A   1      44.373  28.833  28.730  1.00  0.00     0.074 A 
ATOM     43  C   UNL A   1      44.561  27.478  28.258  1.00  0.00     0.031 C 
ATOM     44  C   UNL A   1      37.958  29.338  29.045  1.00  0.00     0.029 A 
ATOM     45  C   UNL A   1      38.944  30.352  29.403  1.00  0.00     0.049 A 
ATOM     46  H   UNL A   1      41.017  30.216  29.240  1.00  0.00     0.167 HD
ATOM     47  C   UNL A   1      45.382  29.692  29.019  1.00  0.00     0.034 A 
ATOM     48  C   UNL A   1      38.663  31.570  29.906  1.00  0.00     0.034 A 
ATOM     49  C   UNL A   1      45.175  31.049  29.466  1.00  0.00     0.049 A 
ATOM     50  C   UNL A   1      39.802  32.513  30.200  1.00  0.00     0.074 A 
ATOM     51  C   UNL A   1      46.121  32.026  29.724  1.00  0.00     0.029 A 
ATOM     52  N   UNL A   1      43.936  31.621  29.726  1.00  0.00    -0.354 N 
ATOM     53  N   UNL A   1      41.093  32.314  30.074  1.00  0.00    -0.248 NA
ATOM     54  C   UNL A   1      39.442  33.851  30.685  1.00  0.00     0.031 C 
ATOM     55  C   UNL A   1      45.460  33.166  30.196  1.00  0.00     0.029 A 
ATOM     56  C   UNL A   1      44.096  32.926  30.166  1.00  0.00     0.049 A 
ATOM     57  H   UNL A   1      43.071  31.165  29.614  1.00  0.00     0.167 HD
ATOM     58  C   UNL A   1      41.698  33.513  30.439  1.00  0.00     0.074 A 
ATOM     59  C   UNL A   1      40.629  34.434  30.765  1.00  0.00     0.031 C 
ATOM     60  C   UNL A   1      43.018  33.827  30.500  1.00  0.00     0.034 A 
BRANCH  47  61
ATOM     61  C   UNL A   1      46.797  29.181  28.880  1.00  0.00     0.023 A 
ATOM     62  C   UNL A   1      47.443  29.119  27.633  1.00  0.00     0.031 A 
ATOM     63  C   UNL A   1      47.506  28.737  30.010  1.00  0.00     0.131 A 
ATOM     64  C   UNL A   1      48.728  28.562  27.535  1.00  0.00     0.055 A 
ATOM     65  C   UNL A   1      48.814  28.256  29.917  1.00  0.00     0.041 A 
ATOM     66  F   UNL A   1      46.936  28.753  31.225  1.00  0.00    -0.206 F 
ATOM     67  C   UNL A   1      49.428  28.154  28.672  1.00  0.00     0.022 A 
BRANCH  64  68
ATOM     68  S   UNL A   1      49.420  28.263  25.887  1.00  0.00     0.124 S 
ATOM     69  O   UNL A   1      50.306  29.414  25.727  1.00  0.00    -0.237 OA
ATOM     70  O   UNL A   1      50.077  26.971  26.049  1.00  0.00    -0.237 OA
ATOM     71  O   UNL A   1      48.247  28.262  25.016  1.00  0.00    -0.744 OA
ENDBRANCH  64  68
ENDBRANCH  47  61
BRANCH  48  72
ATOM     72  C   UNL A   1      37.252  31.974  30.168  1.00  0.00     0.023 A 
ATOM     73  C   UNL A   1      36.494  32.638  29.191  1.00  0.00     0.031 A 
ATOM     74  C   UNL A   1      36.655  31.742  31.420  1.00  0.00     0.131 A 
ATOM     75  C   UNL A   1      35.202  33.094  29.497  1.00  0.00     0.055 A 
ATOM     76  C   UNL A   1      35.350  32.150  31.703  1.00  0.00     0.041 A 
ATOM     77  F   UNL A   1      37.331  31.102  32.388  1.00  0.00    -0.206 F 
ATOM     78  C   UNL A   1      34.621  32.845  30.742  1.00  0.00     0.022 A 
BRANCH  75  79
ATOM     79  S   UNL A   1      34.325  34.102  28.271  1.00  0.00     0.124 S 
ATOM     80  O   UNL A   1      33.200  33.241  27.926  1.00  0.00    -0.237 OA
ATOM     81  O   UNL A   1      34.003  35.299  29.040  1.00  0.00    -0.237 OA
ATOM     82  O   UNL A   1      35.316  34.290  27.214  1.00  0.00    -0.744 OA
ENDBRANCH  75  79
ENDBRANCH  48  72
BRANCH  60  83
ATOM     83  C   UNL A   1      43.362  35.241  30.900  1.00  0.00     0.023 A 
ATOM     84  C   UNL A   1      43.315  35.659  32.242  1.00  0.00     0.031 A 
ATOM     85  C   UNL A   1      43.709  36.189  29.923  1.00  0.00     0.131 A 
ATOM     86  C   UNL A   1      43.543  37.005  32.562  1.00  0.00     0.055 A 
ATOM     87  C   UNL A   1      43.997  37.513  30.254  1.00  0.00     0.041 A 
ATOM     88  F   UNL A   1      43.768  35.844  28.626  1.00  0.00    -0.206 F 
ATOM     89  C   UNL A   1      43.900  37.932  31.578  1.00  0.00     0.022 A 
BRANCH  86  90
ATOM     90  S   UNL A   1      43.260  37.554  34.267  1.00  0.00     0.124 S 
ATOM     91  O   UNL A   1      42.944  38.966  34.084  1.00  0.00    -0.237 OA
ATOM     92  O   UNL A   1      42.152  36.703  34.688  1.00  0.00    -0.237 OA
ATOM     93  O   UNL A   1      44.534  37.284  34.931  1.00  0.00    -0.744 OA
ENDBRANCH  86  90
ENDBRANCH  60  83
ENDBRANCH  34  35
ENDBRANCH  26  29
ENDBRANCH  24  25
ENDBRANCH   1  24
TORSDOF 16
ENDMDL
MODEL 2
REMARK VINA RESULT:     -10.1      1.862      2.216
REMARK SMILES CC(C)Cc1ccc([C@@H]2CC[NH2+][C@H]2C(=O)NCCCNC(=O)c2ccc(-c3c4nc(c(-c5cc(S(=O)(=O)[O-])ccc5F)c5ccc([nH]5)c(-c5cc(S(=O)(=O)[O-])ccc5F)c5nc(c(-c6cc(S(=O)(=O)[O-])ccc6F)c6ccc3[nH]6)C=C5)C=C4)cc2)cc1
REMARK SMILES IDX 18 1 17 2 16 3 14 4 15 5 13 7 9 8 10 9 11 10 12 11 8 14 5 15
REMARK SMILES IDX 6 16 87 17 7 18 86 19 4 20 2 21 1 22 3 23 19 24 20 25 21 26
REMARK SMILES IDX 22 28 23 29 24 30 85 31 25 32 84 33 26 34 27 35 28 36 78 37
REMARK SMILES IDX 29 38 83 39 77 40 79 41 30 42 82 43 76 44 75 45 31 47 63 48
REMARK SMILES IDX 43 49 62 50 44 51 47 52 61 53 80 54 45 55 46 56 60 58 81 59
REMARK SMILES IDX 48 60 32 61 33 62 41 63 34 64 40 65 42 66 39 67 35 68 36 69
REMARK SMILES IDX 37 70 38 71 64 72 65 73 73 74 66 75 72 76 74 77 71 78 67 79
REMARK SMILES IDX 68 80 69 81 70 82 49 83 50 84 58 85 51 86 57 87 59 88 56 89
REMARK SMILES IDX 52 90 53 91 54 92 55 93
REMARK H PARENT 16 6 12 12 12 13 20 27 79 46 47 57
REMARK Flexibility Score: inf
ROOT
ATOM      1  C   UNL A   1      41.898  19.785  27.334  1.00  0.00     0.042 C 
ENDROOT
BRANCH   1   2
ATOM      2  C   UNL A   1      42.026  19.509  25.840  1.00  0.00     0.118 C 
BRANCH   2   3
ATOM      3  N   UNL A   1      43.372  19.730  25.345  1.00  0.00    -0.351 N 
ATOM      4  C   UNL A   1      44.164  20.837  25.291  1.00  0.00     0.278 C 
ATOM      5  O   UNL A   1      45.274  20.690  24.767  1.00  0.00    -0.268 OA
ATOM      6  H   UNL A   1      43.796  18.921  24.977  1.00  0.00     0.163 HD
BRANCH   4   7
ATOM      7  C   UNL A   1      43.729  22.217  25.826  1.00  0.00     0.280 C 
ATOM      8  C   UNL A   1      44.903  23.088  26.298  1.00  0.00     0.093 C 
ATOM      9  C   UNL A   1      44.886  24.298  25.367  1.00  0.00     0.076 C 
ATOM     10  C   UNL A   1      43.478  24.345  24.797  1.00  0.00     0.262 C 
ATOM     11  N   UNL A   1      42.939  22.985  24.828  1.00  0.00    -0.335 N 
ATOM     12  H   UNL A   1      43.027  22.553  23.908  1.00  0.00     0.346 HD
ATOM     13  H   UNL A   1      41.951  22.994  25.081  1.00  0.00     0.346 HD
BRANCH   8  14
ATOM     14  C   UNL A   1      44.796  23.521  27.753  1.00  0.00    -0.038 A 
ATOM     15  C   UNL A   1      44.562  24.289  30.462  1.00  0.00    -0.048 A 
ATOM     16  C   UNL A   1      43.577  23.499  29.858  1.00  0.00     0.004 A 
ATOM     17  C   UNL A   1      45.670  24.682  29.707  1.00  0.00     0.004 A 
ATOM     18  C   UNL A   1      43.690  23.122  28.518  1.00  0.00     0.004 A 
ATOM     19  C   UNL A   1      45.788  24.298  28.371  1.00  0.00     0.004 A 
BRANCH  15  20
ATOM     20  C   UNL A   1      44.416  24.744  31.893  1.00  0.00     0.038 C 
BRANCH  20  21
ATOM     21  C   UNL A   1      44.797  23.657  32.919  1.00  0.00    -0.013 C 
ATOM     22  C   UNL A   1      45.832  24.157  33.931  1.00  0.00     0.008 C 
ATOM     23  C   UNL A   1      43.545  23.182  33.658  1.00  0.00     0.008 C 
ENDBRANCH  20  21
ENDBRANCH  15  20
ENDBRANCH   8  14
ENDBRANCH   4   7
ENDBRANCH   2   3
ENDBRANCH   1   2
BRANCH   1  24
ATOM     24  C   UNL A   1      41.068  21.021  27.663  1.00  0.00     0.118 C 
BRANCH  24  25
ATOM     25  N   UNL A   1      40.022  21.256  26.677  1.00  0.00    -0.352 N 
ATOM     26  C   UNL A   1      39.331  22.397  26.366  1.00  0.00     0.251 C 
ATOM     27  H   UNL A   1      39.771  20.466  26.147  1.00  0.00     0.163 HD
ATOM     28  O   UNL A   1      38.315  22.296  25.668  1.00  0.00    -0.269 OA
BRANCH  26  29
ATOM     29  C   UNL A   1      39.767  23.724  26.847  1.00  0.00     0.039 A 
ATOM     30  C   UNL A   1      40.006  24.735  25.911  1.00  0.00     0.014 A 
ATOM     31  C   UNL A   1      40.005  23.968  28.203  1.00  0.00     0.014 A 
ATOM     32  C   UNL A   1      40.435  25.994  26.337  1.00  0.00     0.010 A 
ATOM     33  C   UNL A   1      40.357  25.246  28.634  1.00  0.00     0.010 A 
ATOM     34  C   UNL A   1      40.589  26.270  27.705  1.00  0.00    -0.014 A 
BRANCH  34  35
ATOM     35  C   UNL A   1      41.004  27.619  28.170  1.00  0.00     0.031 A 
ATOM     36  C   UNL A   1      42.457  28.017  28.147  1.00  0.00     0.074 A 
ATOM     37  C   UNL A   1      40.076  28.465  28.658  1.00  0.00     0.049 A 
ATOM     38  N   UNL A   1      43.017  29.128  28.548  1.00  0.00    -0.248 NA
ATOM     39  C   UNL A   1      43.408  27.019  27.632  1.00  0.00     0.031 C 
ATOM     40  C   UNL A   1      38.646  28.170  28.780  1.00  0.00     0.029 A 
ATOM     41  N   UNL A   1      40.192  29.742  29.147  1.00  0.00    -0.354 N 
ATOM     42  C   UNL A   1      44.384  28.960  28.351  1.00  0.00     0.074 A 
ATOM     43  C   UNL A   1      44.570  27.617  27.846  1.00  0.00     0.031 C 
ATOM     44  C   UNL A   1      38.016  29.242  29.286  1.00  0.00     0.029 A 
ATOM     45  C   UNL A   1      38.998  30.286  29.561  1.00  0.00     0.049 A 
ATOM     46  H   UNL A   1      41.049  30.223  29.199  1.00  0.00     0.167 HD
ATOM     47  C   UNL A   1      45.387  29.850  28.553  1.00  0.00     0.034 A 
ATOM     48  C   UNL A   1      38.726  31.488  30.104  1.00  0.00     0.034 A 
ATOM     49  C   UNL A   1      45.179  31.195  29.035  1.00  0.00     0.049 A 
ATOM     50  C   UNL A   1      39.856  32.467  30.300  1.00  0.00     0.074 A 
ATOM     51  C   UNL A   1      46.113  32.201  29.214  1.00  0.00     0.029 A 
ATOM     52  N   UNL A   1      43.953  31.721  29.420  1.00  0.00    -0.354 N 
ATOM     53  N   UNL A   1      41.136  32.313  30.048  1.00  0.00    -0.248 NA
ATOM     54  C   UNL A   1      39.501  33.788  30.833  1.00  0.00     0.031 C 
ATOM     55  C   UNL A   1      45.463  33.313  29.762  1.00  0.00     0.029 A 
ATOM     56  C   UNL A   1      44.111  33.027  29.859  1.00  0.00     0.049 A 
ATOM     57  H   UNL A   1      43.096  31.237  29.386  1.00  0.00     0.167 HD
ATOM     58  C   UNL A   1      41.733  33.529  30.369  1.00  0.00     0.074 A 
ATOM     59  C   UNL A   1      40.670  34.409  30.807  1.00  0.00     0.031 C 
ATOM     60  C   UNL A   1      43.041  33.888  30.307  1.00  0.00     0.034 A 
BRANCH  47  61
ATOM     61  C   UNL A   1      46.798  29.389  28.273  1.00  0.00     0.023 A 
ATOM     62  C   UNL A   1      47.580  28.757  29.255  1.00  0.00     0.031 A 
ATOM     63  C   UNL A   1      47.375  29.596  27.007  1.00  0.00     0.131 A 
ATOM     64  C   UNL A   1      48.914  28.417  28.980  1.00  0.00     0.055 A 
ATOM     65  C   UNL A   1      48.678  29.185  26.715  1.00  0.00     0.041 A 
ATOM     66  F   UNL A   1      46.686  30.213  26.035  1.00  0.00    -0.206 F 
ATOM     67  C   UNL A   1      49.460  28.604  27.708  1.00  0.00     0.022 A 
BRANCH  64  68
ATOM     68  S   UNL A   1      49.963  27.843  30.342  1.00  0.00     0.124 S 
ATOM     69  O   UNL A   1      48.965  27.410  31.319  1.00  0.00    -0.237 OA
ATOM     70  O   UNL A   1      50.743  26.782  29.716  1.00  0.00    -0.237 OA
ATOM     71  O   UNL A   1      50.719  29.035  30.720  1.00  0.00    -0.744 OA
ENDBRANCH  64  68
ENDBRANCH  47  61
BRANCH  48  72
ATOM     72  C   UNL A   1      37.334  31.842  30.505  1.00  0.00     0.023 A 
ATOM     73  C   UNL A   1      36.464  32.486  29.613  1.00  0.00     0.031 A 
ATOM     74  C   UNL A   1      36.869  31.579  31.806  1.00  0.00     0.131 A 
ATOM     75  C   UNL A   1      35.193  32.896  30.047  1.00  0.00     0.055 A 
ATOM     76  C   UNL A   1      35.584  31.939  32.217  1.00  0.00     0.041 A 
ATOM     77  F   UNL A   1      37.657  30.955  32.698  1.00  0.00    -0.206 F 
ATOM     78  C   UNL A   1      34.744  32.617  31.340  1.00  0.00     0.022 A 
BRANCH  75  79
ATOM     79  S   UNL A   1      34.168  33.883  28.922  1.00  0.00     0.124 S 
ATOM     80  O   UNL A   1      33.190  34.459  29.838  1.00  0.00    -0.237 OA
ATOM     81  O   UNL A   1      35.145  34.810  28.362  1.00  0.00    -0.237 OA
ATOM     82  O   UNL A   1      33.641  32.893  27.986  1.00  0.00    -0.744 OA
ENDBRANCH  75  79
ENDBRANCH  48  72
BRANCH  60  83
ATOM     83  C   UNL A   1      43.374  35.308  30.690  1.00  0.00     0.023 A 
ATOM     84  C   UNL A   1      43.372  36.347  29.743  1.00  0.00     0.031 A 
ATOM     85  C   UNL A   1      43.729  35.620  32.014  1.00  0.00     0.131 A 
ATOM     86  C   UNL A   1      43.785  37.635  30.117  1.00  0.00     0.055 A 
ATOM     87  C   UNL A   1      44.077  36.916  32.395  1.00  0.00     0.041 A 
ATOM     88  F   UNL A   1      43.749  34.666  32.959  1.00  0.00    -0.206 F 
ATOM     89  C   UNL A   1      44.122  37.929  31.441  1.00  0.00     0.022 A 
BRANCH  86  90
ATOM     90  S   UNL A   1      43.980  38.894  28.828  1.00  0.00     0.124 S 
ATOM     91  O   UNL A   1      45.427  39.075  28.796  1.00  0.00    -0.237 OA
ATOM     92  O   UNL A   1      43.394  38.241  27.663  1.00  0.00    -0.237 OA
ATOM     93  O   UNL A   1      43.224  40.034  29.343  1.00  0.00    -0.744 OA
ENDBRANCH  86  90
ENDBRANCH  60  83
ENDBRANCH  34  35
ENDBRANCH  26  29
ENDBRANCH  24  25
ENDBRANCH   1  24
TORSDOF 16
ENDMDL
MODEL 3
REMARK VINA RESULT:      -9.9      4.651     10.997
REMARK SMILES CC(C)Cc1ccc([C@@H]2CC[NH2+][C@H]2C(=O)NCCCNC(=O)c2ccc(-c3c4nc(c(-c5cc(S(=O)(=O)[O-])ccc5F)c5ccc([nH]5)c(-c5cc(S(=O)(=O)[O-])ccc5F)c5nc(c(-c6cc(S(=O)(=O)[O-])ccc6F)c6ccc3[nH]6)C=C5)C=C4)cc2)cc1
REMARK SMILES IDX 18 1 17 2 16 3 14 4 15 5 13 7 9 8 10 9 11 10 12 11 8 14 5 15
REMARK SMILES IDX 6 16 87 17 7 18 86 19 4 20 2 21 1 22 3 23 19 24 20 25 21 26
REMARK SMILES IDX 22 28 23 29 24 30 85 31 25 32 84 33 26 34 27 35 28 36 78 37
REMARK SMILES IDX 29 38 83 39 77 40 79 41 30 42 82 43 76 44 75 45 31 47 63 48
REMARK SMILES IDX 43 49 62 50 44 51 47 52 61 53 80 54 45 55 46 56 60 58 81 59
REMARK SMILES IDX 48 60 32 61 33 62 41 63 34 64 40 65 42 66 39 67 35 68 36 69
REMARK SMILES IDX 37 70 38 71 64 72 65 73 73 74 66 75 72 76 74 77 71 78 67 79
REMARK SMILES IDX 68 80 69 81 70 82 49 83 50 84 58 85 51 86 57 87 59 88 56 89
REMARK SMILES IDX 52 90 53 91 54 92 55 93
REMARK H PARENT 16 6 12 12 12 13 20 27 79 46 47 57
REMARK Flexibility Score: inf
ROOT
ATOM      1  C   UNL A   1      32.937  27.811  26.891  1.00  0.00     0.042 C 
ENDROOT
BRANCH   1   2
ATOM      2  C   UNL A   1      32.224  26.747  26.066  1.00  0.00     0.118 C 
BRANCH   2   3
ATOM      3  N   UNL A   1      32.754  26.637  24.720  1.00  0.00    -0.351 N 
ATOM      4  C   UNL A   1      33.574  25.727  24.124  1.00  0.00     0.278 C 
ATOM      5  O   UNL A   1      33.867  25.944  22.943  1.00  0.00    -0.268 OA
ATOM      6  H   UNL A   1      32.465  27.362  24.120  1.00  0.00     0.163 HD
BRANCH   4   7
ATOM      7  C   UNL A   1      34.140  24.490  24.854  1.00  0.00     0.280 C 
ATOM      8  C   UNL A   1      34.769  23.456  23.908  1.00  0.00     0.093 C 
ATOM      9  C   UNL A   1      36.241  23.412  24.308  1.00  0.00     0.076 C 
ATOM     10  C   UNL A   1      36.290  23.968  25.721  1.00  0.00     0.262 C 
ATOM     11  N   UNL A   1      35.140  24.856  25.891  1.00  0.00    -0.335 N 
ATOM     12  H   UNL A   1      35.429  25.827  25.769  1.00  0.00     0.346 HD
ATOM     13  H   UNL A   1      34.743  24.759  26.825  1.00  0.00     0.346 HD
BRANCH   8  14
ATOM     14  C   UNL A   1      34.138  22.075  24.007  1.00  0.00    -0.038 A 
ATOM     15  C   UNL A   1      32.999  19.498  24.227  1.00  0.00    -0.048 A 
ATOM     16  C   UNL A   1      34.277  19.758  24.734  1.00  0.00     0.004 A 
ATOM     17  C   UNL A   1      32.289  20.537  23.620  1.00  0.00     0.004 A 
ATOM     18  C   UNL A   1      34.842  21.031  24.623  1.00  0.00     0.004 A 
ATOM     19  C   UNL A   1      32.850  21.811  23.517  1.00  0.00     0.004 A 
BRANCH  15  20
ATOM     20  C   UNL A   1      32.409  18.112  24.296  1.00  0.00     0.038 C 
BRANCH  20  21
ATOM     21  C   UNL A   1      33.460  17.014  24.556  1.00  0.00    -0.013 C 
ATOM     22  C   UNL A   1      32.861  15.799  25.271  1.00  0.00     0.008 C 
ATOM     23  C   UNL A   1      34.087  16.574  23.232  1.00  0.00     0.008 C 
ENDBRANCH  20  21
ENDBRANCH  15  20
ENDBRANCH   8  14
ENDBRANCH   4   7
ENDBRANCH   2   3
ENDBRANCH   1   2
BRANCH   1  24
ATOM     24  C   UNL A   1      33.814  28.746  26.066  1.00  0.00     0.118 C 
BRANCH  24  25
ATOM     25  N   UNL A   1      33.720  30.127  26.519  1.00  0.00    -0.352 N 
ATOM     26  C   UNL A   1      34.447  30.808  27.458  1.00  0.00     0.251 C 
ATOM     27  H   UNL A   1      33.020  30.659  26.076  1.00  0.00     0.163 HD
ATOM     28  O   UNL A   1      34.021  31.901  27.851  1.00  0.00    -0.269 OA
BRANCH  26  29
ATOM     29  C   UNL A   1      35.707  30.265  28.008  1.00  0.00     0.039 A 
ATOM     30  C   UNL A   1      36.877  30.385  27.253  1.00  0.00     0.014 A 
ATOM     31  C   UNL A   1      35.738  29.585  29.229  1.00  0.00     0.014 A 
ATOM     32  C   UNL A   1      38.079  29.865  27.740  1.00  0.00     0.010 A 
ATOM     33  C   UNL A   1      36.951  29.137  29.751  1.00  0.00     0.010 A 
ATOM     34  C   UNL A   1      38.133  29.261  29.006  1.00  0.00    -0.014 A 
BRANCH  34  35
ATOM     35  C   UNL A   1      39.415  28.743  29.552  1.00  0.00     0.031 A 
ATOM     36  C   UNL A   1      40.088  29.444  30.703  1.00  0.00     0.074 A 
ATOM     37  C   UNL A   1      39.994  27.672  28.976  1.00  0.00     0.049 A 
ATOM     38  N   UNL A   1      41.226  29.170  31.287  1.00  0.00    -0.248 NA
ATOM     39  C   UNL A   1      39.405  30.628  31.248  1.00  0.00     0.031 C 
ATOM     40  C   UNL A   1      39.462  26.944  27.821  1.00  0.00     0.029 A 
ATOM     41  N   UNL A   1      41.157  27.009  29.276  1.00  0.00    -0.354 N 
ATOM     42  C   UNL A   1      41.404  30.152  32.256  1.00  0.00     0.074 A 
ATOM     43  C   UNL A   1      40.284  31.060  32.140  1.00  0.00     0.031 C 
ATOM     44  C   UNL A   1      40.283  25.923  27.527  1.00  0.00     0.029 A 
ATOM     45  C   UNL A   1      41.418  25.945  28.444  1.00  0.00     0.049 A 
ATOM     46  H   UNL A   1      41.750  27.271  30.016  1.00  0.00     0.167 HD
ATOM     47  C   UNL A   1      42.400  30.273  33.169  1.00  0.00     0.034 A 
ATOM     48  C   UNL A   1      42.455  25.086  28.420  1.00  0.00     0.034 A 
ATOM     49  C   UNL A   1      43.498  29.344  33.284  1.00  0.00     0.049 A 
ATOM     50  C   UNL A   1      43.539  25.230  29.459  1.00  0.00     0.074 A 
ATOM     51  C   UNL A   1      44.524  29.332  34.213  1.00  0.00     0.029 A 
ATOM     52  N   UNL A   1      43.716  28.262  32.441  1.00  0.00    -0.354 N 
ATOM     53  N   UNL A   1      43.659  26.129  30.408  1.00  0.00    -0.248 NA
ATOM     54  C   UNL A   1      44.615  24.232  29.433  1.00  0.00     0.031 C 
ATOM     55  C   UNL A   1      45.394  28.282  33.896  1.00  0.00     0.029 A 
ATOM     56  C   UNL A   1      44.874  27.593  32.812  1.00  0.00     0.049 A 
ATOM     57  H   UNL A   1      43.134  28.007  31.689  1.00  0.00     0.167 HD
ATOM     58  C   UNL A   1      44.811  25.786  31.110  1.00  0.00     0.074 A 
ATOM     59  C   UNL A   1      45.332  24.587  30.489  1.00  0.00     0.031 C 
ATOM     60  C   UNL A   1      45.388  26.405  32.173  1.00  0.00     0.034 A 
BRANCH  47  61
ATOM     61  C   UNL A   1      42.355  31.463  34.098  1.00  0.00     0.023 A 
ATOM     62  C   UNL A   1      41.574  31.461  35.267  1.00  0.00     0.031 A 
ATOM     63  C   UNL A   1      43.095  32.622  33.805  1.00  0.00     0.131 A 
ATOM     64  C   UNL A   1      41.495  32.617  36.061  1.00  0.00     0.055 A 
ATOM     65  C   UNL A   1      43.074  33.741  34.641  1.00  0.00     0.041 A 
ATOM     66  F   UNL A   1      43.844  32.692  32.693  1.00  0.00    -0.206 F 
ATOM     67  C   UNL A   1      42.260  33.748  35.769  1.00  0.00     0.022 A 
BRANCH  64  68
ATOM     68  S   UNL A   1      40.284  32.663  37.409  1.00  0.00     0.124 S 
ATOM     69  O   UNL A   1      39.810  34.044  37.332  1.00  0.00    -0.237 OA
ATOM     70  O   UNL A   1      39.327  31.638  37.010  1.00  0.00    -0.237 OA
ATOM     71  O   UNL A   1      41.077  32.349  38.595  1.00  0.00    -0.744 OA
ENDBRANCH  64  68
ENDBRANCH  47  61
BRANCH  48  72
ATOM     72  C   UNL A   1      42.530  24.016  27.384  1.00  0.00     0.023 A 
ATOM     73  C   UNL A   1      41.841  22.804  27.543  1.00  0.00     0.031 A 
ATOM     74  C   UNL A   1      43.331  24.174  26.239  1.00  0.00     0.131 A 
ATOM     75  C   UNL A   1      42.007  21.775  26.602  1.00  0.00     0.055 A 
ATOM     76  C   UNL A   1      43.451  23.169  25.278  1.00  0.00     0.041 A 
ATOM     77  F   UNL A   1      44.005  25.318  26.033  1.00  0.00    -0.206 F 
ATOM     78  C   UNL A   1      42.798  21.955  25.465  1.00  0.00     0.022 A 
BRANCH  75  79
ATOM     79  S   UNL A   1      41.245  20.164  26.934  1.00  0.00     0.124 S 
ATOM     80  O   UNL A   1      40.106  20.180  26.023  1.00  0.00    -0.237 OA
ATOM     81  O   UNL A   1      42.325  19.244  26.593  1.00  0.00    -0.237 OA
ATOM     82  O   UNL A   1      40.910  20.233  28.354  1.00  0.00    -0.744 OA
ENDBRANCH  75  79
ENDBRANCH  48  72
BRANCH  60  83
ATOM     83  C   UNL A   1      46.627  25.761  32.743  1.00  0.00     0.023 A 
ATOM     84  C   UNL A   1      47.902  26.016  32.209  1.00  0.00     0.031 A 
ATOM     85  C   UNL A   1      46.526  24.856  33.813  1.00  0.00     0.131 A 
ATOM     86  C   UNL A   1      49.017  25.322  32.701  1.00  0.00     0.055 A 
ATOM     87  C   UNL A   1      47.647  24.216  34.341  1.00  0.00     0.041 A 
ATOM     88  F   UNL A   1      45.332  24.575  34.361  1.00  0.00    -0.206 F 
ATOM     89  C   UNL A   1      48.900  24.435  33.775  1.00  0.00     0.022 A 
BRANCH  86  90
ATOM     90  S   UNL A   1      50.605  25.510  31.847  1.00  0.00     0.124 S 
ATOM     91  O   UNL A   1      50.565  24.416  30.883  1.00  0.00    -0.237 OA
ATOM     92  O   UNL A   1      50.502  26.855  31.289  1.00  0.00    -0.237 OA
ATOM     93  O   UNL A   1      51.591  25.358  32.916  1.00  0.00    -0.744 OA
ENDBRANCH  86  90
ENDBRANCH  60  83
ENDBRANCH  34  35
ENDBRANCH  26  29
ENDBRANCH  24  25
ENDBRANCH   1  24
TORSDOF 16
ENDMDL
