MODEL 1
REMARK VINA RESULT:     -11.3      0.000      0.000
REMARK SMILES CCc1ccc(C(=O)NCCCNC(=O)c2ccc(-c3c4nc(c(-c5cc(S(=O)(=O)[O-])ccc5F)c5ccc([nH]5)c(-c5cc(S(=O)(=O)[O-])ccc5F)c5nc(c(-c6cc(S(=O)(=O)[O-])ccc6F)c6ccc3[nH]6)C=C5)C=C4)cc2)cc1S(=O)(=O)C(CC)CC
REMARK SMILES IDX 11 1 10 2 9 3 7 4 8 5 6 7 3 8 4 9 80 10 5 11 79 12 2 13 1 14
REMARK SMILES IDX 81 15 82 16 83 17 84 18 85 19 86 20 87 21 88 22 12 23 13 24
REMARK SMILES IDX 14 25 15 27 16 28 17 29 78 30 18 31 77 32 19 33 20 34 21 35
REMARK SMILES IDX 71 36 22 37 76 38 70 39 72 40 23 41 75 42 69 43 68 44 24 46
REMARK SMILES IDX 56 47 36 48 55 49 37 50 40 51 54 52 73 53 38 54 39 55 53 57
REMARK SMILES IDX 74 58 41 59 25 60 26 61 34 62 27 63 33 64 35 65 32 66 28 67
REMARK SMILES IDX 29 68 30 69 31 70 57 71 58 72 66 73 59 74 65 75 67 76 64 77
REMARK SMILES IDX 60 78 61 79 62 80 63 81 42 82 43 83 51 84 44 85 50 86 52 87
REMARK SMILES IDX 49 88 45 89 46 90 47 91 48 92
REMARK H PARENT 9 6 13 26 72 45 40 56
REMARK Flexibility Score: inf
ROOT
ATOM      1  C   UNL A   1      32.751  29.319  24.983  1.00  0.00     0.042 C 
ENDROOT
BRANCH   1   2
ATOM      2  C   UNL A   1      31.397  30.020  25.096  1.00  0.00     0.118 C 
BRANCH   2   3
ATOM      3  N   UNL A   1      30.718  30.073  23.813  1.00  0.00    -0.352 N 
ATOM      4  C   UNL A   1      30.320  29.120  22.913  1.00  0.00     0.251 C 
ATOM      5  O   UNL A   1      29.713  29.519  21.916  1.00  0.00    -0.269 OA
ATOM      6  H   UNL A   1      30.496  30.989  23.530  1.00  0.00     0.163 HD
BRANCH   4   7
ATOM      7  C   UNL A   1      30.541  27.654  23.071  1.00  0.00     0.041 A 
ATOM      8  C   UNL A   1      30.763  24.811  23.406  1.00  0.00    -0.030 A 
ATOM      9  C   UNL A   1      29.649  25.541  23.872  1.00  0.00     0.006 A 
ATOM     10  C   UNL A   1      31.805  25.548  22.821  1.00  0.00     0.071 A 
ATOM     11  C   UNL A   1      29.553  26.930  23.733  1.00  0.00     0.014 A 
ATOM     12  C   UNL A   1      31.633  26.940  22.594  1.00  0.00     0.034 A 
BRANCH   8  13
ATOM     13  C   UNL A   1      30.715  23.311  23.452  1.00  0.00     0.033 C 
ATOM     14  C   UNL A   1      31.402  22.592  24.611  1.00  0.00     0.009 C 
ENDBRANCH   8  13
BRANCH  10  15
ATOM     15  S   UNL A   1      33.452  25.030  22.326  1.00  0.00     0.181 S 
ATOM     16  O   UNL A   1      33.218  23.997  21.333  1.00  0.00    -0.223 OA
ATOM     17  O   UNL A   1      34.073  26.271  21.879  1.00  0.00    -0.223 OA
BRANCH  15  18
ATOM     18  C   UNL A   1      34.573  24.389  23.534  1.00  0.00     0.113 C 
BRANCH  18  19
ATOM     19  C   UNL A   1      34.338  24.826  25.004  1.00  0.00     0.017 C 
ATOM     20  C   UNL A   1      34.590  23.857  26.151  1.00  0.00     0.005 C 
ENDBRANCH  18  19
BRANCH  18  21
ATOM     21  C   UNL A   1      35.166  22.976  23.374  1.00  0.00     0.017 C 
ATOM     22  C   UNL A   1      36.672  22.906  23.159  1.00  0.00     0.005 C 
ENDBRANCH  18  21
ENDBRANCH  15  18
ENDBRANCH  10  15
ENDBRANCH   4   7
ENDBRANCH   2   3
ENDBRANCH   1   2
BRANCH   1  23
ATOM     23  C   UNL A   1      33.659  29.559  26.190  1.00  0.00     0.118 C 
BRANCH  23  24
ATOM     24  N   UNL A   1      33.523  30.912  26.709  1.00  0.00    -0.352 N 
ATOM     25  C   UNL A   1      34.206  31.543  27.717  1.00  0.00     0.251 C 
ATOM     26  H   UNL A   1      32.832  31.459  26.269  1.00  0.00     0.163 HD
ATOM     27  O   UNL A   1      33.772  32.606  28.156  1.00  0.00    -0.269 OA
BRANCH  25  28
ATOM     28  C   UNL A   1      35.444  30.959  28.276  1.00  0.00     0.039 A 
ATOM     29  C   UNL A   1      36.676  31.499  27.889  1.00  0.00     0.014 A 
ATOM     30  C   UNL A   1      35.405  29.849  29.124  1.00  0.00     0.014 A 
ATOM     31  C   UNL A   1      37.862  30.951  28.380  1.00  0.00     0.010 A 
ATOM     32  C   UNL A   1      36.586  29.342  29.663  1.00  0.00     0.010 A 
ATOM     33  C   UNL A   1      37.827  29.880  29.288  1.00  0.00    -0.014 A 
BRANCH  33  34
ATOM     34  C   UNL A   1      39.079  29.295  29.835  1.00  0.00     0.031 A 
ATOM     35  C   UNL A   1      39.715  29.895  31.060  1.00  0.00     0.074 A 
ATOM     36  C   UNL A   1      39.667  28.264  29.199  1.00  0.00     0.049 A 
ATOM     37  N   UNL A   1      40.848  29.591  31.640  1.00  0.00    -0.248 NA
ATOM     38  C   UNL A   1      38.992  31.006  31.699  1.00  0.00     0.031 C 
ATOM     39  C   UNL A   1      39.158  27.620  27.986  1.00  0.00     0.029 A 
ATOM     40  N   UNL A   1      40.826  27.583  29.473  1.00  0.00    -0.354 N 
ATOM     41  C   UNL A   1      40.983  30.481  32.700  1.00  0.00     0.074 A 
ATOM     42  C   UNL A   1      39.843  31.371  32.646  1.00  0.00     0.031 C 
ATOM     43  C   UNL A   1      39.991  26.628  27.632  1.00  0.00     0.029 A 
ATOM     44  C   UNL A   1      41.115  26.593  28.563  1.00  0.00     0.049 A 
ATOM     45  H   UNL A   1      41.397  27.783  30.249  1.00  0.00     0.167 HD
ATOM     46  C   UNL A   1      41.959  30.538  33.641  1.00  0.00     0.034 A 
ATOM     47  C   UNL A   1      42.172  25.762  28.479  1.00  0.00     0.034 A 
ATOM     48  C   UNL A   1      43.081  29.632  33.685  1.00  0.00     0.049 A 
ATOM     49  C   UNL A   1      43.253  25.853  29.528  1.00  0.00     0.074 A 
ATOM     50  C   UNL A   1      44.101  29.565  34.619  1.00  0.00     0.029 A 
ATOM     51  N   UNL A   1      43.335  28.633  32.753  1.00  0.00    -0.354 N 
ATOM     52  N   UNL A   1      43.346  26.675  30.547  1.00  0.00    -0.248 NA
ATOM     53  C   UNL A   1      44.361  24.897  29.420  1.00  0.00     0.031 C 
ATOM     54  C   UNL A   1      45.001  28.571  34.217  1.00  0.00     0.029 A 
ATOM     55  C   UNL A   1      44.507  27.966  33.074  1.00  0.00     0.049 A 
ATOM     56  H   UNL A   1      42.765  28.430  31.976  1.00  0.00     0.167 HD
ATOM     57  C   UNL A   1      44.508  26.310  31.222  1.00  0.00     0.074 A 
ATOM     58  C   UNL A   1      45.072  25.188  30.499  1.00  0.00     0.031 C 
ATOM     59  C   UNL A   1      45.058  26.851  32.340  1.00  0.00     0.034 A 
BRANCH  46  60
ATOM     60  C   UNL A   1      41.864  31.634  34.677  1.00  0.00     0.023 A 
ATOM     61  C   UNL A   1      40.908  31.598  35.707  1.00  0.00     0.031 A 
ATOM     62  C   UNL A   1      42.724  32.745  34.619  1.00  0.00     0.131 A 
ATOM     63  C   UNL A   1      40.783  32.684  36.587  1.00  0.00     0.055 A 
ATOM     64  C   UNL A   1      42.649  33.786  35.549  1.00  0.00     0.041 A 
ATOM     65  F   UNL A   1      43.646  32.847  33.648  1.00  0.00    -0.206 F 
ATOM     66  C   UNL A   1      41.664  33.766  36.531  1.00  0.00     0.022 A 
BRANCH  63  67
ATOM     67  S   UNL A   1      39.362  32.728  37.714  1.00  0.00     0.124 S 
ATOM     68  O   UNL A   1      40.008  32.522  39.009  1.00  0.00    -0.237 OA
ATOM     69  O   UNL A   1      38.813  34.058  37.479  1.00  0.00    -0.237 OA
ATOM     70  O   UNL A   1      38.527  31.618  37.259  1.00  0.00    -0.744 OA
ENDBRANCH  63  67
ENDBRANCH  46  60
BRANCH  47  71
ATOM     71  C   UNL A   1      42.275  24.778  27.363  1.00  0.00     0.023 A 
ATOM     72  C   UNL A   1      41.553  23.574  27.392  1.00  0.00     0.031 A 
ATOM     73  C   UNL A   1      43.128  25.009  26.269  1.00  0.00     0.131 A 
ATOM     74  C   UNL A   1      41.734  22.626  26.373  1.00  0.00     0.055 A 
ATOM     75  C   UNL A   1      43.264  24.086  25.231  1.00  0.00     0.041 A 
ATOM     76  F   UNL A   1      43.837  26.147  26.189  1.00  0.00    -0.206 F 
ATOM     77  C   UNL A   1      42.575  22.879  25.286  1.00  0.00     0.022 A 
BRANCH  74  78
ATOM     78  S   UNL A   1      40.920  21.012  26.535  1.00  0.00     0.124 S 
ATOM     79  O   UNL A   1      39.620  21.271  25.925  1.00  0.00    -0.237 OA
ATOM     80  O   UNL A   1      41.820  20.143  25.783  1.00  0.00    -0.237 OA
ATOM     81  O   UNL A   1      40.899  20.786  27.978  1.00  0.00    -0.744 OA
ENDBRANCH  74  78
ENDBRANCH  47  71
BRANCH  59  82
ATOM     82  C   UNL A   1      46.306  26.193  32.873  1.00  0.00     0.023 A 
ATOM     83  C   UNL A   1      46.250  25.114  33.773  1.00  0.00     0.031 A 
ATOM     84  C   UNL A   1      47.573  26.664  32.483  1.00  0.00     0.131 A 
ATOM     85  C   UNL A   1      47.437  24.577  34.296  1.00  0.00     0.055 A 
ATOM     86  C   UNL A   1      48.750  26.088  32.960  1.00  0.00     0.041 A 
ATOM     87  F   UNL A   1      47.685  27.694  31.629  1.00  0.00    -0.206 F 
ATOM     88  C   UNL A   1      48.686  25.047  33.882  1.00  0.00     0.022 A 
BRANCH  85  89
ATOM     89  S   UNL A   1      47.325  23.316  35.593  1.00  0.00     0.124 S 
ATOM     90  O   UNL A   1      48.676  23.330  36.147  1.00  0.00    -0.237 OA
ATOM     91  O   UNL A   1      46.277  23.848  36.457  1.00  0.00    -0.237 OA
ATOM     92  O   UNL A   1      46.969  22.101  34.862  1.00  0.00    -0.744 OA
ENDBRANCH  85  89
ENDBRANCH  59  82
ENDBRANCH  33  34
ENDBRANCH  25  28
ENDBRANCH  23  24
ENDBRANCH   1  23
TORSDOF 18
ENDMDL
MODEL 2
REMARK VINA RESULT:     -11.2      5.212      8.018
REMARK SMILES CCc1ccc(C(=O)NCCCNC(=O)c2ccc(-c3c4nc(c(-c5cc(S(=O)(=O)[O-])ccc5F)c5ccc([nH]5)c(-c5cc(S(=O)(=O)[O-])ccc5F)c5nc(c(-c6cc(S(=O)(=O)[O-])ccc6F)c6ccc3[nH]6)C=C5)C=C4)cc2)cc1S(=O)(=O)C(CC)CC
REMARK SMILES IDX 11 1 10 2 9 3 7 4 8 5 6 7 3 8 4 9 80 10 5 11 79 12 2 13 1 14
REMARK SMILES IDX 81 15 82 16 83 17 84 18 85 19 86 20 87 21 88 22 12 23 13 24
REMARK SMILES IDX 14 25 15 27 16 28 17 29 78 30 18 31 77 32 19 33 20 34 21 35
REMARK SMILES IDX 71 36 22 37 76 38 70 39 72 40 23 41 75 42 69 43 68 44 24 46
REMARK SMILES IDX 56 47 36 48 55 49 37 50 40 51 54 52 73 53 38 54 39 55 53 57
REMARK SMILES IDX 74 58 41 59 25 60 26 61 34 62 27 63 33 64 35 65 32 66 28 67
REMARK SMILES IDX 29 68 30 69 31 70 57 71 58 72 66 73 59 74 65 75 67 76 64 77
REMARK SMILES IDX 60 78 61 79 62 80 63 81 42 82 43 83 51 84 44 85 50 86 52 87
REMARK SMILES IDX 49 88 45 89 46 90 47 91 48 92
REMARK H PARENT 9 6 13 26 72 45 40 56
REMARK Flexibility Score: inf
ROOT
ATOM      1  C   UNL A   1      35.491  21.392  25.433  1.00  0.00     0.042 C 
ENDROOT
BRANCH   1   2
ATOM      2  C   UNL A   1      35.494  19.980  24.844  1.00  0.00     0.118 C 
BRANCH   2   3
ATOM      3  N   UNL A   1      34.268  19.270  25.162  1.00  0.00    -0.352 N 
ATOM      4  C   UNL A   1      32.941  19.607  25.120  1.00  0.00     0.251 C 
ATOM      5  O   UNL A   1      32.134  18.725  25.426  1.00  0.00    -0.269 OA
ATOM      6  H   UNL A   1      34.423  18.350  25.475  1.00  0.00     0.163 HD
BRANCH   4   7
ATOM      7  C   UNL A   1      32.413  20.939  24.704  1.00  0.00     0.041 A 
ATOM      8  C   UNL A   1      31.358  23.421  23.719  1.00  0.00    -0.030 A 
ATOM      9  C   UNL A   1      31.807  22.397  22.858  1.00  0.00     0.006 A 
ATOM     10  C   UNL A   1      31.510  23.203  25.097  1.00  0.00     0.071 A 
ATOM     11  C   UNL A   1      32.345  21.198  23.338  1.00  0.00     0.014 A 
ATOM     12  C   UNL A   1      31.957  21.936  25.559  1.00  0.00     0.034 A 
BRANCH   8  13
ATOM     13  C   UNL A   1      30.650  24.605  23.126  1.00  0.00     0.033 C 
ATOM     14  C   UNL A   1      31.456  25.601  22.298  1.00  0.00     0.009 C 
ENDBRANCH   8  13
BRANCH  10  15
ATOM     15  S   UNL A   1      31.283  24.329  26.479  1.00  0.00     0.181 S 
ATOM     16  O   UNL A   1      29.847  24.528  26.545  1.00  0.00    -0.223 OA
ATOM     17  O   UNL A   1      31.923  23.631  27.588  1.00  0.00    -0.223 OA
BRANCH  15  18
ATOM     18  C   UNL A   1      32.058  25.918  26.455  1.00  0.00     0.113 C 
BRANCH  18  19
ATOM     19  C   UNL A   1      33.282  26.082  25.515  1.00  0.00     0.017 C 
ATOM     20  C   UNL A   1      34.473  25.138  25.621  1.00  0.00     0.005 C 
ENDBRANCH  18  19
BRANCH  18  21
ATOM     21  C   UNL A   1      31.220  27.196  26.642  1.00  0.00     0.017 C 
ATOM     22  C   UNL A   1      31.800  28.242  27.585  1.00  0.00     0.005 C 
ENDBRANCH  18  21
ENDBRANCH  15  18
ENDBRANCH  10  15
ENDBRANCH   4   7
ENDBRANCH   2   3
ENDBRANCH   1   2
BRANCH   1  23
ATOM     23  C   UNL A   1      36.893  21.929  25.722  1.00  0.00     0.118 C 
BRANCH  23  24
ATOM     24  N   UNL A   1      37.852  20.854  25.932  1.00  0.00    -0.352 N 
ATOM     25  C   UNL A   1      39.195  20.911  26.203  1.00  0.00     0.251 C 
ATOM     26  H   UNL A   1      37.480  19.945  25.867  1.00  0.00     0.163 HD
ATOM     27  O   UNL A   1      39.867  19.886  26.106  1.00  0.00    -0.269 OA
BRANCH  25  28
ATOM     28  C   UNL A   1      39.836  22.183  26.603  1.00  0.00     0.039 A 
ATOM     29  C   UNL A   1      39.522  23.346  25.892  1.00  0.00     0.014 A 
ATOM     30  C   UNL A   1      40.786  22.226  27.627  1.00  0.00     0.014 A 
ATOM     31  C   UNL A   1      40.131  24.555  26.232  1.00  0.00     0.010 A 
ATOM     32  C   UNL A   1      41.347  23.445  28.006  1.00  0.00     0.010 A 
ATOM     33  C   UNL A   1      41.034  24.619  27.305  1.00  0.00    -0.014 A 
BRANCH  33  34
ATOM     34  C   UNL A   1      41.680  25.901  27.691  1.00  0.00     0.031 A 
ATOM     35  C   UNL A   1      40.908  26.921  28.485  1.00  0.00     0.074 A 
ATOM     36  C   UNL A   1      42.935  26.167  27.281  1.00  0.00     0.049 A 
ATOM     37  N   UNL A   1      41.256  28.130  28.844  1.00  0.00    -0.248 NA
ATOM     38  C   UNL A   1      39.551  26.537  28.905  1.00  0.00     0.031 C 
ATOM     39  C   UNL A   1      43.769  25.267  26.481  1.00  0.00     0.029 A 
ATOM     40  N   UNL A   1      43.725  27.273  27.467  1.00  0.00    -0.354 N 
ATOM     41  C   UNL A   1      40.159  28.658  29.516  1.00  0.00     0.074 A 
ATOM     42  C   UNL A   1      39.115  27.656  29.465  1.00  0.00     0.031 C 
ATOM     43  C   UNL A   1      44.959  25.850  26.261  1.00  0.00     0.029 A 
ATOM     44  C   UNL A   1      44.957  27.180  26.863  1.00  0.00     0.049 A 
ATOM     45  H   UNL A   1      43.438  28.059  27.985  1.00  0.00     0.167 HD
ATOM     46  C   UNL A   1      40.041  29.860  30.135  1.00  0.00     0.034 A 
ATOM     47  C   UNL A   1      45.966  28.071  26.789  1.00  0.00     0.034 A 
ATOM     48  C   UNL A   1      41.098  30.840  30.187  1.00  0.00     0.049 A 
ATOM     49  C   UNL A   1      45.806  29.407  27.471  1.00  0.00     0.074 A 
ATOM     50  C   UNL A   1      41.106  32.068  30.825  1.00  0.00     0.029 A 
ATOM     51  N   UNL A   1      42.338  30.707  29.573  1.00  0.00    -0.354 N 
ATOM     52  N   UNL A   1      44.776  29.875  28.137  1.00  0.00    -0.248 NA
ATOM     53  C   UNL A   1      46.948  30.326  27.402  1.00  0.00     0.031 C 
ATOM     54  C   UNL A   1      42.323  32.701  30.546  1.00  0.00     0.029 A 
ATOM     55  C   UNL A   1      43.106  31.839  29.795  1.00  0.00     0.049 A 
ATOM     56  H   UNL A   1      42.628  29.921  29.054  1.00  0.00     0.167 HD
ATOM     57  C   UNL A   1      45.162  31.132  28.595  1.00  0.00     0.074 A 
ATOM     58  C   UNL A   1      46.522  31.340  28.139  1.00  0.00     0.031 C 
ATOM     59  C   UNL A   1      44.458  32.033  29.329  1.00  0.00     0.034 A 
BRANCH  46  60
ATOM     60  C   UNL A   1      38.711  30.185  30.775  1.00  0.00     0.023 A 
ATOM     61  C   UNL A   1      37.695  30.854  30.071  1.00  0.00     0.031 A 
ATOM     62  C   UNL A   1      38.464  29.844  32.117  1.00  0.00     0.131 A 
ATOM     63  C   UNL A   1      36.514  31.230  30.730  1.00  0.00     0.055 A 
ATOM     64  C   UNL A   1      37.253  30.148  32.745  1.00  0.00     0.041 A 
ATOM     65  F   UNL A   1      39.402  29.220  32.848  1.00  0.00    -0.206 F 
ATOM     66  C   UNL A   1      36.276  30.859  32.056  1.00  0.00     0.022 A 
BRANCH  63  67
ATOM     67  S   UNL A   1      35.357  32.334  29.875  1.00  0.00     0.124 S 
ATOM     68  O   UNL A   1      36.220  33.465  29.543  1.00  0.00    -0.237 OA
ATOM     69  O   UNL A   1      34.913  31.518  28.752  1.00  0.00    -0.237 OA
ATOM     70  O   UNL A   1      34.338  32.614  30.885  1.00  0.00    -0.744 OA
ENDBRANCH  63  67
ENDBRANCH  46  60
BRANCH  47  71
ATOM     71  C   UNL A   1      47.212  27.743  26.037  1.00  0.00     0.023 A 
ATOM     72  C   UNL A   1      47.294  27.943  24.651  1.00  0.00     0.031 A 
ATOM     73  C   UNL A   1      48.326  27.186  26.691  1.00  0.00     0.131 A 
ATOM     74  C   UNL A   1      48.445  27.545  23.953  1.00  0.00     0.055 A 
ATOM     75  C   UNL A   1      49.489  26.841  26.000  1.00  0.00     0.041 A 
ATOM     76  F   UNL A   1      48.302  26.979  28.017  1.00  0.00    -0.206 F 
ATOM     77  C   UNL A   1      49.548  27.006  24.620  1.00  0.00     0.022 A 
BRANCH  74  78
ATOM     78  S   UNL A   1      48.445  27.658  22.142  1.00  0.00     0.124 S 
ATOM     79  O   UNL A   1      48.640  26.264  21.757  1.00  0.00    -0.237 OA
ATOM     80  O   UNL A   1      47.125  28.220  21.875  1.00  0.00    -0.237 OA
ATOM     81  O   UNL A   1      49.568  28.547  21.857  1.00  0.00    -0.744 OA
ENDBRANCH  74  78
ENDBRANCH  47  71
BRANCH  59  82
ATOM     82  C   UNL A   1      45.176  33.299  29.726  1.00  0.00     0.023 A 
ATOM     83  C   UNL A   1      45.102  34.469  28.950  1.00  0.00     0.031 A 
ATOM     84  C   UNL A   1      45.956  33.329  30.896  1.00  0.00     0.131 A 
ATOM     85  C   UNL A   1      45.840  35.603  29.323  1.00  0.00     0.055 A 
ATOM     86  C   UNL A   1      46.641  34.477  31.293  1.00  0.00     0.041 A 
ATOM     87  F   UNL A   1      46.064  32.239  31.672  1.00  0.00    -0.206 F 
ATOM     88  C   UNL A   1      46.595  35.619  30.498  1.00  0.00     0.022 A 
BRANCH  85  89
ATOM     89  S   UNL A   1      45.873  37.028  28.203  1.00  0.00     0.124 S 
ATOM     90  O   UNL A   1      45.655  38.142  29.122  1.00  0.00    -0.237 OA
ATOM     91  O   UNL A   1      47.207  36.937  27.619  1.00  0.00    -0.237 OA
ATOM     92  O   UNL A   1      44.772  36.765  27.278  1.00  0.00    -0.744 OA
ENDBRANCH  85  89
ENDBRANCH  59  82
ENDBRANCH  33  34
ENDBRANCH  25  28
ENDBRANCH  23  24
ENDBRANCH   1  23
TORSDOF 18
ENDMDL
MODEL 3
REMARK VINA RESULT:     -11.1      5.309     10.142
REMARK SMILES CCc1ccc(C(=O)NCCCNC(=O)c2ccc(-c3c4nc(c(-c5cc(S(=O)(=O)[O-])ccc5F)c5ccc([nH]5)c(-c5cc(S(=O)(=O)[O-])ccc5F)c5nc(c(-c6cc(S(=O)(=O)[O-])ccc6F)c6ccc3[nH]6)C=C5)C=C4)cc2)cc1S(=O)(=O)C(CC)CC
REMARK SMILES IDX 11 1 10 2 9 3 7 4 8 5 6 7 3 8 4 9 80 10 5 11 79 12 2 13 1 14
REMARK SMILES IDX 81 15 82 16 83 17 84 18 85 19 86 20 87 21 88 22 12 23 13 24
REMARK SMILES IDX 14 25 15 27 16 28 17 29 78 30 18 31 77 32 19 33 20 34 21 35
REMARK SMILES IDX 71 36 22 37 76 38 70 39 72 40 23 41 75 42 69 43 68 44 24 46
REMARK SMILES IDX 56 47 36 48 55 49 37 50 40 51 54 52 73 53 38 54 39 55 53 57
REMARK SMILES IDX 74 58 41 59 25 60 26 61 34 62 27 63 33 64 35 65 32 66 28 67
REMARK SMILES IDX 29 68 30 69 31 70 57 71 58 72 66 73 59 74 65 75 67 76 64 77
REMARK SMILES IDX 60 78 61 79 62 80 63 81 42 82 43 83 51 84 44 85 50 86 52 87
REMARK SMILES IDX 49 88 45 89 46 90 47 91 48 92
REMARK H PARENT 9 6 13 26 72 45 40 56
REMARK Flexibility Score: inf
ROOT
ATOM      1  C   UNL A   1      37.187  19.738  24.824  1.00  0.00     0.042 C 
ENDROOT
BRANCH   1   2
ATOM      2  C   UNL A   1      35.871  20.497  25.005  1.00  0.00     0.118 C 
BRANCH   2   3
ATOM      3  N   UNL A   1      34.749  19.586  25.146  1.00  0.00    -0.352 N 
ATOM      4  C   UNL A   1      33.394  19.722  24.993  1.00  0.00     0.251 C 
ATOM      5  O   UNL A   1      32.713  18.706  25.152  1.00  0.00    -0.269 OA
ATOM      6  H   UNL A   1      35.019  18.676  25.408  1.00  0.00     0.163 HD
BRANCH   4   7
ATOM      7  C   UNL A   1      32.702  20.989  24.620  1.00  0.00     0.041 A 
ATOM      8  C   UNL A   1      31.327  23.343  23.720  1.00  0.00    -0.030 A 
ATOM      9  C   UNL A   1      31.812  22.365  22.827  1.00  0.00     0.006 A 
ATOM     10  C   UNL A   1      31.603  23.151  25.083  1.00  0.00     0.071 A 
ATOM     11  C   UNL A   1      32.506  21.231  23.263  1.00  0.00     0.014 A 
ATOM     12  C   UNL A   1      32.212  21.939  25.508  1.00  0.00     0.034 A 
BRANCH   8  13
ATOM     13  C   UNL A   1      30.457  24.444  23.184  1.00  0.00     0.033 C 
ATOM     14  C   UNL A   1      31.099  25.789  22.853  1.00  0.00     0.009 C 
ENDBRANCH   8  13
BRANCH  10  15
ATOM     15  S   UNL A   1      31.366  24.256  26.479  1.00  0.00     0.181 S 
ATOM     16  O   UNL A   1      29.932  24.480  26.518  1.00  0.00    -0.223 OA
ATOM     17  O   UNL A   1      31.968  23.528  27.589  1.00  0.00    -0.223 OA
BRANCH  15  18
ATOM     18  C   UNL A   1      32.169  25.831  26.500  1.00  0.00     0.113 C 
BRANCH  18  19
ATOM     19  C   UNL A   1      33.537  25.926  25.774  1.00  0.00     0.017 C 
ATOM     20  C   UNL A   1      33.802  27.031  24.761  1.00  0.00     0.005 C 
ENDBRANCH  18  19
BRANCH  18  21
ATOM     21  C   UNL A   1      31.340  27.129  26.474  1.00  0.00     0.017 C 
ATOM     22  C   UNL A   1      31.648  28.139  27.572  1.00  0.00     0.005 C 
ENDBRANCH  18  21
ENDBRANCH  15  18
ENDBRANCH  10  15
ENDBRANCH   4   7
ENDBRANCH   2   3
ENDBRANCH   1   2
BRANCH   1  23
ATOM     23  C   UNL A   1      38.409  20.527  25.293  1.00  0.00     0.118 C 
BRANCH  23  24
ATOM     24  N   UNL A   1      39.470  19.651  25.769  1.00  0.00    -0.352 N 
ATOM     25  C   UNL A   1      40.737  19.952  26.198  1.00  0.00     0.251 C 
ATOM     26  H   UNL A   1      39.243  18.693  25.784  1.00  0.00     0.163 HD
ATOM     27  O   UNL A   1      41.554  19.043  26.329  1.00  0.00    -0.269 OA
BRANCH  25  28
ATOM     28  C   UNL A   1      41.126  21.347  26.497  1.00  0.00     0.039 A 
ATOM     29  C   UNL A   1      41.870  22.056  25.547  1.00  0.00     0.014 A 
ATOM     30  C   UNL A   1      40.819  21.939  27.726  1.00  0.00     0.014 A 
ATOM     31  C   UNL A   1      42.273  23.366  25.814  1.00  0.00     0.010 A 
ATOM     32  C   UNL A   1      41.168  23.267  27.966  1.00  0.00     0.010 A 
ATOM     33  C   UNL A   1      41.908  23.990  27.018  1.00  0.00    -0.014 A 
BRANCH  33  34
ATOM     34  C   UNL A   1      42.313  25.389  27.312  1.00  0.00     0.031 A 
ATOM     35  C   UNL A   1      43.690  25.867  26.936  1.00  0.00     0.074 A 
ATOM     36  C   UNL A   1      41.464  26.207  27.963  1.00  0.00     0.049 A 
ATOM     37  N   UNL A   1      44.266  27.015  27.183  1.00  0.00    -0.248 NA
ATOM     38  C   UNL A   1      44.541  24.911  26.210  1.00  0.00     0.031 C 
ATOM     39  C   UNL A   1      40.115  25.844  28.405  1.00  0.00     0.029 A 
ATOM     40  N   UNL A   1      41.610  27.506  28.380  1.00  0.00    -0.354 N 
ATOM     41  C   UNL A   1      45.551  26.917  26.660  1.00  0.00     0.074 A 
ATOM     42  C   UNL A   1      45.685  25.575  26.132  1.00  0.00     0.031 C 
ATOM     43  C   UNL A   1      39.553  26.901  29.014  1.00  0.00     0.029 A 
ATOM     44  C   UNL A   1      40.513  27.999  29.048  1.00  0.00     0.049 A 
ATOM     45  H   UNL A   1      42.423  28.036  28.216  1.00  0.00     0.167 HD
ATOM     46  C   UNL A   1      46.521  27.864  26.608  1.00  0.00     0.034 A 
ATOM     47  C   UNL A   1      40.311  29.196  29.634  1.00  0.00     0.034 A 
ATOM     48  C   UNL A   1      46.362  29.201  27.127  1.00  0.00     0.049 A 
ATOM     49  C   UNL A   1      41.409  30.228  29.577  1.00  0.00     0.074 A 
ATOM     50  C   UNL A   1      47.258  30.255  27.085  1.00  0.00     0.029 A 
ATOM     51  N   UNL A   1      45.232  29.669  27.787  1.00  0.00    -0.354 N 
ATOM     52  N   UNL A   1      42.605  30.132  29.044  1.00  0.00    -0.248 NA
ATOM     53  C   UNL A   1      41.124  31.531  30.190  1.00  0.00     0.031 C 
ATOM     54  C   UNL A   1      46.696  31.337  27.773  1.00  0.00     0.029 A 
ATOM     55  C   UNL A   1      45.420  30.986  28.179  1.00  0.00     0.049 A 
ATOM     56  H   UNL A   1      44.417  29.142  27.952  1.00  0.00     0.167 HD
ATOM     57  C   UNL A   1      43.201  31.377  29.228  1.00  0.00     0.074 A 
ATOM     58  C   UNL A   1      42.229  32.206  29.910  1.00  0.00     0.031 C 
ATOM     59  C   UNL A   1      44.441  31.797  28.864  1.00  0.00     0.034 A 
BRANCH  46  60
ATOM     60  C   UNL A   1      47.845  27.471  25.994  1.00  0.00     0.023 A 
ATOM     61  C   UNL A   1      48.115  27.671  24.628  1.00  0.00     0.031 A 
ATOM     62  C   UNL A   1      48.842  26.864  26.778  1.00  0.00     0.131 A 
ATOM     63  C   UNL A   1      49.315  27.199  24.074  1.00  0.00     0.055 A 
ATOM     64  C   UNL A   1      50.069  26.471  26.236  1.00  0.00     0.041 A 
ATOM     65  F   UNL A   1      48.637  26.629  28.084  1.00  0.00    -0.206 F 
ATOM     66  C   UNL A   1      50.305  26.624  24.873  1.00  0.00     0.022 A 
BRANCH  63  67
ATOM     67  S   UNL A   1      49.504  27.219  22.270  1.00  0.00     0.124 S 
ATOM     68  O   UNL A   1      49.006  28.552  21.937  1.00  0.00    -0.237 OA
ATOM     69  O   UNL A   1      50.937  27.012  22.100  1.00  0.00    -0.237 OA
ATOM     70  O   UNL A   1      48.655  26.116  21.823  1.00  0.00    -0.744 OA
ENDBRANCH  63  67
ENDBRANCH  46  60
BRANCH  47  71
ATOM     71  C   UNL A   1      39.026  29.487  30.334  1.00  0.00     0.023 A 
ATOM     72  C   UNL A   1      38.044  30.292  29.737  1.00  0.00     0.031 A 
ATOM     73  C   UNL A   1      38.780  28.998  31.630  1.00  0.00     0.131 A 
ATOM     74  C   UNL A   1      36.882  30.623  30.451  1.00  0.00     0.055 A 
ATOM     75  C   UNL A   1      37.599  29.287  32.315  1.00  0.00     0.041 A 
ATOM     76  F   UNL A   1      39.684  28.219  32.245  1.00  0.00    -0.206 F 
ATOM     77  C   UNL A   1      36.647  30.116  31.732  1.00  0.00     0.022 A 
BRANCH  74  78
ATOM     78  S   UNL A   1      35.718  31.806  29.715  1.00  0.00     0.124 S 
ATOM     79  O   UNL A   1      35.131  31.015  28.639  1.00  0.00    -0.237 OA
ATOM     80  O   UNL A   1      34.841  32.108  30.843  1.00  0.00    -0.237 OA
ATOM     81  O   UNL A   1      36.578  32.906  29.285  1.00  0.00    -0.744 OA
ENDBRANCH  74  78
ENDBRANCH  47  71
BRANCH  59  82
ATOM     82  C   UNL A   1      44.784  33.238  29.151  1.00  0.00     0.023 A 
ATOM     83  C   UNL A   1      44.463  34.271  28.253  1.00  0.00     0.031 A 
ATOM     84  C   UNL A   1      45.456  33.578  30.339  1.00  0.00     0.131 A 
ATOM     85  C   UNL A   1      44.862  35.587  28.531  1.00  0.00     0.055 A 
ATOM     86  C   UNL A   1      45.799  34.897  30.637  1.00  0.00     0.041 A 
ATOM     87  F   UNL A   1      45.790  32.631  31.230  1.00  0.00    -0.206 F 
ATOM     88  C   UNL A   1      45.513  35.908  29.725  1.00  0.00     0.022 A 
BRANCH  85  89
ATOM     89  S   UNL A   1      44.600  36.862  27.269  1.00  0.00     0.124 S 
ATOM     90  O   UNL A   1      43.418  36.363  26.573  1.00  0.00    -0.237 OA
ATOM     91  O   UNL A   1      44.406  38.064  28.073  1.00  0.00    -0.237 OA
ATOM     92  O   UNL A   1      45.836  36.833  26.488  1.00  0.00    -0.744 OA
ENDBRANCH  85  89
ENDBRANCH  59  82
ENDBRANCH  33  34
ENDBRANCH  25  28
ENDBRANCH  23  24
ENDBRANCH   1  23
TORSDOF 18
ENDMDL
