MODEL 1
REMARK VINA RESULT:     -12.2      0.000      0.000
REMARK SMILES Cc1ccc(-c2ncccc2C(=O)NCCCNC(=O)c2ccc(-c3c4nc(c(-c5cc(S(=O)(=O)[O-])ccc5F)c5ccc([nH]5)c(-c5cc(S(=O)(=O)[O-])ccc5F)c5nc(c(-c6cc(S(=O)(=O)[O-])ccc6F)c6ccc3[nH]6)C=C5)C=C4)cc2)c(Cl)c1
REMARK SMILES IDX 17 1 16 2 15 3 14 4 12 5 13 6 11 8 6 9 7 10 8 11 10 12 9 13
REMARK SMILES IDX 5 14 1 15 2 16 3 17 86 18 4 19 84 20 85 21 18 22 19 23 20 25
REMARK SMILES IDX 21 26 22 27 83 28 23 29 82 30 24 31 25 32 26 33 76 34 27 35
REMARK SMILES IDX 81 36 75 37 77 38 28 39 80 40 74 41 73 42 29 44 61 45 41 46
REMARK SMILES IDX 60 47 42 48 45 49 59 50 78 51 43 52 44 53 58 55 79 56 46 57
REMARK SMILES IDX 30 58 31 59 39 60 32 61 38 62 40 63 37 64 33 65 34 66 35 67
REMARK SMILES IDX 36 68 62 69 63 70 71 71 64 72 70 73 72 74 69 75 65 76 66 77
REMARK SMILES IDX 67 78 68 79 47 80 48 81 56 82 49 83 55 84 57 85 54 86 50 87
REMARK SMILES IDX 51 88 52 89 53 90
REMARK H PARENT 14 7 18 24 77 43 45 54
REMARK Flexibility Score: inf
ROOT
ATOM      1  C   UNL A   1      32.891  32.425  27.084  1.00  0.00     0.118 C 
ENDROOT
BRANCH   1   2
ATOM      2  C   UNL A   1      31.560  31.763  26.715  1.00  0.00     0.042 C 
BRANCH   2   3
ATOM      3  C   UNL A   1      31.616  30.235  26.722  1.00  0.00     0.118 C 
BRANCH   3   4
ATOM      4  N   UNL A   1      32.240  29.727  25.516  1.00  0.00    -0.352 N 
ATOM      5  C   UNL A   1      31.809  29.274  24.296  1.00  0.00     0.253 C 
ATOM      6  O   UNL A   1      32.727  28.942  23.546  1.00  0.00    -0.269 OA
ATOM      7  H   UNL A   1      33.221  29.700  25.592  1.00  0.00     0.163 HD
BRANCH   5   8
ATOM      8  C   UNL A   1      30.379  29.200  23.847  1.00  0.00     0.066 A 
ATOM      9  C   UNL A   1      29.736  27.954  23.680  1.00  0.00     0.084 A 
ATOM     10  N   UNL A   1      28.463  27.835  23.188  1.00  0.00    -0.255 NA
ATOM     11  C   UNL A   1      27.796  28.957  22.866  1.00  0.00     0.112 A 
ATOM     12  C   UNL A   1      29.602  30.334  23.580  1.00  0.00     0.018 A 
ATOM     13  C   UNL A   1      28.311  30.219  23.063  1.00  0.00     0.021 A 
BRANCH   9  14
ATOM     14  C   UNL A   1      30.284  26.651  24.095  1.00  0.00     0.020 A 
ATOM     15  C   UNL A   1      31.960  22.915  25.523  1.00  0.00     0.044 C 
ATOM     16  C   UNL A   1      31.351  24.191  25.027  1.00  0.00    -0.050 A 
ATOM     17  C   UNL A   1      30.537  24.964  25.855  1.00  0.00     0.004 A 
ATOM     18  C   UNL A   1      31.592  24.627  23.718  1.00  0.00     0.024 A 
ATOM     19  C   UNL A   1      29.999  26.167  25.390  1.00  0.00     0.012 A 
ATOM     20  C   UNL A   1      31.072  25.845  23.258  1.00  0.00     0.050 A 
ATOM     21  Cl  UNL A   1      31.470  26.317  21.639  1.00  0.00    -0.084 Cl
ENDBRANCH   9  14
ENDBRANCH   5   8
ENDBRANCH   3   4
ENDBRANCH   2   3
ENDBRANCH   1   2
BRANCH   1  22
ATOM     22  N   UNL A   1      32.707  33.784  27.574  1.00  0.00    -0.352 N 
ATOM     23  C   UNL A   1      33.257  34.421  28.658  1.00  0.00     0.251 C 
ATOM     24  H   UNL A   1      32.088  34.334  27.041  1.00  0.00     0.163 HD
ATOM     25  O   UNL A   1      32.754  35.472  29.046  1.00  0.00    -0.269 OA
BRANCH  23  26
ATOM     26  C   UNL A   1      34.432  33.855  29.357  1.00  0.00     0.039 A 
ATOM     27  C   UNL A   1      34.224  32.932  30.388  1.00  0.00     0.014 A 
ATOM     28  C   UNL A   1      35.728  34.278  29.054  1.00  0.00     0.014 A 
ATOM     29  C   UNL A   1      35.316  32.397  31.076  1.00  0.00     0.010 A 
ATOM     30  C   UNL A   1      36.820  33.697  29.697  1.00  0.00     0.010 A 
ATOM     31  C   UNL A   1      36.626  32.755  30.719  1.00  0.00    -0.014 A 
BRANCH  31  32
ATOM     32  C   UNL A   1      37.803  32.167  31.411  1.00  0.00     0.031 A 
ATOM     33  C   UNL A   1      38.572  31.043  30.768  1.00  0.00     0.074 A 
ATOM     34  C   UNL A   1      38.141  32.602  32.641  1.00  0.00     0.049 A 
ATOM     35  N   UNL A   1      39.559  30.332  31.249  1.00  0.00    -0.248 NA
ATOM     36  C   UNL A   1      38.153  30.651  29.414  1.00  0.00     0.031 C 
ATOM     37  C   UNL A   1      37.454  33.666  33.378  1.00  0.00     0.029 A 
ATOM     38  N   UNL A   1      39.137  32.199  33.495  1.00  0.00    -0.354 N 
ATOM     39  C   UNL A   1      39.871  29.399  30.265  1.00  0.00     0.074 A 
ATOM     40  C   UNL A   1      38.927  29.601  29.185  1.00  0.00     0.031 C 
ATOM     41  C   UNL A   1      38.061  33.843  34.562  1.00  0.00     0.029 A 
ATOM     42  C   UNL A   1      39.147  32.876  34.693  1.00  0.00     0.049 A 
ATOM     43  H   UNL A   1      39.783  31.491  33.271  1.00  0.00     0.167 HD
ATOM     44  C   UNL A   1      40.863  28.474  30.255  1.00  0.00     0.034 A 
ATOM     45  C   UNL A   1      39.931  32.725  35.778  1.00  0.00     0.034 A 
ATOM     46  C   UNL A   1      41.804  28.296  31.335  1.00  0.00     0.049 A 
ATOM     47  C   UNL A   1      41.011  31.674  35.754  1.00  0.00     0.074 A 
ATOM     48  C   UNL A   1      42.873  27.420  31.414  1.00  0.00     0.029 A 
ATOM     49  N   UNL A   1      41.787  29.006  32.530  1.00  0.00    -0.354 N 
ATOM     50  N   UNL A   1      41.315  30.822  34.800  1.00  0.00    -0.248 NA
ATOM     51  C   UNL A   1      41.863  31.570  36.945  1.00  0.00     0.031 C 
ATOM     52  C   UNL A   1      43.464  27.557  32.675  1.00  0.00     0.029 A 
ATOM     53  C   UNL A   1      42.810  28.570  33.359  1.00  0.00     0.049 A 
ATOM     54  H   UNL A   1      41.143  29.714  32.755  1.00  0.00     0.167 HD
ATOM     55  C   UNL A   1      42.415  30.108  35.267  1.00  0.00     0.074 A 
ATOM     56  C   UNL A   1      42.729  30.638  36.578  1.00  0.00     0.031 C 
ATOM     57  C   UNL A   1      43.107  29.106  34.665  1.00  0.00     0.034 A 
BRANCH  44  58
ATOM     58  C   UNL A   1      40.964  27.573  29.047  1.00  0.00     0.023 A 
ATOM     59  C   UNL A   1      41.961  27.755  28.072  1.00  0.00     0.031 A 
ATOM     60  C   UNL A   1      40.037  26.533  28.852  1.00  0.00     0.131 A 
ATOM     61  C   UNL A   1      41.964  26.961  26.915  1.00  0.00     0.055 A 
ATOM     62  C   UNL A   1      40.096  25.693  27.738  1.00  0.00     0.041 A 
ATOM     63  F   UNL A   1      39.051  26.321  29.738  1.00  0.00    -0.206 F 
ATOM     64  C   UNL A   1      41.054  25.915  26.753  1.00  0.00     0.022 A 
BRANCH  61  65
ATOM     65  S   UNL A   1      43.086  27.408  25.563  1.00  0.00     0.124 S 
ATOM     66  O   UNL A   1      44.124  28.149  26.275  1.00  0.00    -0.237 OA
ATOM     67  O   UNL A   1      43.479  26.106  25.035  1.00  0.00    -0.237 OA
ATOM     68  O   UNL A   1      42.251  28.215  24.675  1.00  0.00    -0.744 OA
ENDBRANCH  61  65
ENDBRANCH  44  58
BRANCH  45  69
ATOM     69  C   UNL A   1      39.726  33.575  36.986  1.00  0.00     0.023 A 
ATOM     70  C   UNL A   1      39.061  33.074  38.116  1.00  0.00     0.031 A 
ATOM     71  C   UNL A   1      40.144  34.918  37.010  1.00  0.00     0.131 A 
ATOM     72  C   UNL A   1      38.786  33.921  39.200  1.00  0.00     0.055 A 
ATOM     73  C   UNL A   1      39.918  35.742  38.114  1.00  0.00     0.041 A 
ATOM     74  F   UNL A   1      40.790  35.447  35.959  1.00  0.00    -0.206 F 
ATOM     75  C   UNL A   1      39.220  35.248  39.213  1.00  0.00     0.022 A 
BRANCH  72  76
ATOM     76  S   UNL A   1      37.764  33.287  40.558  1.00  0.00     0.124 S 
ATOM     77  O   UNL A   1      36.720  32.571  39.836  1.00  0.00    -0.237 OA
ATOM     78  O   UNL A   1      38.718  32.463  41.294  1.00  0.00    -0.237 OA
ATOM     79  O   UNL A   1      37.328  34.499  41.249  1.00  0.00    -0.744 OA
ENDBRANCH  72  76
ENDBRANCH  45  69
BRANCH  57  80
ATOM     80  C   UNL A   1      44.303  28.561  35.407  1.00  0.00     0.023 A 
ATOM     81  C   UNL A   1      44.177  27.545  36.370  1.00  0.00     0.031 A 
ATOM     82  C   UNL A   1      45.585  29.079  35.152  1.00  0.00     0.131 A 
ATOM     83  C   UNL A   1      45.306  27.119  37.086  1.00  0.00     0.055 A 
ATOM     84  C   UNL A   1      46.714  28.608  35.824  1.00  0.00     0.041 A 
ATOM     85  F   UNL A   1      45.761  30.051  34.243  1.00  0.00    -0.206 F 
ATOM     86  C   UNL A   1      46.576  27.632  36.807  1.00  0.00     0.022 A 
BRANCH  83  87
ATOM     87  S   UNL A   1      45.080  25.945  38.450  1.00  0.00     0.124 S 
ATOM     88  O   UNL A   1      44.542  24.778  37.760  1.00  0.00    -0.237 OA
ATOM     89  O   UNL A   1      46.437  25.808  38.971  1.00  0.00    -0.237 OA
ATOM     90  O   UNL A   1      44.142  26.628  39.339  1.00  0.00    -0.744 OA
ENDBRANCH  83  87
ENDBRANCH  57  80
ENDBRANCH  31  32
ENDBRANCH  23  26
ENDBRANCH   1  22
TORSDOF 14
ENDMDL
MODEL 2
REMARK VINA RESULT:     -12.2      2.453      3.391
REMARK SMILES Cc1ccc(-c2ncccc2C(=O)NCCCNC(=O)c2ccc(-c3c4nc(c(-c5cc(S(=O)(=O)[O-])ccc5F)c5ccc([nH]5)c(-c5cc(S(=O)(=O)[O-])ccc5F)c5nc(c(-c6cc(S(=O)(=O)[O-])ccc6F)c6ccc3[nH]6)C=C5)C=C4)cc2)c(Cl)c1
REMARK SMILES IDX 17 1 16 2 15 3 14 4 12 5 13 6 11 8 6 9 7 10 8 11 10 12 9 13
REMARK SMILES IDX 5 14 1 15 2 16 3 17 86 18 4 19 84 20 85 21 18 22 19 23 20 25
REMARK SMILES IDX 21 26 22 27 83 28 23 29 82 30 24 31 25 32 26 33 76 34 27 35
REMARK SMILES IDX 81 36 75 37 77 38 28 39 80 40 74 41 73 42 29 44 61 45 41 46
REMARK SMILES IDX 60 47 42 48 45 49 59 50 78 51 43 52 44 53 58 55 79 56 46 57
REMARK SMILES IDX 30 58 31 59 39 60 32 61 38 62 40 63 37 64 33 65 34 66 35 67
REMARK SMILES IDX 36 68 62 69 63 70 71 71 64 72 70 73 72 74 69 75 65 76 66 77
REMARK SMILES IDX 67 78 68 79 47 80 48 81 56 82 49 83 55 84 57 85 54 86 50 87
REMARK SMILES IDX 51 88 52 89 53 90
REMARK H PARENT 14 7 18 24 77 43 45 54
REMARK Flexibility Score: inf
ROOT
ATOM      1  C   UNL A   1      33.035  28.743  25.248  1.00  0.00     0.118 C 
ENDROOT
BRANCH   1   2
ATOM      2  C   UNL A   1      34.107  28.775  24.155  1.00  0.00     0.042 C 
BRANCH   2   3
ATOM      3  C   UNL A   1      33.538  28.958  22.748  1.00  0.00     0.118 C 
BRANCH   3   4
ATOM      4  N   UNL A   1      33.571  27.715  22.002  1.00  0.00    -0.352 N 
ATOM      5  C   UNL A   1      32.927  26.508  22.065  1.00  0.00     0.253 C 
ATOM      6  O   UNL A   1      33.277  25.720  21.185  1.00  0.00    -0.269 OA
ATOM      7  H   UNL A   1      34.221  27.747  21.263  1.00  0.00     0.163 HD
BRANCH   5   8
ATOM      8  C   UNL A   1      31.866  26.134  23.057  1.00  0.00     0.066 A 
ATOM      9  C   UNL A   1      32.087  25.106  24.001  1.00  0.00     0.084 A 
ATOM     10  N   UNL A   1      31.117  24.672  24.866  1.00  0.00    -0.255 NA
ATOM     11  C   UNL A   1      29.911  25.263  24.823  1.00  0.00     0.112 A 
ATOM     12  C   UNL A   1      30.621  26.772  23.123  1.00  0.00     0.018 A 
ATOM     13  C   UNL A   1      29.624  26.323  23.991  1.00  0.00     0.021 A 
BRANCH   9  14
ATOM     14  C   UNL A   1      33.379  24.445  24.253  1.00  0.00     0.020 A 
ATOM     15  C   UNL A   1      37.286  22.712  24.984  1.00  0.00     0.044 C 
ATOM     16  C   UNL A   1      35.926  23.299  24.761  1.00  0.00    -0.050 A 
ATOM     17  C   UNL A   1      35.522  24.448  25.441  1.00  0.00     0.004 A 
ATOM     18  C   UNL A   1      35.036  22.697  23.861  1.00  0.00     0.024 A 
ATOM     19  C   UNL A   1      34.262  25.002  25.201  1.00  0.00     0.012 A 
ATOM     20  C   UNL A   1      33.780  23.266  23.603  1.00  0.00     0.050 A 
ATOM     21  Cl  UNL A   1      32.774  22.473  22.437  1.00  0.00    -0.084 Cl
ENDBRANCH   9  14
ENDBRANCH   5   8
ENDBRANCH   3   4
ENDBRANCH   2   3
ENDBRANCH   1   2
BRANCH   1  22
ATOM     22  N   UNL A   1      32.553  30.078  25.578  1.00  0.00    -0.352 N 
ATOM     23  C   UNL A   1      32.890  30.916  26.611  1.00  0.00     0.251 C 
ATOM     24  H   UNL A   1      31.876  30.436  24.959  1.00  0.00     0.163 HD
ATOM     25  O   UNL A   1      32.165  31.875  26.857  1.00  0.00    -0.269 OA
BRANCH  23  26
ATOM     26  C   UNL A   1      34.103  30.671  27.424  1.00  0.00     0.039 A 
ATOM     27  C   UNL A   1      34.278  29.414  28.012  1.00  0.00     0.014 A 
ATOM     28  C   UNL A   1      35.028  31.688  27.668  1.00  0.00     0.014 A 
ATOM     29  C   UNL A   1      35.405  29.163  28.799  1.00  0.00     0.010 A 
ATOM     30  C   UNL A   1      36.184  31.419  28.400  1.00  0.00     0.010 A 
ATOM     31  C   UNL A   1      36.382  30.156  28.979  1.00  0.00    -0.014 A 
BRANCH  31  32
ATOM     32  C   UNL A   1      37.608  29.897  29.779  1.00  0.00     0.031 A 
ATOM     33  C   UNL A   1      38.686  28.996  29.237  1.00  0.00     0.074 A 
ATOM     34  C   UNL A   1      37.721  30.422  31.015  1.00  0.00     0.049 A 
ATOM     35  N   UNL A   1      39.777  28.567  29.817  1.00  0.00    -0.248 NA
ATOM     36  C   UNL A   1      38.493  28.490  27.869  1.00  0.00     0.031 C 
ATOM     37  C   UNL A   1      36.730  31.288  31.659  1.00  0.00     0.029 A 
ATOM     38  N   UNL A   1      38.713  30.299  31.956  1.00  0.00    -0.354 N 
ATOM     39  C   UNL A   1      40.395  27.729  28.893  1.00  0.00     0.074 A 
ATOM     40  C   UNL A   1      39.523  27.669  27.738  1.00  0.00     0.031 C 
ATOM     41  C   UNL A   1      37.172  31.631  32.879  1.00  0.00     0.029 A 
ATOM     42  C   UNL A   1      38.453  30.974  33.127  1.00  0.00     0.049 A 
ATOM     43  H   UNL A   1      39.533  29.776  31.808  1.00  0.00     0.167 HD
ATOM     44  C   UNL A   1      41.586  27.088  28.992  1.00  0.00     0.034 A 
ATOM     45  C   UNL A   1      39.157  31.044  34.273  1.00  0.00     0.034 A 
ATOM     46  C   UNL A   1      42.448  27.171  30.146  1.00  0.00     0.049 A 
ATOM     47  C   UNL A   1      40.466  30.302  34.368  1.00  0.00     0.074 A 
ATOM     48  C   UNL A   1      43.694  26.597  30.337  1.00  0.00     0.029 A 
ATOM     49  N   UNL A   1      42.154  27.871  31.310  1.00  0.00    -0.354 N 
ATOM     50  N   UNL A   1      41.053  29.541  33.471  1.00  0.00    -0.248 NA
ATOM     51  C   UNL A   1      41.215  30.436  35.624  1.00  0.00     0.031 C 
ATOM     52  C   UNL A   1      44.124  26.899  31.634  1.00  0.00     0.029 A 
ATOM     53  C   UNL A   1      43.182  27.722  32.229  1.00  0.00     0.049 A 
ATOM     54  H   UNL A   1      41.335  28.395  31.460  1.00  0.00     0.167 HD
ATOM     55  C   UNL A   1      42.254  29.137  34.046  1.00  0.00     0.074 A 
ATOM     56  C   UNL A   1      42.315  29.749  35.357  1.00  0.00     0.031 C 
ATOM     57  C   UNL A   1      43.224  28.336  33.535  1.00  0.00     0.034 A 
BRANCH  44  58
ATOM     58  C   UNL A   1      42.010  26.224  27.827  1.00  0.00     0.023 A 
ATOM     59  C   UNL A   1      41.602  24.883  27.716  1.00  0.00     0.031 A 
ATOM     60  C   UNL A   1      42.852  26.739  26.825  1.00  0.00     0.131 A 
ATOM     61  C   UNL A   1      42.094  24.084  26.673  1.00  0.00     0.055 A 
ATOM     62  C   UNL A   1      43.273  25.960  25.745  1.00  0.00     0.041 A 
ATOM     63  F   UNL A   1      43.291  28.006  26.886  1.00  0.00    -0.206 F 
ATOM     64  C   UNL A   1      42.906  24.620  25.672  1.00  0.00     0.022 A 
BRANCH  61  65
ATOM     65  S   UNL A   1      41.769  22.300  26.723  1.00  0.00     0.124 S 
ATOM     66  O   UNL A   1      40.345  22.270  27.046  1.00  0.00    -0.237 OA
ATOM     67  O   UNL A   1      42.127  21.876  25.374  1.00  0.00    -0.237 OA
ATOM     68  O   UNL A   1      42.652  21.820  27.784  1.00  0.00    -0.744 OA
ENDBRANCH  61  65
ENDBRANCH  44  58
BRANCH  45  69
ATOM     69  C   UNL A   1      38.645  31.832  35.431  1.00  0.00     0.023 A 
ATOM     70  C   UNL A   1      38.153  31.190  36.578  1.00  0.00     0.031 A 
ATOM     71  C   UNL A   1      38.590  33.236  35.388  1.00  0.00     0.131 A 
ATOM     72  C   UNL A   1      37.579  31.946  37.612  1.00  0.00     0.055 A 
ATOM     73  C   UNL A   1      38.070  33.988  36.443  1.00  0.00     0.041 A 
ATOM     74  F   UNL A   1      39.053  33.902  34.317  1.00  0.00    -0.206 F 
ATOM     75  C   UNL A   1      37.545  33.341  37.558  1.00  0.00     0.022 A 
BRANCH  72  76
ATOM     76  S   UNL A   1      36.788  31.071  38.990  1.00  0.00     0.124 S 
ATOM     77  O   UNL A   1      37.764  31.255  40.058  1.00  0.00    -0.237 OA
ATOM     78  O   UNL A   1      35.534  31.804  39.131  1.00  0.00    -0.237 OA
ATOM     79  O   UNL A   1      36.656  29.703  38.493  1.00  0.00    -0.744 OA
ENDBRANCH  72  76
ENDBRANCH  45  69
BRANCH  57  80
ATOM     80  C   UNL A   1      44.453  28.124  34.384  1.00  0.00     0.023 A 
ATOM     81  C   UNL A   1      44.595  26.999  35.215  1.00  0.00     0.031 A 
ATOM     82  C   UNL A   1      45.491  29.072  34.369  1.00  0.00     0.131 A 
ATOM     83  C   UNL A   1      45.722  26.879  36.041  1.00  0.00     0.055 A 
ATOM     84  C   UNL A   1      46.639  28.917  35.148  1.00  0.00     0.041 A 
ATOM     85  F   UNL A   1      45.407  30.166  33.595  1.00  0.00    -0.206 F 
ATOM     86  C   UNL A   1      46.753  27.822  36.001  1.00  0.00     0.022 A 
BRANCH  83  87
ATOM     87  S   UNL A   1      45.785  25.517  37.237  1.00  0.00     0.124 S 
ATOM     88  O   UNL A   1      47.066  25.750  37.895  1.00  0.00    -0.237 OA
ATOM     89  O   UNL A   1      44.598  25.761  38.050  1.00  0.00    -0.237 OA
ATOM     90  O   UNL A   1      45.727  24.320  36.399  1.00  0.00    -0.744 OA
ENDBRANCH  83  87
ENDBRANCH  57  80
ENDBRANCH  31  32
ENDBRANCH  23  26
ENDBRANCH   1  22
TORSDOF 14
ENDMDL
MODEL 3
REMARK VINA RESULT:     -12.1      3.988      8.701
REMARK SMILES Cc1ccc(-c2ncccc2C(=O)NCCCNC(=O)c2ccc(-c3c4nc(c(-c5cc(S(=O)(=O)[O-])ccc5F)c5ccc([nH]5)c(-c5cc(S(=O)(=O)[O-])ccc5F)c5nc(c(-c6cc(S(=O)(=O)[O-])ccc6F)c6ccc3[nH]6)C=C5)C=C4)cc2)c(Cl)c1
REMARK SMILES IDX 17 1 16 2 15 3 14 4 12 5 13 6 11 8 6 9 7 10 8 11 10 12 9 13
REMARK SMILES IDX 5 14 1 15 2 16 3 17 86 18 4 19 84 20 85 21 18 22 19 23 20 25
REMARK SMILES IDX 21 26 22 27 83 28 23 29 82 30 24 31 25 32 26 33 76 34 27 35
REMARK SMILES IDX 81 36 75 37 77 38 28 39 80 40 74 41 73 42 29 44 61 45 41 46
REMARK SMILES IDX 60 47 42 48 45 49 59 50 78 51 43 52 44 53 58 55 79 56 46 57
REMARK SMILES IDX 30 58 31 59 39 60 32 61 38 62 40 63 37 64 33 65 34 66 35 67
REMARK SMILES IDX 36 68 62 69 63 70 71 71 64 72 70 73 72 74 69 75 65 76 66 77
REMARK SMILES IDX 67 78 68 79 47 80 48 81 56 82 49 83 55 84 57 85 54 86 50 87
REMARK SMILES IDX 51 88 52 89 53 90
REMARK H PARENT 14 7 18 24 77 43 45 54
REMARK Flexibility Score: inf
ROOT
ATOM      1  C   UNL A   1      33.871  29.222  26.160  1.00  0.00     0.118 C 
ENDROOT
BRANCH   1   2
ATOM      2  C   UNL A   1      33.292  28.188  27.130  1.00  0.00     0.042 C 
BRANCH   2   3
ATOM      3  C   UNL A   1      31.783  28.324  27.338  1.00  0.00     0.118 C 
BRANCH   3   4
ATOM      4  N   UNL A   1      31.114  27.047  27.179  1.00  0.00    -0.352 N 
ATOM      5  C   UNL A   1      30.714  26.265  26.127  1.00  0.00     0.253 C 
ATOM      6  O   UNL A   1      30.175  25.215  26.476  1.00  0.00    -0.269 OA
ATOM      7  H   UNL A   1      30.891  26.639  28.047  1.00  0.00     0.163 HD
BRANCH   5   8
ATOM      8  C   UNL A   1      30.915  26.584  24.675  1.00  0.00     0.066 A 
ATOM      9  C   UNL A   1      32.018  26.060  23.965  1.00  0.00     0.084 A 
ATOM     10  N   UNL A   1      32.290  26.394  22.664  1.00  0.00    -0.255 NA
ATOM     11  C   UNL A   1      31.461  27.246  22.037  1.00  0.00     0.112 A 
ATOM     12  C   UNL A   1      30.039  27.393  23.941  1.00  0.00     0.018 A 
ATOM     13  C   UNL A   1      30.320  27.750  22.622  1.00  0.00     0.021 A 
BRANCH   9  14
ATOM     14  C   UNL A   1      32.944  25.031  24.470  1.00  0.00     0.020 A 
ATOM     15  C   UNL A   1      35.847  22.118  25.846  1.00  0.00     0.044 C 
ATOM     16  C   UNL A   1      34.837  23.132  25.402  1.00  0.00    -0.050 A 
ATOM     17  C   UNL A   1      35.112  24.498  25.481  1.00  0.00     0.004 A 
ATOM     18  C   UNL A   1      33.596  22.720  24.899  1.00  0.00     0.024 A 
ATOM     19  C   UNL A   1      34.172  25.432  25.036  1.00  0.00     0.012 A 
ATOM     20  C   UNL A   1      32.663  23.656  24.431  1.00  0.00     0.050 A 
ATOM     21  Cl  UNL A   1      31.179  23.041  23.783  1.00  0.00    -0.084 Cl
ENDBRANCH   9  14
ENDBRANCH   5   8
ENDBRANCH   3   4
ENDBRANCH   2   3
ENDBRANCH   1   2
BRANCH   1  22
ATOM     22  N   UNL A   1      33.768  30.578  26.683  1.00  0.00    -0.352 N 
ATOM     23  C   UNL A   1      34.460  31.197  27.693  1.00  0.00     0.251 C 
ATOM     24  H   UNL A   1      33.092  31.141  26.239  1.00  0.00     0.163 HD
ATOM     25  O   UNL A   1      34.025  32.249  28.152  1.00  0.00    -0.269 OA
BRANCH  23  26
ATOM     26  C   UNL A   1      35.708  30.611  28.230  1.00  0.00     0.039 A 
ATOM     27  C   UNL A   1      35.646  29.847  29.400  1.00  0.00     0.014 A 
ATOM     28  C   UNL A   1      36.944  30.866  27.630  1.00  0.00     0.014 A 
ATOM     29  C   UNL A   1      36.813  29.298  29.938  1.00  0.00     0.010 A 
ATOM     30  C   UNL A   1      38.099  30.265  28.131  1.00  0.00     0.010 A 
ATOM     31  C   UNL A   1      38.047  29.480  29.293  1.00  0.00    -0.014 A 
BRANCH  31  32
ATOM     32  C   UNL A   1      39.295  28.871  29.826  1.00  0.00     0.031 A 
ATOM     33  C   UNL A   1      39.963  29.462  31.039  1.00  0.00     0.074 A 
ATOM     34  C   UNL A   1      39.856  27.829  29.183  1.00  0.00     0.049 A 
ATOM     35  N   UNL A   1      41.103  29.142  31.595  1.00  0.00    -0.248 NA
ATOM     36  C   UNL A   1      39.267  30.579  31.694  1.00  0.00     0.031 C 
ATOM     37  C   UNL A   1      39.316  27.188  27.981  1.00  0.00     0.029 A 
ATOM     38  N   UNL A   1      41.009  27.130  29.439  1.00  0.00    -0.354 N 
ATOM     39  C   UNL A   1      41.270  30.026  32.657  1.00  0.00     0.074 A 
ATOM     40  C   UNL A   1      40.139  30.931  32.627  1.00  0.00     0.031 C 
ATOM     41  C   UNL A   1      40.125  26.181  27.618  1.00  0.00     0.029 A 
ATOM     42  C   UNL A   1      41.267  26.131  28.527  1.00  0.00     0.049 A 
ATOM     43  H   UNL A   1      41.597  27.324  30.204  1.00  0.00     0.167 HD
ATOM     44  C   UNL A   1      42.262  30.067  33.580  1.00  0.00     0.034 A 
ATOM     45  C   UNL A   1      42.309  25.284  28.427  1.00  0.00     0.034 A 
ATOM     46  C   UNL A   1      43.375  29.149  33.603  1.00  0.00     0.049 A 
ATOM     47  C   UNL A   1      43.413  25.365  29.451  1.00  0.00     0.074 A 
ATOM     48  C   UNL A   1      44.414  29.072  34.516  1.00  0.00     0.029 A 
ATOM     49  N   UNL A   1      43.597  28.146  32.667  1.00  0.00    -0.354 N 
ATOM     50  N   UNL A   1      43.537  26.186  30.470  1.00  0.00    -0.248 NA
ATOM     51  C   UNL A   1      44.510  24.399  29.320  1.00  0.00     0.031 C 
ATOM     52  C   UNL A   1      45.293  28.066  34.099  1.00  0.00     0.029 A 
ATOM     53  C   UNL A   1      44.767  27.464  32.967  1.00  0.00     0.049 A 
ATOM     54  H   UNL A   1      43.011  27.949  31.902  1.00  0.00     0.167 HD
ATOM     55  C   UNL A   1      44.710  25.808  31.118  1.00  0.00     0.074 A 
ATOM     56  C   UNL A   1      45.245  24.680  30.385  1.00  0.00     0.031 C 
ATOM     57  C   UNL A   1      45.290  26.343  32.223  1.00  0.00     0.034 A 
BRANCH  44  58
ATOM     58  C   UNL A   1      42.195  31.156  34.627  1.00  0.00     0.023 A 
ATOM     59  C   UNL A   1      42.780  32.417  34.417  1.00  0.00     0.031 A 
ATOM     60  C   UNL A   1      41.559  30.923  35.859  1.00  0.00     0.131 A 
ATOM     61  C   UNL A   1      42.784  33.369  35.448  1.00  0.00     0.055 A 
ATOM     62  C   UNL A   1      41.495  31.905  36.851  1.00  0.00     0.041 A 
ATOM     63  F   UNL A   1      40.999  29.733  36.126  1.00  0.00    -0.206 F 
ATOM     64  C   UNL A   1      42.122  33.131  36.654  1.00  0.00     0.022 A 
BRANCH  61  65
ATOM     65  S   UNL A   1      43.784  34.867  35.239  1.00  0.00     0.124 S 
ATOM     66  O   UNL A   1      43.194  35.756  36.237  1.00  0.00    -0.237 OA
ATOM     67  O   UNL A   1      45.132  34.390  35.526  1.00  0.00    -0.237 OA
ATOM     68  O   UNL A   1      43.540  35.251  33.850  1.00  0.00    -0.744 OA
ENDBRANCH  61  65
ENDBRANCH  44  58
BRANCH  45  69
ATOM     69  C   UNL A   1      42.376  24.292  27.315  1.00  0.00     0.023 A 
ATOM     70  C   UNL A   1      41.580  23.137  27.332  1.00  0.00     0.031 A 
ATOM     71  C   UNL A   1      43.276  24.457  26.247  1.00  0.00     0.131 A 
ATOM     72  C   UNL A   1      41.734  22.166  26.330  1.00  0.00     0.055 A 
ATOM     73  C   UNL A   1      43.386  23.515  25.223  1.00  0.00     0.041 A 
ATOM     74  F   UNL A   1      44.058  25.547  26.179  1.00  0.00    -0.206 F 
ATOM     75  C   UNL A   1      42.623  22.352  25.269  1.00  0.00     0.022 A 
BRANCH  72  76
ATOM     76  S   UNL A   1      40.822  20.606  26.487  1.00  0.00     0.124 S 
ATOM     77  O   UNL A   1      39.512  20.973  25.963  1.00  0.00    -0.237 OA
ATOM     78  O   UNL A   1      41.617  19.707  25.657  1.00  0.00    -0.237 OA
ATOM     79  O   UNL A   1      40.866  20.329  27.921  1.00  0.00    -0.744 OA
ENDBRANCH  72  76
ENDBRANCH  45  69
BRANCH  57  80
ATOM     80  C   UNL A   1      46.544  25.673  32.728  1.00  0.00     0.023 A 
ATOM     81  C   UNL A   1      47.794  25.884  32.121  1.00  0.00     0.031 A 
ATOM     82  C   UNL A   1      46.480  24.798  33.828  1.00  0.00     0.131 A 
ATOM     83  C   UNL A   1      48.920  25.184  32.579  1.00  0.00     0.055 A 
ATOM     84  C   UNL A   1      47.615  24.151  34.318  1.00  0.00     0.041 A 
ATOM     85  F   UNL A   1      45.312  24.560  34.445  1.00  0.00    -0.206 F 
ATOM     86  C   UNL A   1      48.842  24.332  33.685  1.00  0.00     0.022 A 
BRANCH  83  87
ATOM     87  S   UNL A   1      50.474  25.333  31.656  1.00  0.00     0.124 S 
ATOM     88  O   UNL A   1      51.238  26.248  32.496  1.00  0.00    -0.237 OA
ATOM     89  O   UNL A   1      50.948  23.953  31.621  1.00  0.00    -0.237 OA
ATOM     90  O   UNL A   1      50.056  25.877  30.365  1.00  0.00    -0.744 OA
ENDBRANCH  83  87
ENDBRANCH  57  80
ENDBRANCH  31  32
ENDBRANCH  23  26
ENDBRANCH   1  22
TORSDOF 14
ENDMDL
