MODEL 1
REMARK VINA RESULT:     -12.8      0.000      0.000
REMARK SMILES COc1ccc2c(c1)[C@@](NC=O)(C(=O)NCCCNC(=O)c1ccc(-c3c4nc(c(-c5cc(S(=O)(=O)[O-])ccc5F)c5ccc([nH]5)c(-c5cc(S(=O)(=O)[O-])ccc5F)c5nc(c(-c6cc(S(=O)(=O)[O-])ccc6F)c6ccc3[nH]6)C=C5)C=C4)cc1)CCC2
REMARK SMILES IDX 18 1 17 2 16 3 15 4 13 5 14 6 9 8 3 9 4 10 8 11 5 12 7 13
REMARK SMILES IDX 6 14 87 15 85 16 86 17 2 18 1 19 10 20 11 21 12 23 19 24
REMARK SMILES IDX 20 25 21 27 22 28 23 29 84 30 24 31 83 32 25 33 26 34 27 35
REMARK SMILES IDX 77 36 28 37 82 38 76 39 78 40 29 41 81 42 75 43 74 44 30 46
REMARK SMILES IDX 62 47 42 48 61 49 43 50 46 51 60 52 79 53 44 54 45 55 59 57
REMARK SMILES IDX 80 58 47 59 31 60 32 61 40 62 33 63 39 64 41 65 38 66 34 67
REMARK SMILES IDX 35 68 36 69 37 70 63 71 64 72 72 73 65 74 71 75 73 76 70 77
REMARK SMILES IDX 66 78 67 79 68 80 69 81 48 82 49 83 57 84 50 85 56 86 58 87
REMARK SMILES IDX 55 88 51 89 52 90 53 91 54 92
REMARK H PARENT 15 7 10 22 19 26 78 45 46 56
REMARK Flexibility Score: inf
ROOT
ATOM      1  C   UNL A   1      31.662  30.719  26.898  1.00  0.00     0.118 C 
ENDROOT
BRANCH   1   2
ATOM      2  C   UNL A   1      31.998  30.127  25.544  1.00  0.00     0.042 C 
BRANCH   2   3
ATOM      3  C   UNL A   1      32.835  28.865  25.573  1.00  0.00     0.117 C 
BRANCH   3   4
ATOM      4  N   UNL A   1      33.778  28.726  24.476  1.00  0.00    -0.354 N 
ATOM      5  C   UNL A   1      33.604  28.251  23.209  1.00  0.00     0.250 C 
ATOM      6  O   UNL A   1      34.507  28.543  22.406  1.00  0.00    -0.272 OA
ATOM      7  H   UNL A   1      34.693  29.023  24.682  1.00  0.00     0.163 HD
BRANCH   5   8
ATOM      8  C   UNL A   1      32.457  27.267  22.748  1.00  0.00     0.144 C 
ATOM      9  C   UNL A   1      29.570  29.703  22.132  1.00  0.00     0.119 A 
ATOM     10  C   UNL A   1      28.580  29.166  22.952  1.00  0.00     0.047 A 
ATOM     11  C   UNL A   1      30.790  29.040  22.009  1.00  0.00     0.053 A 
ATOM     12  C   UNL A   1      28.782  27.949  23.604  1.00  0.00     0.008 A 
ATOM     13  C   UNL A   1      31.049  27.859  22.739  1.00  0.00    -0.006 A 
ATOM     14  C   UNL A   1      30.001  27.272  23.485  1.00  0.00    -0.042 A 
ATOM     15  C   UNL A   1      30.176  25.972  24.230  1.00  0.00     0.036 C 
ATOM     16  C   UNL A   1      32.600  26.046  23.693  1.00  0.00     0.044 C 
ATOM     17  C   UNL A   1      31.359  25.167  23.714  1.00  0.00     0.008 C 
BRANCH   9  18
ATOM     18  O   UNL A   1      29.255  30.905  21.561  1.00  0.00    -0.497 OA
ATOM     19  C   UNL A   1      27.971  31.007  20.960  1.00  0.00     0.278 C 
ENDBRANCH   9  18
BRANCH   8  20
ATOM     20  N   UNL A   1      32.858  26.890  21.378  1.00  0.00    -0.341 N 
ATOM     21  C   UNL A   1      32.627  25.718  20.732  1.00  0.00     0.338 C 
ATOM     22  H   UNL A   1      33.355  27.572  20.870  1.00  0.00     0.164 HD
ATOM     23  O   UNL A   1      33.040  25.491  19.600  1.00  0.00    -0.279 OA
ENDBRANCH   8  20
ENDBRANCH   5   8
ENDBRANCH   3   4
ENDBRANCH   2   3
ENDBRANCH   1   2
BRANCH   1  24
ATOM     24  N   UNL A   1      31.803  32.166  26.959  1.00  0.00    -0.352 N 
ATOM     25  C   UNL A   1      32.817  32.948  27.463  1.00  0.00     0.251 C 
ATOM     26  H   UNL A   1      31.047  32.668  26.576  1.00  0.00     0.163 HD
ATOM     27  O   UNL A   1      32.658  34.166  27.513  1.00  0.00    -0.269 OA
BRANCH  25  28
ATOM     28  C   UNL A   1      34.068  32.342  27.983  1.00  0.00     0.039 A 
ATOM     29  C   UNL A   1      35.176  33.164  28.205  1.00  0.00     0.014 A 
ATOM     30  C   UNL A   1      34.165  30.977  28.255  1.00  0.00     0.014 A 
ATOM     31  C   UNL A   1      36.339  32.630  28.772  1.00  0.00     0.010 A 
ATOM     32  C   UNL A   1      35.270  30.475  28.937  1.00  0.00     0.010 A 
ATOM     33  C   UNL A   1      36.380  31.291  29.192  1.00  0.00    -0.014 A 
BRANCH  33  34
ATOM     34  C   UNL A   1      37.580  30.727  29.871  1.00  0.00     0.031 A 
ATOM     35  C   UNL A   1      37.845  31.036  31.325  1.00  0.00     0.074 A 
ATOM     36  C   UNL A   1      38.455  29.977  29.169  1.00  0.00     0.049 A 
ATOM     37  N   UNL A   1      38.847  30.665  32.081  1.00  0.00    -0.248 NA
ATOM     38  C   UNL A   1      36.875  31.904  32.013  1.00  0.00     0.031 C 
ATOM     39  C   UNL A   1      38.343  29.658  27.742  1.00  0.00     0.029 A 
ATOM     40  N   UNL A   1      39.611  29.342  29.553  1.00  0.00    -0.354 N 
ATOM     41  C   UNL A   1      38.640  31.269  33.316  1.00  0.00     0.074 A 
ATOM     42  C   UNL A   1      37.451  32.082  33.191  1.00  0.00     0.031 C 
ATOM     43  C   UNL A   1      39.356  28.851  27.388  1.00  0.00     0.029 A 
ATOM     44  C   UNL A   1      40.221  28.634  28.542  1.00  0.00     0.049 A 
ATOM     45  H   UNL A   1      39.969  29.389  30.469  1.00  0.00     0.167 HD
ATOM     46  C   UNL A   1      39.358  31.138  34.459  1.00  0.00     0.034 A 
ATOM     47  C   UNL A   1      41.349  27.896  28.544  1.00  0.00     0.034 A 
ATOM     48  C   UNL A   1      40.520  30.293  34.580  1.00  0.00     0.049 A 
ATOM     49  C   UNL A   1      42.120  27.759  29.836  1.00  0.00     0.074 A 
ATOM     50  C   UNL A   1      41.276  30.027  35.709  1.00  0.00     0.029 A 
ATOM     51  N   UNL A   1      41.100  29.581  33.538  1.00  0.00    -0.354 N 
ATOM     52  N   UNL A   1      41.861  28.277  31.015  1.00  0.00    -0.248 NA
ATOM     53  C   UNL A   1      43.324  26.921  29.800  1.00  0.00     0.031 C 
ATOM     54  C   UNL A   1      42.353  29.218  35.335  1.00  0.00     0.029 A 
ATOM     55  C   UNL A   1      42.221  28.903  33.992  1.00  0.00     0.049 A 
ATOM     56  H   UNL A   1      40.764  29.560  32.613  1.00  0.00     0.167 HD
ATOM     57  C   UNL A   1      42.847  27.787  31.868  1.00  0.00     0.074 A 
ATOM     58  C   UNL A   1      43.683  26.914  31.073  1.00  0.00     0.031 C 
ATOM     59  C   UNL A   1      43.048  28.036  33.188  1.00  0.00     0.034 A 
BRANCH  46  60
ATOM     60  C   UNL A   1      38.922  31.937  35.665  1.00  0.00     0.023 A 
ATOM     61  C   UNL A   1      38.245  31.348  36.746  1.00  0.00     0.031 A 
ATOM     62  C   UNL A   1      39.206  33.313  35.738  1.00  0.00     0.131 A 
ATOM     63  C   UNL A   1      37.829  32.139  37.828  1.00  0.00     0.055 A 
ATOM     64  C   UNL A   1      38.857  34.079  36.852  1.00  0.00     0.041 A 
ATOM     65  F   UNL A   1      39.829  33.937  34.726  1.00  0.00    -0.206 F 
ATOM     66  C   UNL A   1      38.155  33.495  37.902  1.00  0.00     0.022 A 
BRANCH  63  67
ATOM     67  S   UNL A   1      36.755  31.396  39.087  1.00  0.00     0.124 S 
ATOM     68  O   UNL A   1      35.643  32.343  39.120  1.00  0.00    -0.237 OA
ATOM     69  O   UNL A   1      36.460  30.086  38.518  1.00  0.00    -0.237 OA
ATOM     70  O   UNL A   1      37.590  31.383  40.286  1.00  0.00    -0.744 OA
ENDBRANCH  63  67
ENDBRANCH  46  60
BRANCH  47  71
ATOM     71  C   UNL A   1      41.835  27.222  27.302  1.00  0.00     0.023 A 
ATOM     72  C   UNL A   1      41.741  25.828  27.153  1.00  0.00     0.031 A 
ATOM     73  C   UNL A   1      42.486  27.945  26.287  1.00  0.00     0.131 A 
ATOM     74  C   UNL A   1      42.358  25.194  26.064  1.00  0.00     0.055 A 
ATOM     75  C   UNL A   1      43.035  27.316  25.167  1.00  0.00     0.041 A 
ATOM     76  F   UNL A   1      42.604  29.279  26.372  1.00  0.00    -0.206 F 
ATOM     77  C   UNL A   1      42.993  25.930  25.061  1.00  0.00     0.022 A 
BRANCH  74  78
ATOM     78  S   UNL A   1      42.444  23.381  26.050  1.00  0.00     0.124 S 
ATOM     79  O   UNL A   1      43.392  23.122  27.128  1.00  0.00    -0.237 OA
ATOM     80  O   UNL A   1      41.057  23.012  26.312  1.00  0.00    -0.237 OA
ATOM     81  O   UNL A   1      42.927  23.074  24.705  1.00  0.00    -0.744 OA
ENDBRANCH  74  78
ENDBRANCH  47  71
BRANCH  59  82
ATOM     82  C   UNL A   1      44.185  27.300  33.856  1.00  0.00     0.023 A 
ATOM     83  C   UNL A   1      44.047  25.975  34.307  1.00  0.00     0.031 A 
ATOM     84  C   UNL A   1      45.409  27.952  34.092  1.00  0.00     0.131 A 
ATOM     85  C   UNL A   1      45.076  25.379  35.051  1.00  0.00     0.055 A 
ATOM     86  C   UNL A   1      46.461  27.324  34.760  1.00  0.00     0.041 A 
ATOM     87  F   UNL A   1      45.600  29.217  33.685  1.00  0.00    -0.206 F 
ATOM     88  C   UNL A   1      46.290  26.038  35.264  1.00  0.00     0.022 A 
BRANCH  85  89
ATOM     89  S   UNL A   1      44.750  23.790  35.863  1.00  0.00     0.124 S 
ATOM     90  O   UNL A   1      45.446  22.854  34.986  1.00  0.00    -0.237 OA
ATOM     91  O   UNL A   1      45.343  23.988  37.181  1.00  0.00    -0.237 OA
ATOM     92  O   UNL A   1      43.293  23.689  35.846  1.00  0.00    -0.744 OA
ENDBRANCH  85  89
ENDBRANCH  59  82
ENDBRANCH  33  34
ENDBRANCH  25  28
ENDBRANCH   1  24
TORSDOF 15
ENDMDL
MODEL 2
REMARK VINA RESULT:     -12.7      5.723     11.054
REMARK SMILES COc1ccc2c(c1)[C@@](NC=O)(C(=O)NCCCNC(=O)c1ccc(-c3c4nc(c(-c5cc(S(=O)(=O)[O-])ccc5F)c5ccc([nH]5)c(-c5cc(S(=O)(=O)[O-])ccc5F)c5nc(c(-c6cc(S(=O)(=O)[O-])ccc6F)c6ccc3[nH]6)C=C5)C=C4)cc1)CCC2
REMARK SMILES IDX 18 1 17 2 16 3 15 4 13 5 14 6 9 8 3 9 4 10 8 11 5 12 7 13
REMARK SMILES IDX 6 14 87 15 85 16 86 17 2 18 1 19 10 20 11 21 12 23 19 24
REMARK SMILES IDX 20 25 21 27 22 28 23 29 84 30 24 31 83 32 25 33 26 34 27 35
REMARK SMILES IDX 77 36 28 37 82 38 76 39 78 40 29 41 81 42 75 43 74 44 30 46
REMARK SMILES IDX 62 47 42 48 61 49 43 50 46 51 60 52 79 53 44 54 45 55 59 57
REMARK SMILES IDX 80 58 47 59 31 60 32 61 40 62 33 63 39 64 41 65 38 66 34 67
REMARK SMILES IDX 35 68 36 69 37 70 63 71 64 72 72 73 65 74 71 75 73 76 70 77
REMARK SMILES IDX 66 78 67 79 68 80 69 81 48 82 49 83 57 84 50 85 56 86 58 87
REMARK SMILES IDX 55 88 51 89 52 90 53 91 54 92
REMARK H PARENT 15 7 10 22 19 26 78 45 46 56
REMARK Flexibility Score: inf
ROOT
ATOM      1  C   UNL A   1      37.313  21.632  24.355  1.00  0.00     0.118 C 
ENDROOT
BRANCH   1   2
ATOM      2  C   UNL A   1      35.852  21.644  24.756  1.00  0.00     0.042 C 
BRANCH   2   3
ATOM      3  C   UNL A   1      35.277  23.005  25.088  1.00  0.00     0.117 C 
BRANCH   3   4
ATOM      4  N   UNL A   1      34.577  23.085  26.360  1.00  0.00    -0.354 N 
ATOM      5  C   UNL A   1      33.371  22.578  26.744  1.00  0.00     0.250 C 
ATOM      6  O   UNL A   1      33.180  22.540  27.971  1.00  0.00    -0.272 OA
ATOM      7  H   UNL A   1      35.053  23.589  27.058  1.00  0.00     0.163 HD
BRANCH   5   8
ATOM      8  C   UNL A   1      32.188  22.191  25.771  1.00  0.00     0.144 C 
ATOM      9  C   UNL A   1      32.885  18.477  25.164  1.00  0.00     0.119 A 
ATOM     10  C   UNL A   1      32.955  18.437  23.773  1.00  0.00     0.047 A 
ATOM     11  C   UNL A   1      32.557  19.675  25.797  1.00  0.00     0.053 A 
ATOM     12  C   UNL A   1      32.648  19.566  23.014  1.00  0.00     0.008 A 
ATOM     13  C   UNL A   1      32.341  20.854  25.049  1.00  0.00    -0.006 A 
ATOM     14  C   UNL A   1      32.314  20.773  23.638  1.00  0.00    -0.042 A 
ATOM     15  C   UNL A   1      32.014  21.971  22.771  1.00  0.00     0.036 C 
ATOM     16  C   UNL A   1      32.080  23.399  24.803  1.00  0.00     0.044 C 
ATOM     17  C   UNL A   1      31.301  23.074  23.539  1.00  0.00     0.008 C 
BRANCH   9  18
ATOM     18  O   UNL A   1      33.221  17.310  25.792  1.00  0.00    -0.497 OA
ATOM     19  C   UNL A   1      32.523  16.142  25.381  1.00  0.00     0.278 C 
ENDBRANCH   9  18
BRANCH   8  20
ATOM     20  N   UNL A   1      31.009  22.157  26.661  1.00  0.00    -0.341 N 
ATOM     21  C   UNL A   1      30.116  23.149  26.904  1.00  0.00     0.338 C 
ATOM     22  H   UNL A   1      30.852  21.308  27.136  1.00  0.00     0.164 HD
ATOM     23  O   UNL A   1      29.188  23.028  27.696  1.00  0.00    -0.279 OA
ENDBRANCH   8  20
ENDBRANCH   5   8
ENDBRANCH   3   4
ENDBRANCH   2   3
ENDBRANCH   1   2
BRANCH   1  24
ATOM     24  N   UNL A   1      38.093  20.588  25.002  1.00  0.00    -0.352 N 
ATOM     25  C   UNL A   1      39.164  20.671  25.863  1.00  0.00     0.251 C 
ATOM     26  H   UNL A   1      37.807  19.670  24.788  1.00  0.00     0.163 HD
ATOM     27  O   UNL A   1      39.744  19.637  26.190  1.00  0.00    -0.269 OA
BRANCH  25  28
ATOM     28  C   UNL A   1      39.649  21.982  26.360  1.00  0.00     0.039 A 
ATOM     29  C   UNL A   1      40.845  22.031  27.083  1.00  0.00     0.014 A 
ATOM     30  C   UNL A   1      38.945  23.164  26.123  1.00  0.00     0.014 A 
ATOM     31  C   UNL A   1      41.364  23.265  27.489  1.00  0.00     0.010 A 
ATOM     32  C   UNL A   1      39.527  24.395  26.412  1.00  0.00     0.010 A 
ATOM     33  C   UNL A   1      40.737  24.464  27.114  1.00  0.00    -0.014 A 
BRANCH  33  34
ATOM     34  C   UNL A   1      41.319  25.789  27.468  1.00  0.00     0.031 A 
ATOM     35  C   UNL A   1      42.690  26.174  26.966  1.00  0.00     0.074 A 
ATOM     36  C   UNL A   1      40.637  26.624  28.279  1.00  0.00     0.049 A 
ATOM     37  N   UNL A   1      43.377  27.266  27.190  1.00  0.00    -0.248 NA
ATOM     38  C   UNL A   1      43.399  25.192  26.129  1.00  0.00     0.031 C 
ATOM     39  C   UNL A   1      39.329  26.341  28.880  1.00  0.00     0.029 A 
ATOM     40  N   UNL A   1      40.940  27.882  28.739  1.00  0.00    -0.354 N 
ATOM     41  C   UNL A   1      44.597  27.090  26.546  1.00  0.00     0.074 A 
ATOM     42  C   UNL A   1      44.583  25.762  25.975  1.00  0.00     0.031 C 
ATOM     43  C   UNL A   1      38.926  27.411  29.584  1.00  0.00     0.029 A 
ATOM     44  C   UNL A   1      39.961  28.436  29.534  1.00  0.00     0.049 A 
ATOM     45  H   UNL A   1      41.781  28.345  28.521  1.00  0.00     0.167 HD
ATOM     46  C   UNL A   1      45.625  27.965  26.417  1.00  0.00     0.034 A 
ATOM     47  C   UNL A   1      39.904  29.634  30.151  1.00  0.00     0.034 A 
ATOM     48  C   UNL A   1      45.612  29.301  26.960  1.00  0.00     0.049 A 
ATOM     49  C   UNL A   1      41.060  30.590  29.978  1.00  0.00     0.074 A 
ATOM     50  C   UNL A   1      46.565  30.295  26.824  1.00  0.00     0.029 A 
ATOM     51  N   UNL A   1      44.597  29.831  27.746  1.00  0.00    -0.354 N 
ATOM     52  N   UNL A   1      42.172  30.433  29.297  1.00  0.00    -0.248 NA
ATOM     53  C   UNL A   1      40.942  31.894  30.642  1.00  0.00     0.031 C 
ATOM     54  C   UNL A   1      46.165  31.395  27.587  1.00  0.00     0.029 A 
ATOM     55  C   UNL A   1      44.918  31.124  28.127  1.00  0.00     0.049 A 
ATOM     56  H   UNL A   1      43.770  29.358  27.995  1.00  0.00     0.167 HD
ATOM     57  C   UNL A   1      42.862  31.637  29.416  1.00  0.00     0.074 A 
ATOM     58  C   UNL A   1      42.027  32.514  30.208  1.00  0.00     0.031 C 
ATOM     59  C   UNL A   1      44.076  31.988  28.919  1.00  0.00     0.034 A 
BRANCH  46  60
ATOM     60  C   UNL A   1      46.861  27.503  25.679  1.00  0.00     0.023 A 
ATOM     61  C   UNL A   1      47.102  27.849  24.339  1.00  0.00     0.031 A 
ATOM     62  C   UNL A   1      47.821  26.713  26.338  1.00  0.00     0.131 A 
ATOM     63  C   UNL A   1      48.246  27.365  23.685  1.00  0.00     0.055 A 
ATOM     64  C   UNL A   1      48.995  26.300  25.704  1.00  0.00     0.041 A 
ATOM     65  F   UNL A   1      47.634  26.330  27.610  1.00  0.00    -0.206 F 
ATOM     66  C   UNL A   1      49.208  26.617  24.367  1.00  0.00     0.022 A 
BRANCH  63  67
ATOM     67  S   UNL A   1      48.405  27.632  21.898  1.00  0.00     0.124 S 
ATOM     68  O   UNL A   1      49.547  28.540  21.836  1.00  0.00    -0.237 OA
ATOM     69  O   UNL A   1      48.635  26.282  21.397  1.00  0.00    -0.237 OA
ATOM     70  O   UNL A   1      47.123  28.226  21.524  1.00  0.00    -0.744 OA
ENDBRANCH  63  67
ENDBRANCH  46  60
BRANCH  47  71
ATOM     71  C   UNL A   1      38.728  30.017  30.989  1.00  0.00     0.023 A 
ATOM     72  C   UNL A   1      37.647  30.724  30.435  1.00  0.00     0.031 A 
ATOM     73  C   UNL A   1      38.706  29.768  32.373  1.00  0.00     0.131 A 
ATOM     74  C   UNL A   1      36.636  31.229  31.268  1.00  0.00     0.055 A 
ATOM     75  C   UNL A   1      37.660  30.210  33.187  1.00  0.00     0.041 A 
ATOM     76  F   UNL A   1      39.709  29.095  32.958  1.00  0.00    -0.206 F 
ATOM     77  C   UNL A   1      36.628  30.964  32.639  1.00  0.00     0.022 A 
BRANCH  74  78
ATOM     78  S   UNL A   1      35.408  32.359  30.555  1.00  0.00     0.124 S 
ATOM     79  O   UNL A   1      34.983  31.623  29.369  1.00  0.00    -0.237 OA
ATOM     80  O   UNL A   1      34.430  32.460  31.633  1.00  0.00    -0.237 OA
ATOM     81  O   UNL A   1      36.176  33.575  30.295  1.00  0.00    -0.744 OA
ENDBRANCH  74  78
ENDBRANCH  47  71
BRANCH  59  82
ATOM     82  C   UNL A   1      44.534  33.405  29.175  1.00  0.00     0.023 A 
ATOM     83  C   UNL A   1      44.131  34.474  28.355  1.00  0.00     0.031 A 
ATOM     84  C   UNL A   1      45.429  33.681  30.225  1.00  0.00     0.131 A 
ATOM     85  C   UNL A   1      44.694  35.746  28.538  1.00  0.00     0.055 A 
ATOM     86  C   UNL A   1      45.921  34.967  30.454  1.00  0.00     0.041 A 
ATOM     87  F   UNL A   1      45.850  32.702  31.041  1.00  0.00    -0.206 F 
ATOM     88  C   UNL A   1      45.571  36.004  29.594  1.00  0.00     0.022 A 
BRANCH  85  89
ATOM     89  S   UNL A   1      44.377  37.021  27.287  1.00  0.00     0.124 S 
ATOM     90  O   UNL A   1      44.083  38.188  28.112  1.00  0.00    -0.237 OA
ATOM     91  O   UNL A   1      45.641  37.059  26.557  1.00  0.00    -0.237 OA
ATOM     92  O   UNL A   1      43.242  36.490  26.535  1.00  0.00    -0.744 OA
ENDBRANCH  85  89
ENDBRANCH  59  82
ENDBRANCH  33  34
ENDBRANCH  25  28
ENDBRANCH   1  24
TORSDOF 15
ENDMDL
MODEL 3
REMARK VINA RESULT:     -12.6      2.278      8.000
REMARK SMILES COc1ccc2c(c1)[C@@](NC=O)(C(=O)NCCCNC(=O)c1ccc(-c3c4nc(c(-c5cc(S(=O)(=O)[O-])ccc5F)c5ccc([nH]5)c(-c5cc(S(=O)(=O)[O-])ccc5F)c5nc(c(-c6cc(S(=O)(=O)[O-])ccc6F)c6ccc3[nH]6)C=C5)C=C4)cc1)CCC2
REMARK SMILES IDX 18 1 17 2 16 3 15 4 13 5 14 6 9 8 3 9 4 10 8 11 5 12 7 13
REMARK SMILES IDX 6 14 87 15 85 16 86 17 2 18 1 19 10 20 11 21 12 23 19 24
REMARK SMILES IDX 20 25 21 27 22 28 23 29 84 30 24 31 83 32 25 33 26 34 27 35
REMARK SMILES IDX 77 36 28 37 82 38 76 39 78 40 29 41 81 42 75 43 74 44 30 46
REMARK SMILES IDX 62 47 42 48 61 49 43 50 46 51 60 52 79 53 44 54 45 55 59 57
REMARK SMILES IDX 80 58 47 59 31 60 32 61 40 62 33 63 39 64 41 65 38 66 34 67
REMARK SMILES IDX 35 68 36 69 37 70 63 71 64 72 72 73 65 74 71 75 73 76 70 77
REMARK SMILES IDX 66 78 67 79 68 80 69 81 48 82 49 83 57 84 50 85 56 86 58 87
REMARK SMILES IDX 55 88 51 89 52 90 53 91 54 92
REMARK H PARENT 15 7 10 22 19 26 78 45 46 56
REMARK Flexibility Score: inf
ROOT
ATOM      1  C   UNL A   1      32.281  32.083  26.848  1.00  0.00     0.118 C 
ENDROOT
BRANCH   1   2
ATOM      2  C   UNL A   1      31.099  31.710  25.976  1.00  0.00     0.042 C 
BRANCH   2   3
ATOM      3  C   UNL A   1      31.104  30.294  25.440  1.00  0.00     0.117 C 
BRANCH   3   4
ATOM      4  N   UNL A   1      32.366  29.856  24.865  1.00  0.00    -0.354 N 
ATOM      5  C   UNL A   1      32.623  29.062  23.787  1.00  0.00     0.250 C 
ATOM      6  O   UNL A   1      33.787  29.119  23.353  1.00  0.00    -0.272 OA
ATOM      7  H   UNL A   1      33.166  30.189  25.332  1.00  0.00     0.163 HD
BRANCH   5   8
ATOM      8  C   UNL A   1      31.626  28.003  23.170  1.00  0.00     0.144 C 
ATOM      9  C   UNL A   1      28.953  30.276  21.640  1.00  0.00     0.119 A 
ATOM     10  C   UNL A   1      27.800  29.791  22.253  1.00  0.00     0.047 A 
ATOM     11  C   UNL A   1      30.172  29.643  21.879  1.00  0.00     0.053 A 
ATOM     12  C   UNL A   1      27.848  28.650  23.055  1.00  0.00     0.008 A 
ATOM     13  C   UNL A   1      30.257  28.547  22.767  1.00  0.00    -0.006 A 
ATOM     14  C   UNL A   1      29.065  28.004  23.299  1.00  0.00    -0.042 A 
ATOM     15  C   UNL A   1      29.065  26.789  24.192  1.00  0.00     0.036 C 
ATOM     16  C   UNL A   1      31.548  26.885  24.242  1.00  0.00     0.044 C 
ATOM     17  C   UNL A   1      30.344  25.974  24.058  1.00  0.00     0.008 C 
BRANCH   9  18
ATOM     18  O   UNL A   1      28.776  31.406  20.892  1.00  0.00    -0.497 OA
ATOM     19  C   UNL A   1      28.057  32.469  21.503  1.00  0.00     0.278 C 
ENDBRANCH   9  18
BRANCH   8  20
ATOM     20  N   UNL A   1      32.346  27.506  21.980  1.00  0.00    -0.341 N 
ATOM     21  C   UNL A   1      32.638  26.221  21.656  1.00  0.00     0.338 C 
ATOM     22  H   UNL A   1      32.652  28.192  21.343  1.00  0.00     0.164 HD
ATOM     23  O   UNL A   1      33.278  25.917  20.656  1.00  0.00    -0.279 OA
ENDBRANCH   8  20
ENDBRANCH   5   8
ENDBRANCH   3   4
ENDBRANCH   2   3
ENDBRANCH   1   2
BRANCH   1  24
ATOM     24  N   UNL A   1      32.300  33.483  27.245  1.00  0.00    -0.352 N 
ATOM     25  C   UNL A   1      33.128  34.158  28.114  1.00  0.00     0.251 C 
ATOM     26  H   UNL A   1      31.605  34.039  26.824  1.00  0.00     0.163 HD
ATOM     27  O   UNL A   1      32.873  35.329  28.387  1.00  0.00    -0.269 OA
BRANCH  25  28
ATOM     28  C   UNL A   1      34.285  33.483  28.751  1.00  0.00     0.039 A 
ATOM     29  C   UNL A   1      35.513  34.150  28.803  1.00  0.00     0.014 A 
ATOM     30  C   UNL A   1      34.179  32.204  29.299  1.00  0.00     0.014 A 
ATOM     31  C   UNL A   1      36.595  33.568  29.472  1.00  0.00     0.010 A 
ATOM     32  C   UNL A   1      35.213  31.686  30.074  1.00  0.00     0.010 A 
ATOM     33  C   UNL A   1      36.442  32.353  30.159  1.00  0.00    -0.014 A 
BRANCH  33  34
ATOM     34  C   UNL A   1      37.560  31.759  30.944  1.00  0.00     0.031 A 
ATOM     35  C   UNL A   1      38.433  30.688  30.333  1.00  0.00     0.074 A 
ATOM     36  C   UNL A   1      37.761  32.147  32.221  1.00  0.00     0.049 A 
ATOM     37  N   UNL A   1      39.432  30.031  30.865  1.00  0.00    -0.248 NA
ATOM     38  C   UNL A   1      38.122  30.276  28.953  1.00  0.00     0.031 C 
ATOM     39  C   UNL A   1      36.948  33.128  32.945  1.00  0.00     0.029 A 
ATOM     40  N   UNL A   1      38.711  31.770  33.139  1.00  0.00    -0.354 N 
ATOM     41  C   UNL A   1      39.849  29.120  29.899  1.00  0.00     0.074 A 
ATOM     42  C   UNL A   1      38.955  29.264  28.773  1.00  0.00     0.031 C 
ATOM     43  C   UNL A   1      37.463  33.310  34.172  1.00  0.00     0.029 A 
ATOM     44  C   UNL A   1      38.608  32.425  34.347  1.00  0.00     0.049 A 
ATOM     45  H   UNL A   1      39.401  31.095  32.951  1.00  0.00     0.167 HD
ATOM     46  C   UNL A   1      40.897  28.261  29.937  1.00  0.00     0.034 A 
ATOM     47  C   UNL A   1      39.352  32.323  35.466  1.00  0.00     0.034 A 
ATOM     48  C   UNL A   1      41.804  28.154  31.053  1.00  0.00     0.049 A 
ATOM     49  C   UNL A   1      40.521  31.365  35.472  1.00  0.00     0.074 A 
ATOM     50  C   UNL A   1      42.942  27.374  31.165  1.00  0.00     0.029 A 
ATOM     51  N   UNL A   1      41.677  28.843  32.252  1.00  0.00    -0.354 N 
ATOM     52  N   UNL A   1      40.945  30.570  34.517  1.00  0.00    -0.248 NA
ATOM     53  C   UNL A   1      41.322  31.309  36.700  1.00  0.00     0.031 C 
ATOM     54  C   UNL A   1      43.458  27.532  32.454  1.00  0.00     0.029 A 
ATOM     55  C   UNL A   1      42.696  28.480  33.118  1.00  0.00     0.049 A 
ATOM     56  H   UNL A   1      40.967  29.494  32.456  1.00  0.00     0.167 HD
ATOM     57  C   UNL A   1      42.090  29.954  35.018  1.00  0.00     0.074 A 
ATOM     58  C   UNL A   1      42.301  30.494  36.345  1.00  0.00     0.031 C 
ATOM     59  C   UNL A   1      42.894  29.026  34.440  1.00  0.00     0.034 A 
BRANCH  46  60
ATOM     60  C   UNL A   1      41.112  27.354  28.747  1.00  0.00     0.023 A 
ATOM     61  C   UNL A   1      42.125  27.589  27.803  1.00  0.00     0.031 A 
ATOM     62  C   UNL A   1      40.295  26.223  28.567  1.00  0.00     0.131 A 
ATOM     63  C   UNL A   1      42.263  26.739  26.695  1.00  0.00     0.055 A 
ATOM     64  C   UNL A   1      40.487  25.337  27.505  1.00  0.00     0.041 A 
ATOM     65  F   UNL A   1      39.296  25.959  29.423  1.00  0.00    -0.206 F 
ATOM     66  C   UNL A   1      41.469  25.598  26.554  1.00  0.00     0.022 A 
BRANCH  63  67
ATOM     67  S   UNL A   1      43.418  27.206  25.377  1.00  0.00     0.124 S 
ATOM     68  O   UNL A   1      43.881  25.900  24.915  1.00  0.00    -0.237 OA
ATOM     69  O   UNL A   1      42.564  27.943  24.454  1.00  0.00    -0.237 OA
ATOM     70  O   UNL A   1      44.425  28.007  26.071  1.00  0.00    -0.744 OA
ENDBRANCH  63  67
ENDBRANCH  46  60
BRANCH  47  71
ATOM     71  C   UNL A   1      39.038  33.135  36.681  1.00  0.00     0.023 A 
ATOM     72  C   UNL A   1      39.626  34.395  36.879  1.00  0.00     0.031 A 
ATOM     73  C   UNL A   1      38.222  32.626  37.707  1.00  0.00     0.131 A 
ATOM     74  C   UNL A   1      39.460  35.065  38.101  1.00  0.00     0.055 A 
ATOM     75  C   UNL A   1      38.000  33.330  38.892  1.00  0.00     0.041 A 
ATOM     76  F   UNL A   1      37.630  31.429  37.574  1.00  0.00    -0.206 F 
ATOM     77  C   UNL A   1      38.639  34.547  39.105  1.00  0.00     0.022 A 
BRANCH  74  78
ATOM     78  S   UNL A   1      40.449  36.554  38.416  1.00  0.00     0.124 S 
ATOM     79  O   UNL A   1      41.051  36.790  37.109  1.00  0.00    -0.237 OA
ATOM     80  O   UNL A   1      39.430  37.509  38.836  1.00  0.00    -0.237 OA
ATOM     81  O   UNL A   1      41.376  36.130  39.464  1.00  0.00    -0.744 OA
ENDBRANCH  74  78
ENDBRANCH  47  71
BRANCH  59  82
ATOM     82  C   UNL A   1      44.108  28.589  35.226  1.00  0.00     0.023 A 
ATOM     83  C   UNL A   1      44.056  27.520  36.139  1.00  0.00     0.031 A 
ATOM     84  C   UNL A   1      45.323  29.286  35.097  1.00  0.00     0.131 A 
ATOM     85  C   UNL A   1      45.163  27.242  36.953  1.00  0.00     0.055 A 
ATOM     86  C   UNL A   1      46.448  28.950  35.852  1.00  0.00     0.041 A 
ATOM     87  F   UNL A   1      45.435  30.315  34.243  1.00  0.00    -0.206 F 
ATOM     88  C   UNL A   1      46.365  27.937  36.803  1.00  0.00     0.022 A 
BRANCH  85  89
ATOM     89  S   UNL A   1      44.962  26.059  38.314  1.00  0.00     0.124 S 
ATOM     90  O   UNL A   1      43.750  26.548  38.964  1.00  0.00    -0.237 OA
ATOM     91  O   UNL A   1      44.835  24.790  37.605  1.00  0.00    -0.237 OA
ATOM     92  O   UNL A   1      46.190  26.217  39.090  1.00  0.00    -0.744 OA
ENDBRANCH  85  89
ENDBRANCH  59  82
ENDBRANCH  33  34
ENDBRANCH  25  28
ENDBRANCH   1  24
TORSDOF 15
ENDMDL
