MODEL 1
REMARK VINA RESULT:     -11.0      0.000      0.000
REMARK SMILES C#CCN(CC(=O)NCCCNC(=O)c1ccc(-c2c3nc(c(-c4cc(S(=O)(=O)[O-])ccc4F)c4ccc([nH]4)c(-c4cc(S(=O)(=O)[O-])ccc4F)c4nc(c(-c5cc(S(=O)(=O)[O-])ccc5F)c5ccc2[nH]5)C=C4)C=C3)cc1)C(=O)c1cc(C)c(C)s1
REMARK SMILES IDX 10 1 9 2 8 3 6 4 7 5 5 7 4 8 3 9 2 10 1 11 78 12 79 13 80 14
REMARK SMILES IDX 81 15 86 16 82 17 84 18 83 19 85 20 11 21 12 22 13 23 14 25
REMARK SMILES IDX 15 26 16 27 77 28 17 29 76 30 18 31 19 32 20 33 70 34 21 35
REMARK SMILES IDX 75 36 69 37 71 38 22 39 74 40 68 41 67 42 23 44 55 45 35 46
REMARK SMILES IDX 54 47 36 48 39 49 53 50 72 51 37 52 38 53 52 55 73 56 40 57
REMARK SMILES IDX 24 58 25 59 33 60 26 61 32 62 34 63 31 64 27 65 28 66 29 67
REMARK SMILES IDX 30 68 56 69 57 70 65 71 58 72 64 73 66 74 63 75 59 76 60 77
REMARK SMILES IDX 61 78 62 79 41 80 42 81 50 82 43 83 49 84 51 85 48 86 44 87
REMARK SMILES IDX 45 88 46 89 47 90
REMARK H PARENT 8 6 12 24 71 43 39 54
REMARK Flexibility Score: inf
ROOT
ATOM      1  C   UNL A   1      35.647  22.999  24.325  1.00  0.00     0.042 C 
ENDROOT
BRANCH   1   2
ATOM      2  C   UNL A   1      34.755  24.238  24.362  1.00  0.00     0.117 C 
BRANCH   2   3
ATOM      3  N   UNL A   1      34.340  24.719  23.056  1.00  0.00    -0.354 N 
ATOM      4  C   UNL A   1      33.557  25.768  22.681  1.00  0.00     0.239 C 
ATOM      5  O   UNL A   1      33.644  26.116  21.497  1.00  0.00    -0.273 OA
ATOM      6  H   UNL A   1      34.690  24.190  22.304  1.00  0.00     0.163 HD
BRANCH   4   7
ATOM      7  C   UNL A   1      32.730  26.611  23.668  1.00  0.00     0.220 C 
BRANCH   7   8
ATOM      8  N   UNL A   1      31.277  26.563  23.528  1.00  0.00    -0.318 N 
BRANCH   8   9
ATOM      9  C   UNL A   1      30.666  27.314  22.447  1.00  0.00     0.210 C 
BRANCH   9  10
ATOM     10  C   UNL A   1      30.220  28.702  22.875  1.00  0.00    -0.085 C 
ATOM     11  C   UNL A   1      29.837  29.893  23.242  1.00  0.00     0.006 C 
ENDBRANCH   9  10
ENDBRANCH   8   9
BRANCH   8  12
ATOM     12  C   UNL A   1      30.442  25.749  24.307  1.00  0.00     0.265 C 
ATOM     13  O   UNL A   1      29.261  26.043  24.486  1.00  0.00    -0.268 OA
BRANCH  12  14
ATOM     14  C   UNL A   1      31.023  24.571  24.916  1.00  0.00     0.093 A 
ATOM     15  C   UNL A   1      31.225  23.321  24.371  1.00  0.00     0.029 A 
ATOM     16  S   UNL A   1      31.646  24.677  26.498  1.00  0.00    -0.135 S 
ATOM     17  C   UNL A   1      31.854  22.412  25.284  1.00  0.00    -0.037 A 
ATOM     18  C   UNL A   1      32.162  23.044  26.479  1.00  0.00     0.005 A 
ATOM     19  C   UNL A   1      32.155  20.985  24.961  1.00  0.00     0.045 C 
ATOM     20  C   UNL A   1      32.854  22.479  27.675  1.00  0.00     0.056 C 
ENDBRANCH  12  14
ENDBRANCH   8  12
ENDBRANCH   7   8
ENDBRANCH   4   7
ENDBRANCH   2   3
ENDBRANCH   1   2
BRANCH   1  21
ATOM     21  C   UNL A   1      35.886  22.333  25.677  1.00  0.00     0.118 C 
BRANCH  21  22
ATOM     22  N   UNL A   1      36.808  21.213  25.596  1.00  0.00    -0.352 N 
ATOM     23  C   UNL A   1      38.176  21.160  25.709  1.00  0.00     0.251 C 
ATOM     24  H   UNL A   1      36.379  20.341  25.432  1.00  0.00     0.163 HD
ATOM     25  O   UNL A   1      38.748  20.121  25.385  1.00  0.00    -0.269 OA
BRANCH  23  26
ATOM     26  C   UNL A   1      38.973  22.316  26.188  1.00  0.00     0.039 A 
ATOM     27  C   UNL A   1      38.640  23.595  25.722  1.00  0.00     0.014 A 
ATOM     28  C   UNL A   1      40.093  22.155  27.008  1.00  0.00     0.014 A 
ATOM     29  C   UNL A   1      39.386  24.709  26.120  1.00  0.00     0.010 A 
ATOM     30  C   UNL A   1      40.812  23.273  27.441  1.00  0.00     0.010 A 
ATOM     31  C   UNL A   1      40.465  24.561  27.003  1.00  0.00    -0.014 A 
BRANCH  31  32
ATOM     32  C   UNL A   1      41.252  25.729  27.474  1.00  0.00     0.031 A 
ATOM     33  C   UNL A   1      40.605  26.784  28.327  1.00  0.00     0.074 A 
ATOM     34  C   UNL A   1      42.528  25.887  27.074  1.00  0.00     0.049 A 
ATOM     35  N   UNL A   1      41.056  27.965  28.666  1.00  0.00    -0.248 NA
ATOM     36  C   UNL A   1      39.266  26.475  28.849  1.00  0.00     0.031 C 
ATOM     37  C   UNL A   1      43.280  24.948  26.240  1.00  0.00     0.029 A 
ATOM     38  N   UNL A   1      43.410  26.915  27.298  1.00  0.00    -0.354 N 
ATOM     39  C   UNL A   1      40.039  28.561  29.404  1.00  0.00     0.074 A 
ATOM     40  C   UNL A   1      38.953  27.604  29.471  1.00  0.00     0.031 C 
ATOM     41  C   UNL A   1      44.507  25.448  26.015  1.00  0.00     0.029 A 
ATOM     42  C   UNL A   1      44.612  26.755  26.655  1.00  0.00     0.049 A 
ATOM     43  H   UNL A   1      43.200  27.691  27.866  1.00  0.00     0.167 HD
ATOM     44  C   UNL A   1      40.009  29.794  29.967  1.00  0.00     0.034 A 
ATOM     45  C   UNL A   1      45.666  27.586  26.552  1.00  0.00     0.034 A 
ATOM     46  C   UNL A   1      41.103  30.730  29.945  1.00  0.00     0.049 A 
ATOM     47  C   UNL A   1      45.608  28.950  27.174  1.00  0.00     0.074 A 
ATOM     48  C   UNL A   1      41.198  31.965  30.563  1.00  0.00     0.029 A 
ATOM     49  N   UNL A   1      42.296  30.534  29.264  1.00  0.00    -0.354 N 
ATOM     50  N   UNL A   1      44.627  29.511  27.838  1.00  0.00    -0.248 NA
ATOM     51  C   UNL A   1      46.795  29.801  27.008  1.00  0.00     0.031 C 
ATOM     52  C   UNL A   1      42.437  32.532  30.229  1.00  0.00     0.029 A 
ATOM     53  C   UNL A   1      43.122  31.636  29.425  1.00  0.00     0.049 A 
ATOM     54  H   UNL A   1      42.522  29.731  28.743  1.00  0.00     0.167 HD
ATOM     55  C   UNL A   1      45.072  30.788  28.157  1.00  0.00     0.074 A 
ATOM     56  C   UNL A   1      46.411  30.916  27.615  1.00  0.00     0.031 C 
ATOM     57  C   UNL A   1      44.432  31.765  28.843  1.00  0.00     0.034 A 
BRANCH  44  58
ATOM     58  C   UNL A   1      38.719  30.212  30.609  1.00  0.00     0.023 A 
ATOM     59  C   UNL A   1      37.723  30.892  29.891  1.00  0.00     0.031 A 
ATOM     60  C   UNL A   1      38.504  29.954  31.973  1.00  0.00     0.131 A 
ATOM     61  C   UNL A   1      36.568  31.331  30.555  1.00  0.00     0.055 A 
ATOM     62  C   UNL A   1      37.335  30.358  32.619  1.00  0.00     0.041 A 
ATOM     63  F   UNL A   1      39.441  29.328  32.704  1.00  0.00    -0.206 F 
ATOM     64  C   UNL A   1      36.363  31.058  31.911  1.00  0.00     0.022 A 
BRANCH  61  65
ATOM     65  S   UNL A   1      35.375  32.353  29.646  1.00  0.00     0.124 S 
ATOM     66  O   UNL A   1      36.220  33.442  29.164  1.00  0.00    -0.237 OA
ATOM     67  O   UNL A   1      34.880  31.429  28.633  1.00  0.00    -0.237 OA
ATOM     68  O   UNL A   1      34.404  32.737  30.669  1.00  0.00    -0.744 OA
ENDBRANCH  61  65
ENDBRANCH  44  58
BRANCH  45  69
ATOM     69  C   UNL A   1      46.836  27.185  25.735  1.00  0.00     0.023 A 
ATOM     70  C   UNL A   1      46.990  27.636  24.418  1.00  0.00     0.031 A 
ATOM     71  C   UNL A   1      47.820  26.345  26.283  1.00  0.00     0.131 A 
ATOM     72  C   UNL A   1      48.112  27.235  23.678  1.00  0.00     0.055 A 
ATOM     73  C   UNL A   1      48.936  25.953  25.545  1.00  0.00     0.041 A 
ATOM     74  F   UNL A   1      47.706  25.904  27.544  1.00  0.00    -0.206 F 
ATOM     75  C   UNL A   1      49.086  26.399  24.233  1.00  0.00     0.022 A 
BRANCH  72  76
ATOM     76  S   UNL A   1      48.297  27.842  21.979  1.00  0.00     0.124 S 
ATOM     77  O   UNL A   1      47.125  28.698  21.837  1.00  0.00    -0.237 OA
ATOM     78  O   UNL A   1      49.587  28.524  22.036  1.00  0.00    -0.237 OA
ATOM     79  O   UNL A   1      48.281  26.620  21.178  1.00  0.00    -0.744 OA
ENDBRANCH  72  76
ENDBRANCH  45  69
BRANCH  57  80
ATOM     80  C   UNL A   1      45.181  33.049  29.040  1.00  0.00     0.023 A 
ATOM     81  C   UNL A   1      45.064  34.102  28.117  1.00  0.00     0.031 A 
ATOM     82  C   UNL A   1      46.035  33.211  30.143  1.00  0.00     0.131 A 
ATOM     83  C   UNL A   1      45.814  35.273  28.304  1.00  0.00     0.055 A 
ATOM     84  C   UNL A   1      46.763  34.385  30.333  1.00  0.00     0.041 A 
ATOM     85  F   UNL A   1      46.180  32.225  31.041  1.00  0.00    -0.206 F 
ATOM     86  C   UNL A   1      46.657  35.422  29.409  1.00  0.00     0.022 A 
BRANCH  83  87
ATOM     87  S   UNL A   1      45.688  36.603  27.077  1.00  0.00     0.124 S 
ATOM     88  O   UNL A   1      46.366  37.704  27.754  1.00  0.00    -0.237 OA
ATOM     89  O   UNL A   1      46.379  36.040  25.922  1.00  0.00    -0.237 OA
ATOM     90  O   UNL A   1      44.245  36.776  26.908  1.00  0.00    -0.744 OA
ENDBRANCH  83  87
ENDBRANCH  57  80
ENDBRANCH  31  32
ENDBRANCH  23  26
ENDBRANCH  21  22
ENDBRANCH   1  21
TORSDOF 18
ENDMDL
MODEL 2
REMARK VINA RESULT:     -11.0      5.224      9.904
REMARK SMILES C#CCN(CC(=O)NCCCNC(=O)c1ccc(-c2c3nc(c(-c4cc(S(=O)(=O)[O-])ccc4F)c4ccc([nH]4)c(-c4cc(S(=O)(=O)[O-])ccc4F)c4nc(c(-c5cc(S(=O)(=O)[O-])ccc5F)c5ccc2[nH]5)C=C4)C=C3)cc1)C(=O)c1cc(C)c(C)s1
REMARK SMILES IDX 10 1 9 2 8 3 6 4 7 5 5 7 4 8 3 9 2 10 1 11 78 12 79 13 80 14
REMARK SMILES IDX 81 15 86 16 82 17 84 18 83 19 85 20 11 21 12 22 13 23 14 25
REMARK SMILES IDX 15 26 16 27 77 28 17 29 76 30 18 31 19 32 20 33 70 34 21 35
REMARK SMILES IDX 75 36 69 37 71 38 22 39 74 40 68 41 67 42 23 44 55 45 35 46
REMARK SMILES IDX 54 47 36 48 39 49 53 50 72 51 37 52 38 53 52 55 73 56 40 57
REMARK SMILES IDX 24 58 25 59 33 60 26 61 32 62 34 63 31 64 27 65 28 66 29 67
REMARK SMILES IDX 30 68 56 69 57 70 65 71 58 72 64 73 66 74 63 75 59 76 60 77
REMARK SMILES IDX 61 78 62 79 41 80 42 81 50 82 43 83 49 84 51 85 48 86 44 87
REMARK SMILES IDX 45 88 46 89 47 90
REMARK H PARENT 8 6 12 24 71 43 39 54
REMARK Flexibility Score: inf
ROOT
ATOM      1  C   UNL A   1      32.394  28.254  26.811  1.00  0.00     0.042 C 
ENDROOT
BRANCH   1   2
ATOM      2  C   UNL A   1      31.317  27.365  26.193  1.00  0.00     0.117 C 
BRANCH   2   3
ATOM      3  N   UNL A   1      31.122  26.096  26.873  1.00  0.00    -0.354 N 
ATOM      4  C   UNL A   1      31.057  24.817  26.409  1.00  0.00     0.239 C 
ATOM      5  O   UNL A   1      31.203  23.924  27.252  1.00  0.00    -0.273 OA
ATOM      6  H   UNL A   1      31.018  26.176  27.848  1.00  0.00     0.163 HD
BRANCH   4   7
ATOM      7  C   UNL A   1      30.981  24.456  24.915  1.00  0.00     0.220 C 
BRANCH   7   8
ATOM      8  N   UNL A   1      32.205  24.606  24.132  1.00  0.00    -0.318 N 
BRANCH   8   9
ATOM      9  C   UNL A   1      32.085  24.989  22.737  1.00  0.00     0.210 C 
BRANCH   9  10
ATOM     10  C   UNL A   1      31.393  26.330  22.554  1.00  0.00    -0.085 C 
ATOM     11  C   UNL A   1      30.800  27.481  22.397  1.00  0.00     0.006 C 
ENDBRANCH   9  10
ENDBRANCH   8   9
BRANCH   8  12
ATOM     12  C   UNL A   1      33.496  24.509  24.670  1.00  0.00     0.265 C 
ATOM     13  O   UNL A   1      34.102  25.512  25.044  1.00  0.00    -0.268 OA
BRANCH  12  14
ATOM     14  C   UNL A   1      34.101  23.196  24.743  1.00  0.00     0.093 A 
ATOM     15  C   UNL A   1      33.513  21.958  24.593  1.00  0.00     0.029 A 
ATOM     16  S   UNL A   1      35.787  23.070  24.959  1.00  0.00    -0.135 S 
ATOM     17  C   UNL A   1      34.451  20.880  24.711  1.00  0.00    -0.037 A 
ATOM     18  C   UNL A   1      35.739  21.360  24.886  1.00  0.00     0.005 A 
ATOM     19  C   UNL A   1      34.072  19.438  24.627  1.00  0.00     0.045 C 
ATOM     20  C   UNL A   1      37.009  20.584  25.010  1.00  0.00     0.056 C 
ENDBRANCH  12  14
ENDBRANCH   8  12
ENDBRANCH   7   8
ENDBRANCH   4   7
ENDBRANCH   2   3
ENDBRANCH   1   2
BRANCH   1  21
ATOM     21  C   UNL A   1      33.008  29.281  25.863  1.00  0.00     0.118 C 
BRANCH  21  22
ATOM     22  N   UNL A   1      32.675  30.648  26.225  1.00  0.00    -0.352 N 
ATOM     23  C   UNL A   1      33.229  31.497  27.151  1.00  0.00     0.251 C 
ATOM     24  H   UNL A   1      31.922  31.032  25.719  1.00  0.00     0.163 HD
ATOM     25  O   UNL A   1      32.629  32.534  27.425  1.00  0.00    -0.269 OA
BRANCH  23  26
ATOM     26  C   UNL A   1      34.510  31.189  27.835  1.00  0.00     0.039 A 
ATOM     27  C   UNL A   1      35.499  32.180  27.877  1.00  0.00     0.014 A 
ATOM     28  C   UNL A   1      34.788  29.920  28.351  1.00  0.00     0.014 A 
ATOM     29  C   UNL A   1      36.734  31.922  28.480  1.00  0.00     0.010 A 
ATOM     30  C   UNL A   1      36.006  29.675  28.992  1.00  0.00     0.010 A 
ATOM     31  C   UNL A   1      36.990  30.673  29.065  1.00  0.00    -0.014 A 
BRANCH  31  32
ATOM     32  C   UNL A   1      38.277  30.381  29.746  1.00  0.00     0.031 A 
ATOM     33  C   UNL A   1      39.253  29.413  29.140  1.00  0.00     0.074 A 
ATOM     34  C   UNL A   1      38.540  30.926  30.950  1.00  0.00     0.049 A 
ATOM     35  N   UNL A   1      40.323  28.876  29.669  1.00  0.00    -0.248 NA
ATOM     36  C   UNL A   1      38.975  28.977  27.764  1.00  0.00     0.031 C 
ATOM     37  C   UNL A   1      37.681  31.874  31.660  1.00  0.00     0.029 A 
ATOM     38  N   UNL A   1      39.601  30.733  31.800  1.00  0.00    -0.354 N 
ATOM     39  C   UNL A   1      40.823  28.003  28.710  1.00  0.00     0.074 A 
ATOM     40  C   UNL A   1      39.943  28.093  27.561  1.00  0.00     0.031 C 
ATOM     41  C   UNL A   1      38.244  32.175  32.842  1.00  0.00     0.029 A 
ATOM     42  C   UNL A   1      39.480  31.412  32.988  1.00  0.00     0.049 A 
ATOM     43  H   UNL A   1      40.373  30.165  31.578  1.00  0.00     0.167 HD
ATOM     44  C   UNL A   1      41.910  27.196  28.780  1.00  0.00     0.034 A 
ATOM     45  C   UNL A   1      40.251  31.389  34.091  1.00  0.00     0.034 A 
ATOM     46  C   UNL A   1      42.815  27.138  29.898  1.00  0.00     0.049 A 
ATOM     47  C   UNL A   1      41.443  30.481  34.152  1.00  0.00     0.074 A 
ATOM     48  C   UNL A   1      43.990  26.417  30.024  1.00  0.00     0.029 A 
ATOM     49  N   UNL A   1      42.642  27.828  31.089  1.00  0.00    -0.354 N 
ATOM     50  N   UNL A   1      41.883  29.637  33.249  1.00  0.00    -0.248 NA
ATOM     51  C   UNL A   1      42.229  30.507  35.393  1.00  0.00     0.031 C 
ATOM     52  C   UNL A   1      44.513  26.646  31.305  1.00  0.00     0.029 A 
ATOM     53  C   UNL A   1      43.675  27.531  31.965  1.00  0.00     0.049 A 
ATOM     54  H   UNL A   1      41.896  28.438  31.284  1.00  0.00     0.167 HD
ATOM     55  C   UNL A   1      42.988  29.019  33.821  1.00  0.00     0.074 A 
ATOM     56  C   UNL A   1      43.152  29.587  35.145  1.00  0.00     0.031 C 
ATOM     57  C   UNL A   1      43.799  28.070  33.294  1.00  0.00     0.034 A 
BRANCH  44  58
ATOM     58  C   UNL A   1      42.138  26.269  27.622  1.00  0.00     0.023 A 
ATOM     59  C   UNL A   1      41.667  24.946  27.630  1.00  0.00     0.031 A 
ATOM     60  C   UNL A   1      42.873  26.712  26.509  1.00  0.00     0.131 A 
ATOM     61  C   UNL A   1      41.975  24.095  26.558  1.00  0.00     0.055 A 
ATOM     62  C   UNL A   1      43.141  25.873  25.428  1.00  0.00     0.041 A 
ATOM     63  F   UNL A   1      43.364  27.962  26.471  1.00  0.00    -0.206 F 
ATOM     64  C   UNL A   1      42.698  24.554  25.452  1.00  0.00     0.022 A 
BRANCH  61  65
ATOM     65  S   UNL A   1      41.500  22.348  26.669  1.00  0.00     0.124 S 
ATOM     66  O   UNL A   1      42.090  21.799  25.451  1.00  0.00    -0.237 OA
ATOM     67  O   UNL A   1      42.119  21.935  27.922  1.00  0.00    -0.237 OA
ATOM     68  O   UNL A   1      40.039  22.390  26.678  1.00  0.00    -0.744 OA
ENDBRANCH  61  65
ENDBRANCH  44  58
BRANCH  45  69
ATOM     69  C   UNL A   1      39.856  32.186  35.276  1.00  0.00     0.023 A 
ATOM     70  C   UNL A   1      38.936  31.691  36.208  1.00  0.00     0.031 A 
ATOM     71  C   UNL A   1      40.414  33.458  35.485  1.00  0.00     0.131 A 
ATOM     72  C   UNL A   1      38.587  32.476  37.318  1.00  0.00     0.055 A 
ATOM     73  C   UNL A   1      40.069  34.231  36.592  1.00  0.00     0.041 A 
ATOM     74  F   UNL A   1      41.306  33.955  34.615  1.00  0.00    -0.206 F 
ATOM     75  C   UNL A   1      39.150  33.741  37.516  1.00  0.00     0.022 A 
BRANCH  72  76
ATOM     76  S   UNL A   1      37.403  31.810  38.519  1.00  0.00     0.124 S 
ATOM     77  O   UNL A   1      38.139  31.942  39.771  1.00  0.00    -0.237 OA
ATOM     78  O   UNL A   1      36.260  32.702  38.349  1.00  0.00    -0.237 OA
ATOM     79  O   UNL A   1      37.188  30.439  38.060  1.00  0.00    -0.744 OA
ENDBRANCH  72  76
ENDBRANCH  45  69
BRANCH  57  80
ATOM     80  C   UNL A   1      44.930  27.598  34.158  1.00  0.00     0.023 A 
ATOM     81  C   UNL A   1      44.774  26.491  35.009  1.00  0.00     0.031 A 
ATOM     82  C   UNL A   1      46.162  28.273  34.147  1.00  0.00     0.131 A 
ATOM     83  C   UNL A   1      45.837  26.102  35.839  1.00  0.00     0.055 A 
ATOM     84  C   UNL A   1      47.219  27.870  34.960  1.00  0.00     0.041 A 
ATOM     85  F   UNL A   1      46.346  29.339  33.353  1.00  0.00    -0.206 F 
ATOM     86  C   UNL A   1      47.059  26.781  35.815  1.00  0.00     0.022 A 
BRANCH  83  87
ATOM     87  S   UNL A   1      45.603  24.702  36.968  1.00  0.00     0.124 S 
ATOM     88  O   UNL A   1      44.446  24.031  36.383  1.00  0.00    -0.237 OA
ATOM     89  O   UNL A   1      46.873  23.991  36.863  1.00  0.00    -0.237 OA
ATOM     90  O   UNL A   1      45.359  25.341  38.261  1.00  0.00    -0.744 OA
ENDBRANCH  83  87
ENDBRANCH  57  80
ENDBRANCH  31  32
ENDBRANCH  23  26
ENDBRANCH  21  22
ENDBRANCH   1  21
TORSDOF 18
ENDMDL
MODEL 3
REMARK VINA RESULT:     -10.9      2.613      3.936
REMARK SMILES C#CCN(CC(=O)NCCCNC(=O)c1ccc(-c2c3nc(c(-c4cc(S(=O)(=O)[O-])ccc4F)c4ccc([nH]4)c(-c4cc(S(=O)(=O)[O-])ccc4F)c4nc(c(-c5cc(S(=O)(=O)[O-])ccc5F)c5ccc2[nH]5)C=C4)C=C3)cc1)C(=O)c1cc(C)c(C)s1
REMARK SMILES IDX 10 1 9 2 8 3 6 4 7 5 5 7 4 8 3 9 2 10 1 11 78 12 79 13 80 14
REMARK SMILES IDX 81 15 86 16 82 17 84 18 83 19 85 20 11 21 12 22 13 23 14 25
REMARK SMILES IDX 15 26 16 27 77 28 17 29 76 30 18 31 19 32 20 33 70 34 21 35
REMARK SMILES IDX 75 36 69 37 71 38 22 39 74 40 68 41 67 42 23 44 55 45 35 46
REMARK SMILES IDX 54 47 36 48 39 49 53 50 72 51 37 52 38 53 52 55 73 56 40 57
REMARK SMILES IDX 24 58 25 59 33 60 26 61 32 62 34 63 31 64 27 65 28 66 29 67
REMARK SMILES IDX 30 68 56 69 57 70 65 71 58 72 64 73 66 74 63 75 59 76 60 77
REMARK SMILES IDX 61 78 62 79 41 80 42 81 50 82 43 83 49 84 51 85 48 86 44 87
REMARK SMILES IDX 45 88 46 89 47 90
REMARK H PARENT 8 6 12 24 71 43 39 54
REMARK Flexibility Score: inf
ROOT
ATOM      1  C   UNL A   1      38.050  19.813  25.005  1.00  0.00     0.042 C 
ENDROOT
BRANCH   1   2
ATOM      2  C   UNL A   1      36.828  20.728  24.990  1.00  0.00     0.117 C 
BRANCH   2   3
ATOM      3  N   UNL A   1      35.555  20.030  24.945  1.00  0.00    -0.354 N 
ATOM      4  C   UNL A   1      34.271  20.474  25.038  1.00  0.00     0.239 C 
ATOM      5  O   UNL A   1      33.395  19.693  24.647  1.00  0.00    -0.273 OA
ATOM      6  H   UNL A   1      35.636  19.057  24.824  1.00  0.00     0.163 HD
BRANCH   4   7
ATOM      7  C   UNL A   1      33.893  21.912  25.436  1.00  0.00     0.220 C 
BRANCH   7   8
ATOM      8  N   UNL A   1      33.269  22.743  24.409  1.00  0.00    -0.318 N 
BRANCH   8   9
ATOM      9  C   UNL A   1      31.826  22.692  24.266  1.00  0.00     0.210 C 
BRANCH   9  10
ATOM     10  C   UNL A   1      31.100  22.811  25.597  1.00  0.00    -0.085 C 
ATOM     11  C   UNL A   1      30.477  22.912  26.738  1.00  0.00     0.006 C 
ENDBRANCH   9  10
ENDBRANCH   8   9
BRANCH   8  12
ATOM     12  C   UNL A   1      33.967  23.672  23.623  1.00  0.00     0.265 C 
ATOM     13  O   UNL A   1      34.686  23.302  22.696  1.00  0.00    -0.268 OA
BRANCH  12  14
ATOM     14  C   UNL A   1      33.837  25.074  23.959  1.00  0.00     0.093 A 
ATOM     15  C   UNL A   1      34.027  25.698  25.173  1.00  0.00     0.029 A 
ATOM     16  S   UNL A   1      33.480  26.193  22.724  1.00  0.00    -0.135 S 
ATOM     17  C   UNL A   1      33.825  27.116  25.106  1.00  0.00    -0.037 A 
ATOM     18  C   UNL A   1      33.547  27.516  23.808  1.00  0.00     0.005 A 
ATOM     19  C   UNL A   1      33.932  28.027  26.285  1.00  0.00     0.045 C 
ATOM     20  C   UNL A   1      33.314  28.899  23.294  1.00  0.00     0.056 C 
ENDBRANCH  12  14
ENDBRANCH   8  12
ENDBRANCH   7   8
ENDBRANCH   4   7
ENDBRANCH   2   3
ENDBRANCH   1   2
BRANCH   1  21
ATOM     21  C   UNL A   1      39.111  20.169  26.043  1.00  0.00     0.118 C 
BRANCH  21  22
ATOM     22  N   UNL A   1      40.260  19.280  25.998  1.00  0.00    -0.352 N 
ATOM     23  C   UNL A   1      41.608  19.546  26.025  1.00  0.00     0.251 C 
ATOM     24  H   UNL A   1      40.034  18.323  25.938  1.00  0.00     0.163 HD
ATOM     25  O   UNL A   1      42.387  18.634  25.754  1.00  0.00    -0.269 OA
BRANCH  23  26
ATOM     26  C   UNL A   1      42.140  20.892  26.349  1.00  0.00     0.039 A 
ATOM     27  C   UNL A   1      42.277  21.248  27.697  1.00  0.00     0.014 A 
ATOM     28  C   UNL A   1      42.415  21.839  25.359  1.00  0.00     0.014 A 
ATOM     29  C   UNL A   1      42.741  22.520  28.049  1.00  0.00     0.010 A 
ATOM     30  C   UNL A   1      42.921  23.094  25.709  1.00  0.00     0.010 A 
ATOM     31  C   UNL A   1      43.090  23.447  27.057  1.00  0.00    -0.014 A 
BRANCH  31  32
ATOM     32  C   UNL A   1      43.622  24.791  27.399  1.00  0.00     0.031 A 
ATOM     33  C   UNL A   1      42.707  25.851  27.946  1.00  0.00     0.074 A 
ATOM     34  C   UNL A   1      44.911  25.089  27.148  1.00  0.00     0.049 A 
ATOM     35  N   UNL A   1      42.930  27.130  28.113  1.00  0.00    -0.248 NA
ATOM     36  C   UNL A   1      41.359  25.416  28.336  1.00  0.00     0.031 C 
ATOM     37  C   UNL A   1      45.909  24.162  26.612  1.00  0.00     0.029 A 
ATOM     38  N   UNL A   1      45.594  26.271  27.289  1.00  0.00    -0.354 N 
ATOM     39  C   UNL A   1      41.737  27.664  28.585  1.00  0.00     0.074 A 
ATOM     40  C   UNL A   1      40.797  26.565  28.687  1.00  0.00     0.031 C 
ATOM     41  C   UNL A   1      47.074  24.813  26.461  1.00  0.00     0.029 A 
ATOM     42  C   UNL A   1      46.894  26.207  26.851  1.00  0.00     0.049 A 
ATOM     43  H   UNL A   1      45.191  27.085  27.668  1.00  0.00     0.167 HD
ATOM     44  C   UNL A   1      41.447  28.951  28.897  1.00  0.00     0.034 A 
ATOM     45  C   UNL A   1      47.825  27.172  26.733  1.00  0.00     0.034 A 
ATOM     46  C   UNL A   1      42.389  30.038  28.844  1.00  0.00     0.049 A 
ATOM     47  C   UNL A   1      47.481  28.591  27.074  1.00  0.00     0.074 A 
ATOM     48  C   UNL A   1      42.212  31.357  29.225  1.00  0.00     0.029 A 
ATOM     49  N   UNL A   1      43.690  29.931  28.375  1.00  0.00    -0.354 N 
ATOM     50  N   UNL A   1      46.338  29.085  27.486  1.00  0.00    -0.248 NA
ATOM     51  C   UNL A   1      48.549  29.587  26.909  1.00  0.00     0.031 C 
ATOM     52  C   UNL A   1      43.397  32.057  28.956  1.00  0.00     0.029 A 
ATOM     53  C   UNL A   1      44.320  31.166  28.433  1.00  0.00     0.049 A 
ATOM     54  H   UNL A   1      44.106  29.102  28.048  1.00  0.00     0.167 HD
ATOM     55  C   UNL A   1      46.545  30.453  27.614  1.00  0.00     0.074 A 
ATOM     56  C   UNL A   1      47.922  30.709  27.239  1.00  0.00     0.031 C 
ATOM     57  C   UNL A   1      45.675  31.411  28.014  1.00  0.00     0.034 A 
BRANCH  44  58
ATOM     58  C   UNL A   1      40.025  29.251  29.273  1.00  0.00     0.023 A 
ATOM     59  C   UNL A   1      39.601  29.258  30.611  1.00  0.00     0.031 A 
ATOM     60  C   UNL A   1      39.076  29.497  28.267  1.00  0.00     0.131 A 
ATOM     61  C   UNL A   1      38.245  29.466  30.906  1.00  0.00     0.055 A 
ATOM     62  C   UNL A   1      37.736  29.743  28.569  1.00  0.00     0.041 A 
ATOM     63  F   UNL A   1      39.433  29.475  26.973  1.00  0.00    -0.206 F 
ATOM     64  C   UNL A   1      37.313  29.721  29.895  1.00  0.00     0.022 A 
BRANCH  61  65
ATOM     65  S   UNL A   1      37.693  29.304  32.627  1.00  0.00     0.124 S 
ATOM     66  O   UNL A   1      37.869  27.873  32.864  1.00  0.00    -0.237 OA
ATOM     67  O   UNL A   1      38.611  30.188  33.335  1.00  0.00    -0.237 OA
ATOM     68  O   UNL A   1      36.302  29.752  32.584  1.00  0.00    -0.744 OA
ENDBRANCH  61  65
ENDBRANCH  44  58
BRANCH  45  69
ATOM     69  C   UNL A   1      49.154  26.840  26.168  1.00  0.00     0.023 A 
ATOM     70  C   UNL A   1      49.481  27.163  24.845  1.00  0.00     0.031 A 
ATOM     71  C   UNL A   1      50.116  26.198  26.965  1.00  0.00     0.131 A 
ATOM     72  C   UNL A   1      50.750  26.833  24.346  1.00  0.00     0.055 A 
ATOM     73  C   UNL A   1      51.378  25.876  26.466  1.00  0.00     0.041 A 
ATOM     74  F   UNL A   1      49.837  25.884  28.238  1.00  0.00    -0.206 F 
ATOM     75  C   UNL A   1      51.700  26.194  25.149  1.00  0.00     0.022 A 
BRANCH  72  76
ATOM     76  S   UNL A   1      51.155  27.272  22.634  1.00  0.00     0.124 S 
ATOM     77  O   UNL A   1      52.446  26.618  22.454  1.00  0.00    -0.237 OA
ATOM     78  O   UNL A   1      50.035  26.696  21.896  1.00  0.00    -0.237 OA
ATOM     79  O   UNL A   1      51.192  28.733  22.657  1.00  0.00    -0.744 OA
ENDBRANCH  72  76
ENDBRANCH  45  69
BRANCH  57  80
ATOM     80  C   UNL A   1      46.198  32.816  28.062  1.00  0.00     0.023 A 
ATOM     81  C   UNL A   1      46.820  33.316  29.218  1.00  0.00     0.031 A 
ATOM     82  C   UNL A   1      46.051  33.666  26.954  1.00  0.00     0.131 A 
ATOM     83  C   UNL A   1      47.256  34.649  29.248  1.00  0.00     0.055 A 
ATOM     84  C   UNL A   1      46.504  34.984  26.983  1.00  0.00     0.041 A 
ATOM     85  F   UNL A   1      45.454  33.227  25.835  1.00  0.00    -0.206 F 
ATOM     86  C   UNL A   1      47.108  35.483  28.135  1.00  0.00     0.022 A 
BRANCH  83  87
ATOM     87  S   UNL A   1      48.014  35.292  30.764  1.00  0.00     0.124 S 
ATOM     88  O   UNL A   1      48.834  36.386  30.253  1.00  0.00    -0.237 OA
ATOM     89  O   UNL A   1      46.855  35.682  31.561  1.00  0.00    -0.237 OA
ATOM     90  O   UNL A   1      48.763  34.148  31.285  1.00  0.00    -0.744 OA
ENDBRANCH  83  87
ENDBRANCH  57  80
ENDBRANCH  31  32
ENDBRANCH  23  26
ENDBRANCH  21  22
ENDBRANCH   1  21
TORSDOF 18
ENDMDL
