MODEL 1
REMARK VINA RESULT:     -11.1      0.000      0.000
REMARK SMILES CC[C@@](CC(F)(F)F)(C(=O)NCCCNC(=O)c1ccc(-c2c3nc(c(-c4cc(S(=O)(=O)[O-])ccc4F)c4ccc([nH]4)c(-c4cc(S(=O)(=O)[O-])ccc4F)c4nc(c(-c5cc(S(=O)(=O)[O-])ccc5F)c5ccc2[nH]5)C=C4)C=C3)cc1)c1ccccc1
REMARK SMILES IDX 13 1 12 2 11 3 9 4 10 5 3 7 2 8 1 9 4 10 5 11 6 12 7 13 8 14
REMARK SMILES IDX 81 15 82 16 86 17 83 18 85 19 84 20 14 21 15 22 16 23 17 25
REMARK SMILES IDX 18 26 19 27 80 28 20 29 79 30 21 31 22 32 23 33 73 34 24 35
REMARK SMILES IDX 78 36 72 37 74 38 25 39 77 40 71 41 70 42 26 44 58 45 38 46
REMARK SMILES IDX 57 47 39 48 42 49 56 50 75 51 40 52 41 53 55 55 76 56 43 57
REMARK SMILES IDX 27 58 28 59 36 60 29 61 35 62 37 63 34 64 30 65 31 66 32 67
REMARK SMILES IDX 33 68 59 69 60 70 68 71 61 72 67 73 69 74 66 75 62 76 63 77
REMARK SMILES IDX 64 78 65 79 44 80 45 81 53 82 46 83 52 84 54 85 51 86 47 87
REMARK SMILES IDX 48 88 49 89 50 90
REMARK H PARENT 11 6 15 24 74 43 42 54
REMARK Flexibility Score: inf
ROOT
ATOM      1  C   UNL A   1      32.277  27.896  25.697  1.00  0.00     0.042 C 
ENDROOT
BRANCH   1   2
ATOM      2  C   UNL A   1      32.966  26.564  25.479  1.00  0.00     0.117 C 
BRANCH   2   3
ATOM      3  N   UNL A   1      32.472  25.829  24.329  1.00  0.00    -0.355 N 
ATOM      4  C   UNL A   1      32.274  24.508  24.072  1.00  0.00     0.230 C 
ATOM      5  O   UNL A   1      31.596  24.285  23.062  1.00  0.00    -0.274 OA
ATOM      6  H   UNL A   1      32.228  26.411  23.574  1.00  0.00     0.163 HD
BRANCH   4   7
ATOM      7  C   UNL A   1      32.817  23.337  24.962  1.00  0.00     0.082 C 
BRANCH   7   8
ATOM      8  C   UNL A   1      32.402  23.545  26.457  1.00  0.00     0.019 C 
ATOM      9  C   UNL A   1      30.906  23.481  26.751  1.00  0.00     0.005 C 
ENDBRANCH   7   8
BRANCH   7  10
ATOM     10  C   UNL A   1      32.369  21.959  24.378  1.00  0.00     0.137 C 
BRANCH  10  11
ATOM     11  C   UNL A   1      32.855  20.645  24.928  1.00  0.00     0.390 C 
ATOM     12  F   UNL A   1      31.958  19.658  24.748  1.00  0.00    -0.171 F 
ATOM     13  F   UNL A   1      33.972  20.267  24.255  1.00  0.00    -0.171 F 
ATOM     14  F   UNL A   1      33.187  20.710  26.229  1.00  0.00    -0.171 F 
ENDBRANCH  10  11
ENDBRANCH   7  10
BRANCH   7  15
ATOM     15  C   UNL A   1      34.407  23.379  24.884  1.00  0.00    -0.032 A 
ATOM     16  C   UNL A   1      35.105  23.242  23.663  1.00  0.00     0.005 A 
ATOM     17  C   UNL A   1      35.196  23.563  26.037  1.00  0.00     0.005 A 
ATOM     18  C   UNL A   1      36.500  23.185  23.610  1.00  0.00     0.000 A 
ATOM     19  C   UNL A   1      36.594  23.501  25.985  1.00  0.00     0.000 A 
ATOM     20  C   UNL A   1      37.245  23.293  24.774  1.00  0.00     0.000 A 
ENDBRANCH   7  15
ENDBRANCH   4   7
ENDBRANCH   2   3
ENDBRANCH   1   2
BRANCH   1  21
ATOM     21  C   UNL A   1      33.124  29.080  25.262  1.00  0.00     0.118 C 
BRANCH  21  22
ATOM     22  N   UNL A   1      32.617  30.352  25.772  1.00  0.00    -0.352 N 
ATOM     23  C   UNL A   1      33.042  31.133  26.822  1.00  0.00     0.251 C 
ATOM     24  H   UNL A   1      31.842  30.711  25.282  1.00  0.00     0.163 HD
ATOM     25  O   UNL A   1      32.335  32.048  27.220  1.00  0.00    -0.269 OA
BRANCH  23  26
ATOM     26  C   UNL A   1      34.338  30.846  27.472  1.00  0.00     0.039 A 
ATOM     27  C   UNL A   1      35.244  31.887  27.686  1.00  0.00     0.014 A 
ATOM     28  C   UNL A   1      34.652  29.550  27.879  1.00  0.00     0.014 A 
ATOM     29  C   UNL A   1      36.427  31.636  28.388  1.00  0.00     0.010 A 
ATOM     30  C   UNL A   1      35.760  29.328  28.681  1.00  0.00     0.010 A 
ATOM     31  C   UNL A   1      36.668  30.365  28.935  1.00  0.00    -0.014 A 
BRANCH  31  32
ATOM     32  C   UNL A   1      37.872  30.082  29.759  1.00  0.00     0.031 A 
ATOM     33  C   UNL A   1      38.945  29.173  29.222  1.00  0.00     0.074 A 
ATOM     34  C   UNL A   1      37.954  30.572  31.012  1.00  0.00     0.049 A 
ATOM     35  N   UNL A   1      40.012  28.709  29.817  1.00  0.00    -0.248 NA
ATOM     36  C   UNL A   1      38.770  28.687  27.843  1.00  0.00     0.031 C 
ATOM     37  C   UNL A   1      36.951  31.423  31.657  1.00  0.00     0.029 A 
ATOM     38  N   UNL A   1      38.923  30.422  31.972  1.00  0.00    -0.354 N 
ATOM     39  C   UNL A   1      40.621  27.862  28.896  1.00  0.00     0.074 A 
ATOM     40  C   UNL A   1      39.762  27.818  27.734  1.00  0.00     0.031 C 
ATOM     41  C   UNL A   1      37.372  31.746  32.889  1.00  0.00     0.029 A 
ATOM     42  C   UNL A   1      38.646  31.084  33.146  1.00  0.00     0.049 A 
ATOM     43  H   UNL A   1      39.738  29.889  31.834  1.00  0.00     0.167 HD
ATOM     44  C   UNL A   1      41.805  27.209  28.999  1.00  0.00     0.034 A 
ATOM     45  C   UNL A   1      39.336  31.138  34.303  1.00  0.00     0.034 A 
ATOM     46  C   UNL A   1      42.656  27.286  30.160  1.00  0.00     0.049 A 
ATOM     47  C   UNL A   1      40.640  30.388  34.402  1.00  0.00     0.074 A 
ATOM     48  C   UNL A   1      43.901  26.715  30.355  1.00  0.00     0.029 A 
ATOM     49  N   UNL A   1      42.347  27.974  31.327  1.00  0.00    -0.354 N 
ATOM     50  N   UNL A   1      41.229  29.632  33.502  1.00  0.00    -0.248 NA
ATOM     51  C   UNL A   1      41.377  30.504  35.665  1.00  0.00     0.031 C 
ATOM     52  C   UNL A   1      44.310  26.995  31.663  1.00  0.00     0.029 A 
ATOM     53  C   UNL A   1      43.364  27.815  32.256  1.00  0.00     0.049 A 
ATOM     54  H   UNL A   1      41.527  28.499  31.473  1.00  0.00     0.167 HD
ATOM     55  C   UNL A   1      42.425  29.216  34.081  1.00  0.00     0.074 A 
ATOM     56  C   UNL A   1      42.477  29.815  35.399  1.00  0.00     0.031 C 
ATOM     57  C   UNL A   1      43.395  28.416  33.569  1.00  0.00     0.034 A 
BRANCH  44  58
ATOM     58  C   UNL A   1      42.226  26.344  27.833  1.00  0.00     0.023 A 
ATOM     59  C   UNL A   1      41.748  25.030  27.675  1.00  0.00     0.031 A 
ATOM     60  C   UNL A   1      43.141  26.828  26.881  1.00  0.00     0.131 A 
ATOM     61  C   UNL A   1      42.250  24.221  26.646  1.00  0.00     0.055 A 
ATOM     62  C   UNL A   1      43.565  26.046  25.805  1.00  0.00     0.041 A 
ATOM     63  F   UNL A   1      43.651  28.064  26.988  1.00  0.00    -0.206 F 
ATOM     64  C   UNL A   1      43.134  24.728  25.692  1.00  0.00     0.022 A 
BRANCH  61  65
ATOM     65  S   UNL A   1      41.850  22.452  26.666  1.00  0.00     0.124 S 
ATOM     66  O   UNL A   1      40.414  22.477  26.934  1.00  0.00    -0.237 OA
ATOM     67  O   UNL A   1      42.243  22.024  25.329  1.00  0.00    -0.237 OA
ATOM     68  O   UNL A   1      42.671  21.928  27.756  1.00  0.00    -0.744 OA
ENDBRANCH  61  65
ENDBRANCH  44  58
BRANCH  45  69
ATOM     69  C   UNL A   1      38.814  31.923  35.461  1.00  0.00     0.023 A 
ATOM     70  C   UNL A   1      38.279  31.278  36.587  1.00  0.00     0.031 A 
ATOM     71  C   UNL A   1      38.801  33.329  35.441  1.00  0.00     0.131 A 
ATOM     72  C   UNL A   1      37.708  32.034  37.623  1.00  0.00     0.055 A 
ATOM     73  C   UNL A   1      38.286  34.078  36.500  1.00  0.00     0.041 A 
ATOM     74  F   UNL A   1      39.302  33.998  34.390  1.00  0.00    -0.206 F 
ATOM     75  C   UNL A   1      37.722  33.430  37.593  1.00  0.00     0.022 A 
BRANCH  72  76
ATOM     76  S   UNL A   1      36.857  31.161  38.967  1.00  0.00     0.124 S 
ATOM     77  O   UNL A   1      36.698  29.828  38.400  1.00  0.00    -0.237 OA
ATOM     78  O   UNL A   1      37.814  31.285  40.061  1.00  0.00    -0.237 OA
ATOM     79  O   UNL A   1      35.620  31.922  39.135  1.00  0.00    -0.744 OA
ENDBRANCH  72  76
ENDBRANCH  45  69
BRANCH  57  80
ATOM     80  C   UNL A   1      44.620  28.190  34.421  1.00  0.00     0.023 A 
ATOM     81  C   UNL A   1      44.709  27.116  35.326  1.00  0.00     0.031 A 
ATOM     82  C   UNL A   1      45.715  29.067  34.327  1.00  0.00     0.131 A 
ATOM     83  C   UNL A   1      45.843  26.982  36.140  1.00  0.00     0.055 A 
ATOM     84  C   UNL A   1      46.869  28.890  35.091  1.00  0.00     0.041 A 
ATOM     85  F   UNL A   1      45.683  30.111  33.484  1.00  0.00    -0.206 F 
ATOM     86  C   UNL A   1      46.932  27.850  36.014  1.00  0.00     0.022 A 
BRANCH  83  87
ATOM     87  S   UNL A   1      45.837  25.716  37.438  1.00  0.00     0.124 S 
ATOM     88  O   UNL A   1      45.558  26.507  38.632  1.00  0.00    -0.237 OA
ATOM     89  O   UNL A   1      44.767  24.824  36.999  1.00  0.00    -0.237 OA
ATOM     90  O   UNL A   1      47.182  25.149  37.370  1.00  0.00    -0.744 OA
ENDBRANCH  83  87
ENDBRANCH  57  80
ENDBRANCH  31  32
ENDBRANCH  23  26
ENDBRANCH  21  22
ENDBRANCH   1  21
TORSDOF 17
ENDMDL
MODEL 2
REMARK VINA RESULT:     -11.1      1.602      2.216
REMARK SMILES CC[C@@](CC(F)(F)F)(C(=O)NCCCNC(=O)c1ccc(-c2c3nc(c(-c4cc(S(=O)(=O)[O-])ccc4F)c4ccc([nH]4)c(-c4cc(S(=O)(=O)[O-])ccc4F)c4nc(c(-c5cc(S(=O)(=O)[O-])ccc5F)c5ccc2[nH]5)C=C4)C=C3)cc1)c1ccccc1
REMARK SMILES IDX 13 1 12 2 11 3 9 4 10 5 3 7 2 8 1 9 4 10 5 11 6 12 7 13 8 14
REMARK SMILES IDX 81 15 82 16 86 17 83 18 85 19 84 20 14 21 15 22 16 23 17 25
REMARK SMILES IDX 18 26 19 27 80 28 20 29 79 30 21 31 22 32 23 33 73 34 24 35
REMARK SMILES IDX 78 36 72 37 74 38 25 39 77 40 71 41 70 42 26 44 58 45 38 46
REMARK SMILES IDX 57 47 39 48 42 49 56 50 75 51 40 52 41 53 55 55 76 56 43 57
REMARK SMILES IDX 27 58 28 59 36 60 29 61 35 62 37 63 34 64 30 65 31 66 32 67
REMARK SMILES IDX 33 68 59 69 60 70 68 71 61 72 67 73 69 74 66 75 62 76 63 77
REMARK SMILES IDX 64 78 65 79 44 80 45 81 53 82 46 83 52 84 54 85 51 86 47 87
REMARK SMILES IDX 48 88 49 89 50 90
REMARK H PARENT 11 6 15 24 74 43 42 54
REMARK Flexibility Score: inf
ROOT
ATOM      1  C   UNL A   1      31.901  28.070  26.215  1.00  0.00     0.042 C 
ENDROOT
BRANCH   1   2
ATOM      2  C   UNL A   1      32.620  26.769  26.511  1.00  0.00     0.117 C 
BRANCH   2   3
ATOM      3  N   UNL A   1      31.732  25.674  26.858  1.00  0.00    -0.355 N 
ATOM      4  C   UNL A   1      31.722  24.345  26.570  1.00  0.00     0.230 C 
ATOM      5  O   UNL A   1      30.937  23.683  27.261  1.00  0.00    -0.274 OA
ATOM      6  H   UNL A   1      30.978  25.953  27.425  1.00  0.00     0.163 HD
BRANCH   4   7
ATOM      7  C   UNL A   1      32.623  23.662  25.483  1.00  0.00     0.082 C 
BRANCH   7   8
ATOM      8  C   UNL A   1      34.119  23.647  25.942  1.00  0.00     0.019 C 
ATOM      9  C   UNL A   1      34.408  22.930  27.257  1.00  0.00     0.005 C 
ENDBRANCH   7   8
BRANCH   7  10
ATOM     10  C   UNL A   1      32.066  22.247  25.127  1.00  0.00     0.137 C 
BRANCH  10  11
ATOM     11  C   UNL A   1      32.742  21.330  24.144  1.00  0.00     0.390 C 
ATOM     12  F   UNL A   1      34.010  21.054  24.498  1.00  0.00    -0.171 F 
ATOM     13  F   UNL A   1      32.088  20.140  24.123  1.00  0.00    -0.171 F 
ATOM     14  F   UNL A   1      32.726  21.805  22.885  1.00  0.00    -0.171 F 
ENDBRANCH  10  11
ENDBRANCH   7  10
BRANCH   7  15
ATOM     15  C   UNL A   1      32.524  24.546  24.162  1.00  0.00    -0.032 A 
ATOM     16  C   UNL A   1      33.661  25.132  23.561  1.00  0.00     0.005 A 
ATOM     17  C   UNL A   1      31.289  24.781  23.524  1.00  0.00     0.005 A 
ATOM     18  C   UNL A   1      33.558  25.984  22.458  1.00  0.00     0.000 A 
ATOM     19  C   UNL A   1      31.186  25.639  22.422  1.00  0.00     0.000 A 
ATOM     20  C   UNL A   1      32.318  26.255  21.901  1.00  0.00     0.000 A 
ENDBRANCH   7  15
ENDBRANCH   4   7
ENDBRANCH   2   3
ENDBRANCH   1   2
BRANCH   1  21
ATOM     21  C   UNL A   1      32.815  29.129  25.620  1.00  0.00     0.118 C 
BRANCH  21  22
ATOM     22  N   UNL A   1      32.437  30.484  26.016  1.00  0.00    -0.352 N 
ATOM     23  C   UNL A   1      32.974  31.326  26.963  1.00  0.00     0.251 C 
ATOM     24  H   UNL A   1      31.672  30.857  25.522  1.00  0.00     0.163 HD
ATOM     25  O   UNL A   1      32.362  32.333  27.292  1.00  0.00    -0.269 OA
BRANCH  23  26
ATOM     26  C   UNL A   1      34.270  30.995  27.589  1.00  0.00     0.039 A 
ATOM     27  C   UNL A   1      35.216  32.004  27.786  1.00  0.00     0.014 A 
ATOM     28  C   UNL A   1      34.547  29.689  27.991  1.00  0.00     0.014 A 
ATOM     29  C   UNL A   1      36.402  31.712  28.465  1.00  0.00     0.010 A 
ATOM     30  C   UNL A   1      35.662  29.429  28.772  1.00  0.00     0.010 A 
ATOM     31  C   UNL A   1      36.610  30.434  29.008  1.00  0.00    -0.014 A 
BRANCH  31  32
ATOM     32  C   UNL A   1      37.819  30.110  29.809  1.00  0.00     0.031 A 
ATOM     33  C   UNL A   1      38.863  29.186  29.242  1.00  0.00     0.074 A 
ATOM     34  C   UNL A   1      37.931  30.577  31.068  1.00  0.00     0.049 A 
ATOM     35  N   UNL A   1      39.927  28.687  29.814  1.00  0.00    -0.248 NA
ATOM     36  C   UNL A   1      38.657  28.726  27.858  1.00  0.00     0.031 C 
ATOM     37  C   UNL A   1      36.957  31.441  31.742  1.00  0.00     0.029 A 
ATOM     38  N   UNL A   1      38.909  30.390  32.012  1.00  0.00    -0.354 N 
ATOM     39  C   UNL A   1      40.503  27.842  28.871  1.00  0.00     0.074 A 
ATOM     40  C   UNL A   1      39.626  27.836  27.721  1.00  0.00     0.031 C 
ATOM     41  C   UNL A   1      37.404  31.734  32.973  1.00  0.00     0.029 A 
ATOM     42  C   UNL A   1      38.665  31.038  33.200  1.00  0.00     0.049 A 
ATOM     43  H   UNL A   1      39.710  29.841  31.853  1.00  0.00     0.167 HD
ATOM     44  C   UNL A   1      41.672  27.159  28.946  1.00  0.00     0.034 A 
ATOM     45  C   UNL A   1      39.373  31.059  34.348  1.00  0.00     0.034 A 
ATOM     46  C   UNL A   1      42.542  27.198  30.095  1.00  0.00     0.049 A 
ATOM     47  C   UNL A   1      40.661  30.276  34.415  1.00  0.00     0.074 A 
ATOM     48  C   UNL A   1      43.776  26.596  30.262  1.00  0.00     0.029 A 
ATOM     49  N   UNL A   1      42.266  27.874  31.277  1.00  0.00    -0.354 N 
ATOM     50  N   UNL A   1      41.218  29.522  33.494  1.00  0.00    -0.248 NA
ATOM     51  C   UNL A   1      41.419  30.355  35.669  1.00  0.00     0.031 C 
ATOM     52  C   UNL A   1      44.210  26.845  31.568  1.00  0.00     0.029 A 
ATOM     53  C   UNL A   1      43.292  27.677  32.188  1.00  0.00     0.049 A 
ATOM     54  H   UNL A   1      41.460  28.415  31.443  1.00  0.00     0.167 HD
ATOM     55  C   UNL A   1      42.413  29.069  34.049  1.00  0.00     0.074 A 
ATOM     56  C   UNL A   1      42.497  29.645  35.375  1.00  0.00     0.031 C 
ATOM     57  C   UNL A   1      43.356  28.256  33.510  1.00  0.00     0.034 A 
BRANCH  44  58
ATOM     58  C   UNL A   1      42.056  26.304  27.760  1.00  0.00     0.023 A 
ATOM     59  C   UNL A   1      41.614  24.975  27.632  1.00  0.00     0.031 A 
ATOM     60  C   UNL A   1      42.900  26.814  26.757  1.00  0.00     0.131 A 
ATOM     61  C   UNL A   1      42.084  24.178  26.578  1.00  0.00     0.055 A 
ATOM     62  C   UNL A   1      43.290  26.042  25.661  1.00  0.00     0.041 A 
ATOM     63  F   UNL A   1      43.375  28.067  26.834  1.00  0.00    -0.206 F 
ATOM     64  C   UNL A   1      42.896  24.710  25.575  1.00  0.00     0.022 A 
BRANCH  61  65
ATOM     65  S   UNL A   1      41.744  22.397  26.624  1.00  0.00     0.124 S 
ATOM     66  O   UNL A   1      42.296  22.026  27.926  1.00  0.00    -0.237 OA
ATOM     67  O   UNL A   1      40.292  22.349  26.510  1.00  0.00    -0.237 OA
ATOM     68  O   UNL A   1      42.480  21.878  25.473  1.00  0.00    -0.744 OA
ENDBRANCH  61  65
ENDBRANCH  44  58
BRANCH  45  69
ATOM     69  C   UNL A   1      38.886  31.836  35.525  1.00  0.00     0.023 A 
ATOM     70  C   UNL A   1      38.310  31.188  36.629  1.00  0.00     0.031 A 
ATOM     71  C   UNL A   1      38.949  33.241  35.546  1.00  0.00     0.131 A 
ATOM     72  C   UNL A   1      37.773  31.943  37.684  1.00  0.00     0.055 A 
ATOM     73  C   UNL A   1      38.468  33.985  36.625  1.00  0.00     0.041 A 
ATOM     74  F   UNL A   1      39.493  33.912  34.518  1.00  0.00    -0.206 F 
ATOM     75  C   UNL A   1      37.862  33.337  37.696  1.00  0.00     0.022 A 
BRANCH  72  76
ATOM     76  S   UNL A   1      36.868  31.080  38.997  1.00  0.00     0.124 S 
ATOM     77  O   UNL A   1      36.739  29.740  38.436  1.00  0.00    -0.237 OA
ATOM     78  O   UNL A   1      37.775  31.217  40.131  1.00  0.00    -0.237 OA
ATOM     79  O   UNL A   1      35.621  31.836  39.104  1.00  0.00    -0.744 OA
ENDBRANCH  72  76
ENDBRANCH  45  69
BRANCH  57  80
ATOM     80  C   UNL A   1      44.588  27.987  34.340  1.00  0.00     0.023 A 
ATOM     81  C   UNL A   1      45.726  28.809  34.270  1.00  0.00     0.031 A 
ATOM     82  C   UNL A   1      44.621  26.886  35.215  1.00  0.00     0.131 A 
ATOM     83  C   UNL A   1      46.869  28.484  35.016  1.00  0.00     0.055 A 
ATOM     84  C   UNL A   1      45.735  26.607  36.005  1.00  0.00     0.041 A 
ATOM     85  F   UNL A   1      43.563  26.065  35.320  1.00  0.00    -0.206 F 
ATOM     86  C   UNL A   1      46.874  27.400  35.898  1.00  0.00     0.022 A 
BRANCH  83  87
ATOM     87  S   UNL A   1      48.385  29.440  34.744  1.00  0.00     0.124 S 
ATOM     88  O   UNL A   1      49.421  28.446  35.003  1.00  0.00    -0.237 OA
ATOM     89  O   UNL A   1      48.242  29.866  33.355  1.00  0.00    -0.237 OA
ATOM     90  O   UNL A   1      48.295  30.514  35.732  1.00  0.00    -0.744 OA
ENDBRANCH  83  87
ENDBRANCH  57  80
ENDBRANCH  31  32
ENDBRANCH  23  26
ENDBRANCH  21  22
ENDBRANCH   1  21
TORSDOF 17
ENDMDL
MODEL 3
REMARK VINA RESULT:     -11.0      1.742      2.336
REMARK SMILES CC[C@@](CC(F)(F)F)(C(=O)NCCCNC(=O)c1ccc(-c2c3nc(c(-c4cc(S(=O)(=O)[O-])ccc4F)c4ccc([nH]4)c(-c4cc(S(=O)(=O)[O-])ccc4F)c4nc(c(-c5cc(S(=O)(=O)[O-])ccc5F)c5ccc2[nH]5)C=C4)C=C3)cc1)c1ccccc1
REMARK SMILES IDX 13 1 12 2 11 3 9 4 10 5 3 7 2 8 1 9 4 10 5 11 6 12 7 13 8 14
REMARK SMILES IDX 81 15 82 16 86 17 83 18 85 19 84 20 14 21 15 22 16 23 17 25
REMARK SMILES IDX 18 26 19 27 80 28 20 29 79 30 21 31 22 32 23 33 73 34 24 35
REMARK SMILES IDX 78 36 72 37 74 38 25 39 77 40 71 41 70 42 26 44 58 45 38 46
REMARK SMILES IDX 57 47 39 48 42 49 56 50 75 51 40 52 41 53 55 55 76 56 43 57
REMARK SMILES IDX 27 58 28 59 36 60 29 61 35 62 37 63 34 64 30 65 31 66 32 67
REMARK SMILES IDX 33 68 59 69 60 70 68 71 61 72 67 73 69 74 66 75 62 76 63 77
REMARK SMILES IDX 64 78 65 79 44 80 45 81 53 82 46 83 52 84 54 85 51 86 47 87
REMARK SMILES IDX 48 88 49 89 50 90
REMARK H PARENT 11 6 15 24 74 43 42 54
REMARK Flexibility Score: inf
ROOT
ATOM      1  C   UNL A   1      31.801  28.237  26.315  1.00  0.00     0.042 C 
ENDROOT
BRANCH   1   2
ATOM      2  C   UNL A   1      32.375  26.835  26.305  1.00  0.00     0.117 C 
BRANCH   2   3
ATOM      3  N   UNL A   1      31.422  25.808  26.683  1.00  0.00    -0.355 N 
ATOM      4  C   UNL A   1      31.409  24.452  26.574  1.00  0.00     0.230 C 
ATOM      5  O   UNL A   1      30.529  23.898  27.245  1.00  0.00    -0.274 OA
ATOM      6  H   UNL A   1      30.613  26.169  27.111  1.00  0.00     0.163 HD
BRANCH   4   7
ATOM      7  C   UNL A   1      32.415  23.618  25.706  1.00  0.00     0.082 C 
BRANCH   7   8
ATOM      8  C   UNL A   1      33.828  23.590  26.379  1.00  0.00     0.019 C 
ATOM      9  C   UNL A   1      34.007  22.588  27.516  1.00  0.00     0.005 C 
ENDBRANCH   7   8
BRANCH   7  10
ATOM     10  C   UNL A   1      31.834  22.198  25.416  1.00  0.00     0.137 C 
BRANCH  10  11
ATOM     11  C   UNL A   1      32.443  21.258  24.411  1.00  0.00     0.390 C 
ATOM     12  F   UNL A   1      33.782  21.383  24.348  1.00  0.00    -0.171 F 
ATOM     13  F   UNL A   1      32.201  19.978  24.793  1.00  0.00    -0.171 F 
ATOM     14  F   UNL A   1      31.926  21.401  23.178  1.00  0.00    -0.171 F 
ENDBRANCH  10  11
ENDBRANCH   7  10
BRANCH   7  15
ATOM     15  C   UNL A   1      32.555  24.358  24.302  1.00  0.00    -0.032 A 
ATOM     16  C   UNL A   1      33.801  24.803  23.807  1.00  0.00     0.005 A 
ATOM     17  C   UNL A   1      31.434  24.598  23.482  1.00  0.00     0.005 A 
ATOM     18  C   UNL A   1      33.907  25.535  22.621  1.00  0.00     0.000 A 
ATOM     19  C   UNL A   1      31.540  25.335  22.296  1.00  0.00     0.000 A 
ATOM     20  C   UNL A   1      32.773  25.820  21.875  1.00  0.00     0.000 A 
ENDBRANCH   7  15
ENDBRANCH   4   7
ENDBRANCH   2   3
ENDBRANCH   1   2
BRANCH   1  21
ATOM     21  C   UNL A   1      32.746  29.268  25.719  1.00  0.00     0.118 C 
BRANCH  21  22
ATOM     22  N   UNL A   1      32.394  30.636  26.094  1.00  0.00    -0.352 N 
ATOM     23  C   UNL A   1      32.972  31.497  26.999  1.00  0.00     0.251 C 
ATOM     24  H   UNL A   1      31.614  31.004  25.619  1.00  0.00     0.163 HD
ATOM     25  O   UNL A   1      32.381  32.517  27.325  1.00  0.00    -0.269 OA
BRANCH  23  26
ATOM     26  C   UNL A   1      34.288  31.170  27.585  1.00  0.00     0.039 A 
ATOM     27  C   UNL A   1      35.240  32.180  27.743  1.00  0.00     0.014 A 
ATOM     28  C   UNL A   1      34.578  29.867  27.988  1.00  0.00     0.014 A 
ATOM     29  C   UNL A   1      36.447  31.894  28.385  1.00  0.00     0.010 A 
ATOM     30  C   UNL A   1      35.718  29.613  28.734  1.00  0.00     0.010 A 
ATOM     31  C   UNL A   1      36.673  30.620  28.931  1.00  0.00    -0.014 A 
BRANCH  31  32
ATOM     32  C   UNL A   1      37.907  30.302  29.695  1.00  0.00     0.031 A 
ATOM     33  C   UNL A   1      38.918  29.349  29.114  1.00  0.00     0.074 A 
ATOM     34  C   UNL A   1      38.073  30.801  30.936  1.00  0.00     0.049 A 
ATOM     35  N   UNL A   1      39.997  28.852  29.659  1.00  0.00    -0.248 NA
ATOM     36  C   UNL A   1      38.654  28.855  27.752  1.00  0.00     0.031 C 
ATOM     37  C   UNL A   1      37.135  31.695  31.622  1.00  0.00     0.029 A 
ATOM     38  N   UNL A   1      39.084  30.626  31.846  1.00  0.00    -0.354 N 
ATOM     39  C   UNL A   1      40.526  27.975  28.718  1.00  0.00     0.074 A 
ATOM     40  C   UNL A   1      39.607  27.950  27.603  1.00  0.00     0.031 C 
ATOM     41  C   UNL A   1      37.632  32.016  32.826  1.00  0.00     0.029 A 
ATOM     42  C   UNL A   1      38.893  31.310  33.025  1.00  0.00     0.049 A 
ATOM     43  H   UNL A   1      39.872  30.063  31.673  1.00  0.00     0.167 HD
ATOM     44  C   UNL A   1      41.690  27.280  28.768  1.00  0.00     0.034 A 
ATOM     45  C   UNL A   1      39.643  31.351  34.144  1.00  0.00     0.034 A 
ATOM     46  C   UNL A   1      42.603  27.338  29.882  1.00  0.00     0.049 A 
ATOM     47  C   UNL A   1      40.924  30.555  34.184  1.00  0.00     0.074 A 
ATOM     48  C   UNL A   1      43.835  26.724  30.019  1.00  0.00     0.029 A 
ATOM     49  N   UNL A   1      42.380  28.049  31.055  1.00  0.00    -0.354 N 
ATOM     50  N   UNL A   1      41.437  29.769  33.264  1.00  0.00    -0.248 NA
ATOM     51  C   UNL A   1      41.729  30.657  35.406  1.00  0.00     0.031 C 
ATOM     52  C   UNL A   1      44.322  27.002  31.300  1.00  0.00     0.029 A 
ATOM     53  C   UNL A   1      43.438  27.862  31.932  1.00  0.00     0.049 A 
ATOM     54  H   UNL A   1      41.588  28.604  31.236  1.00  0.00     0.167 HD
ATOM     55  C   UNL A   1      42.646  29.315  33.785  1.00  0.00     0.074 A 
ATOM     56  C   UNL A   1      42.788  29.926  35.092  1.00  0.00     0.031 C 
ATOM     57  C   UNL A   1      43.559  28.476  33.234  1.00  0.00     0.034 A 
BRANCH  44  58
ATOM     58  C   UNL A   1      42.018  26.388  27.592  1.00  0.00     0.023 A 
ATOM     59  C   UNL A   1      41.592  25.049  27.537  1.00  0.00     0.031 A 
ATOM     60  C   UNL A   1      42.793  26.874  26.524  1.00  0.00     0.131 A 
ATOM     61  C   UNL A   1      42.013  24.222  26.486  1.00  0.00     0.055 A 
ATOM     62  C   UNL A   1      43.131  26.069  25.434  1.00  0.00     0.041 A 
ATOM     63  F   UNL A   1      43.249  28.136  26.528  1.00  0.00    -0.206 F 
ATOM     64  C   UNL A   1      42.756  24.729  25.418  1.00  0.00     0.022 A 
BRANCH  61  65
ATOM     65  S   UNL A   1      41.708  22.438  26.615  1.00  0.00     0.124 S 
ATOM     66  O   UNL A   1      42.356  21.941  25.403  1.00  0.00    -0.237 OA
ATOM     67  O   UNL A   1      42.360  22.097  27.874  1.00  0.00    -0.237 OA
ATOM     68  O   UNL A   1      40.250  22.340  26.618  1.00  0.00    -0.744 OA
ENDBRANCH  61  65
ENDBRANCH  44  58
BRANCH  45  69
ATOM     69  C   UNL A   1      39.211  32.166  35.318  1.00  0.00     0.023 A 
ATOM     70  C   UNL A   1      39.673  33.479  35.494  1.00  0.00     0.031 A 
ATOM     71  C   UNL A   1      38.364  31.629  36.304  1.00  0.00     0.131 A 
ATOM     72  C   UNL A   1      39.330  34.194  36.652  1.00  0.00     0.055 A 
ATOM     73  C   UNL A   1      37.976  32.365  37.425  1.00  0.00     0.041 A 
ATOM     74  F   UNL A   1      37.890  30.378  36.184  1.00  0.00    -0.206 F 
ATOM     75  C   UNL A   1      38.472  33.651  37.611  1.00  0.00     0.022 A 
BRANCH  72  76
ATOM     76  S   UNL A   1      40.101  35.811  36.935  1.00  0.00     0.124 S 
ATOM     77  O   UNL A   1      39.622  36.572  35.787  1.00  0.00    -0.237 OA
ATOM     78  O   UNL A   1      39.547  36.188  38.231  1.00  0.00    -0.237 OA
ATOM     79  O   UNL A   1      41.531  35.510  36.934  1.00  0.00    -0.744 OA
ENDBRANCH  72  76
ENDBRANCH  45  69
BRANCH  57  80
ATOM     80  C   UNL A   1      44.817  28.214  34.024  1.00  0.00     0.023 A 
ATOM     81  C   UNL A   1      44.922  27.134  34.919  1.00  0.00     0.031 A 
ATOM     82  C   UNL A   1      45.929  29.063  33.879  1.00  0.00     0.131 A 
ATOM     83  C   UNL A   1      46.091  26.967  35.677  1.00  0.00     0.055 A 
ATOM     84  C   UNL A   1      47.114  28.852  34.585  1.00  0.00     0.041 A 
ATOM     85  F   UNL A   1      45.884  30.111  33.042  1.00  0.00    -0.206 F 
ATOM     86  C   UNL A   1      47.195  27.806  35.500  1.00  0.00     0.022 A 
BRANCH  83  87
ATOM     87  S   UNL A   1      46.115  25.695  36.969  1.00  0.00     0.124 S 
ATOM     88  O   UNL A   1      46.278  24.473  36.189  1.00  0.00    -0.237 OA
ATOM     89  O   UNL A   1      47.263  26.093  37.778  1.00  0.00    -0.237 OA
ATOM     90  O   UNL A   1      44.816  25.846  37.622  1.00  0.00    -0.744 OA
ENDBRANCH  83  87
ENDBRANCH  57  80
ENDBRANCH  31  32
ENDBRANCH  23  26
ENDBRANCH  21  22
ENDBRANCH   1  21
TORSDOF 17
ENDMDL
