MODEL 1
REMARK VINA RESULT:     -13.2      0.000      0.000
REMARK SMILES COc1cccc(-c2c([C@H]3c4ccccc4C(=O)N3CC(=O)NCCCNC(=O)c3ccc(-c4c5nc(c(-c6cc(S(=O)(=O)[O-])ccc6F)c6ccc([nH]6)c(-c6cc(S(=O)(=O)[O-])ccc6F)c6nc(c(-c7cc(S(=O)(=O)[O-])ccc7F)c7ccc4[nH]7)C=C6)C=C5)cc3)c3ccccc3n2C)c1
REMARK SMILES IDX 24 1 23 2 21 3 22 4 20 6 19 7 10 8 11 9 12 10 16 11 17 12
REMARK SMILES IDX 13 13 15 14 18 15 14 16 9 17 8 18 99 19 93 20 98 21 100 22
REMARK SMILES IDX 94 23 97 24 95 25 96 26 7 27 3 28 4 29 101 30 5 31 6 32 2 33
REMARK SMILES IDX 1 34 25 35 26 36 27 37 28 38 29 40 30 41 31 42 92 43 32 44
REMARK SMILES IDX 91 45 33 46 34 47 35 48 85 49 36 50 90 51 84 52 86 53 37 54
REMARK SMILES IDX 89 55 83 56 82 57 38 59 70 60 50 61 69 62 51 63 54 64 68 65
REMARK SMILES IDX 87 66 52 67 53 68 67 70 88 71 55 72 39 73 40 74 48 75 41 76
REMARK SMILES IDX 47 77 49 78 46 79 42 80 43 81 44 82 45 83 71 84 72 85 80 86
REMARK SMILES IDX 73 87 79 88 81 89 78 90 74 91 75 92 76 93 77 94 56 95 57 96
REMARK SMILES IDX 65 97 58 98 64 99 66 100 63 101 59 102 60 103 61 104 62 105
REMARK H PARENT 23 5 27 39 86 58 54 69
REMARK Flexibility Score: inf
ROOT
ATOM      1  C   UNL A   1      35.730  23.497  23.812  1.00  0.00     0.117 C 
ENDROOT
BRANCH   1   2
ATOM      2  N   UNL A   1      34.645  23.425  24.776  1.00  0.00    -0.354 N 
ATOM      3  C   UNL A   1      34.292  24.403  25.664  1.00  0.00     0.239 C 
ATOM      4  O   UNL A   1      33.639  24.104  26.665  1.00  0.00    -0.273 OA
ATOM      5  H   UNL A   1      34.114  22.597  24.790  1.00  0.00     0.163 HD
BRANCH   3   6
ATOM      6  C   UNL A   1      34.674  25.845  25.362  1.00  0.00     0.220 C 
BRANCH   6   7
ATOM      7  N   UNL A   1      33.682  26.759  24.787  1.00  0.00    -0.318 N 
ATOM      8  C   UNL A   1      32.535  27.034  25.636  1.00  0.00     0.150 C 
ATOM      9  C   UNL A   1      31.589  25.967  25.134  1.00  0.00    -0.008 A 
ATOM     10  C   UNL A   1      30.835  25.039  25.832  1.00  0.00     0.007 A 
ATOM     11  C   UNL A   1      31.892  25.711  23.798  1.00  0.00     0.045 A 
ATOM     12  C   UNL A   1      33.168  26.371  23.532  1.00  0.00     0.255 C 
ATOM     13  C   UNL A   1      30.387  23.892  25.152  1.00  0.00     0.000 A 
ATOM     14  C   UNL A   1      31.432  24.616  23.088  1.00  0.00     0.014 A 
ATOM     15  O   UNL A   1      33.711  26.298  22.448  1.00  0.00    -0.269 OA
ATOM     16  C   UNL A   1      30.670  23.689  23.789  1.00  0.00     0.001 A 
BRANCH   8  17
ATOM     17  C   UNL A   1      31.899  28.391  25.367  1.00  0.00     0.013 A 
ATOM     18  C   UNL A   1      32.275  29.584  26.000  1.00  0.00     0.055 A 
ATOM     19  N   UNL A   1      31.351  30.547  25.653  1.00  0.00    -0.343 N 
ATOM     20  C   UNL A   1      30.942  28.775  24.354  1.00  0.00     0.006 A 
ATOM     21  C   UNL A   1      30.609  30.118  24.570  1.00  0.00     0.049 A 
ATOM     22  C   UNL A   1      31.197  31.834  26.298  1.00  0.00     0.150 C 
ATOM     23  C   UNL A   1      30.328  28.114  23.263  1.00  0.00     0.011 A 
ATOM     24  C   UNL A   1      29.674  30.794  23.762  1.00  0.00     0.027 A 
ATOM     25  C   UNL A   1      29.410  28.784  22.447  1.00  0.00     0.001 A 
ATOM     26  C   UNL A   1      29.083  30.107  22.698  1.00  0.00     0.002 A 
BRANCH  18  27
ATOM     27  C   UNL A   1      33.464  29.767  26.837  1.00  0.00     0.002 A 
ATOM     28  C   UNL A   1      35.061  31.397  27.687  1.00  0.00     0.119 A 
ATOM     29  C   UNL A   1      35.946  30.359  27.970  1.00  0.00     0.046 A 
ATOM     30  C   UNL A   1      33.799  31.087  27.193  1.00  0.00     0.056 A 
ATOM     31  C   UNL A   1      35.588  29.031  27.713  1.00  0.00     0.005 A 
ATOM     32  C   UNL A   1      34.358  28.735  27.122  1.00  0.00     0.010 A 
BRANCH  28  33
ATOM     33  O   UNL A   1      35.539  32.665  27.881  1.00  0.00    -0.497 OA
ATOM     34  C   UNL A   1      34.571  33.656  28.229  1.00  0.00     0.278 C 
ENDBRANCH  28  33
ENDBRANCH  18  27
ENDBRANCH   8  17
ENDBRANCH   6   7
ENDBRANCH   3   6
ENDBRANCH   1   2
BRANCH   1  35
ATOM     35  C   UNL A   1      36.820  22.512  24.203  1.00  0.00     0.042 C 
BRANCH  35  36
ATOM     36  C   UNL A   1      36.897  22.275  25.693  1.00  0.00     0.118 C 
BRANCH  36  37
ATOM     37  N   UNL A   1      37.955  21.330  25.993  1.00  0.00    -0.352 N 
ATOM     38  C   UNL A   1      39.285  21.569  26.242  1.00  0.00     0.251 C 
ATOM     39  H   UNL A   1      37.682  20.385  26.024  1.00  0.00     0.163 HD
ATOM     40  O   UNL A   1      40.087  20.660  26.033  1.00  0.00    -0.269 OA
BRANCH  38  41
ATOM     41  C   UNL A   1      39.758  22.876  26.769  1.00  0.00     0.039 A 
ATOM     42  C   UNL A   1      39.317  24.050  26.147  1.00  0.00     0.014 A 
ATOM     43  C   UNL A   1      40.725  22.965  27.774  1.00  0.00     0.014 A 
ATOM     44  C   UNL A   1      39.864  25.286  26.507  1.00  0.00     0.010 A 
ATOM     45  C   UNL A   1      41.175  24.203  28.222  1.00  0.00     0.010 A 
ATOM     46  C   UNL A   1      40.808  25.369  27.541  1.00  0.00    -0.014 A 
BRANCH  46  47
ATOM     47  C   UNL A   1      41.542  26.630  27.825  1.00  0.00     0.031 A 
ATOM     48  C   UNL A   1      42.958  26.788  27.318  1.00  0.00     0.074 A 
ATOM     49  C   UNL A   1      40.967  27.606  28.550  1.00  0.00     0.049 A 
ATOM     50  N   UNL A   1      43.813  27.757  27.520  1.00  0.00    -0.248 NA
ATOM     51  C   UNL A   1      43.495  25.680  26.513  1.00  0.00     0.031 C 
ATOM     52  C   UNL A   1      39.620  27.554  29.122  1.00  0.00     0.029 A 
ATOM     53  N   UNL A   1      41.444  28.833  28.931  1.00  0.00    -0.354 N 
ATOM     54  C   UNL A   1      44.993  27.358  26.897  1.00  0.00     0.074 A 
ATOM     55  C   UNL A   1      44.763  26.028  26.379  1.00  0.00     0.031 C 
ATOM     56  C   UNL A   1      39.368  28.712  29.753  1.00  0.00     0.029 A 
ATOM     57  C   UNL A   1      40.544  29.571  29.663  1.00  0.00     0.049 A 
ATOM     58  H   UNL A   1      42.346  29.155  28.702  1.00  0.00     0.167 HD
ATOM     59  C   UNL A   1      46.152  28.047  26.743  1.00  0.00     0.034 A 
ATOM     60  C   UNL A   1      40.660  30.803  30.198  1.00  0.00     0.034 A 
ATOM     61  C   UNL A   1      46.347  29.389  27.233  1.00  0.00     0.049 A 
ATOM     62  C   UNL A   1      41.943  31.565  29.990  1.00  0.00     0.074 A 
ATOM     63  C   UNL A   1      47.457  30.206  27.107  1.00  0.00     0.029 A 
ATOM     64  N   UNL A   1      45.396  30.119  27.937  1.00  0.00    -0.354 N 
ATOM     65  N   UNL A   1      43.044  31.185  29.380  1.00  0.00    -0.248 NA
ATOM     66  C   UNL A   1      41.992  32.931  30.525  1.00  0.00     0.031 C 
ATOM     67  C   UNL A   1      47.195  31.408  27.774  1.00  0.00     0.029 A 
ATOM     68  C   UNL A   1      45.898  31.369  28.261  1.00  0.00     0.049 A 
ATOM     69  H   UNL A   1      44.497  29.794  28.173  1.00  0.00     0.167 HD
ATOM     70  C   UNL A   1      43.902  32.280  29.431  1.00  0.00     0.074 A 
ATOM     71  C   UNL A   1      43.187  33.335  30.120  1.00  0.00     0.031 C 
ATOM     72  C   UNL A   1      45.165  32.405  28.951  1.00  0.00     0.034 A 
BRANCH  59  73
ATOM     73  C   UNL A   1      47.289  27.340  26.038  1.00  0.00     0.023 A 
ATOM     74  C   UNL A   1      48.236  26.574  26.743  1.00  0.00     0.031 A 
ATOM     75  C   UNL A   1      47.466  27.482  24.651  1.00  0.00     0.131 A 
ATOM     76  C   UNL A   1      49.364  26.068  26.081  1.00  0.00     0.055 A 
ATOM     77  C   UNL A   1      48.543  26.896  23.981  1.00  0.00     0.041 A 
ATOM     78  F   UNL A   1      46.608  28.213  23.923  1.00  0.00    -0.206 F 
ATOM     79  C   UNL A   1      49.512  26.201  24.699  1.00  0.00     0.022 A 
BRANCH  76  80
ATOM     80  S   UNL A   1      50.718  25.382  27.076  1.00  0.00     0.124 S 
ATOM     81  O   UNL A   1      51.171  26.563  27.809  1.00  0.00    -0.237 OA
ATOM     82  O   UNL A   1      50.043  24.359  27.867  1.00  0.00    -0.237 OA
ATOM     83  O   UNL A   1      51.659  24.880  26.077  1.00  0.00    -0.744 OA
ENDBRANCH  76  80
ENDBRANCH  59  73
BRANCH  60  84
ATOM     84  C   UNL A   1      39.529  31.398  30.961  1.00  0.00     0.023 A 
ATOM     85  C   UNL A   1      39.475  31.303  32.361  1.00  0.00     0.031 A 
ATOM     86  C   UNL A   1      38.474  32.052  30.301  1.00  0.00     0.131 A 
ATOM     87  C   UNL A   1      38.368  31.817  33.053  1.00  0.00     0.055 A 
ATOM     88  C   UNL A   1      37.397  32.602  30.999  1.00  0.00     0.041 A 
ATOM     89  F   UNL A   1      38.484  32.178  28.964  1.00  0.00    -0.206 F 
ATOM     90  C   UNL A   1      37.335  32.475  32.383  1.00  0.00     0.022 A 
BRANCH  87  91
ATOM     91  S   UNL A   1      38.265  31.551  34.845  1.00  0.00     0.124 S 
ATOM     92  O   UNL A   1      39.518  32.136  35.306  1.00  0.00    -0.237 OA
ATOM     93  O   UNL A   1      37.050  32.281  35.190  1.00  0.00    -0.237 OA
ATOM     94  O   UNL A   1      38.172  30.098  34.969  1.00  0.00    -0.744 OA
ENDBRANCH  87  91
ENDBRANCH  60  84
BRANCH  72  95
ATOM     95  C   UNL A   1      45.822  33.753  29.109  1.00  0.00     0.023 A 
ATOM     96  C   UNL A   1      45.703  34.753  28.129  1.00  0.00     0.031 A 
ATOM     97  C   UNL A   1      46.597  34.028  30.248  1.00  0.00     0.131 A 
ATOM     98  C   UNL A   1      46.401  35.961  28.278  1.00  0.00     0.055 A 
ATOM     99  C   UNL A   1      47.244  35.252  30.417  1.00  0.00     0.041 A 
ATOM    100  F   UNL A   1      46.744  33.107  31.215  1.00  0.00    -0.206 F 
ATOM    101  C   UNL A   1      47.159  36.222  29.422  1.00  0.00     0.022 A 
BRANCH  98 102
ATOM    102  S   UNL A   1      46.385  37.150  26.907  1.00  0.00     0.124 S 
ATOM    103  O   UNL A   1      47.383  38.124  27.337  1.00  0.00    -0.237 OA
ATOM    104  O   UNL A   1      46.757  36.316  25.769  1.00  0.00    -0.237 OA
ATOM    105  O   UNL A   1      45.007  37.638  26.894  1.00  0.00    -0.744 OA
ENDBRANCH  98 102
ENDBRANCH  72  95
ENDBRANCH  46  47
ENDBRANCH  38  41
ENDBRANCH  36  37
ENDBRANCH  35  36
ENDBRANCH   1  35
TORSDOF 17
ENDMDL
MODEL 2
REMARK VINA RESULT:     -13.1      2.380      7.710
REMARK SMILES COc1cccc(-c2c([C@H]3c4ccccc4C(=O)N3CC(=O)NCCCNC(=O)c3ccc(-c4c5nc(c(-c6cc(S(=O)(=O)[O-])ccc6F)c6ccc([nH]6)c(-c6cc(S(=O)(=O)[O-])ccc6F)c6nc(c(-c7cc(S(=O)(=O)[O-])ccc7F)c7ccc4[nH]7)C=C6)C=C5)cc3)c3ccccc3n2C)c1
REMARK SMILES IDX 24 1 23 2 21 3 22 4 20 6 19 7 10 8 11 9 12 10 16 11 17 12
REMARK SMILES IDX 13 13 15 14 18 15 14 16 9 17 8 18 99 19 93 20 98 21 100 22
REMARK SMILES IDX 94 23 97 24 95 25 96 26 7 27 3 28 4 29 101 30 5 31 6 32 2 33
REMARK SMILES IDX 1 34 25 35 26 36 27 37 28 38 29 40 30 41 31 42 92 43 32 44
REMARK SMILES IDX 91 45 33 46 34 47 35 48 85 49 36 50 90 51 84 52 86 53 37 54
REMARK SMILES IDX 89 55 83 56 82 57 38 59 70 60 50 61 69 62 51 63 54 64 68 65
REMARK SMILES IDX 87 66 52 67 53 68 67 70 88 71 55 72 39 73 40 74 48 75 41 76
REMARK SMILES IDX 47 77 49 78 46 79 42 80 43 81 44 82 45 83 71 84 72 85 80 86
REMARK SMILES IDX 73 87 79 88 81 89 78 90 74 91 75 92 76 93 77 94 56 95 57 96
REMARK SMILES IDX 65 97 58 98 64 99 66 100 63 101 59 102 60 103 61 104 62 105
REMARK H PARENT 23 5 27 39 86 58 54 69
REMARK Flexibility Score: inf
ROOT
ATOM      1  C   UNL A   1      36.752  21.414  25.045  1.00  0.00     0.117 C 
ENDROOT
BRANCH   1   2
ATOM      2  N   UNL A   1      35.581  20.954  25.772  1.00  0.00    -0.354 N 
ATOM      3  C   UNL A   1      34.713  21.739  26.478  1.00  0.00     0.239 C 
ATOM      4  O   UNL A   1      34.008  21.228  27.350  1.00  0.00    -0.273 OA
ATOM      5  H   UNL A   1      35.396  19.988  25.755  1.00  0.00     0.163 HD
BRANCH   3   6
ATOM      6  C   UNL A   1      34.606  23.217  26.130  1.00  0.00     0.220 C 
BRANCH   6   7
ATOM      7  N   UNL A   1      33.762  23.644  25.010  1.00  0.00    -0.318 N 
ATOM      8  C   UNL A   1      32.919  24.797  25.279  1.00  0.00     0.150 C 
ATOM      9  C   UNL A   1      31.662  24.089  25.730  1.00  0.00    -0.008 A 
ATOM     10  C   UNL A   1      30.872  24.294  26.849  1.00  0.00     0.007 A 
ATOM     11  C   UNL A   1      31.607  22.852  25.092  1.00  0.00     0.045 A 
ATOM     12  C   UNL A   1      32.918  22.644  24.481  1.00  0.00     0.255 C 
ATOM     13  C   UNL A   1      30.031  23.251  27.274  1.00  0.00     0.000 A 
ATOM     14  C   UNL A   1      30.760  21.820  25.458  1.00  0.00     0.014 A 
ATOM     15  O   UNL A   1      33.187  21.626  23.876  1.00  0.00    -0.269 OA
ATOM     16  C   UNL A   1      29.963  22.030  26.577  1.00  0.00     0.001 A 
BRANCH   8  17
ATOM     17  C   UNL A   1      32.585  25.601  24.029  1.00  0.00     0.013 A 
ATOM     18  C   UNL A   1      32.197  26.947  24.032  1.00  0.00     0.055 A 
ATOM     19  N   UNL A   1      31.786  27.263  22.754  1.00  0.00    -0.343 N 
ATOM     20  C   UNL A   1      32.733  25.243  22.637  1.00  0.00     0.006 A 
ATOM     21  C   UNL A   1      32.212  26.292  21.869  1.00  0.00     0.049 A 
ATOM     22  C   UNL A   1      31.048  28.452  22.378  1.00  0.00     0.150 C 
ATOM     23  C   UNL A   1      33.269  24.129  21.947  1.00  0.00     0.011 A 
ATOM     24  C   UNL A   1      32.183  26.244  20.462  1.00  0.00     0.027 A 
ATOM     25  C   UNL A   1      33.259  24.082  20.549  1.00  0.00     0.001 A 
ATOM     26  C   UNL A   1      32.715  25.125  19.816  1.00  0.00     0.002 A 
BRANCH  18  27
ATOM     27  C   UNL A   1      32.266  27.853  25.182  1.00  0.00     0.002 A 
ATOM     28  C   UNL A   1      33.740  29.265  26.511  1.00  0.00     0.119 A 
ATOM     29  C   UNL A   1      32.810  29.232  27.548  1.00  0.00     0.046 A 
ATOM     30  C   UNL A   1      33.428  28.638  25.309  1.00  0.00     0.056 A 
ATOM     31  C   UNL A   1      31.606  28.536  27.400  1.00  0.00     0.005 A 
ATOM     32  C   UNL A   1      31.343  27.825  26.227  1.00  0.00     0.010 A 
BRANCH  28  33
ATOM     33  O   UNL A   1      34.928  29.885  26.787  1.00  0.00    -0.497 OA
ATOM     34  C   UNL A   1      34.859  31.016  27.657  1.00  0.00     0.278 C 
ENDBRANCH  28  33
ENDBRANCH  18  27
ENDBRANCH   8  17
ENDBRANCH   6   7
ENDBRANCH   3   6
ENDBRANCH   1   2
BRANCH   1  35
ATOM     35  C   UNL A   1      37.837  20.351  25.107  1.00  0.00     0.042 C 
BRANCH  35  36
ATOM     36  C   UNL A   1      39.109  20.842  25.758  1.00  0.00     0.118 C 
BRANCH  36  37
ATOM     37  N   UNL A   1      39.966  19.719  26.086  1.00  0.00    -0.352 N 
ATOM     38  C   UNL A   1      41.338  19.660  26.122  1.00  0.00     0.251 C 
ATOM     39  H   UNL A   1      39.500  18.883  26.315  1.00  0.00     0.163 HD
ATOM     40  O   UNL A   1      41.875  18.563  25.977  1.00  0.00    -0.269 OA
BRANCH  38  41
ATOM     41  C   UNL A   1      42.168  20.872  26.349  1.00  0.00     0.039 A 
ATOM     42  C   UNL A   1      42.465  21.245  27.665  1.00  0.00     0.014 A 
ATOM     43  C   UNL A   1      42.546  21.718  25.304  1.00  0.00     0.014 A 
ATOM     44  C   UNL A   1      43.101  22.463  27.925  1.00  0.00     0.010 A 
ATOM     45  C   UNL A   1      43.292  22.867  25.552  1.00  0.00     0.010 A 
ATOM     46  C   UNL A   1      43.509  23.291  26.868  1.00  0.00    -0.014 A 
BRANCH  46  47
ATOM     47  C   UNL A   1      44.018  24.666  27.107  1.00  0.00     0.031 A 
ATOM     48  C   UNL A   1      43.084  25.707  27.681  1.00  0.00     0.074 A 
ATOM     49  C   UNL A   1      45.284  24.989  26.788  1.00  0.00     0.049 A 
ATOM     50  N   UNL A   1      43.284  26.983  27.890  1.00  0.00    -0.248 NA
ATOM     51  C   UNL A   1      41.726  25.255  28.023  1.00  0.00     0.031 C 
ATOM     52  C   UNL A   1      46.267  24.080  26.197  1.00  0.00     0.029 A 
ATOM     53  N   UNL A   1      45.960  26.176  26.917  1.00  0.00    -0.354 N 
ATOM     54  C   UNL A   1      42.070  27.487  28.352  1.00  0.00     0.074 A 
ATOM     55  C   UNL A   1      41.125  26.394  28.319  1.00  0.00     0.031 C 
ATOM     56  C   UNL A   1      47.431  24.734  26.045  1.00  0.00     0.029 A 
ATOM     57  C   UNL A   1      47.266  26.113  26.491  1.00  0.00     0.049 A 
ATOM     58  H   UNL A   1      45.549  26.993  27.280  1.00  0.00     0.167 HD
ATOM     59  C   UNL A   1      41.778  28.736  28.792  1.00  0.00     0.034 A 
ATOM     60  C   UNL A   1      48.219  27.065  26.468  1.00  0.00     0.034 A 
ATOM     61  C   UNL A   1      42.747  29.802  28.856  1.00  0.00     0.049 A 
ATOM     62  C   UNL A   1      47.885  28.439  26.991  1.00  0.00     0.074 A 
ATOM     63  C   UNL A   1      42.585  31.096  29.317  1.00  0.00     0.029 A 
ATOM     64  N   UNL A   1      44.073  29.689  28.450  1.00  0.00    -0.354 N 
ATOM     65  N   UNL A   1      46.740  28.896  27.445  1.00  0.00    -0.248 NA
ATOM     66  C   UNL A   1      48.978  29.418  27.015  1.00  0.00     0.031 C 
ATOM     67  C   UNL A   1      43.796  31.777  29.148  1.00  0.00     0.029 A 
ATOM     68  C   UNL A   1      44.734  30.891  28.642  1.00  0.00     0.049 A 
ATOM     69  H   UNL A   1      44.481  28.873  28.081  1.00  0.00     0.167 HD
ATOM     70  C   UNL A   1      46.987  30.208  27.841  1.00  0.00     0.074 A 
ATOM     71  C   UNL A   1      48.390  30.461  27.582  1.00  0.00     0.031 C 
ATOM     72  C   UNL A   1      46.135  31.120  28.373  1.00  0.00     0.034 A 
BRANCH  59  73
ATOM     73  C   UNL A   1      40.349  29.005  29.213  1.00  0.00     0.023 A 
ATOM     74  C   UNL A   1      39.956  28.971  30.563  1.00  0.00     0.031 A 
ATOM     75  C   UNL A   1      39.353  29.237  28.248  1.00  0.00     0.131 A 
ATOM     76  C   UNL A   1      38.598  29.064  30.902  1.00  0.00     0.055 A 
ATOM     77  C   UNL A   1      38.014  29.421  28.600  1.00  0.00     0.041 A 
ATOM     78  F   UNL A   1      39.659  29.264  26.941  1.00  0.00    -0.206 F 
ATOM     79  C   UNL A   1      37.626  29.315  29.933  1.00  0.00     0.022 A 
BRANCH  76  80
ATOM     80  S   UNL A   1      38.102  28.683  32.606  1.00  0.00     0.124 S 
ATOM     81  O   UNL A   1      36.758  29.257  32.657  1.00  0.00    -0.237 OA
ATOM     82  O   UNL A   1      38.176  27.226  32.638  1.00  0.00    -0.237 OA
ATOM     83  O   UNL A   1      39.099  29.377  33.418  1.00  0.00    -0.744 OA
ENDBRANCH  76  80
ENDBRANCH  59  73
BRANCH  60  84
ATOM     84  C   UNL A   1      49.580  26.751  25.952  1.00  0.00     0.023 A 
ATOM     85  C   UNL A   1      49.962  27.123  24.653  1.00  0.00     0.031 A 
ATOM     86  C   UNL A   1      50.512  26.056  26.742  1.00  0.00     0.131 A 
ATOM     87  C   UNL A   1      51.226  26.761  24.166  1.00  0.00     0.055 A 
ATOM     88  C   UNL A   1      51.787  25.739  26.269  1.00  0.00     0.041 A 
ATOM     89  F   UNL A   1      50.199  25.687  27.995  1.00  0.00    -0.206 F 
ATOM     90  C   UNL A   1      52.146  26.081  24.969  1.00  0.00     0.022 A 
BRANCH  87  91
ATOM     91  S   UNL A   1      51.631  27.133  22.437  1.00  0.00     0.124 S 
ATOM     92  O   UNL A   1      51.898  28.565  22.494  1.00  0.00    -0.237 OA
ATOM     93  O   UNL A   1      52.787  26.273  22.205  1.00  0.00    -0.237 OA
ATOM     94  O   UNL A   1      50.419  26.752  21.715  1.00  0.00    -0.744 OA
ENDBRANCH  87  91
ENDBRANCH  60  84
BRANCH  72  95
ATOM     95  C   UNL A   1      46.722  32.455  28.760  1.00  0.00     0.023 A 
ATOM     96  C   UNL A   1      46.734  33.542  27.870  1.00  0.00     0.031 A 
ATOM     97  C   UNL A   1      47.299  32.626  30.029  1.00  0.00     0.131 A 
ATOM     98  C   UNL A   1      47.367  34.739  28.242  1.00  0.00     0.055 A 
ATOM     99  C   UNL A   1      47.878  33.836  30.413  1.00  0.00     0.041 A 
ATOM    100  F   UNL A   1      47.315  31.618  30.916  1.00  0.00    -0.206 F 
ATOM    101  C   UNL A   1      47.927  34.896  29.512  1.00  0.00     0.022 A 
BRANCH  98 102
ATOM    102  S   UNL A   1      47.537  36.053  27.004  1.00  0.00     0.124 S 
ATOM    103  O   UNL A   1      48.034  35.318  25.845  1.00  0.00    -0.237 OA
ATOM    104  O   UNL A   1      46.173  36.560  26.899  1.00  0.00    -0.237 OA
ATOM    105  O   UNL A   1      48.496  36.974  27.612  1.00  0.00    -0.744 OA
ENDBRANCH  98 102
ENDBRANCH  72  95
ENDBRANCH  46  47
ENDBRANCH  38  41
ENDBRANCH  36  37
ENDBRANCH  35  36
ENDBRANCH   1  35
TORSDOF 17
ENDMDL
MODEL 3
REMARK VINA RESULT:     -13.1      8.164     15.123
REMARK SMILES COc1cccc(-c2c([C@H]3c4ccccc4C(=O)N3CC(=O)NCCCNC(=O)c3ccc(-c4c5nc(c(-c6cc(S(=O)(=O)[O-])ccc6F)c6ccc([nH]6)c(-c6cc(S(=O)(=O)[O-])ccc6F)c6nc(c(-c7cc(S(=O)(=O)[O-])ccc7F)c7ccc4[nH]7)C=C6)C=C5)cc3)c3ccccc3n2C)c1
REMARK SMILES IDX 24 1 23 2 21 3 22 4 20 6 19 7 10 8 11 9 12 10 16 11 17 12
REMARK SMILES IDX 13 13 15 14 18 15 14 16 9 17 8 18 99 19 93 20 98 21 100 22
REMARK SMILES IDX 94 23 97 24 95 25 96 26 7 27 3 28 4 29 101 30 5 31 6 32 2 33
REMARK SMILES IDX 1 34 25 35 26 36 27 37 28 38 29 40 30 41 31 42 92 43 32 44
REMARK SMILES IDX 91 45 33 46 34 47 35 48 85 49 36 50 90 51 84 52 86 53 37 54
REMARK SMILES IDX 89 55 83 56 82 57 38 59 70 60 50 61 69 62 51 63 54 64 68 65
REMARK SMILES IDX 87 66 52 67 53 68 67 70 88 71 55 72 39 73 40 74 48 75 41 76
REMARK SMILES IDX 47 77 49 78 46 79 42 80 43 81 44 82 45 83 71 84 72 85 80 86
REMARK SMILES IDX 73 87 79 88 81 89 78 90 74 91 75 92 76 93 77 94 56 95 57 96
REMARK SMILES IDX 65 97 58 98 64 99 66 100 63 101 59 102 60 103 61 104 62 105
REMARK H PARENT 23 5 27 39 86 58 54 69
REMARK Flexibility Score: inf
ROOT
ATOM      1  C   UNL A   1      48.089  37.664  26.185  1.00  0.00     0.117 C 
ENDROOT
BRANCH   1   2
ATOM      2  N   UNL A   1      48.054  38.762  25.234  1.00  0.00    -0.354 N 
ATOM      3  C   UNL A   1      46.947  39.476  24.870  1.00  0.00     0.239 C 
ATOM      4  O   UNL A   1      46.950  40.098  23.806  1.00  0.00    -0.273 OA
ATOM      5  H   UNL A   1      48.907  39.015  24.813  1.00  0.00     0.163 HD
BRANCH   3   6
ATOM      6  C   UNL A   1      45.756  39.523  25.817  1.00  0.00     0.220 C 
BRANCH   6   7
ATOM      7  N   UNL A   1      45.239  40.816  26.276  1.00  0.00    -0.318 N 
ATOM      8  C   UNL A   1      44.859  40.863  27.678  1.00  0.00     0.150 C 
ATOM      9  C   UNL A   1      43.393  40.518  27.553  1.00  0.00    -0.008 A 
ATOM     10  C   UNL A   1      42.632  39.584  28.237  1.00  0.00     0.007 A 
ATOM     11  C   UNL A   1      42.946  40.961  26.311  1.00  0.00     0.045 A 
ATOM     12  C   UNL A   1      44.140  41.315  25.546  1.00  0.00     0.255 C 
ATOM     13  C   UNL A   1      41.429  39.146  27.655  1.00  0.00     0.000 A 
ATOM     14  C   UNL A   1      41.748  40.583  25.730  1.00  0.00     0.014 A 
ATOM     15  O   UNL A   1      44.071  41.708  24.399  1.00  0.00    -0.269 OA
ATOM     16  C   UNL A   1      40.982  39.651  26.421  1.00  0.00     0.001 A 
BRANCH   8  17
ATOM     17  C   UNL A   1      44.965  42.257  28.282  1.00  0.00     0.013 A 
ATOM     18  C   UNL A   1      44.621  42.579  29.602  1.00  0.00     0.055 A 
ATOM     19  N   UNL A   1      44.655  43.953  29.717  1.00  0.00    -0.343 N 
ATOM     20  C   UNL A   1      45.552  43.458  27.731  1.00  0.00     0.006 A 
ATOM     21  C   UNL A   1      45.328  44.498  28.642  1.00  0.00     0.049 A 
ATOM     22  C   UNL A   1      44.101  44.718  30.815  1.00  0.00     0.150 C 
ATOM     23  C   UNL A   1      46.264  43.764  26.547  1.00  0.00     0.011 A 
ATOM     24  C   UNL A   1      45.759  45.816  28.389  1.00  0.00     0.027 A 
ATOM     25  C   UNL A   1      46.709  45.066  26.297  1.00  0.00     0.001 A 
ATOM     26  C   UNL A   1      46.453  46.081  27.206  1.00  0.00     0.002 A 
BRANCH  18  27
ATOM     27  C   UNL A   1      44.328  41.614  30.667  1.00  0.00     0.002 A 
ATOM     28  C   UNL A   1      42.987  41.202  32.657  1.00  0.00     0.119 A 
ATOM     29  C   UNL A   1      43.888  40.210  33.039  1.00  0.00     0.046 A 
ATOM     30  C   UNL A   1      43.173  41.844  31.438  1.00  0.00     0.056 A 
ATOM     31  C   UNL A   1      44.989  39.902  32.232  1.00  0.00     0.005 A 
ATOM     32  C   UNL A   1      45.225  40.621  31.058  1.00  0.00     0.010 A 
BRANCH  28  33
ATOM     33  O   UNL A   1      42.001  41.498  33.558  1.00  0.00    -0.497 OA
ATOM     34  C   UNL A   1      42.204  42.670  34.350  1.00  0.00     0.278 C 
ENDBRANCH  28  33
ENDBRANCH  18  27
ENDBRANCH   8  17
ENDBRANCH   6   7
ENDBRANCH   3   6
ENDBRANCH   1   2
BRANCH   1  35
ATOM     35  C   UNL A   1      48.189  36.346  25.434  1.00  0.00     0.042 C 
BRANCH  35  36
ATOM     36  C   UNL A   1      47.221  35.302  25.940  1.00  0.00     0.118 C 
BRANCH  36  37
ATOM     37  N   UNL A   1      46.174  35.076  24.962  1.00  0.00    -0.352 N 
ATOM     38  C   UNL A   1      44.938  34.504  25.134  1.00  0.00     0.251 C 
ATOM     39  H   UNL A   1      46.378  35.377  24.047  1.00  0.00     0.163 HD
ATOM     40  O   UNL A   1      44.391  34.000  24.155  1.00  0.00    -0.269 OA
BRANCH  38  41
ATOM     41  C   UNL A   1      44.255  34.501  26.455  1.00  0.00     0.039 A 
ATOM     42  C   UNL A   1      43.640  35.679  26.895  1.00  0.00     0.014 A 
ATOM     43  C   UNL A   1      44.320  33.407  27.321  1.00  0.00     0.014 A 
ATOM     44  C   UNL A   1      43.131  35.764  28.194  1.00  0.00     0.010 A 
ATOM     45  C   UNL A   1      43.701  33.447  28.567  1.00  0.00     0.010 A 
ATOM     46  C   UNL A   1      43.169  34.650  29.046  1.00  0.00    -0.014 A 
BRANCH  46  47
ATOM     47  C   UNL A   1      42.808  34.756  30.483  1.00  0.00     0.031 A 
ATOM     48  C   UNL A   1      41.401  34.415  30.916  1.00  0.00     0.074 A 
ATOM     49  C   UNL A   1      43.713  35.180  31.384  1.00  0.00     0.049 A 
ATOM     50  N   UNL A   1      40.842  34.518  32.095  1.00  0.00    -0.248 NA
ATOM     51  C   UNL A   1      40.488  33.936  29.866  1.00  0.00     0.031 C 
ATOM     52  C   UNL A   1      45.091  35.571  31.081  1.00  0.00     0.029 A 
ATOM     53  N   UNL A   1      43.607  35.354  32.740  1.00  0.00    -0.354 N 
ATOM     54  C   UNL A   1      39.510  34.151  31.917  1.00  0.00     0.074 A 
ATOM     55  C   UNL A   1      39.332  33.897  30.505  1.00  0.00     0.031 C 
ATOM     56  C   UNL A   1      45.712  35.907  32.223  1.00  0.00     0.029 A 
ATOM     57  C   UNL A   1      44.768  35.792  33.331  1.00  0.00     0.049 A 
ATOM     58  H   UNL A   1      42.778  35.181  33.242  1.00  0.00     0.167 HD
ATOM     59  C   UNL A   1      38.533  34.007  32.848  1.00  0.00     0.034 A 
ATOM     60  C   UNL A   1      45.037  36.067  34.623  1.00  0.00     0.034 A 
ATOM     61  C   UNL A   1      38.744  34.225  34.258  1.00  0.00     0.049 A 
ATOM     62  C   UNL A   1      43.949  35.872  35.647  1.00  0.00     0.074 A 
ATOM     63  C   UNL A   1      37.848  34.076  35.302  1.00  0.00     0.029 A 
ATOM     64  N   UNL A   1      39.947  34.632  34.823  1.00  0.00    -0.354 N 
ATOM     65  N   UNL A   1      42.700  35.503  35.469  1.00  0.00    -0.248 NA
ATOM     66  C   UNL A   1      44.312  36.111  37.048  1.00  0.00     0.031 C 
ATOM     67  C   UNL A   1      38.494  34.437  36.490  1.00  0.00     0.029 A 
ATOM     68  C   UNL A   1      39.813  34.749  36.197  1.00  0.00     0.049 A 
ATOM     69  H   UNL A   1      40.774  34.812  34.320  1.00  0.00     0.167 HD
ATOM     70  C   UNL A   1      42.140  35.435  36.741  1.00  0.00     0.074 A 
ATOM     71  C   UNL A   1      43.190  35.788  37.675  1.00  0.00     0.031 C 
ATOM     72  C   UNL A   1      40.875  35.106  37.108  1.00  0.00     0.034 A 
BRANCH  59  73
ATOM     73  C   UNL A   1      37.158  33.619  32.352  1.00  0.00     0.023 A 
ATOM     74  C   UNL A   1      36.165  34.582  32.090  1.00  0.00     0.031 A 
ATOM     75  C   UNL A   1      36.810  32.265  32.199  1.00  0.00     0.131 A 
ATOM     76  C   UNL A   1      34.856  34.179  31.788  1.00  0.00     0.055 A 
ATOM     77  C   UNL A   1      35.528  31.873  31.808  1.00  0.00     0.041 A 
ATOM     78  F   UNL A   1      37.705  31.297  32.451  1.00  0.00    -0.206 F 
ATOM     79  C   UNL A   1      34.536  32.830  31.619  1.00  0.00     0.022 A 
BRANCH  76  80
ATOM     80  S   UNL A   1      33.542  35.431  31.788  1.00  0.00     0.124 S 
ATOM     81  O   UNL A   1      32.465  34.726  32.481  1.00  0.00    -0.237 OA
ATOM     82  O   UNL A   1      34.157  36.534  32.517  1.00  0.00    -0.237 OA
ATOM     83  O   UNL A   1      33.302  35.677  30.367  1.00  0.00    -0.744 OA
ENDBRANCH  76  80
ENDBRANCH  59  73
BRANCH  60  84
ATOM     84  C   UNL A   1      46.392  36.536  35.024  1.00  0.00     0.023 A 
ATOM     85  C   UNL A   1      46.710  37.903  35.025  1.00  0.00     0.031 A 
ATOM     86  C   UNL A   1      47.395  35.622  35.390  1.00  0.00     0.131 A 
ATOM     87  C   UNL A   1      48.012  38.317  35.345  1.00  0.00     0.055 A 
ATOM     88  C   UNL A   1      48.676  36.043  35.753  1.00  0.00     0.041 A 
ATOM     89  F   UNL A   1      47.139  34.304  35.414  1.00  0.00    -0.206 F 
ATOM     90  C   UNL A   1      48.994  37.397  35.720  1.00  0.00     0.022 A 
BRANCH  87  91
ATOM     91  S   UNL A   1      48.425  40.078  35.199  1.00  0.00     0.124 S 
ATOM     92  O   UNL A   1      49.293  40.278  36.353  1.00  0.00    -0.237 OA
ATOM     93  O   UNL A   1      49.072  40.130  33.892  1.00  0.00    -0.237 OA
ATOM     94  O   UNL A   1      47.124  40.739  35.275  1.00  0.00    -0.744 OA
ENDBRANCH  87  91
ENDBRANCH  60  84
BRANCH  72  95
ATOM     95  C   UNL A   1      40.587  35.062  38.588  1.00  0.00     0.023 A 
ATOM     96  C   UNL A   1      40.819  33.906  39.352  1.00  0.00     0.031 A 
ATOM     97  C   UNL A   1      40.048  36.188  39.232  1.00  0.00     0.131 A 
ATOM     98  C   UNL A   1      40.456  33.882  40.707  1.00  0.00     0.055 A 
ATOM     99  C   UNL A   1      39.741  36.177  40.593  1.00  0.00     0.041 A 
ATOM    100  F   UNL A   1      39.807  37.318  38.548  1.00  0.00    -0.206 F 
ATOM    101  C   UNL A   1      39.931  35.015  41.335  1.00  0.00     0.022 A 
BRANCH  98 102
ATOM    102  S   UNL A   1      40.586  32.317  41.615  1.00  0.00     0.124 S 
ATOM    103  O   UNL A   1      39.262  31.737  41.413  1.00  0.00    -0.237 OA
ATOM    104  O   UNL A   1      41.686  31.649  40.927  1.00  0.00    -0.237 OA
ATOM    105  O   UNL A   1      40.876  32.739  42.984  1.00  0.00    -0.744 OA
ENDBRANCH  98 102
ENDBRANCH  72  95
ENDBRANCH  46  47
ENDBRANCH  38  41
ENDBRANCH  36  37
ENDBRANCH  35  36
ENDBRANCH   1  35
TORSDOF 17
ENDMDL
