MODEL 1
REMARK VINA RESULT:     -10.4      0.000      0.000
REMARK SMILES CCCCCCNC(=O)Oc1cccc(-c2ccc([C@@H](C)C(=O)NCCCNC(=O)c3ccc(-c4c5nc(c(-c6cc(S(=O)(=O)[O-])ccc6F)c6ccc([nH]6)c(-c6cc(S(=O)(=O)[O-])ccc6F)c6nc(c(-c7cc(S(=O)(=O)[O-])ccc7F)c7ccc4[nH]7)C=C6)C=C5)cc3)cc2C(F)(F)F)c1
REMARK SMILES IDX 20 1 21 2 19 3 16 4 17 5 95 6 18 7 94 8 15 9 11 10 12 11
REMARK SMILES IDX 100 12 13 13 14 14 10 15 8 16 7 17 9 19 6 20 5 21 4 22 3 23
REMARK SMILES IDX 2 24 1 25 96 26 97 27 98 28 99 29 22 30 23 31 24 32 25 34
REMARK SMILES IDX 26 35 27 36 28 37 29 38 30 40 31 41 32 42 93 43 33 44 92 45
REMARK SMILES IDX 34 46 35 47 36 48 86 49 37 50 91 51 85 52 87 53 38 54 90 55
REMARK SMILES IDX 84 56 83 57 39 59 71 60 51 61 70 62 52 63 55 64 69 65 88 66
REMARK SMILES IDX 53 67 54 68 68 70 89 71 56 72 40 73 41 74 49 75 42 76 48 77
REMARK SMILES IDX 50 78 47 79 43 80 44 81 45 82 46 83 72 84 73 85 81 86 74 87
REMARK SMILES IDX 80 88 82 89 79 90 75 91 76 92 77 93 78 94 57 95 58 96 66 97
REMARK SMILES IDX 59 98 65 99 67 100 64 101 60 102 61 103 62 104 63 105
REMARK H PARENT 7 18 24 33 28 39 87 58 55 69
REMARK Flexibility Score: inf
ROOT
ATOM      1  C   UNL A   1      35.447  33.338  28.378  1.00  0.00     0.105 C 
ATOM      2  C   UNL A   1      34.312  34.303  28.717  1.00  0.00     0.023 C 
ENDROOT
BRANCH   1   3
ATOM      3  C   UNL A   1      35.008  31.977  27.862  1.00  0.00    -0.035 A 
ATOM      4  C   UNL A   1      34.157  29.518  26.665  1.00  0.00    -0.006 A 
ATOM      5  C   UNL A   1      35.466  29.704  27.148  1.00  0.00     0.009 A 
ATOM      6  C   UNL A   1      33.231  30.557  26.892  1.00  0.00     0.064 A 
ATOM      7  C   UNL A   1      35.863  30.884  27.783  1.00  0.00     0.005 A 
ATOM      8  C   UNL A   1      33.688  31.789  27.427  1.00  0.00     0.018 A 
BRANCH   4   9
ATOM      9  C   UNL A   1      33.842  28.261  25.951  1.00  0.00    -0.014 A 
ATOM     10  C   UNL A   1      33.163  25.928  25.945  1.00  0.00     0.133 A 
ATOM     11  C   UNL A   1      33.275  25.866  24.560  1.00  0.00     0.047 A 
ATOM     12  C   UNL A   1      33.417  27.113  26.640  1.00  0.00     0.056 A 
ATOM     13  C   UNL A   1      33.645  27.006  23.856  1.00  0.00     0.004 A 
ATOM     14  C   UNL A   1      33.938  28.186  24.547  1.00  0.00     0.009 A 
BRANCH  10  15
ATOM     15  O   UNL A   1      32.955  24.704  26.607  1.00  0.00    -0.410 OA
BRANCH  15  16
ATOM     16  C   UNL A   1      31.753  24.021  26.485  1.00  0.00     0.412 C 
ATOM     17  N   UNL A   1      31.920  22.735  26.048  1.00  0.00    -0.321 N 
ATOM     18  H   UNL A   1      31.100  22.220  25.871  1.00  0.00     0.167 HD
ATOM     19  O   UNL A   1      30.642  24.470  26.731  1.00  0.00    -0.224 OA
BRANCH  17  20
ATOM     20  C   UNL A   1      33.179  22.055  25.819  1.00  0.00     0.119 C 
BRANCH  20  21
ATOM     21  C   UNL A   1      33.608  22.133  24.353  1.00  0.00     0.021 C 
BRANCH  21  22
ATOM     22  C   UNL A   1      35.119  22.278  24.132  1.00  0.00     0.002 C 
BRANCH  22  23
ATOM     23  C   UNL A   1      35.798  23.384  24.946  1.00  0.00    -0.000 C 
BRANCH  23  24
ATOM     24  C   UNL A   1      37.153  23.014  25.554  1.00  0.00    -0.003 C 
ATOM     25  C   UNL A   1      37.711  21.703  25.024  1.00  0.00     0.004 C 
ENDBRANCH  23  24
ENDBRANCH  22  23
ENDBRANCH  21  22
ENDBRANCH  20  21
ENDBRANCH  17  20
ENDBRANCH  15  16
ENDBRANCH  10  15
ENDBRANCH   4   9
BRANCH   6  26
ATOM     26  C   UNL A   1      31.745  30.450  26.627  1.00  0.00     0.417 C 
ATOM     27  F   UNL A   1      31.187  29.410  27.325  1.00  0.00    -0.166 F 
ATOM     28  F   UNL A   1      31.060  31.556  27.029  1.00  0.00    -0.166 F 
ATOM     29  F   UNL A   1      31.383  30.224  25.337  1.00  0.00    -0.166 F 
ENDBRANCH   6  26
ENDBRANCH   1   3
BRANCH   1  30
ATOM     30  C   UNL A   1      36.577  33.279  29.419  1.00  0.00     0.227 C 
ATOM     31  O   UNL A   1      37.741  33.516  29.070  1.00  0.00    -0.274 OA
ATOM     32  N   UNL A   1      36.394  32.997  30.736  1.00  0.00    -0.356 N 
ATOM     33  H   UNL A   1      37.215  33.054  31.275  1.00  0.00     0.163 HD
BRANCH  32  34
ATOM     34  C   UNL A   1      35.216  32.628  31.498  1.00  0.00     0.117 C 
BRANCH  34  35
ATOM     35  C   UNL A   1      35.449  32.707  33.006  1.00  0.00     0.042 C 
BRANCH  35  36
ATOM     36  C   UNL A   1      36.768  32.103  33.471  1.00  0.00     0.118 C 
BRANCH  36  37
ATOM     37  N   UNL A   1      36.788  30.656  33.321  1.00  0.00    -0.352 N 
ATOM     38  C   UNL A   1      37.592  29.836  32.571  1.00  0.00     0.251 C 
ATOM     39  H   UNL A   1      36.106  30.184  33.850  1.00  0.00     0.163 HD
ATOM     40  O   UNL A   1      37.245  28.665  32.427  1.00  0.00    -0.269 OA
BRANCH  38  41
ATOM     41  C   UNL A   1      38.841  30.322  31.933  1.00  0.00     0.039 A 
ATOM     42  C   UNL A   1      38.870  30.426  30.538  1.00  0.00     0.014 A 
ATOM     43  C   UNL A   1      39.998  30.603  32.664  1.00  0.00     0.014 A 
ATOM     44  C   UNL A   1      40.035  30.846  29.891  1.00  0.00     0.010 A 
ATOM     45  C   UNL A   1      41.131  31.108  32.025  1.00  0.00     0.010 A 
ATOM     46  C   UNL A   1      41.170  31.220  30.629  1.00  0.00    -0.014 A 
BRANCH  46  47
ATOM     47  C   UNL A   1      42.386  31.722  29.936  1.00  0.00     0.031 A 
ATOM     48  C   UNL A   1      42.573  33.193  29.672  1.00  0.00     0.074 A 
ATOM     49  C   UNL A   1      43.323  30.840  29.532  1.00  0.00     0.049 A 
ATOM     50  N   UNL A   1      43.586  33.814  29.122  1.00  0.00    -0.248 NA
ATOM     51  C   UNL A   1      41.465  34.081  30.053  1.00  0.00     0.031 C 
ATOM     52  C   UNL A   1      43.224  29.384  29.675  1.00  0.00     0.029 A 
ATOM     53  N   UNL A   1      44.541  31.030  28.931  1.00  0.00    -0.354 N 
ATOM     54  C   UNL A   1      43.235  35.161  29.086  1.00  0.00     0.074 A 
ATOM     55  C   UNL A   1      41.889  35.255  29.608  1.00  0.00     0.031 C 
ATOM     56  C   UNL A   1      44.353  28.821  29.221  1.00  0.00     0.029 A 
ATOM     57  C   UNL A   1      45.239  29.864  28.718  1.00  0.00     0.049 A 
ATOM     58  H   UNL A   1      44.883  31.918  28.678  1.00  0.00     0.167 HD
ATOM     59  C   UNL A   1      43.978  36.222  28.679  1.00  0.00     0.034 A 
ATOM     60  C   UNL A   1      46.458  29.658  28.181  1.00  0.00     0.034 A 
ATOM     61  C   UNL A   1      45.322  36.108  28.160  1.00  0.00     0.049 A 
ATOM     62  C   UNL A   1      47.267  30.853  27.747  1.00  0.00     0.074 A 
ATOM     63  C   UNL A   1      46.183  37.117  27.763  1.00  0.00     0.029 A 
ATOM     64  N   UNL A   1      45.999  34.911  27.961  1.00  0.00    -0.354 N 
ATOM     65  N   UNL A   1      46.947  32.126  27.781  1.00  0.00    -0.248 NA
ATOM     66  C   UNL A   1      48.609  30.581  27.223  1.00  0.00     0.031 C 
ATOM     67  C   UNL A   1      47.349  36.528  27.260  1.00  0.00     0.029 A 
ATOM     68  C   UNL A   1      47.254  35.155  27.419  1.00  0.00     0.049 A 
ATOM     69  H   UNL A   1      45.640  34.018  28.171  1.00  0.00     0.167 HD
ATOM     70  C   UNL A   1      48.064  32.809  27.308  1.00  0.00     0.074 A 
ATOM     71  C   UNL A   1      49.070  31.806  27.027  1.00  0.00     0.031 C 
ATOM     72  C   UNL A   1      48.242  34.144  27.119  1.00  0.00     0.034 A 
BRANCH  59  73
ATOM     73  C   UNL A   1      43.336  37.591  28.755  1.00  0.00     0.023 A 
ATOM     74  C   UNL A   1      43.585  38.467  29.828  1.00  0.00     0.031 A 
ATOM     75  C   UNL A   1      42.445  38.019  27.755  1.00  0.00     0.131 A 
ATOM     76  C   UNL A   1      42.894  39.686  29.915  1.00  0.00     0.055 A 
ATOM     77  C   UNL A   1      41.824  39.271  27.805  1.00  0.00     0.041 A 
ATOM     78  F   UNL A   1      42.150  37.223  26.715  1.00  0.00    -0.206 F 
ATOM     79  C   UNL A   1      42.035  40.106  28.898  1.00  0.00     0.022 A 
BRANCH  76  80
ATOM     80  S   UNL A   1      43.022  40.649  31.448  1.00  0.00     0.124 S 
ATOM     81  O   UNL A   1      44.087  41.593  31.115  1.00  0.00    -0.237 OA
ATOM     82  O   UNL A   1      41.685  41.212  31.580  1.00  0.00    -0.237 OA
ATOM     83  O   UNL A   1      43.381  39.649  32.452  1.00  0.00    -0.744 OA
ENDBRANCH  76  80
ENDBRANCH  59  73
BRANCH  60  84
ATOM     84  C   UNL A   1      46.995  28.274  28.035  1.00  0.00     0.023 A 
ATOM     85  C   UNL A   1      46.674  27.485  26.919  1.00  0.00     0.031 A 
ATOM     86  C   UNL A   1      47.811  27.707  29.030  1.00  0.00     0.131 A 
ATOM     87  C   UNL A   1      47.123  26.157  26.848  1.00  0.00     0.055 A 
ATOM     88  C   UNL A   1      48.303  26.405  28.928  1.00  0.00     0.041 A 
ATOM     89  F   UNL A   1      48.156  28.420  30.114  1.00  0.00    -0.206 F 
ATOM     90  C   UNL A   1      47.947  25.616  27.838  1.00  0.00     0.022 A 
BRANCH  87  91
ATOM     91  S   UNL A   1      46.546  25.114  25.480  1.00  0.00     0.124 S 
ATOM     92  O   UNL A   1      47.021  23.798  25.888  1.00  0.00    -0.237 OA
ATOM     93  O   UNL A   1      45.102  25.321  25.531  1.00  0.00    -0.237 OA
ATOM     94  O   UNL A   1      47.214  25.685  24.313  1.00  0.00    -0.744 OA
ENDBRANCH  87  91
ENDBRANCH  60  84
BRANCH  72  95
ATOM     95  C   UNL A   1      49.598  34.580  26.615  1.00  0.00     0.023 A 
ATOM     96  C   UNL A   1      50.732  34.575  27.448  1.00  0.00     0.031 A 
ATOM     97  C   UNL A   1      49.747  35.061  25.302  1.00  0.00     0.131 A 
ATOM     98  C   UNL A   1      51.938  35.127  26.990  1.00  0.00     0.055 A 
ATOM     99  C   UNL A   1      50.970  35.537  24.827  1.00  0.00     0.041 A 
ATOM    100  F   UNL A   1      48.699  35.091  24.461  1.00  0.00    -0.206 F 
ATOM    101  C   UNL A   1      52.069  35.592  25.680  1.00  0.00     0.022 A 
BRANCH  98 102
ATOM    102  S   UNL A   1      53.288  35.364  28.178  1.00  0.00     0.124 S 
ATOM    103  O   UNL A   1      54.467  35.157  27.342  1.00  0.00    -0.237 OA
ATOM    104  O   UNL A   1      53.063  36.732  28.635  1.00  0.00    -0.237 OA
ATOM    105  O   UNL A   1      53.050  34.328  29.180  1.00  0.00    -0.744 OA
ENDBRANCH  98 102
ENDBRANCH  72  95
ENDBRANCH  46  47
ENDBRANCH  38  41
ENDBRANCH  36  37
ENDBRANCH  35  36
ENDBRANCH  34  35
ENDBRANCH  32  34
ENDBRANCH   1  30
TORSDOF 23
ENDMDL
MODEL 2
REMARK VINA RESULT:     -10.2      1.206      2.288
REMARK SMILES CCCCCCNC(=O)Oc1cccc(-c2ccc([C@@H](C)C(=O)NCCCNC(=O)c3ccc(-c4c5nc(c(-c6cc(S(=O)(=O)[O-])ccc6F)c6ccc([nH]6)c(-c6cc(S(=O)(=O)[O-])ccc6F)c6nc(c(-c7cc(S(=O)(=O)[O-])ccc7F)c7ccc4[nH]7)C=C6)C=C5)cc3)cc2C(F)(F)F)c1
REMARK SMILES IDX 20 1 21 2 19 3 16 4 17 5 95 6 18 7 94 8 15 9 11 10 12 11
REMARK SMILES IDX 100 12 13 13 14 14 10 15 8 16 7 17 9 19 6 20 5 21 4 22 3 23
REMARK SMILES IDX 2 24 1 25 96 26 97 27 98 28 99 29 22 30 23 31 24 32 25 34
REMARK SMILES IDX 26 35 27 36 28 37 29 38 30 40 31 41 32 42 93 43 33 44 92 45
REMARK SMILES IDX 34 46 35 47 36 48 86 49 37 50 91 51 85 52 87 53 38 54 90 55
REMARK SMILES IDX 84 56 83 57 39 59 71 60 51 61 70 62 52 63 55 64 69 65 88 66
REMARK SMILES IDX 53 67 54 68 68 70 89 71 56 72 40 73 41 74 49 75 42 76 48 77
REMARK SMILES IDX 50 78 47 79 43 80 44 81 45 82 46 83 72 84 73 85 81 86 74 87
REMARK SMILES IDX 80 88 82 89 79 90 75 91 76 92 77 93 78 94 57 95 58 96 66 97
REMARK SMILES IDX 59 98 65 99 67 100 64 101 60 102 61 103 62 104 63 105
REMARK H PARENT 7 18 24 33 28 39 87 58 55 69
REMARK Flexibility Score: inf
ROOT
ATOM      1  C   UNL A   1      35.656  33.468  28.319  1.00  0.00     0.105 C 
ATOM      2  C   UNL A   1      34.604  34.560  28.499  1.00  0.00     0.023 C 
ENDROOT
BRANCH   1   3
ATOM      3  C   UNL A   1      35.117  32.110  27.900  1.00  0.00    -0.035 A 
ATOM      4  C   UNL A   1      34.092  29.639  26.877  1.00  0.00    -0.006 A 
ATOM      5  C   UNL A   1      35.396  29.753  27.394  1.00  0.00     0.009 A 
ATOM      6  C   UNL A   1      33.255  30.768  26.981  1.00  0.00     0.064 A 
ATOM      7  C   UNL A   1      35.875  30.946  27.946  1.00  0.00     0.005 A 
ATOM      8  C   UNL A   1      33.800  31.998  27.430  1.00  0.00     0.018 A 
BRANCH   4   9
ATOM      9  C   UNL A   1      33.692  28.357  26.257  1.00  0.00    -0.014 A 
ATOM     10  C   UNL A   1      32.441  26.274  26.292  1.00  0.00     0.133 A 
ATOM     11  C   UNL A   1      32.968  25.900  25.059  1.00  0.00     0.047 A 
ATOM     12  C   UNL A   1      32.774  27.495  26.881  1.00  0.00     0.056 A 
ATOM     13  C   UNL A   1      33.839  26.761  24.403  1.00  0.00     0.004 A 
ATOM     14  C   UNL A   1      34.206  27.969  25.003  1.00  0.00     0.009 A 
BRANCH  10  15
ATOM     15  O   UNL A   1      31.708  25.288  26.979  1.00  0.00    -0.410 OA
BRANCH  15  16
ATOM     16  C   UNL A   1      31.227  24.166  26.319  1.00  0.00     0.412 C 
ATOM     17  N   UNL A   1      30.133  24.439  25.543  1.00  0.00    -0.321 N 
ATOM     18  H   UNL A   1      29.701  23.671  25.106  1.00  0.00     0.167 HD
ATOM     19  O   UNL A   1      31.694  23.038  26.385  1.00  0.00    -0.224 OA
BRANCH  17  20
ATOM     20  C   UNL A   1      29.548  25.742  25.300  1.00  0.00     0.119 C 
BRANCH  20  21
ATOM     21  C   UNL A   1      29.570  26.106  23.814  1.00  0.00     0.021 C 
BRANCH  21  22
ATOM     22  C   UNL A   1      29.183  27.557  23.501  1.00  0.00     0.002 C 
BRANCH  22  23
ATOM     23  C   UNL A   1      30.271  28.393  22.819  1.00  0.00    -0.000 C 
BRANCH  23  24
ATOM     24  C   UNL A   1      29.823  29.768  22.317  1.00  0.00    -0.003 C 
ATOM     25  C   UNL A   1      29.036  30.558  23.351  1.00  0.00     0.004 C 
ENDBRANCH  23  24
ENDBRANCH  22  23
ENDBRANCH  21  22
ENDBRANCH  20  21
ENDBRANCH  17  20
ENDBRANCH  15  16
ENDBRANCH  10  15
ENDBRANCH   4   9
BRANCH   6  26
ATOM     26  C   UNL A   1      31.774  30.765  26.667  1.00  0.00     0.417 C 
ATOM     27  F   UNL A   1      31.536  30.360  25.379  1.00  0.00    -0.166 F 
ATOM     28  F   UNL A   1      31.075  29.895  27.447  1.00  0.00    -0.166 F 
ATOM     29  F   UNL A   1      31.139  31.962  26.767  1.00  0.00    -0.166 F 
ENDBRANCH   6  26
ENDBRANCH   1   3
BRANCH   1  30
ATOM     30  C   UNL A   1      36.718  33.406  29.429  1.00  0.00     0.227 C 
ATOM     31  O   UNL A   1      37.912  33.569  29.143  1.00  0.00    -0.274 OA
ATOM     32  N   UNL A   1      36.442  33.196  30.744  1.00  0.00    -0.356 N 
ATOM     33  H   UNL A   1      37.231  33.239  31.330  1.00  0.00     0.163 HD
BRANCH  32  34
ATOM     34  C   UNL A   1      35.204  32.920  31.447  1.00  0.00     0.117 C 
BRANCH  34  35
ATOM     35  C   UNL A   1      35.389  32.888  32.963  1.00  0.00     0.042 C 
BRANCH  35  36
ATOM     36  C   UNL A   1      36.710  32.285  33.423  1.00  0.00     0.118 C 
BRANCH  36  37
ATOM     37  N   UNL A   1      36.723  30.836  33.291  1.00  0.00    -0.352 N 
ATOM     38  C   UNL A   1      37.529  30.002  32.559  1.00  0.00     0.251 C 
ATOM     39  H   UNL A   1      36.032  30.375  33.818  1.00  0.00     0.163 HD
ATOM     40  O   UNL A   1      37.176  28.831  32.425  1.00  0.00    -0.269 OA
BRANCH  38  41
ATOM     41  C   UNL A   1      38.787  30.472  31.928  1.00  0.00     0.039 A 
ATOM     42  C   UNL A   1      38.836  30.547  30.532  1.00  0.00     0.014 A 
ATOM     43  C   UNL A   1      39.935  30.767  32.669  1.00  0.00     0.014 A 
ATOM     44  C   UNL A   1      40.011  30.951  29.892  1.00  0.00     0.010 A 
ATOM     45  C   UNL A   1      41.077  31.258  32.035  1.00  0.00     0.010 A 
ATOM     46  C   UNL A   1      41.135  31.340  30.638  1.00  0.00    -0.014 A 
BRANCH  46  47
ATOM     47  C   UNL A   1      42.362  31.825  29.951  1.00  0.00     0.031 A 
ATOM     48  C   UNL A   1      42.543  33.287  29.636  1.00  0.00     0.074 A 
ATOM     49  C   UNL A   1      43.313  30.936  29.599  1.00  0.00     0.049 A 
ATOM     50  N   UNL A   1      43.562  33.895  29.083  1.00  0.00    -0.248 NA
ATOM     51  C   UNL A   1      41.421  34.180  29.960  1.00  0.00     0.031 C 
ATOM     52  C   UNL A   1      43.223  29.486  29.796  1.00  0.00     0.029 A 
ATOM     53  N   UNL A   1      44.542  31.114  29.017  1.00  0.00    -0.354 N 
ATOM     54  C   UNL A   1      43.203  35.237  28.989  1.00  0.00     0.074 A 
ATOM     55  C   UNL A   1      41.846  35.339  29.480  1.00  0.00     0.031 C 
ATOM     56  C   UNL A   1      44.365  28.915  29.386  1.00  0.00     0.029 A 
ATOM     57  C   UNL A   1      45.253  29.946  28.862  1.00  0.00     0.049 A 
ATOM     58  H   UNL A   1      44.883  31.994  28.737  1.00  0.00     0.167 HD
ATOM     59  C   UNL A   1      43.946  36.288  28.557  1.00  0.00     0.034 A 
ATOM     60  C   UNL A   1      46.485  29.730  28.358  1.00  0.00     0.034 A 
ATOM     61  C   UNL A   1      45.301  36.166  28.070  1.00  0.00     0.049 A 
ATOM     62  C   UNL A   1      47.293  30.914  27.896  1.00  0.00     0.074 A 
ATOM     63  C   UNL A   1      46.163  37.165  27.653  1.00  0.00     0.029 A 
ATOM     64  N   UNL A   1      45.991  34.967  27.930  1.00  0.00    -0.354 N 
ATOM     65  N   UNL A   1      46.963  32.185  27.875  1.00  0.00    -0.248 NA
ATOM     66  C   UNL A   1      48.648  30.633  27.410  1.00  0.00     0.031 C 
ATOM     67  C   UNL A   1      47.343  36.567  27.196  1.00  0.00     0.029 A 
ATOM     68  C   UNL A   1      47.255  35.201  27.405  1.00  0.00     0.049 A 
ATOM     69  H   UNL A   1      45.635  34.080  28.167  1.00  0.00     0.167 HD
ATOM     70  C   UNL A   1      48.084  32.859  27.399  1.00  0.00     0.074 A 
ATOM     71  C   UNL A   1      49.104  31.854  27.177  1.00  0.00     0.031 C 
ATOM     72  C   UNL A   1      48.256  34.187  27.164  1.00  0.00     0.034 A 
BRANCH  59  73
ATOM     73  C   UNL A   1      43.293  37.654  28.568  1.00  0.00     0.023 A 
ATOM     74  C   UNL A   1      43.512  38.571  29.613  1.00  0.00     0.031 A 
ATOM     75  C   UNL A   1      42.419  38.037  27.535  1.00  0.00     0.131 A 
ATOM     76  C   UNL A   1      42.811  39.786  29.639  1.00  0.00     0.055 A 
ATOM     77  C   UNL A   1      41.789  39.284  27.525  1.00  0.00     0.041 A 
ATOM     78  F   UNL A   1      42.152  37.199  26.520  1.00  0.00    -0.206 F 
ATOM     79  C   UNL A   1      41.971  40.161  28.590  1.00  0.00     0.022 A 
BRANCH  76  80
ATOM     80  S   UNL A   1      42.900  40.807  31.137  1.00  0.00     0.124 S 
ATOM     81  O   UNL A   1      41.495  41.152  31.344  1.00  0.00    -0.237 OA
ATOM     82  O   UNL A   1      43.483  39.890  32.110  1.00  0.00    -0.237 OA
ATOM     83  O   UNL A   1      43.755  41.924  30.741  1.00  0.00    -0.744 OA
ENDBRANCH  76  80
ENDBRANCH  59  73
BRANCH  60  84
ATOM     84  C   UNL A   1      47.034  28.346  28.276  1.00  0.00     0.023 A 
ATOM     85  C   UNL A   1      46.864  27.564  27.121  1.00  0.00     0.031 A 
ATOM     86  C   UNL A   1      47.710  27.771  29.366  1.00  0.00     0.131 A 
ATOM     87  C   UNL A   1      47.317  26.236  27.102  1.00  0.00     0.055 A 
ATOM     88  C   UNL A   1      48.210  26.468  29.321  1.00  0.00     0.041 A 
ATOM     89  F   UNL A   1      47.909  28.476  30.491  1.00  0.00    -0.206 F 
ATOM     90  C   UNL A   1      48.001  25.687  28.189  1.00  0.00     0.022 A 
BRANCH  87  91
ATOM     91  S   UNL A   1      46.925  25.203  25.662  1.00  0.00     0.124 S 
ATOM     92  O   UNL A   1      47.988  25.570  24.735  1.00  0.00    -0.237 OA
ATOM     93  O   UNL A   1      46.999  23.859  26.226  1.00  0.00    -0.237 OA
ATOM     94  O   UNL A   1      45.585  25.644  25.283  1.00  0.00    -0.744 OA
ENDBRANCH  87  91
ENDBRANCH  60  84
BRANCH  72  95
ATOM     95  C   UNL A   1      49.619  34.615  26.671  1.00  0.00     0.023 A 
ATOM     96  C   UNL A   1      50.731  34.673  27.531  1.00  0.00     0.031 A 
ATOM     97  C   UNL A   1      49.796  35.025  25.338  1.00  0.00     0.131 A 
ATOM     98  C   UNL A   1      51.941  35.217  27.075  1.00  0.00     0.055 A 
ATOM     99  C   UNL A   1      51.025  35.492  24.868  1.00  0.00     0.041 A 
ATOM    100  F   UNL A   1      48.771  34.993  24.470  1.00  0.00    -0.206 F 
ATOM    101  C   UNL A   1      52.100  35.611  25.745  1.00  0.00     0.022 A 
BRANCH  98 102
ATOM    102  S   UNL A   1      53.256  35.540  28.282  1.00  0.00     0.124 S 
ATOM    103  O   UNL A   1      53.858  36.761  27.756  1.00  0.00    -0.237 OA
ATOM    104  O   UNL A   1      52.508  35.684  29.527  1.00  0.00    -0.237 OA
ATOM    105  O   UNL A   1      54.098  34.348  28.199  1.00  0.00    -0.744 OA
ENDBRANCH  98 102
ENDBRANCH  72  95
ENDBRANCH  46  47
ENDBRANCH  38  41
ENDBRANCH  36  37
ENDBRANCH  35  36
ENDBRANCH  34  35
ENDBRANCH  32  34
ENDBRANCH   1  30
TORSDOF 23
ENDMDL
MODEL 3
REMARK VINA RESULT:      -9.9      6.112      8.663
REMARK SMILES CCCCCCNC(=O)Oc1cccc(-c2ccc([C@@H](C)C(=O)NCCCNC(=O)c3ccc(-c4c5nc(c(-c6cc(S(=O)(=O)[O-])ccc6F)c6ccc([nH]6)c(-c6cc(S(=O)(=O)[O-])ccc6F)c6nc(c(-c7cc(S(=O)(=O)[O-])ccc7F)c7ccc4[nH]7)C=C6)C=C5)cc3)cc2C(F)(F)F)c1
REMARK SMILES IDX 20 1 21 2 19 3 16 4 17 5 95 6 18 7 94 8 15 9 11 10 12 11
REMARK SMILES IDX 100 12 13 13 14 14 10 15 8 16 7 17 9 19 6 20 5 21 4 22 3 23
REMARK SMILES IDX 2 24 1 25 96 26 97 27 98 28 99 29 22 30 23 31 24 32 25 34
REMARK SMILES IDX 26 35 27 36 28 37 29 38 30 40 31 41 32 42 93 43 33 44 92 45
REMARK SMILES IDX 34 46 35 47 36 48 86 49 37 50 91 51 85 52 87 53 38 54 90 55
REMARK SMILES IDX 84 56 83 57 39 59 71 60 51 61 70 62 52 63 55 64 69 65 88 66
REMARK SMILES IDX 53 67 54 68 68 70 89 71 56 72 40 73 41 74 49 75 42 76 48 77
REMARK SMILES IDX 50 78 47 79 43 80 44 81 45 82 46 83 72 84 73 85 81 86 74 87
REMARK SMILES IDX 80 88 82 89 79 90 75 91 76 92 77 93 78 94 57 95 58 96 66 97
REMARK SMILES IDX 59 98 65 99 67 100 64 101 60 102 61 103 62 104 63 105
REMARK H PARENT 7 18 24 33 28 39 87 58 55 69
REMARK Flexibility Score: inf
ROOT
ATOM      1  C   UNL A   1      37.489  33.026  35.410  1.00  0.00     0.105 C 
ATOM      2  C   UNL A   1      37.570  33.520  36.853  1.00  0.00     0.023 C 
ENDROOT
BRANCH   1   3
ATOM      3  C   UNL A   1      38.565  32.030  35.004  1.00  0.00    -0.035 A 
ATOM      4  C   UNL A   1      40.541  30.033  34.450  1.00  0.00    -0.006 A 
ATOM      5  C   UNL A   1      39.372  30.166  33.678  1.00  0.00     0.009 A 
ATOM      6  C   UNL A   1      40.767  31.000  35.452  1.00  0.00     0.064 A 
ATOM      7  C   UNL A   1      38.436  31.177  33.914  1.00  0.00     0.005 A 
ATOM      8  C   UNL A   1      39.747  31.939  35.752  1.00  0.00     0.018 A 
BRANCH   4   9
ATOM      9  C   UNL A   1      41.444  28.896  34.169  1.00  0.00    -0.014 A 
ATOM     10  C   UNL A   1      42.486  26.796  34.807  1.00  0.00     0.133 A 
ATOM     11  C   UNL A   1      43.200  26.751  33.613  1.00  0.00     0.047 A 
ATOM     12  C   UNL A   1      41.599  27.838  35.081  1.00  0.00     0.056 A 
ATOM     13  C   UNL A   1      43.023  27.762  32.677  1.00  0.00     0.004 A 
ATOM     14  C   UNL A   1      42.165  28.829  32.959  1.00  0.00     0.009 A 
BRANCH  10  15
ATOM     15  O   UNL A   1      42.839  25.840  35.778  1.00  0.00    -0.410 OA
BRANCH  15  16
ATOM     16  C   UNL A   1      41.965  24.821  36.128  1.00  0.00     0.412 C 
ATOM     17  N   UNL A   1      42.248  23.643  35.493  1.00  0.00    -0.321 N 
ATOM     18  H   UNL A   1      41.620  22.899  35.643  1.00  0.00     0.167 HD
ATOM     19  O   UNL A   1      41.032  24.911  36.913  1.00  0.00    -0.224 OA
BRANCH  17  20
ATOM     20  C   UNL A   1      43.376  23.377  34.622  1.00  0.00     0.119 C 
BRANCH  20  21
ATOM     21  C   UNL A   1      44.462  22.566  35.332  1.00  0.00     0.021 C 
BRANCH  21  22
ATOM     22  C   UNL A   1      45.512  21.944  34.403  1.00  0.00     0.002 C 
BRANCH  22  23
ATOM     23  C   UNL A   1      46.151  20.647  34.910  1.00  0.00    -0.000 C 
BRANCH  23  24
ATOM     24  C   UNL A   1      45.955  20.359  36.400  1.00  0.00    -0.003 C 
ATOM     25  C   UNL A   1      45.628  18.903  36.693  1.00  0.00     0.004 C 
ENDBRANCH  23  24
ENDBRANCH  22  23
ENDBRANCH  21  22
ENDBRANCH  20  21
ENDBRANCH  17  20
ENDBRANCH  15  16
ENDBRANCH  10  15
ENDBRANCH   4   9
BRANCH   6  26
ATOM     26  C   UNL A   1      42.055  31.133  36.234  1.00  0.00     0.417 C 
ATOM     27  F   UNL A   1      42.288  30.027  37.009  1.00  0.00    -0.166 F 
ATOM     28  F   UNL A   1      43.149  31.240  35.429  1.00  0.00    -0.166 F 
ATOM     29  F   UNL A   1      42.121  32.174  37.105  1.00  0.00    -0.166 F 
ENDBRANCH   6  26
ENDBRANCH   1   3
BRANCH   1  30
ATOM     30  C   UNL A   1      37.223  34.122  34.366  1.00  0.00     0.227 C 
ATOM     31  O   UNL A   1      38.089  34.979  34.145  1.00  0.00    -0.274 OA
ATOM     32  N   UNL A   1      36.084  34.220  33.629  1.00  0.00    -0.356 N 
ATOM     33  H   UNL A   1      36.097  34.949  32.968  1.00  0.00     0.163 HD
BRANCH  32  34
ATOM     34  C   UNL A   1      34.853  33.454  33.634  1.00  0.00     0.117 C 
BRANCH  34  35
ATOM     35  C   UNL A   1      33.715  34.175  32.912  1.00  0.00     0.042 C 
BRANCH  35  36
ATOM     36  C   UNL A   1      34.133  34.880  31.628  1.00  0.00     0.118 C 
BRANCH  36  37
ATOM     37  N   UNL A   1      33.649  34.188  30.444  1.00  0.00    -0.352 N 
ATOM     38  C   UNL A   1      34.307  33.434  29.505  1.00  0.00     0.251 C 
ATOM     39  H   UNL A   1      32.681  34.276  30.289  1.00  0.00     0.163 HD
ATOM     40  O   UNL A   1      33.711  33.164  28.463  1.00  0.00    -0.269 OA
BRANCH  38  41
ATOM     41  C   UNL A   1      35.696  32.955  29.709  1.00  0.00     0.039 A 
ATOM     42  C   UNL A   1      36.719  33.574  28.983  1.00  0.00     0.014 A 
ATOM     43  C   UNL A   1      36.004  31.870  30.535  1.00  0.00     0.014 A 
ATOM     44  C   UNL A   1      38.039  33.134  29.115  1.00  0.00     0.010 A 
ATOM     45  C   UNL A   1      37.332  31.492  30.736  1.00  0.00     0.010 A 
ATOM     46  C   UNL A   1      38.364  32.107  30.016  1.00  0.00    -0.014 A 
BRANCH  46  47
ATOM     47  C   UNL A   1      39.779  31.685  30.196  1.00  0.00     0.031 A 
ATOM     48  C   UNL A   1      40.693  32.428  31.135  1.00  0.00     0.074 A 
ATOM     49  C   UNL A   1      40.243  30.629  29.496  1.00  0.00     0.049 A 
ATOM     50  N   UNL A   1      41.939  32.176  31.449  1.00  0.00    -0.248 NA
ATOM     51  C   UNL A   1      40.144  33.626  31.786  1.00  0.00     0.031 C 
ATOM     52  C   UNL A   1      39.470  29.869  28.510  1.00  0.00     0.029 A 
ATOM     53  N   UNL A   1      41.464  30.005  29.510  1.00  0.00    -0.354 N 
ATOM     54  C   UNL A   1      42.323  33.185  32.329  1.00  0.00     0.074 A 
ATOM     55  C   UNL A   1      41.198  34.088  32.443  1.00  0.00     0.031 C 
ATOM     56  C   UNL A   1      40.218  28.855  28.051  1.00  0.00     0.029 A 
ATOM     57  C   UNL A   1      41.535  28.913  28.676  1.00  0.00     0.049 A 
ATOM     58  H   UNL A   1      42.218  30.310  30.065  1.00  0.00     0.167 HD
ATOM     59  C   UNL A   1      43.496  33.329  32.997  1.00  0.00     0.034 A 
ATOM     60  C   UNL A   1      42.545  28.052  28.444  1.00  0.00     0.034 A 
ATOM     61  C   UNL A   1      44.608  32.416  32.871  1.00  0.00     0.049 A 
ATOM     62  C   UNL A   1      43.833  28.227  29.206  1.00  0.00     0.074 A 
ATOM     63  C   UNL A   1      45.824  32.437  33.533  1.00  0.00     0.029 A 
ATOM     64  N   UNL A   1      44.644  31.318  32.018  1.00  0.00    -0.354 N 
ATOM     65  N   UNL A   1      44.156  29.148  30.084  1.00  0.00    -0.248 NA
ATOM     66  C   UNL A   1      44.881  27.231  28.961  1.00  0.00     0.031 C 
ATOM     67  C   UNL A   1      46.617  31.398  33.033  1.00  0.00     0.029 A 
ATOM     68  C   UNL A   1      45.870  30.674  32.118  1.00  0.00     0.049 A 
ATOM     69  H   UNL A   1      43.907  31.038  31.428  1.00  0.00     0.167 HD
ATOM     70  C   UNL A   1      45.439  28.824  30.516  1.00  0.00     0.074 A 
ATOM     71  C   UNL A   1      45.811  27.607  29.824  1.00  0.00     0.031 C 
ATOM     72  C   UNL A   1      46.240  29.473  31.403  1.00  0.00     0.034 A 
BRANCH  59  73
ATOM     73  C   UNL A   1      43.638  34.534  33.902  1.00  0.00     0.023 A 
ATOM     74  C   UNL A   1      43.185  34.518  35.234  1.00  0.00     0.031 A 
ATOM     75  C   UNL A   1      44.211  35.725  33.421  1.00  0.00     0.131 A 
ATOM     76  C   UNL A   1      43.242  35.686  36.010  1.00  0.00     0.055 A 
ATOM     77  C   UNL A   1      44.342  36.860  34.227  1.00  0.00     0.041 A 
ATOM     78  F   UNL A   1      44.645  35.812  32.153  1.00  0.00    -0.206 F 
ATOM     79  C   UNL A   1      43.842  36.850  35.525  1.00  0.00     0.022 A 
BRANCH  76  80
ATOM     80  S   UNL A   1      42.390  35.706  37.612  1.00  0.00     0.124 S 
ATOM     81  O   UNL A   1      42.415  37.129  37.943  1.00  0.00    -0.237 OA
ATOM     82  O   UNL A   1      41.085  35.148  37.283  1.00  0.00    -0.237 OA
ATOM     83  O   UNL A   1      43.233  34.864  38.459  1.00  0.00    -0.744 OA
ENDBRANCH  76  80
ENDBRANCH  59  73
BRANCH  60  84
ATOM     84  C   UNL A   1      42.381  26.943  27.460  1.00  0.00     0.023 A 
ATOM     85  C   UNL A   1      41.955  25.668  27.867  1.00  0.00     0.031 A 
ATOM     86  C   UNL A   1      42.683  27.133  26.100  1.00  0.00     0.131 A 
ATOM     87  C   UNL A   1      41.890  24.620  26.935  1.00  0.00     0.055 A 
ATOM     88  C   UNL A   1      42.562  26.103  25.166  1.00  0.00     0.041 A 
ATOM     89  F   UNL A   1      43.086  28.333  25.654  1.00  0.00    -0.206 F 
ATOM     90  C   UNL A   1      42.177  24.833  25.584  1.00  0.00     0.022 A 
BRANCH  87  91
ATOM     91  S   UNL A   1      41.505  22.950  27.527  1.00  0.00     0.124 S 
ATOM     92  O   UNL A   1      40.051  22.928  27.433  1.00  0.00    -0.237 OA
ATOM     93  O   UNL A   1      42.223  22.116  26.569  1.00  0.00    -0.237 OA
ATOM     94  O   UNL A   1      42.043  22.938  28.885  1.00  0.00    -0.744 OA
ENDBRANCH  87  91
ENDBRANCH  60  84
BRANCH  72  95
ATOM     95  C   UNL A   1      47.583  28.843  31.688  1.00  0.00     0.023 A 
ATOM     96  C   UNL A   1      47.743  27.866  32.688  1.00  0.00     0.031 A 
ATOM     97  C   UNL A   1      48.729  29.266  30.992  1.00  0.00     0.131 A 
ATOM     98  C   UNL A   1      49.027  27.414  33.026  1.00  0.00     0.055 A 
ATOM     99  C   UNL A   1      49.995  28.754  31.279  1.00  0.00     0.041 A 
ATOM    100  F   UNL A   1      48.639  30.197  30.028  1.00  0.00    -0.206 F 
ATOM    101  C   UNL A   1      50.152  27.839  32.316  1.00  0.00     0.022 A 
BRANCH  98 102
ATOM    102  S   UNL A   1      49.222  26.377  34.501  1.00  0.00     0.124 S 
ATOM    103  O   UNL A   1      50.500  26.841  35.032  1.00  0.00    -0.237 OA
ATOM    104  O   UNL A   1      48.041  26.727  35.285  1.00  0.00    -0.237 OA
ATOM    105  O   UNL A   1      49.230  25.017  33.966  1.00  0.00    -0.744 OA
ENDBRANCH  98 102
ENDBRANCH  72  95
ENDBRANCH  46  47
ENDBRANCH  38  41
ENDBRANCH  36  37
ENDBRANCH  35  36
ENDBRANCH  34  35
ENDBRANCH  32  34
ENDBRANCH   1  30
TORSDOF 23
ENDMDL
