MODEL 1
REMARK VINA RESULT:     -13.0      0.000      0.000
REMARK SMILES COc1ccc(-c2ncn(CC(=O)NCCCNC(=O)c3ccc(-c4c5nc(c(-c6cc(S(=O)(=O)[O-])ccc6F)c6ccc([nH]6)c(-c6cc(S(=O)(=O)[O-])ccc6F)c6nc(c(-c7cc(S(=O)(=O)[O-])ccc7F)c7ccc4[nH]7)C=C6)C=C5)cc3)c2-c2ccc(OC)cc2)cc1
REMARK SMILES IDX 16 1 15 2 14 3 12 4 13 5 11 7 10 8 7 9 8 10 84 11 9 12 6 13
REMARK SMILES IDX 3 14 4 15 94 16 5 17 93 18 2 19 1 20 85 21 86 22 92 23 87 24
REMARK SMILES IDX 91 25 88 26 89 27 90 28 17 29 18 30 19 31 20 33 21 34 22 35
REMARK SMILES IDX 83 36 23 37 82 38 24 39 25 40 26 41 76 42 27 43 81 44 75 45
REMARK SMILES IDX 77 46 28 47 80 48 74 49 73 50 29 52 61 53 41 54 60 55 42 56
REMARK SMILES IDX 45 57 59 58 78 59 43 60 44 61 58 63 79 64 46 65 30 66 31 67
REMARK SMILES IDX 39 68 32 69 38 70 40 71 37 72 33 73 34 74 35 75 36 76 62 77
REMARK SMILES IDX 63 78 71 79 64 80 70 81 72 82 69 83 65 84 66 85 67 86 68 87
REMARK SMILES IDX 47 88 48 89 56 90 49 91 55 92 57 93 54 94 50 95 51 96 52 97
REMARK SMILES IDX 53 98
REMARK H PARENT 14 6 18 32 77 51 45 62
REMARK Flexibility Score: inf
ROOT
ATOM      1  C   UNL A   1      34.033  29.480  26.986  1.00  0.00     0.042 C 
ENDROOT
BRANCH   1   2
ATOM      2  C   UNL A   1      33.676  28.315  26.060  1.00  0.00     0.117 C 
BRANCH   2   3
ATOM      3  N   UNL A   1      32.636  27.433  26.566  1.00  0.00    -0.354 N 
ATOM      4  C   UNL A   1      32.060  26.340  25.983  1.00  0.00     0.239 C 
ATOM      5  O   UNL A   1      31.392  25.589  26.696  1.00  0.00    -0.273 OA
ATOM      6  H   UNL A   1      32.296  27.656  27.463  1.00  0.00     0.163 HD
BRANCH   4   7
ATOM      7  C   UNL A   1      32.295  26.015  24.524  1.00  0.00     0.223 C 
BRANCH   7   8
ATOM      8  N   UNL A   1      31.909  24.666  24.149  1.00  0.00    -0.321 N 
ATOM      9  C   UNL A   1      31.811  22.531  23.731  1.00  0.00     0.096 A 
ATOM     10  N   UNL A   1      30.623  23.066  23.296  1.00  0.00    -0.236 NA
ATOM     11  C   UNL A   1      32.663  23.514  24.219  1.00  0.00     0.076 A 
ATOM     12  C   UNL A   1      30.721  24.351  23.541  1.00  0.00     0.201 A 
BRANCH   9  13
ATOM     13  C   UNL A   1      32.164  21.132  23.579  1.00  0.00     0.003 A 
ATOM     14  C   UNL A   1      32.605  18.376  23.357  1.00  0.00     0.118 A 
ATOM     15  C   UNL A   1      32.331  19.133  22.219  1.00  0.00     0.047 A 
ATOM     16  C   UNL A   1      32.718  19.004  24.599  1.00  0.00     0.047 A 
ATOM     17  C   UNL A   1      32.102  20.506  22.328  1.00  0.00     0.014 A 
ATOM     18  C   UNL A   1      32.502  20.381  24.708  1.00  0.00     0.014 A 
BRANCH  14  19
ATOM     19  O   UNL A   1      32.802  17.037  23.156  1.00  0.00    -0.497 OA
ATOM     20  C   UNL A   1      34.172  16.653  23.100  1.00  0.00     0.278 C 
ENDBRANCH  14  19
ENDBRANCH   9  13
BRANCH  11  21
ATOM     21  C   UNL A   1      34.074  23.432  24.585  1.00  0.00     0.001 A 
ATOM     22  C   UNL A   1      34.493  23.410  25.915  1.00  0.00     0.014 A 
ATOM     23  C   UNL A   1      35.032  23.312  23.570  1.00  0.00     0.014 A 
ATOM     24  C   UNL A   1      35.855  23.312  26.219  1.00  0.00     0.047 A 
ATOM     25  C   UNL A   1      36.390  23.192  23.876  1.00  0.00     0.047 A 
ATOM     26  C   UNL A   1      36.808  23.198  25.205  1.00  0.00     0.118 A 
BRANCH  26  27
ATOM     27  O   UNL A   1      38.101  23.108  25.637  1.00  0.00    -0.497 OA
ATOM     28  C   UNL A   1      38.506  24.030  26.641  1.00  0.00     0.278 C 
ENDBRANCH  26  27
ENDBRANCH  11  21
ENDBRANCH   7   8
ENDBRANCH   4   7
ENDBRANCH   2   3
ENDBRANCH   1   2
BRANCH   1  29
ATOM     29  C   UNL A   1      35.437  29.389  27.552  1.00  0.00     0.118 C 
BRANCH  29  30
ATOM     30  N   UNL A   1      35.523  29.708  28.978  1.00  0.00    -0.352 N 
ATOM     31  C   UNL A   1      36.527  29.378  29.882  1.00  0.00     0.251 C 
ATOM     32  H   UNL A   1      34.771  30.226  29.347  1.00  0.00     0.163 HD
ATOM     33  O   UNL A   1      36.305  29.420  31.081  1.00  0.00    -0.269 OA
BRANCH  31  34
ATOM     34  C   UNL A   1      37.848  28.961  29.365  1.00  0.00     0.039 A 
ATOM     35  C   UNL A   1      38.421  29.533  28.225  1.00  0.00     0.014 A 
ATOM     36  C   UNL A   1      38.536  27.982  30.070  1.00  0.00     0.014 A 
ATOM     37  C   UNL A   1      39.717  29.155  27.866  1.00  0.00     0.010 A 
ATOM     38  C   UNL A   1      39.874  27.801  29.869  1.00  0.00     0.010 A 
ATOM     39  C   UNL A   1      40.442  28.299  28.711  1.00  0.00    -0.014 A 
BRANCH  39  40
ATOM     40  C   UNL A   1      41.829  27.938  28.463  1.00  0.00     0.031 A 
ATOM     41  C   UNL A   1      42.005  26.697  27.680  1.00  0.00     0.074 A 
ATOM     42  C   UNL A   1      42.869  28.764  28.712  1.00  0.00     0.049 A 
ATOM     43  N   UNL A   1      42.338  25.540  28.137  1.00  0.00    -0.248 NA
ATOM     44  C   UNL A   1      41.599  26.684  26.267  1.00  0.00     0.031 C 
ATOM     45  C   UNL A   1      42.848  30.154  29.184  1.00  0.00     0.029 A 
ATOM     46  N   UNL A   1      44.190  28.555  28.474  1.00  0.00    -0.354 N 
ATOM     47  C   UNL A   1      42.451  24.711  27.030  1.00  0.00     0.074 A 
ATOM     48  C   UNL A   1      41.758  25.391  25.967  1.00  0.00     0.031 C 
ATOM     49  C   UNL A   1      44.056  30.723  28.976  1.00  0.00     0.029 A 
ATOM     50  C   UNL A   1      44.981  29.700  28.519  1.00  0.00     0.049 A 
ATOM     51  H   UNL A   1      44.561  27.662  28.286  1.00  0.00     0.167 HD
ATOM     52  C   UNL A   1      43.326  23.667  27.030  1.00  0.00     0.034 A 
ATOM     53  C   UNL A   1      46.294  29.799  28.180  1.00  0.00     0.034 A 
ATOM     54  C   UNL A   1      43.855  23.444  28.363  1.00  0.00     0.049 A 
ATOM     55  C   UNL A   1      46.863  28.432  28.318  1.00  0.00     0.074 A 
ATOM     56  C   UNL A   1      43.290  23.184  29.598  1.00  0.00     0.029 A 
ATOM     57  N   UNL A   1      45.129  23.899  28.631  1.00  0.00    -0.354 N 
ATOM     58  N   UNL A   1      46.944  27.806  29.461  1.00  0.00    -0.248 NA
ATOM     59  C   UNL A   1      46.863  27.569  27.145  1.00  0.00     0.031 C 
ATOM     60  C   UNL A   1      44.038  23.980  30.515  1.00  0.00     0.029 A 
ATOM     61  C   UNL A   1      45.078  24.597  29.815  1.00  0.00     0.049 A 
ATOM     62  H   UNL A   1      45.929  23.752  28.078  1.00  0.00     0.167 HD
ATOM     63  C   UNL A   1      46.546  26.505  29.188  1.00  0.00     0.074 A 
ATOM     64  C   UNL A   1      46.611  26.393  27.730  1.00  0.00     0.031 C 
ATOM     65  C   UNL A   1      45.924  25.735  30.131  1.00  0.00     0.034 A 
BRANCH  52  66
ATOM     66  C   UNL A   1      43.997  23.075  25.814  1.00  0.00     0.023 A 
ATOM     67  C   UNL A   1      43.947  21.674  25.683  1.00  0.00     0.031 A 
ATOM     68  C   UNL A   1      44.895  23.740  24.951  1.00  0.00     0.131 A 
ATOM     69  C   UNL A   1      44.832  20.994  24.833  1.00  0.00     0.055 A 
ATOM     70  C   UNL A   1      45.722  23.062  24.050  1.00  0.00     0.041 A 
ATOM     71  F   UNL A   1      45.098  25.061  24.991  1.00  0.00    -0.206 F 
ATOM     72  C   UNL A   1      45.721  21.679  24.012  1.00  0.00     0.022 A 
BRANCH  69  73
ATOM     73  S   UNL A   1      44.924  19.191  24.968  1.00  0.00     0.124 S 
ATOM     74  O   UNL A   1      44.907  18.791  23.564  1.00  0.00    -0.237 OA
ATOM     75  O   UNL A   1      46.187  19.006  25.675  1.00  0.00    -0.237 OA
ATOM     76  O   UNL A   1      43.726  18.848  25.730  1.00  0.00    -0.744 OA
ENDBRANCH  69  73
ENDBRANCH  52  66
BRANCH  53  77
ATOM     77  C   UNL A   1      46.965  30.912  27.449  1.00  0.00     0.023 A 
ATOM     78  C   UNL A   1      46.255  32.010  26.914  1.00  0.00     0.031 A 
ATOM     79  C   UNL A   1      48.373  31.034  27.490  1.00  0.00     0.131 A 
ATOM     80  C   UNL A   1      46.947  33.161  26.465  1.00  0.00     0.055 A 
ATOM     81  C   UNL A   1      49.052  32.172  27.045  1.00  0.00     0.041 A 
ATOM     82  F   UNL A   1      49.139  30.085  28.051  1.00  0.00    -0.206 F 
ATOM     83  C   UNL A   1      48.339  33.247  26.542  1.00  0.00     0.022 A 
BRANCH  80  84
ATOM     84  S   UNL A   1      46.035  34.625  25.871  1.00  0.00     0.124 S 
ATOM     85  O   UNL A   1      45.114  34.883  26.972  1.00  0.00    -0.237 OA
ATOM     86  O   UNL A   1      47.098  35.602  25.670  1.00  0.00    -0.237 OA
ATOM     87  O   UNL A   1      45.401  34.153  24.638  1.00  0.00    -0.744 OA
ENDBRANCH  80  84
ENDBRANCH  53  77
BRANCH  65  88
ATOM     88  C   UNL A   1      45.941  26.194  31.579  1.00  0.00     0.023 A 
ATOM     89  C   UNL A   1      44.860  26.803  32.259  1.00  0.00     0.031 A 
ATOM     90  C   UNL A   1      47.086  25.881  32.335  1.00  0.00     0.131 A 
ATOM     91  C   UNL A   1      44.960  27.084  33.637  1.00  0.00     0.055 A 
ATOM     92  C   UNL A   1      47.171  26.137  33.703  1.00  0.00     0.041 A 
ATOM     93  F   UNL A   1      48.141  25.280  31.757  1.00  0.00    -0.206 F 
ATOM     94  C   UNL A   1      46.110  26.746  34.358  1.00  0.00     0.022 A 
BRANCH  91  95
ATOM     95  S   UNL A   1      43.605  27.922  34.524  1.00  0.00     0.124 S 
ATOM     96  O   UNL A   1      43.979  29.331  34.472  1.00  0.00    -0.237 OA
ATOM     97  O   UNL A   1      42.432  27.542  33.742  1.00  0.00    -0.237 OA
ATOM     98  O   UNL A   1      43.659  27.330  35.863  1.00  0.00    -0.744 OA
ENDBRANCH  91  95
ENDBRANCH  65  88
ENDBRANCH  39  40
ENDBRANCH  31  34
ENDBRANCH  29  30
ENDBRANCH   1  29
TORSDOF 18
ENDMDL
MODEL 2
REMARK VINA RESULT:     -12.6      2.653      6.976
REMARK SMILES COc1ccc(-c2ncn(CC(=O)NCCCNC(=O)c3ccc(-c4c5nc(c(-c6cc(S(=O)(=O)[O-])ccc6F)c6ccc([nH]6)c(-c6cc(S(=O)(=O)[O-])ccc6F)c6nc(c(-c7cc(S(=O)(=O)[O-])ccc7F)c7ccc4[nH]7)C=C6)C=C5)cc3)c2-c2ccc(OC)cc2)cc1
REMARK SMILES IDX 16 1 15 2 14 3 12 4 13 5 11 7 10 8 7 9 8 10 84 11 9 12 6 13
REMARK SMILES IDX 3 14 4 15 94 16 5 17 93 18 2 19 1 20 85 21 86 22 92 23 87 24
REMARK SMILES IDX 91 25 88 26 89 27 90 28 17 29 18 30 19 31 20 33 21 34 22 35
REMARK SMILES IDX 83 36 23 37 82 38 24 39 25 40 26 41 76 42 27 43 81 44 75 45
REMARK SMILES IDX 77 46 28 47 80 48 74 49 73 50 29 52 61 53 41 54 60 55 42 56
REMARK SMILES IDX 45 57 59 58 78 59 43 60 44 61 58 63 79 64 46 65 30 66 31 67
REMARK SMILES IDX 39 68 32 69 38 70 40 71 37 72 33 73 34 74 35 75 36 76 62 77
REMARK SMILES IDX 63 78 71 79 64 80 70 81 72 82 69 83 65 84 66 85 67 86 68 87
REMARK SMILES IDX 47 88 48 89 56 90 49 91 55 92 57 93 54 94 50 95 51 96 52 97
REMARK SMILES IDX 53 98
REMARK H PARENT 14 6 18 32 77 51 45 62
REMARK Flexibility Score: inf
ROOT
ATOM      1  C   UNL A   1      32.230  29.216  27.057  1.00  0.00     0.042 C 
ENDROOT
BRANCH   1   2
ATOM      2  C   UNL A   1      31.850  27.956  26.275  1.00  0.00     0.117 C 
BRANCH   2   3
ATOM      3  N   UNL A   1      31.602  28.172  24.858  1.00  0.00    -0.354 N 
ATOM      4  C   UNL A   1      32.015  27.442  23.780  1.00  0.00     0.239 C 
ATOM      5  O   UNL A   1      31.469  27.654  22.696  1.00  0.00    -0.273 OA
ATOM      6  H   UNL A   1      31.054  28.962  24.644  1.00  0.00     0.163 HD
BRANCH   4   7
ATOM      7  C   UNL A   1      33.055  26.352  23.923  1.00  0.00     0.223 C 
BRANCH   7   8
ATOM      8  N   UNL A   1      32.520  25.006  23.808  1.00  0.00    -0.321 N 
ATOM      9  C   UNL A   1      32.184  22.854  23.807  1.00  0.00     0.096 A 
ATOM     10  N   UNL A   1      31.060  23.422  23.257  1.00  0.00    -0.236 NA
ATOM     11  C   UNL A   1      33.142  23.814  24.110  1.00  0.00     0.076 A 
ATOM     12  C   UNL A   1      31.301  24.711  23.253  1.00  0.00     0.201 A 
BRANCH   9  13
ATOM     13  C   UNL A   1      32.379  21.423  23.933  1.00  0.00     0.003 A 
ATOM     14  C   UNL A   1      32.514  18.645  24.260  1.00  0.00     0.118 A 
ATOM     15  C   UNL A   1      32.284  19.189  22.997  1.00  0.00     0.047 A 
ATOM     16  C   UNL A   1      32.737  19.488  25.350  1.00  0.00     0.047 A 
ATOM     17  C   UNL A   1      32.207  20.573  22.833  1.00  0.00     0.014 A 
ATOM     18  C   UNL A   1      32.675  20.875  25.185  1.00  0.00     0.014 A 
BRANCH  14  19
ATOM     19  O   UNL A   1      32.559  17.279  24.328  1.00  0.00    -0.497 OA
ATOM     20  C   UNL A   1      33.541  16.774  25.228  1.00  0.00     0.278 C 
ENDBRANCH  14  19
ENDBRANCH   9  13
BRANCH  11  21
ATOM     21  C   UNL A   1      34.538  23.650  24.508  1.00  0.00     0.001 A 
ATOM     22  C   UNL A   1      34.958  23.839  25.825  1.00  0.00     0.014 A 
ATOM     23  C   UNL A   1      35.471  23.232  23.552  1.00  0.00     0.014 A 
ATOM     24  C   UNL A   1      36.302  23.653  26.165  1.00  0.00     0.047 A 
ATOM     25  C   UNL A   1      36.809  23.025  23.897  1.00  0.00     0.047 A 
ATOM     26  C   UNL A   1      37.232  23.242  25.207  1.00  0.00     0.118 A 
BRANCH  26  27
ATOM     27  O   UNL A   1      38.509  23.096  25.669  1.00  0.00    -0.497 OA
ATOM     28  C   UNL A   1      38.917  21.780  26.019  1.00  0.00     0.278 C 
ENDBRANCH  26  27
ENDBRANCH  11  21
ENDBRANCH   7   8
ENDBRANCH   4   7
ENDBRANCH   2   3
ENDBRANCH   1   2
BRANCH   1  29
ATOM     29  C   UNL A   1      33.697  29.577  26.938  1.00  0.00     0.118 C 
BRANCH  29  30
ATOM     30  N   UNL A   1      33.963  31.014  27.033  1.00  0.00    -0.352 N 
ATOM     31  C   UNL A   1      34.931  31.670  27.785  1.00  0.00     0.251 C 
ATOM     32  H   UNL A   1      33.379  31.593  26.492  1.00  0.00     0.163 HD
ATOM     33  O   UNL A   1      34.818  32.861  28.020  1.00  0.00    -0.269 OA
BRANCH  31  34
ATOM     34  C   UNL A   1      36.079  30.896  28.306  1.00  0.00     0.039 A 
ATOM     35  C   UNL A   1      36.052  29.503  28.426  1.00  0.00     0.014 A 
ATOM     36  C   UNL A   1      37.224  31.600  28.657  1.00  0.00     0.014 A 
ATOM     37  C   UNL A   1      37.215  28.843  28.828  1.00  0.00     0.010 A 
ATOM     38  C   UNL A   1      38.414  30.948  28.804  1.00  0.00     0.010 A 
ATOM     39  C   UNL A   1      38.400  29.579  28.996  1.00  0.00    -0.014 A 
BRANCH  39  40
ATOM     40  C   UNL A   1      39.674  28.955  29.314  1.00  0.00     0.031 A 
ATOM     41  C   UNL A   1      39.936  28.805  30.760  1.00  0.00     0.074 A 
ATOM     42  C   UNL A   1      40.457  28.349  28.393  1.00  0.00     0.049 A 
ATOM     43  N   UNL A   1      40.715  29.537  31.480  1.00  0.00    -0.248 NA
ATOM     44  C   UNL A   1      39.118  27.864  31.538  1.00  0.00     0.031 C 
ATOM     45  C   UNL A   1      40.192  28.121  26.967  1.00  0.00     0.029 A 
ATOM     46  N   UNL A   1      41.632  27.695  28.582  1.00  0.00    -0.354 N 
ATOM     47  C   UNL A   1      40.698  28.977  32.750  1.00  0.00     0.074 A 
ATOM     48  C   UNL A   1      39.536  28.128  32.780  1.00  0.00     0.031 C 
ATOM     49  C   UNL A   1      41.053  27.196  26.488  1.00  0.00     0.029 A 
ATOM     50  C   UNL A   1      42.033  26.893  27.516  1.00  0.00     0.049 A 
ATOM     51  H   UNL A   1      42.162  27.782  29.408  1.00  0.00     0.167 HD
ATOM     52  C   UNL A   1      41.786  29.067  33.564  1.00  0.00     0.034 A 
ATOM     53  C   UNL A   1      43.080  26.026  27.496  1.00  0.00     0.034 A 
ATOM     54  C   UNL A   1      42.757  29.997  33.018  1.00  0.00     0.049 A 
ATOM     55  C   UNL A   1      44.029  26.496  28.540  1.00  0.00     0.074 A 
ATOM     56  C   UNL A   1      42.720  31.329  32.648  1.00  0.00     0.029 A 
ATOM     57  N   UNL A   1      43.863  29.472  32.383  1.00  0.00    -0.354 N 
ATOM     58  N   UNL A   1      44.650  27.644  28.473  1.00  0.00    -0.248 NA
ATOM     59  C   UNL A   1      43.899  25.946  29.882  1.00  0.00     0.031 C 
ATOM     60  C   UNL A   1      43.462  31.390  31.431  1.00  0.00     0.029 A 
ATOM     61  C   UNL A   1      43.998  30.124  31.181  1.00  0.00     0.049 A 
ATOM     62  H   UNL A   1      44.449  28.760  32.727  1.00  0.00     0.167 HD
ATOM     63  C   UNL A   1      44.575  28.168  29.756  1.00  0.00     0.074 A 
ATOM     64  C   UNL A   1      44.195  27.034  30.601  1.00  0.00     0.031 C 
ATOM     65  C   UNL A   1      44.538  29.516  29.976  1.00  0.00     0.034 A 
BRANCH  52  66
ATOM     66  C   UNL A   1      42.169  28.080  34.640  1.00  0.00     0.023 A 
ATOM     67  C   UNL A   1      42.944  26.975  34.238  1.00  0.00     0.031 A 
ATOM     68  C   UNL A   1      41.609  27.997  35.934  1.00  0.00     0.131 A 
ATOM     69  C   UNL A   1      43.036  25.825  35.037  1.00  0.00     0.055 A 
ATOM     70  C   UNL A   1      41.768  26.879  36.758  1.00  0.00     0.041 A 
ATOM     71  F   UNL A   1      40.805  28.939  36.439  1.00  0.00    -0.206 F 
ATOM     72  C   UNL A   1      42.453  25.768  36.298  1.00  0.00     0.022 A 
BRANCH  69  73
ATOM     73  S   UNL A   1      43.772  24.340  34.309  1.00  0.00     0.124 S 
ATOM     74  O   UNL A   1      44.968  24.174  35.129  1.00  0.00    -0.237 OA
ATOM     75  O   UNL A   1      42.715  23.354  34.502  1.00  0.00    -0.237 OA
ATOM     76  O   UNL A   1      44.016  24.730  32.922  1.00  0.00    -0.744 OA
ENDBRANCH  69  73
ENDBRANCH  52  66
BRANCH  53  77
ATOM     77  C   UNL A   1      43.132  24.674  26.870  1.00  0.00     0.023 A 
ATOM     78  C   UNL A   1      44.057  24.337  25.858  1.00  0.00     0.031 A 
ATOM     79  C   UNL A   1      42.420  23.600  27.452  1.00  0.00     0.131 A 
ATOM     80  C   UNL A   1      44.247  22.985  25.480  1.00  0.00     0.055 A 
ATOM     81  C   UNL A   1      42.610  22.267  27.077  1.00  0.00     0.041 A 
ATOM     82  F   UNL A   1      41.575  23.798  28.477  1.00  0.00    -0.206 F 
ATOM     83  C   UNL A   1      43.536  21.953  26.096  1.00  0.00     0.022 A 
BRANCH  80  84
ATOM     84  S   UNL A   1      45.515  22.530  24.250  1.00  0.00     0.124 S 
ATOM     85  O   UNL A   1      44.710  21.980  23.165  1.00  0.00    -0.237 OA
ATOM     86  O   UNL A   1      46.176  23.803  23.988  1.00  0.00    -0.237 OA
ATOM     87  O   UNL A   1      46.341  21.550  24.959  1.00  0.00    -0.744 OA
ENDBRANCH  80  84
ENDBRANCH  53  77
BRANCH  65  88
ATOM     88  C   UNL A   1      44.888  30.455  28.833  1.00  0.00     0.023 A 
ATOM     89  C   UNL A   1      46.190  30.903  28.511  1.00  0.00     0.031 A 
ATOM     90  C   UNL A   1      43.845  30.811  27.957  1.00  0.00     0.131 A 
ATOM     91  C   UNL A   1      46.403  31.685  27.357  1.00  0.00     0.055 A 
ATOM     92  C   UNL A   1      44.064  31.563  26.804  1.00  0.00     0.041 A 
ATOM     93  F   UNL A   1      42.588  30.399  28.191  1.00  0.00    -0.206 F 
ATOM     94  C   UNL A   1      45.344  32.009  26.503  1.00  0.00     0.022 A 
BRANCH  91  95
ATOM     95  S   UNL A   1      48.061  32.326  26.951  1.00  0.00     0.124 S 
ATOM     96  O   UNL A   1      48.840  31.123  26.684  1.00  0.00    -0.237 OA
ATOM     97  O   UNL A   1      47.796  33.185  25.801  1.00  0.00    -0.237 OA
ATOM     98  O   UNL A   1      48.453  33.045  28.166  1.00  0.00    -0.744 OA
ENDBRANCH  91  95
ENDBRANCH  65  88
ENDBRANCH  39  40
ENDBRANCH  31  34
ENDBRANCH  29  30
ENDBRANCH   1  29
TORSDOF 18
ENDMDL
MODEL 3
REMARK VINA RESULT:     -12.6      3.454      9.014
REMARK SMILES COc1ccc(-c2ncn(CC(=O)NCCCNC(=O)c3ccc(-c4c5nc(c(-c6cc(S(=O)(=O)[O-])ccc6F)c6ccc([nH]6)c(-c6cc(S(=O)(=O)[O-])ccc6F)c6nc(c(-c7cc(S(=O)(=O)[O-])ccc7F)c7ccc4[nH]7)C=C6)C=C5)cc3)c2-c2ccc(OC)cc2)cc1
REMARK SMILES IDX 16 1 15 2 14 3 12 4 13 5 11 7 10 8 7 9 8 10 84 11 9 12 6 13
REMARK SMILES IDX 3 14 4 15 94 16 5 17 93 18 2 19 1 20 85 21 86 22 92 23 87 24
REMARK SMILES IDX 91 25 88 26 89 27 90 28 17 29 18 30 19 31 20 33 21 34 22 35
REMARK SMILES IDX 83 36 23 37 82 38 24 39 25 40 26 41 76 42 27 43 81 44 75 45
REMARK SMILES IDX 77 46 28 47 80 48 74 49 73 50 29 52 61 53 41 54 60 55 42 56
REMARK SMILES IDX 45 57 59 58 78 59 43 60 44 61 58 63 79 64 46 65 30 66 31 67
REMARK SMILES IDX 39 68 32 69 38 70 40 71 37 72 33 73 34 74 35 75 36 76 62 77
REMARK SMILES IDX 63 78 71 79 64 80 70 81 72 82 69 83 65 84 66 85 67 86 68 87
REMARK SMILES IDX 47 88 48 89 56 90 49 91 55 92 57 93 54 94 50 95 51 96 52 97
REMARK SMILES IDX 53 98
REMARK H PARENT 14 6 18 32 77 51 45 62
REMARK Flexibility Score: inf
ROOT
ATOM      1  C   UNL A   1      34.945  21.713  26.411  1.00  0.00     0.042 C 
ENDROOT
BRANCH   1   2
ATOM      2  C   UNL A   1      33.478  21.383  26.125  1.00  0.00     0.117 C 
BRANCH   2   3
ATOM      3  N   UNL A   1      32.520  22.130  26.925  1.00  0.00    -0.354 N 
ATOM      4  C   UNL A   1      32.038  23.397  26.751  1.00  0.00     0.239 C 
ATOM      5  O   UNL A   1      31.040  23.728  27.393  1.00  0.00    -0.273 OA
ATOM      6  H   UNL A   1      32.166  21.652  27.710  1.00  0.00     0.163 HD
BRANCH   4   7
ATOM      7  C   UNL A   1      32.659  24.340  25.744  1.00  0.00     0.223 C 
BRANCH   7   8
ATOM      8  N   UNL A   1      31.699  24.974  24.857  1.00  0.00    -0.321 N 
ATOM      9  C   UNL A   1      30.444  26.357  23.736  1.00  0.00     0.096 A 
ATOM     10  N   UNL A   1      30.019  25.093  23.406  1.00  0.00    -0.236 NA
ATOM     11  C   UNL A   1      31.457  26.320  24.687  1.00  0.00     0.076 A 
ATOM     12  C   UNL A   1      30.777  24.287  24.110  1.00  0.00     0.201 A 
BRANCH   9  13
ATOM     13  C   UNL A   1      29.820  27.568  23.240  1.00  0.00     0.003 A 
ATOM     14  C   UNL A   1      28.595  29.789  22.053  1.00  0.00     0.118 A 
ATOM     15  C   UNL A   1      27.843  28.907  22.828  1.00  0.00     0.047 A 
ATOM     16  C   UNL A   1      29.971  29.596  21.920  1.00  0.00     0.047 A 
ATOM     17  C   UNL A   1      28.449  27.795  23.413  1.00  0.00     0.014 A 
ATOM     18  C   UNL A   1      30.583  28.489  22.517  1.00  0.00     0.014 A 
BRANCH  14  19
ATOM     19  O   UNL A   1      27.914  30.844  21.509  1.00  0.00    -0.497 OA
ATOM     20  C   UNL A   1      28.369  32.119  21.949  1.00  0.00     0.278 C 
ENDBRANCH  14  19
ENDBRANCH   9  13
BRANCH  11  21
ATOM     21  C   UNL A   1      32.051  27.404  25.464  1.00  0.00     0.001 A 
ATOM     22  C   UNL A   1      31.455  27.893  26.627  1.00  0.00     0.014 A 
ATOM     23  C   UNL A   1      33.286  27.929  25.063  1.00  0.00     0.014 A 
ATOM     24  C   UNL A   1      32.069  28.921  27.351  1.00  0.00     0.047 A 
ATOM     25  C   UNL A   1      33.909  28.941  25.798  1.00  0.00     0.047 A 
ATOM     26  C   UNL A   1      33.297  29.447  26.944  1.00  0.00     0.118 A 
BRANCH  26  27
ATOM     27  O   UNL A   1      33.788  30.444  27.738  1.00  0.00    -0.497 OA
ATOM     28  C   UNL A   1      35.183  30.418  28.010  1.00  0.00     0.278 C 
ENDBRANCH  26  27
ENDBRANCH  11  21
ENDBRANCH   7   8
ENDBRANCH   4   7
ENDBRANCH   2   3
ENDBRANCH   1   2
BRANCH   1  29
ATOM     29  C   UNL A   1      35.836  21.586  25.191  1.00  0.00     0.118 C 
BRANCH  29  30
ATOM     30  N   UNL A   1      36.666  20.379  25.186  1.00  0.00    -0.352 N 
ATOM     31  C   UNL A   1      38.047  20.275  25.317  1.00  0.00     0.251 C 
ATOM     32  H   UNL A   1      36.183  19.529  25.075  1.00  0.00     0.163 HD
ATOM     33  O   UNL A   1      38.617  19.256  24.964  1.00  0.00    -0.269 OA
BRANCH  31  34
ATOM     34  C   UNL A   1      38.803  21.420  25.870  1.00  0.00     0.039 A 
ATOM     35  C   UNL A   1      38.330  22.733  25.800  1.00  0.00     0.014 A 
ATOM     36  C   UNL A   1      40.010  21.149  26.500  1.00  0.00     0.014 A 
ATOM     37  C   UNL A   1      39.056  23.741  26.439  1.00  0.00     0.010 A 
ATOM     38  C   UNL A   1      40.578  22.077  27.325  1.00  0.00     0.010 A 
ATOM     39  C   UNL A   1      40.173  23.394  27.217  1.00  0.00    -0.014 A 
BRANCH  39  40
ATOM     40  C   UNL A   1      40.922  24.368  27.995  1.00  0.00     0.031 A 
ATOM     41  C   UNL A   1      40.174  25.604  28.309  1.00  0.00     0.074 A 
ATOM     42  C   UNL A   1      42.107  24.097  28.586  1.00  0.00     0.049 A 
ATOM     43  N   UNL A   1      40.304  26.749  27.733  1.00  0.00    -0.248 NA
ATOM     44  C   UNL A   1      39.033  25.529  29.233  1.00  0.00     0.031 C 
ATOM     45  C   UNL A   1      42.835  22.824  28.647  1.00  0.00     0.029 A 
ATOM     46  N   UNL A   1      42.865  24.906  29.371  1.00  0.00    -0.354 N 
ATOM     47  C   UNL A   1      39.454  27.613  28.408  1.00  0.00     0.074 A 
ATOM     48  C   UNL A   1      38.542  26.768  29.134  1.00  0.00     0.031 C 
ATOM     49  C   UNL A   1      43.786  22.889  29.605  1.00  0.00     0.029 A 
ATOM     50  C   UNL A   1      43.852  24.252  30.103  1.00  0.00     0.049 A 
ATOM     51  H   UNL A   1      42.728  25.880  29.419  1.00  0.00     0.167 HD
ATOM     52  C   UNL A   1      39.748  28.940  28.508  1.00  0.00     0.034 A 
ATOM     53  C   UNL A   1      44.646  24.792  31.066  1.00  0.00     0.034 A 
ATOM     54  C   UNL A   1      40.853  29.285  27.633  1.00  0.00     0.049 A 
ATOM     55  C   UNL A   1      44.691  26.254  30.798  1.00  0.00     0.074 A 
ATOM     56  C   UNL A   1      41.086  29.169  26.275  1.00  0.00     0.029 A 
ATOM     57  N   UNL A   1      42.098  29.449  28.205  1.00  0.00    -0.354 N 
ATOM     58  N   UNL A   1      45.220  26.764  29.718  1.00  0.00    -0.248 NA
ATOM     59  C   UNL A   1      43.708  27.101  31.458  1.00  0.00     0.031 C 
ATOM     60  C   UNL A   1      42.443  28.742  26.173  1.00  0.00     0.029 A 
ATOM     61  C   UNL A   1      42.994  28.723  27.456  1.00  0.00     0.049 A 
ATOM     62  H   UNL A   1      42.307  29.986  29.002  1.00  0.00     0.167 HD
ATOM     63  C   UNL A   1      44.334  27.753  29.315  1.00  0.00     0.074 A 
ATOM     64  C   UNL A   1      43.478  27.985  30.481  1.00  0.00     0.031 C 
ATOM     65  C   UNL A   1      44.181  28.082  27.998  1.00  0.00     0.034 A 
BRANCH  52  66
ATOM     66  C   UNL A   1      39.322  29.858  29.628  1.00  0.00     0.023 A 
ATOM     67  C   UNL A   1      38.620  31.022  29.259  1.00  0.00     0.031 A 
ATOM     68  C   UNL A   1      39.785  29.818  30.962  1.00  0.00     0.131 A 
ATOM     69  C   UNL A   1      38.510  32.111  30.137  1.00  0.00     0.055 A 
ATOM     70  C   UNL A   1      39.606  30.876  31.858  1.00  0.00     0.041 A 
ATOM     71  F   UNL A   1      40.514  28.808  31.448  1.00  0.00    -0.206 F 
ATOM     72  C   UNL A   1      38.998  32.047  31.438  1.00  0.00     0.022 A 
BRANCH  69  73
ATOM     73  S   UNL A   1      37.886  33.676  29.477  1.00  0.00     0.124 S 
ATOM     74  O   UNL A   1      37.206  33.232  28.264  1.00  0.00    -0.237 OA
ATOM     75  O   UNL A   1      37.029  34.141  30.563  1.00  0.00    -0.237 OA
ATOM     76  O   UNL A   1      39.100  34.459  29.261  1.00  0.00    -0.744 OA
ENDBRANCH  69  73
ENDBRANCH  52  66
BRANCH  53  77
ATOM     77  C   UNL A   1      45.075  24.166  32.350  1.00  0.00     0.023 A 
ATOM     78  C   UNL A   1      46.202  24.611  33.076  1.00  0.00     0.031 A 
ATOM     79  C   UNL A   1      44.213  23.266  33.018  1.00  0.00     0.131 A 
ATOM     80  C   UNL A   1      46.418  24.171  34.405  1.00  0.00     0.055 A 
ATOM     81  C   UNL A   1      44.430  22.834  34.329  1.00  0.00     0.041 A 
ATOM     82  F   UNL A   1      43.072  22.843  32.451  1.00  0.00    -0.206 F 
ATOM     83  C   UNL A   1      45.529  23.296  35.033  1.00  0.00     0.022 A 
BRANCH  80  84
ATOM     84  S   UNL A   1      47.811  24.821  35.387  1.00  0.00     0.124 S 
ATOM     85  O   UNL A   1      47.518  24.306  36.719  1.00  0.00    -0.237 OA
ATOM     86  O   UNL A   1      48.971  24.252  34.711  1.00  0.00    -0.237 OA
ATOM     87  O   UNL A   1      47.677  26.273  35.248  1.00  0.00    -0.744 OA
ENDBRANCH  80  84
ENDBRANCH  53  77
BRANCH  65  88
ATOM     88  C   UNL A   1      45.206  27.580  26.994  1.00  0.00     0.023 A 
ATOM     89  C   UNL A   1      45.269  26.265  26.475  1.00  0.00     0.031 A 
ATOM     90  C   UNL A   1      46.087  28.533  26.451  1.00  0.00     0.131 A 
ATOM     91  C   UNL A   1      46.199  25.949  25.463  1.00  0.00     0.055 A 
ATOM     92  C   UNL A   1      46.987  28.223  25.432  1.00  0.00     0.041 A 
ATOM     93  F   UNL A   1      46.064  29.806  26.881  1.00  0.00    -0.206 F 
ATOM     94  C   UNL A   1      47.051  26.927  24.939  1.00  0.00     0.022 A 
BRANCH  91  95
ATOM     95  S   UNL A   1      46.343  24.249  24.820  1.00  0.00     0.124 S 
ATOM     96  O   UNL A   1      47.386  24.352  23.806  1.00  0.00    -0.237 OA
ATOM     97  O   UNL A   1      46.687  23.486  26.016  1.00  0.00    -0.237 OA
ATOM     98  O   UNL A   1      45.007  23.973  24.288  1.00  0.00    -0.744 OA
ENDBRANCH  91  95
ENDBRANCH  65  88
ENDBRANCH  39  40
ENDBRANCH  31  34
ENDBRANCH  29  30
ENDBRANCH   1  29
TORSDOF 18
ENDMDL
