MODEL 1
REMARK VINA RESULT:     -12.1      0.000      0.000
REMARK SMILES O=C(CC1(NC(=O)C2(c3ccccc3)CC2)CCC1)NCCCNC(=O)c1ccc(-c2c3nc(c(-c4cc(S(=O)(=O)[O-])ccc4F)c4ccc([nH]4)c(-c4cc(S(=O)(=O)[O-])ccc4F)c4nc(c(-c5cc(S(=O)(=O)[O-])ccc5F)c5ccc2[nH]5)C=C4)C=C3)cc1
REMARK SMILES IDX 21 1 20 2 1 3 2 4 3 6 4 7 17 8 19 9 18 10 5 11 6 12 7 14
REMARK SMILES IDX 8 15 15 16 16 17 9 18 10 19 14 20 11 21 13 22 12 23 22 24
REMARK SMILES IDX 23 25 24 26 25 27 26 29 27 30 28 31 89 32 29 33 88 34 30 35
REMARK SMILES IDX 31 36 32 37 82 38 33 39 87 40 81 41 83 42 34 43 86 44 80 45
REMARK SMILES IDX 79 46 35 48 67 49 47 50 66 51 48 52 51 53 65 54 84 55 49 56
REMARK SMILES IDX 50 57 64 59 85 60 52 61 36 62 37 63 45 64 38 65 44 66 46 67
REMARK SMILES IDX 43 68 39 69 40 70 41 71 42 72 68 73 69 74 77 75 70 76 76 77
REMARK SMILES IDX 78 78 75 79 71 80 72 81 73 82 74 83 53 84 54 85 62 86 55 87
REMARK SMILES IDX 61 88 63 89 60 90 56 91 57 92 58 93 59 94
REMARK H PARENT 20 5 5 13 24 28 83 47 51 58
REMARK Flexibility Score: inf
ROOT
ATOM      1  C   UNL A   1      35.874  22.947  23.604  1.00  0.00     0.117 C 
ENDROOT
BRANCH   1   2
ATOM      2  N   UNL A   1      34.692  23.821  23.659  1.00  0.00    -0.356 N 
ATOM      3  O   UNL A   1      33.840  23.355  21.585  1.00  0.00    -0.275 OA
ATOM      4  C   UNL A   1      33.717  23.919  22.669  1.00  0.00     0.222 C 
ATOM      5  H   UNL A   1      34.582  24.383  24.461  1.00  0.00     0.163 HD
BRANCH   4   6
ATOM      6  C   UNL A   1      32.446  24.751  22.990  1.00  0.00     0.128 C 
BRANCH   6   7
ATOM      7  C   UNL A   1      31.509  24.399  24.198  1.00  0.00     0.049 C 
ATOM      8  C   UNL A   1      31.366  22.812  24.334  1.00  0.00     0.029 C 
ATOM      9  C   UNL A   1      31.924  24.292  25.729  1.00  0.00     0.029 C 
ATOM     10  C   UNL A   1      31.106  23.001  25.837  1.00  0.00     0.005 C 
BRANCH   7  11
ATOM     11  N   UNL A   1      30.113  24.965  24.058  1.00  0.00    -0.349 N 
ATOM     12  C   UNL A   1      29.621  26.249  24.190  1.00  0.00     0.231 C 
ATOM     13  H   UNL A   1      29.429  24.295  23.831  1.00  0.00     0.164 HD
ATOM     14  O   UNL A   1      28.427  26.431  24.351  1.00  0.00    -0.274 OA
BRANCH  12  15
ATOM     15  C   UNL A   1      30.553  27.412  23.973  1.00  0.00     0.074 C 
ATOM     16  C   UNL A   1      30.593  27.784  22.466  1.00  0.00     0.023 C 
ATOM     17  C   UNL A   1      29.969  28.735  23.398  1.00  0.00     0.023 C 
BRANCH  15  18
ATOM     18  C   UNL A   1      31.543  27.684  25.142  1.00  0.00    -0.032 A 
ATOM     19  C   UNL A   1      31.172  27.826  26.488  1.00  0.00     0.005 A 
ATOM     20  C   UNL A   1      32.897  27.969  24.906  1.00  0.00     0.005 A 
ATOM     21  C   UNL A   1      32.022  28.196  27.534  1.00  0.00     0.000 A 
ATOM     22  C   UNL A   1      33.780  28.343  25.937  1.00  0.00     0.000 A 
ATOM     23  C   UNL A   1      33.342  28.459  27.252  1.00  0.00     0.000 A 
ENDBRANCH  15  18
ENDBRANCH  12  15
ENDBRANCH   7  11
ENDBRANCH   6   7
ENDBRANCH   4   6
ENDBRANCH   1   2
BRANCH   1  24
ATOM     24  C   UNL A   1      35.764  21.563  24.310  1.00  0.00     0.042 C 
BRANCH  24  25
ATOM     25  C   UNL A   1      36.522  21.243  25.624  1.00  0.00     0.118 C 
BRANCH  25  26
ATOM     26  N   UNL A   1      37.777  20.519  25.483  1.00  0.00    -0.352 N 
ATOM     27  C   UNL A   1      39.066  20.801  25.903  1.00  0.00     0.251 C 
ATOM     28  H   UNL A   1      37.693  19.667  24.997  1.00  0.00     0.163 HD
ATOM     29  O   UNL A   1      39.937  19.951  25.700  1.00  0.00    -0.269 OA
BRANCH  27  30
ATOM     30  C   UNL A   1      39.474  22.093  26.528  1.00  0.00     0.039 A 
ATOM     31  C   UNL A   1      40.491  22.058  27.498  1.00  0.00     0.014 A 
ATOM     32  C   UNL A   1      38.875  23.321  26.240  1.00  0.00     0.014 A 
ATOM     33  C   UNL A   1      40.990  23.242  28.067  1.00  0.00     0.010 A 
ATOM     34  C   UNL A   1      39.397  24.511  26.786  1.00  0.00     0.010 A 
ATOM     35  C   UNL A   1      40.497  24.491  27.663  1.00  0.00    -0.014 A 
BRANCH  35  36
ATOM     36  C   UNL A   1      41.216  25.757  28.018  1.00  0.00     0.031 A 
ATOM     37  C   UNL A   1      40.535  26.901  28.722  1.00  0.00     0.074 A 
ATOM     38  C   UNL A   1      42.498  25.908  27.620  1.00  0.00     0.049 A 
ATOM     39  N   UNL A   1      40.995  28.100  28.991  1.00  0.00    -0.248 NA
ATOM     40  C   UNL A   1      39.156  26.673  29.171  1.00  0.00     0.031 C 
ATOM     41  C   UNL A   1      43.284  24.892  26.915  1.00  0.00     0.029 A 
ATOM     42  N   UNL A   1      43.362  26.973  27.727  1.00  0.00    -0.354 N 
ATOM     43  C   UNL A   1      39.963  28.778  29.633  1.00  0.00     0.074 A 
ATOM     44  C   UNL A   1      38.841  27.859  29.678  1.00  0.00     0.031 C 
ATOM     45  C   UNL A   1      44.508  25.379  26.660  1.00  0.00     0.029 A 
ATOM     46  C   UNL A   1      44.585  26.758  27.130  1.00  0.00     0.049 A 
ATOM     47  H   UNL A   1      43.129  27.811  28.190  1.00  0.00     0.167 HD
ATOM     48  C   UNL A   1      39.954  30.039  30.141  1.00  0.00     0.034 A 
ATOM     49  C   UNL A   1      45.642  27.575  26.947  1.00  0.00     0.034 A 
ATOM     50  C   UNL A   1      41.076  30.954  30.089  1.00  0.00     0.049 A 
ATOM     51  C   UNL A   1      45.587  28.988  27.469  1.00  0.00     0.074 A 
ATOM     52  C   UNL A   1      41.171  32.232  30.619  1.00  0.00     0.029 A 
ATOM     53  N   UNL A   1      42.289  30.702  29.461  1.00  0.00    -0.354 N 
ATOM     54  N   UNL A   1      44.611  29.597  28.101  1.00  0.00    -0.248 NA
ATOM     55  C   UNL A   1      46.778  29.821  27.256  1.00  0.00     0.031 C 
ATOM     56  C   UNL A   1      42.407  32.777  30.250  1.00  0.00     0.029 A 
ATOM     57  C   UNL A   1      43.120  31.813  29.559  1.00  0.00     0.049 A 
ATOM     58  H   UNL A   1      42.526  29.860  29.012  1.00  0.00     0.167 HD
ATOM     59  C   UNL A   1      45.088  30.874  28.390  1.00  0.00     0.074 A 
ATOM     60  C   UNL A   1      46.440  30.942  27.874  1.00  0.00     0.031 C 
ATOM     61  C   UNL A   1      44.462  31.893  29.033  1.00  0.00     0.034 A 
BRANCH  48  62
ATOM     62  C   UNL A   1      38.670  30.526  30.773  1.00  0.00     0.023 A 
ATOM     63  C   UNL A   1      37.641  31.104  30.010  1.00  0.00     0.031 A 
ATOM     64  C   UNL A   1      38.469  30.412  32.162  1.00  0.00     0.131 A 
ATOM     65  C   UNL A   1      36.494  31.608  30.642  1.00  0.00     0.055 A 
ATOM     66  C   UNL A   1      37.292  30.844  32.777  1.00  0.00     0.041 A 
ATOM     67  F   UNL A   1      39.419  29.881  32.949  1.00  0.00    -0.206 F 
ATOM     68  C   UNL A   1      36.301  31.460  32.018  1.00  0.00     0.022 A 
BRANCH  65  69
ATOM     69  S   UNL A   1      35.322  32.585  29.662  1.00  0.00     0.124 S 
ATOM     70  O   UNL A   1      34.319  32.936  30.665  1.00  0.00    -0.237 OA
ATOM     71  O   UNL A   1      36.153  33.680  29.177  1.00  0.00    -0.237 OA
ATOM     72  O   UNL A   1      34.865  31.647  28.638  1.00  0.00    -0.744 OA
ENDBRANCH  65  69
ENDBRANCH  48  62
BRANCH  49  73
ATOM     73  C   UNL A   1      46.845  27.094  26.206  1.00  0.00     0.023 A 
ATOM     74  C   UNL A   1      47.889  26.434  26.873  1.00  0.00     0.031 A 
ATOM     75  C   UNL A   1      46.988  27.332  24.828  1.00  0.00     0.131 A 
ATOM     76  C   UNL A   1      49.049  26.074  26.171  1.00  0.00     0.055 A 
ATOM     77  C   UNL A   1      48.120  26.923  24.122  1.00  0.00     0.041 A 
ATOM     78  F   UNL A   1      46.018  27.959  24.142  1.00  0.00    -0.206 F 
ATOM     79  C   UNL A   1      49.166  26.301  24.797  1.00  0.00     0.022 A 
BRANCH  76  80
ATOM     80  S   UNL A   1      50.445  25.382  27.098  1.00  0.00     0.124 S 
ATOM     81  O   UNL A   1      50.837  26.512  27.932  1.00  0.00    -0.237 OA
ATOM     82  O   UNL A   1      49.821  24.259  27.791  1.00  0.00    -0.237 OA
ATOM     83  O   UNL A   1      51.399  25.015  26.054  1.00  0.00    -0.744 OA
ENDBRANCH  76  80
ENDBRANCH  49  73
BRANCH  61  84
ATOM     84  C   UNL A   1      45.259  33.158  29.257  1.00  0.00     0.023 A 
ATOM     85  C   UNL A   1      45.265  34.211  28.325  1.00  0.00     0.031 A 
ATOM     86  C   UNL A   1      46.045  33.300  30.415  1.00  0.00     0.131 A 
ATOM     87  C   UNL A   1      46.080  35.334  28.540  1.00  0.00     0.055 A 
ATOM     88  C   UNL A   1      46.809  34.444  30.653  1.00  0.00     0.041 A 
ATOM     89  F   UNL A   1      46.085  32.325  31.338  1.00  0.00    -0.206 F 
ATOM     90  C   UNL A   1      46.840  35.464  29.706  1.00  0.00     0.022 A 
BRANCH  87  91
ATOM     91  S   UNL A   1      46.207  36.587  27.233  1.00  0.00     0.124 S 
ATOM     92  O   UNL A   1      44.856  37.137  27.209  1.00  0.00    -0.237 OA
ATOM     93  O   UNL A   1      47.247  37.471  27.748  1.00  0.00    -0.237 OA
ATOM     94  O   UNL A   1      46.583  35.814  26.050  1.00  0.00    -0.744 OA
ENDBRANCH  87  91
ENDBRANCH  61  84
ENDBRANCH  35  36
ENDBRANCH  27  30
ENDBRANCH  25  26
ENDBRANCH  24  25
ENDBRANCH   1  24
TORSDOF 17
ENDMDL
MODEL 2
REMARK VINA RESULT:     -12.0      4.925      9.777
REMARK SMILES O=C(CC1(NC(=O)C2(c3ccccc3)CC2)CCC1)NCCCNC(=O)c1ccc(-c2c3nc(c(-c4cc(S(=O)(=O)[O-])ccc4F)c4ccc([nH]4)c(-c4cc(S(=O)(=O)[O-])ccc4F)c4nc(c(-c5cc(S(=O)(=O)[O-])ccc5F)c5ccc2[nH]5)C=C4)C=C3)cc1
REMARK SMILES IDX 21 1 20 2 1 3 2 4 3 6 4 7 17 8 19 9 18 10 5 11 6 12 7 14
REMARK SMILES IDX 8 15 15 16 16 17 9 18 10 19 14 20 11 21 13 22 12 23 22 24
REMARK SMILES IDX 23 25 24 26 25 27 26 29 27 30 28 31 89 32 29 33 88 34 30 35
REMARK SMILES IDX 31 36 32 37 82 38 33 39 87 40 81 41 83 42 34 43 86 44 80 45
REMARK SMILES IDX 79 46 35 48 67 49 47 50 66 51 48 52 51 53 65 54 84 55 49 56
REMARK SMILES IDX 50 57 64 59 85 60 52 61 36 62 37 63 45 64 38 65 44 66 46 67
REMARK SMILES IDX 43 68 39 69 40 70 41 71 42 72 68 73 69 74 77 75 70 76 76 77
REMARK SMILES IDX 78 78 75 79 71 80 72 81 73 82 74 83 53 84 54 85 62 86 55 87
REMARK SMILES IDX 61 88 63 89 60 90 56 91 57 92 58 93 59 94
REMARK H PARENT 20 5 5 13 24 28 83 47 51 58
REMARK Flexibility Score: inf
ROOT
ATOM      1  C   UNL A   1      31.275  27.846  27.096  1.00  0.00     0.117 C 
ENDROOT
BRANCH   1   2
ATOM      2  N   UNL A   1      31.081  27.010  25.901  1.00  0.00    -0.356 N 
ATOM      3  O   UNL A   1      31.456  24.967  26.865  1.00  0.00    -0.275 OA
ATOM      4  C   UNL A   1      31.121  25.618  25.879  1.00  0.00     0.222 C 
ATOM      5  H   UNL A   1      30.908  27.473  25.049  1.00  0.00     0.163 HD
BRANCH   4   6
ATOM      6  C   UNL A   1      30.703  24.907  24.563  1.00  0.00     0.128 C 
BRANCH   6   7
ATOM      7  C   UNL A   1      31.692  24.754  23.356  1.00  0.00     0.049 C 
ATOM      8  C   UNL A   1      31.370  25.855  22.242  1.00  0.00     0.029 C 
ATOM      9  C   UNL A   1      33.160  25.355  23.241  1.00  0.00     0.029 C 
ATOM     10  C   UNL A   1      32.843  25.792  21.806  1.00  0.00     0.005 C 
BRANCH   7  11
ATOM     11  N   UNL A   1      31.612  23.400  22.685  1.00  0.00    -0.349 N 
ATOM     12  C   UNL A   1      32.267  22.209  22.929  1.00  0.00     0.231 C 
ATOM     13  H   UNL A   1      30.977  23.361  21.935  1.00  0.00     0.164 HD
ATOM     14  O   UNL A   1      32.292  21.340  22.075  1.00  0.00    -0.274 OA
BRANCH  12  15
ATOM     15  C   UNL A   1      32.804  21.943  24.311  1.00  0.00     0.074 C 
ATOM     16  C   UNL A   1      31.637  21.605  25.277  1.00  0.00     0.023 C 
ATOM     17  C   UNL A   1      32.587  20.536  24.936  1.00  0.00     0.023 C 
BRANCH  15  18
ATOM     18  C   UNL A   1      34.249  22.464  24.562  1.00  0.00    -0.032 A 
ATOM     19  C   UNL A   1      34.675  23.111  25.733  1.00  0.00     0.005 A 
ATOM     20  C   UNL A   1      35.217  22.463  23.546  1.00  0.00     0.005 A 
ATOM     21  C   UNL A   1      35.927  23.699  25.931  1.00  0.00     0.000 A 
ATOM     22  C   UNL A   1      36.487  23.047  23.713  1.00  0.00     0.000 A 
ATOM     23  C   UNL A   1      36.842  23.667  24.906  1.00  0.00     0.000 A 
ENDBRANCH  15  18
ENDBRANCH  12  15
ENDBRANCH   7  11
ENDBRANCH   6   7
ENDBRANCH   4   6
ENDBRANCH   1   2
BRANCH   1  24
ATOM     24  C   UNL A   1      32.566  28.717  27.148  1.00  0.00     0.042 C 
BRANCH  24  25
ATOM     25  C   UNL A   1      32.741  29.986  26.274  1.00  0.00     0.118 C 
BRANCH  25  26
ATOM     26  N   UNL A   1      32.734  31.260  26.980  1.00  0.00    -0.352 N 
ATOM     27  C   UNL A   1      33.713  31.937  27.687  1.00  0.00     0.251 C 
ATOM     28  H   UNL A   1      31.869  31.728  26.947  1.00  0.00     0.163 HD
ATOM     29  O   UNL A   1      33.437  33.056  28.127  1.00  0.00    -0.269 OA
BRANCH  27  30
ATOM     30  C   UNL A   1      35.057  31.369  28.001  1.00  0.00     0.039 A 
ATOM     31  C   UNL A   1      36.141  32.260  28.080  1.00  0.00     0.014 A 
ATOM     32  C   UNL A   1      35.305  30.006  28.173  1.00  0.00     0.014 A 
ATOM     33  C   UNL A   1      37.419  31.814  28.457  1.00  0.00     0.010 A 
ATOM     34  C   UNL A   1      36.579  29.563  28.583  1.00  0.00     0.010 A 
ATOM     35  C   UNL A   1      37.637  30.468  28.784  1.00  0.00    -0.014 A 
BRANCH  35  36
ATOM     36  C   UNL A   1      38.893  30.035  29.477  1.00  0.00     0.031 A 
ATOM     37  C   UNL A   1      39.797  28.967  28.919  1.00  0.00     0.074 A 
ATOM     38  C   UNL A   1      39.181  30.563  30.686  1.00  0.00     0.049 A 
ATOM     39  N   UNL A   1      40.852  28.408  29.460  1.00  0.00    -0.248 NA
ATOM     40  C   UNL A   1      39.464  28.454  27.584  1.00  0.00     0.031 C 
ATOM     41  C   UNL A   1      38.391  31.596  31.362  1.00  0.00     0.029 A 
ATOM     42  N   UNL A   1      40.198  30.298  31.574  1.00  0.00    -0.354 N 
ATOM     43  C   UNL A   1      41.310  27.469  28.542  1.00  0.00     0.074 A 
ATOM     44  C   UNL A   1      40.389  27.514  27.422  1.00  0.00     0.031 C 
ATOM     45  C   UNL A   1      38.952  31.878  32.548  1.00  0.00     0.029 A 
ATOM     46  C   UNL A   1      40.110  31.013  32.749  1.00  0.00     0.049 A 
ATOM     47  H   UNL A   1      40.924  29.658  31.387  1.00  0.00     0.167 HD
ATOM     48  C   UNL A   1      42.395  26.653  28.620  1.00  0.00     0.034 A 
ATOM     49  C   UNL A   1      40.849  30.966  33.876  1.00  0.00     0.034 A 
ATOM     50  C   UNL A   1      43.310  26.608  29.742  1.00  0.00     0.049 A 
ATOM     51  C   UNL A   1      42.013  30.013  33.963  1.00  0.00     0.074 A 
ATOM     52  C   UNL A   1      44.460  25.848  29.887  1.00  0.00     0.029 A 
ATOM     53  N   UNL A   1      43.175  27.336  30.918  1.00  0.00    -0.354 N 
ATOM     54  N   UNL A   1      42.446  29.156  33.068  1.00  0.00    -0.248 NA
ATOM     55  C   UNL A   1      42.791  30.026  35.209  1.00  0.00     0.031 C 
ATOM     56  C   UNL A   1      44.977  26.060  31.171  1.00  0.00     0.029 A 
ATOM     57  C   UNL A   1      44.198  27.014  31.802  1.00  0.00     0.049 A 
ATOM     58  H   UNL A   1      42.459  27.986  31.099  1.00  0.00     0.167 HD
ATOM     59  C   UNL A   1      43.567  28.554  33.634  1.00  0.00     0.074 A 
ATOM     60  C   UNL A   1      43.750  29.154  34.939  1.00  0.00     0.031 C 
ATOM     61  C   UNL A   1      44.376  27.596  33.112  1.00  0.00     0.034 A 
BRANCH  48  62
ATOM     62  C   UNL A   1      42.640  25.706  27.467  1.00  0.00     0.023 A 
ATOM     63  C   UNL A   1      42.029  24.442  27.403  1.00  0.00     0.031 A 
ATOM     64  C   UNL A   1      43.499  26.072  26.412  1.00  0.00     0.131 A 
ATOM     65  C   UNL A   1      42.337  23.564  26.353  1.00  0.00     0.055 A 
ATOM     66  C   UNL A   1      43.740  25.225  25.329  1.00  0.00     0.041 A 
ATOM     67  F   UNL A   1      44.123  27.261  26.420  1.00  0.00    -0.206 F 
ATOM     68  C   UNL A   1      43.170  23.956  25.302  1.00  0.00     0.022 A 
BRANCH  65  69
ATOM     69  S   UNL A   1      41.745  21.853  26.452  1.00  0.00     0.124 S 
ATOM     70  O   UNL A   1      40.336  22.007  26.097  1.00  0.00    -0.237 OA
ATOM     71  O   UNL A   1      42.581  21.173  25.471  1.00  0.00    -0.237 OA
ATOM     72  O   UNL A   1      41.992  21.485  27.846  1.00  0.00    -0.744 OA
ENDBRANCH  65  69
ENDBRANCH  48  62
BRANCH  49  73
ATOM     73  C   UNL A   1      40.497  31.830  35.041  1.00  0.00     0.023 A 
ATOM     74  C   UNL A   1      39.485  31.457  35.940  1.00  0.00     0.031 A 
ATOM     75  C   UNL A   1      41.137  33.066  35.245  1.00  0.00     0.131 A 
ATOM     76  C   UNL A   1      39.111  32.330  36.972  1.00  0.00     0.055 A 
ATOM     77  C   UNL A   1      40.800  33.906  36.307  1.00  0.00     0.041 A 
ATOM     78  F   UNL A   1      42.113  33.470  34.415  1.00  0.00    -0.206 F 
ATOM     79  C   UNL A   1      39.771  33.545  37.171  1.00  0.00     0.022 A 
BRANCH  76  80
ATOM     80  S   UNL A   1      37.685  31.892  38.004  1.00  0.00     0.124 S 
ATOM     81  O   UNL A   1      36.698  32.878  37.579  1.00  0.00    -0.237 OA
ATOM     82  O   UNL A   1      37.431  30.513  37.600  1.00  0.00    -0.237 OA
ATOM     83  O   UNL A   1      38.187  32.057  39.366  1.00  0.00    -0.744 OA
ENDBRANCH  76  80
ENDBRANCH  49  73
BRANCH  61  84
ATOM     84  C   UNL A   1      45.566  27.173  33.942  1.00  0.00     0.023 A 
ATOM     85  C   UNL A   1      45.511  26.074  34.819  1.00  0.00     0.031 A 
ATOM     86  C   UNL A   1      46.770  27.898  33.871  1.00  0.00     0.131 A 
ATOM     87  C   UNL A   1      46.618  25.766  35.627  1.00  0.00     0.055 A 
ATOM     88  C   UNL A   1      47.886  27.551  34.633  1.00  0.00     0.041 A 
ATOM     89  F   UNL A   1      46.880  28.960  33.057  1.00  0.00    -0.206 F 
ATOM     90  C   UNL A   1      47.810  26.488  35.528  1.00  0.00     0.022 A 
BRANCH  87  91
ATOM     91  S   UNL A   1      46.451  24.462  36.879  1.00  0.00     0.124 S 
ATOM     92  O   UNL A   1      46.146  25.232  38.080  1.00  0.00    -0.237 OA
ATOM     93  O   UNL A   1      45.360  23.654  36.344  1.00  0.00    -0.237 OA
ATOM     94  O   UNL A   1      47.761  23.813  36.876  1.00  0.00    -0.744 OA
ENDBRANCH  87  91
ENDBRANCH  61  84
ENDBRANCH  35  36
ENDBRANCH  27  30
ENDBRANCH  25  26
ENDBRANCH  24  25
ENDBRANCH   1  24
TORSDOF 17
ENDMDL
MODEL 3
REMARK VINA RESULT:     -11.9      5.063     10.099
REMARK SMILES O=C(CC1(NC(=O)C2(c3ccccc3)CC2)CCC1)NCCCNC(=O)c1ccc(-c2c3nc(c(-c4cc(S(=O)(=O)[O-])ccc4F)c4ccc([nH]4)c(-c4cc(S(=O)(=O)[O-])ccc4F)c4nc(c(-c5cc(S(=O)(=O)[O-])ccc5F)c5ccc2[nH]5)C=C4)C=C3)cc1
REMARK SMILES IDX 21 1 20 2 1 3 2 4 3 6 4 7 17 8 19 9 18 10 5 11 6 12 7 14
REMARK SMILES IDX 8 15 15 16 16 17 9 18 10 19 14 20 11 21 13 22 12 23 22 24
REMARK SMILES IDX 23 25 24 26 25 27 26 29 27 30 28 31 89 32 29 33 88 34 30 35
REMARK SMILES IDX 31 36 32 37 82 38 33 39 87 40 81 41 83 42 34 43 86 44 80 45
REMARK SMILES IDX 79 46 35 48 67 49 47 50 66 51 48 52 51 53 65 54 84 55 49 56
REMARK SMILES IDX 50 57 64 59 85 60 52 61 36 62 37 63 45 64 38 65 44 66 46 67
REMARK SMILES IDX 43 68 39 69 40 70 41 71 42 72 68 73 69 74 77 75 70 76 76 77
REMARK SMILES IDX 78 78 75 79 71 80 72 81 73 82 74 83 53 84 54 85 62 86 55 87
REMARK SMILES IDX 61 88 63 89 60 90 56 91 57 92 58 93 59 94
REMARK H PARENT 20 5 5 13 24 28 83 47 51 58
REMARK Flexibility Score: inf
ROOT
ATOM      1  C   UNL A   1      32.797  29.253  24.544  1.00  0.00     0.117 C 
ENDROOT
BRANCH   1   2
ATOM      2  N   UNL A   1      32.426  27.869  24.216  1.00  0.00    -0.356 N 
ATOM      3  O   UNL A   1      33.343  26.839  26.045  1.00  0.00    -0.275 OA
ATOM      4  C   UNL A   1      32.668  26.758  25.022  1.00  0.00     0.222 C 
ATOM      5  H   UNL A   1      31.969  27.714  23.356  1.00  0.00     0.163 HD
BRANCH   4   6
ATOM      6  C   UNL A   1      32.033  25.407  24.594  1.00  0.00     0.128 C 
BRANCH   6   7
ATOM      7  C   UNL A   1      31.776  24.251  25.623  1.00  0.00     0.049 C 
ATOM      8  C   UNL A   1      30.584  24.653  26.610  1.00  0.00     0.029 C 
ATOM      9  C   UNL A   1      30.885  22.953  25.398  1.00  0.00     0.029 C 
ATOM     10  C   UNL A   1      30.277  23.158  26.790  1.00  0.00     0.005 C 
BRANCH   7  11
ATOM     11  N   UNL A   1      32.981  23.934  26.481  1.00  0.00    -0.349 N 
ATOM     12  C   UNL A   1      34.064  23.102  26.279  1.00  0.00     0.231 C 
ATOM     13  H   UNL A   1      32.995  24.408  27.343  1.00  0.00     0.164 HD
ATOM     14  O   UNL A   1      34.749  22.750  27.224  1.00  0.00    -0.274 OA
BRANCH  12  15
ATOM     15  C   UNL A   1      34.475  22.770  24.868  1.00  0.00     0.074 C 
ATOM     16  C   UNL A   1      35.166  23.997  24.215  1.00  0.00     0.023 C 
ATOM     17  C   UNL A   1      35.986  22.812  24.504  1.00  0.00     0.023 C 
BRANCH  15  18
ATOM     18  C   UNL A   1      33.773  21.522  24.259  1.00  0.00    -0.032 A 
ATOM     19  C   UNL A   1      32.890  21.552  23.168  1.00  0.00     0.005 A 
ATOM     20  C   UNL A   1      33.855  20.262  24.872  1.00  0.00     0.005 A 
ATOM     21  C   UNL A   1      32.152  20.468  22.686  1.00  0.00     0.000 A 
ATOM     22  C   UNL A   1      33.125  19.150  24.411  1.00  0.00     0.000 A 
ATOM     23  C   UNL A   1      32.271  19.253  23.318  1.00  0.00     0.000 A 
ENDBRANCH  15  18
ENDBRANCH  12  15
ENDBRANCH   7  11
ENDBRANCH   6   7
ENDBRANCH   4   6
ENDBRANCH   1   2
BRANCH   1  24
ATOM     24  C   UNL A   1      31.769  30.085  25.367  1.00  0.00     0.042 C 
BRANCH  24  25
ATOM     25  C   UNL A   1      31.988  30.421  26.865  1.00  0.00     0.118 C 
BRANCH  25  26
ATOM     26  N   UNL A   1      32.162  31.829  27.190  1.00  0.00    -0.352 N 
ATOM     27  C   UNL A   1      33.258  32.555  27.624  1.00  0.00     0.251 C 
ATOM     28  H   UNL A   1      31.345  32.368  27.081  1.00  0.00     0.163 HD
ATOM     29  O   UNL A   1      33.127  33.775  27.753  1.00  0.00    -0.269 OA
BRANCH  27  30
ATOM     30  C   UNL A   1      34.565  31.943  28.003  1.00  0.00     0.039 A 
ATOM     31  C   UNL A   1      35.692  32.782  28.049  1.00  0.00     0.014 A 
ATOM     32  C   UNL A   1      34.741  30.583  28.268  1.00  0.00     0.014 A 
ATOM     33  C   UNL A   1      36.938  32.299  28.482  1.00  0.00     0.010 A 
ATOM     34  C   UNL A   1      35.982  30.105  28.733  1.00  0.00     0.010 A 
ATOM     35  C   UNL A   1      37.081  30.967  28.899  1.00  0.00    -0.014 A 
BRANCH  35  36
ATOM     36  C   UNL A   1      38.300  30.519  29.646  1.00  0.00     0.031 A 
ATOM     37  C   UNL A   1      39.236  29.469  29.108  1.00  0.00     0.074 A 
ATOM     38  C   UNL A   1      38.522  31.015  30.883  1.00  0.00     0.049 A 
ATOM     39  N   UNL A   1      40.264  28.898  29.689  1.00  0.00    -0.248 NA
ATOM     40  C   UNL A   1      38.977  28.991  27.744  1.00  0.00     0.031 C 
ATOM     41  C   UNL A   1      37.693  32.027  31.543  1.00  0.00     0.029 A 
ATOM     42  N   UNL A   1      39.491  30.728  31.816  1.00  0.00    -0.354 N 
ATOM     43  C   UNL A   1      40.773  27.985  28.771  1.00  0.00     0.074 A 
ATOM     44  C   UNL A   1      39.912  28.059  27.605  1.00  0.00     0.031 C 
ATOM     45  C   UNL A   1      38.189  32.278  32.764  1.00  0.00     0.029 A 
ATOM     46  C   UNL A   1      39.338  31.410  33.003  1.00  0.00     0.049 A 
ATOM     47  H   UNL A   1      40.228  30.095  31.650  1.00  0.00     0.167 HD
ATOM     48  C   UNL A   1      41.856  27.170  28.885  1.00  0.00     0.034 A 
ATOM     49  C   UNL A   1      40.016  31.335  34.166  1.00  0.00     0.034 A 
ATOM     50  C   UNL A   1      42.709  27.097  30.053  1.00  0.00     0.049 A 
ATOM     51  C   UNL A   1      41.178  30.383  34.289  1.00  0.00     0.074 A 
ATOM     52  C   UNL A   1      43.854  26.335  30.238  1.00  0.00     0.029 A 
ATOM     53  N   UNL A   1      42.510  27.792  31.239  1.00  0.00    -0.354 N 
ATOM     54  N   UNL A   1      41.661  29.551  33.395  1.00  0.00    -0.248 NA
ATOM     55  C   UNL A   1      41.888  30.363  35.574  1.00  0.00     0.031 C 
ATOM     56  C   UNL A   1      44.301  26.514  31.552  1.00  0.00     0.029 A 
ATOM     57  C   UNL A   1      43.486  27.449  32.167  1.00  0.00     0.049 A 
ATOM     58  H   UNL A   1      41.783  28.435  31.399  1.00  0.00     0.167 HD
ATOM     59  C   UNL A   1      42.753  28.937  34.003  1.00  0.00     0.074 A 
ATOM     60  C   UNL A   1      42.864  29.501  35.332  1.00  0.00     0.031 C 
ATOM     61  C   UNL A   1      43.592  27.995  33.500  1.00  0.00     0.034 A 
BRANCH  48  62
ATOM     62  C   UNL A   1      42.165  26.255  27.721  1.00  0.00     0.023 A 
ATOM     63  C   UNL A   1      41.676  24.939  27.663  1.00  0.00     0.031 A 
ATOM     64  C   UNL A   1      42.962  26.706  26.651  1.00  0.00     0.131 A 
ATOM     65  C   UNL A   1      42.044  24.099  26.601  1.00  0.00     0.055 A 
ATOM     66  C   UNL A   1      43.260  25.890  25.557  1.00  0.00     0.041 A 
ATOM     67  F   UNL A   1      43.470  27.949  26.653  1.00  0.00    -0.206 F 
ATOM     68  C   UNL A   1      42.813  24.572  25.535  1.00  0.00     0.022 A 
BRANCH  65  69
ATOM     69  S   UNL A   1      41.621  22.338  26.703  1.00  0.00     0.124 S 
ATOM     70  O   UNL A   1      42.498  21.886  27.782  1.00  0.00    -0.237 OA
ATOM     71  O   UNL A   1      40.197  22.373  27.008  1.00  0.00    -0.237 OA
ATOM     72  O   UNL A   1      41.963  21.825  25.377  1.00  0.00    -0.744 OA
ENDBRANCH  65  69
ENDBRANCH  48  62
BRANCH  49  73
ATOM     73  C   UNL A   1      39.600  32.165  35.334  1.00  0.00     0.023 A 
ATOM     74  C   UNL A   1      38.824  31.622  36.370  1.00  0.00     0.031 A 
ATOM     75  C   UNL A   1      39.933  33.530  35.406  1.00  0.00     0.131 A 
ATOM     76  C   UNL A   1      38.368  32.447  37.409  1.00  0.00     0.055 A 
ATOM     77  C   UNL A   1      39.524  34.335  36.471  1.00  0.00     0.041 A 
ATOM     78  F   UNL A   1      40.674  34.100  34.442  1.00  0.00    -0.206 F 
ATOM     79  C   UNL A   1      38.725  33.795  37.474  1.00  0.00     0.022 A 
BRANCH  76  80
ATOM     80  S   UNL A   1      37.227  31.749  38.633  1.00  0.00     0.124 S 
ATOM     81  O   UNL A   1      36.085  32.649  38.520  1.00  0.00    -0.237 OA
ATOM     82  O   UNL A   1      37.030  30.395  38.126  1.00  0.00    -0.237 OA
ATOM     83  O   UNL A   1      37.973  31.841  39.886  1.00  0.00    -0.744 OA
ENDBRANCH  76  80
ENDBRANCH  49  73
BRANCH  61  84
ATOM     84  C   UNL A   1      44.738  27.552  34.380  1.00  0.00     0.023 A 
ATOM     85  C   UNL A   1      44.631  26.447  35.244  1.00  0.00     0.031 A 
ATOM     86  C   UNL A   1      45.951  28.265  34.370  1.00  0.00     0.131 A 
ATOM     87  C   UNL A   1      45.696  26.121  36.099  1.00  0.00     0.055 A 
ATOM     88  C   UNL A   1      47.028  27.900  35.180  1.00  0.00     0.041 A 
ATOM     89  F   UNL A   1      46.110  29.332  33.571  1.00  0.00    -0.206 F 
ATOM     90  C   UNL A   1      46.899  26.830  36.061  1.00  0.00     0.022 A 
BRANCH  87  91
ATOM     91  S   UNL A   1      45.458  24.808  37.331  1.00  0.00     0.124 S 
ATOM     92  O   UNL A   1      45.467  23.609  36.501  1.00  0.00    -0.237 OA
ATOM     93  O   UNL A   1      46.612  24.988  38.205  1.00  0.00    -0.237 OA
ATOM     94  O   UNL A   1      44.167  25.133  37.936  1.00  0.00    -0.744 OA
ENDBRANCH  87  91
ENDBRANCH  61  84
ENDBRANCH  35  36
ENDBRANCH  27  30
ENDBRANCH  25  26
ENDBRANCH  24  25
ENDBRANCH   1  24
TORSDOF 17
ENDMDL
