MODEL 1
REMARK VINA RESULT:     -12.1      0.000      0.000
REMARK SMILES O=C(NCCCNC(=O)C1CCN(c2ccnnc2)CC1)c1ccc(-c2c3nc(c(-c4cc(S(=O)(=O)[O-])ccc4F)c4ccc([nH]4)c(-c4cc(S(=O)(=O)[O-])ccc4F)c4nc(c(-c5cc(S(=O)(=O)[O-])ccc5F)c5ccc2[nH]5)C=C4)C=C3)cc1
REMARK SMILES IDX 4 1 3 2 1 3 2 4 22 6 23 7 84 8 24 9 83 10 25 11 26 12 27 13
REMARK SMILES IDX 77 14 28 15 82 16 76 17 78 18 29 19 81 20 75 21 74 22 30 24
REMARK SMILES IDX 62 25 42 26 61 27 43 28 46 29 60 30 79 31 44 32 45 33 59 35
REMARK SMILES IDX 80 36 47 37 31 38 32 39 40 40 33 41 39 42 41 43 38 44 34 45
REMARK SMILES IDX 35 46 36 47 37 48 63 49 64 50 72 51 65 52 71 53 73 54 70 55
REMARK SMILES IDX 66 56 67 57 68 58 69 59 48 60 49 61 57 62 50 63 56 64 58 65
REMARK SMILES IDX 55 66 51 67 52 68 53 69 54 70 5 71 6 72 7 73 8 74 9 76 10 77
REMARK SMILES IDX 11 78 21 79 12 80 20 81 13 82 14 83 15 84 19 85 16 86 18 87
REMARK SMILES IDX 17 88
REMARK H PARENT 3 5 78 23 46 34 7 75
REMARK Flexibility Score: inf
ROOT
ATOM      1  C   UNL A   1      33.358  29.133  24.966  1.00  0.00     0.118 C 
ENDROOT
BRANCH   1   2
ATOM      2  N   UNL A   1      32.721  30.309  25.546  1.00  0.00    -0.352 N 
ATOM      3  O   UNL A   1      32.183  31.844  27.093  1.00  0.00    -0.269 OA
ATOM      4  C   UNL A   1      32.994  31.013  26.698  1.00  0.00     0.251 C 
ATOM      5  H   UNL A   1      31.966  30.664  25.023  1.00  0.00     0.163 HD
BRANCH   4   6
ATOM      6  C   UNL A   1      34.238  30.768  27.468  1.00  0.00     0.039 A 
ATOM      7  C   UNL A   1      34.518  29.509  27.989  1.00  0.00     0.014 A 
ATOM      8  C   UNL A   1      35.171  31.799  27.629  1.00  0.00     0.014 A 
ATOM      9  C   UNL A   1      35.605  29.329  28.832  1.00  0.00     0.010 A 
ATOM     10  C   UNL A   1      36.350  31.573  28.355  1.00  0.00     0.010 A 
ATOM     11  C   UNL A   1      36.564  30.340  28.990  1.00  0.00    -0.014 A 
BRANCH  11  12
ATOM     12  C   UNL A   1      37.806  30.023  29.747  1.00  0.00     0.031 A 
ATOM     13  C   UNL A   1      38.010  30.498  31.159  1.00  0.00     0.074 A 
ATOM     14  C   UNL A   1      38.727  29.229  29.160  1.00  0.00     0.049 A 
ATOM     15  N   UNL A   1      39.019  30.275  31.964  1.00  0.00    -0.248 NA
ATOM     16  C   UNL A   1      36.957  31.341  31.741  1.00  0.00     0.031 C 
ATOM     17  C   UNL A   1      38.639  28.718  27.786  1.00  0.00     0.029 A 
ATOM     18  N   UNL A   1      39.886  28.677  29.638  1.00  0.00    -0.354 N 
ATOM     19  C   UNL A   1      38.729  30.955  33.142  1.00  0.00     0.074 A 
ATOM     20  C   UNL A   1      37.468  31.634  32.929  1.00  0.00     0.031 C 
ATOM     21  C   UNL A   1      39.651  27.870  27.564  1.00  0.00     0.029 A 
ATOM     22  C   UNL A   1      40.516  27.850  28.734  1.00  0.00     0.049 A 
ATOM     23  H   UNL A   1      40.236  28.855  30.541  1.00  0.00     0.167 HD
ATOM     24  C   UNL A   1      39.446  30.997  34.294  1.00  0.00     0.034 A 
ATOM     25  C   UNL A   1      41.677  27.172  28.820  1.00  0.00     0.034 A 
ATOM     26  C   UNL A   1      40.705  30.316  34.485  1.00  0.00     0.049 A 
ATOM     27  C   UNL A   1      42.465  27.268  30.096  1.00  0.00     0.074 A 
ATOM     28  C   UNL A   1      41.520  30.303  35.604  1.00  0.00     0.029 A 
ATOM     29  N   UNL A   1      41.335  29.524  33.531  1.00  0.00    -0.354 N 
ATOM     30  N   UNL A   1      42.177  27.929  31.195  1.00  0.00    -0.248 NA
ATOM     31  C   UNL A   1      43.730  26.528  30.147  1.00  0.00     0.031 C 
ATOM     32  C   UNL A   1      42.666  29.554  35.309  1.00  0.00     0.029 A 
ATOM     33  C   UNL A   1      42.534  29.036  34.030  1.00  0.00     0.049 A 
ATOM     34  H   UNL A   1      40.981  29.337  32.631  1.00  0.00     0.167 HD
ATOM     35  C   UNL A   1      43.226  27.674  32.072  1.00  0.00     0.074 A 
ATOM     36  C   UNL A   1      44.129  26.770  31.387  1.00  0.00     0.031 C 
ATOM     37  C   UNL A   1      43.431  28.151  33.326  1.00  0.00     0.034 A 
BRANCH  24  38
ATOM     38  C   UNL A   1      38.896  31.839  35.422  1.00  0.00     0.023 A 
ATOM     39  C   UNL A   1      38.355  31.254  36.580  1.00  0.00     0.031 A 
ATOM     40  C   UNL A   1      38.895  33.243  35.334  1.00  0.00     0.131 A 
ATOM     41  C   UNL A   1      37.776  32.063  37.572  1.00  0.00     0.055 A 
ATOM     42  C   UNL A   1      38.389  34.046  36.359  1.00  0.00     0.041 A 
ATOM     43  F   UNL A   1      39.378  33.860  34.245  1.00  0.00    -0.206 F 
ATOM     44  C   UNL A   1      37.813  33.456  37.481  1.00  0.00     0.022 A 
BRANCH  41  45
ATOM     45  S   UNL A   1      36.856  31.260  38.912  1.00  0.00     0.124 S 
ATOM     46  O   UNL A   1      35.653  32.087  38.981  1.00  0.00    -0.237 OA
ATOM     47  O   UNL A   1      36.671  29.907  38.401  1.00  0.00    -0.237 OA
ATOM     48  O   UNL A   1      37.753  31.378  40.060  1.00  0.00    -0.744 OA
ENDBRANCH  41  45
ENDBRANCH  24  38
BRANCH  25  49
ATOM     49  C   UNL A   1      42.185  26.395  27.652  1.00  0.00     0.023 A 
ATOM     50  C   UNL A   1      41.839  25.050  27.464  1.00  0.00     0.031 A 
ATOM     51  C   UNL A   1      43.061  26.987  26.723  1.00  0.00     0.131 A 
ATOM     52  C   UNL A   1      42.403  24.326  26.401  1.00  0.00     0.055 A 
ATOM     53  C   UNL A   1      43.566  26.283  25.630  1.00  0.00     0.041 A 
ATOM     54  F   UNL A   1      43.426  28.273  26.853  1.00  0.00    -0.206 F 
ATOM     55  C   UNL A   1      43.249  24.938  25.473  1.00  0.00     0.022 A 
BRANCH  52  56
ATOM     56  S   UNL A   1      42.095  22.542  26.306  1.00  0.00     0.124 S 
ATOM     57  O   UNL A   1      42.655  22.211  25.002  1.00  0.00    -0.237 OA
ATOM     58  O   UNL A   1      42.829  22.047  27.466  1.00  0.00    -0.237 OA
ATOM     59  O   UNL A   1      40.640  22.443  26.404  1.00  0.00    -0.744 OA
ENDBRANCH  52  56
ENDBRANCH  25  49
BRANCH  37  60
ATOM     60  C   UNL A   1      44.671  27.665  34.034  1.00  0.00     0.023 A 
ATOM     61  C   UNL A   1      44.656  26.507  34.831  1.00  0.00     0.031 A 
ATOM     62  C   UNL A   1      45.867  28.396  33.949  1.00  0.00     0.131 A 
ATOM     63  C   UNL A   1      45.794  26.153  35.570  1.00  0.00     0.055 A 
ATOM     64  C   UNL A   1      47.017  28.003  34.636  1.00  0.00     0.041 A 
ATOM     65  F   UNL A   1      45.937  29.512  33.205  1.00  0.00    -0.206 F 
ATOM     66  C   UNL A   1      46.979  26.885  35.465  1.00  0.00     0.022 A 
BRANCH  63  67
ATOM     67  S   UNL A   1      45.669  24.789  36.758  1.00  0.00     0.124 S 
ATOM     68  O   UNL A   1      46.017  23.637  35.935  1.00  0.00    -0.237 OA
ATOM     69  O   UNL A   1      46.647  25.168  37.772  1.00  0.00    -0.237 OA
ATOM     70  O   UNL A   1      44.273  24.842  37.194  1.00  0.00    -0.744 OA
ENDBRANCH  63  67
ENDBRANCH  37  60
ENDBRANCH  11  12
ENDBRANCH   4   6
ENDBRANCH   1   2
BRANCH   1  71
ATOM     71  C   UNL A   1      33.205  29.079  23.456  1.00  0.00     0.042 C 
BRANCH  71  72
ATOM     72  C   UNL A   1      32.099  28.138  23.011  1.00  0.00     0.117 C 
BRANCH  72  73
ATOM     73  N   UNL A   1      32.539  27.210  21.993  1.00  0.00    -0.356 N 
ATOM     74  C   UNL A   1      33.014  25.945  22.052  1.00  0.00     0.223 C 
ATOM     75  H   UNL A   1      32.484  27.570  21.078  1.00  0.00     0.163 HD
ATOM     76  O   UNL A   1      33.279  25.419  20.963  1.00  0.00    -0.275 OA
BRANCH  74  77
ATOM     77  C   UNL A   1      33.271  25.164  23.342  1.00  0.00     0.082 C 
ATOM     78  C   UNL A   1      34.446  24.186  23.351  1.00  0.00     0.035 C 
ATOM     79  C   UNL A   1      32.002  24.640  24.000  1.00  0.00     0.035 C 
ATOM     80  C   UNL A   1      34.141  22.687  23.361  1.00  0.00     0.117 C 
ATOM     81  C   UNL A   1      31.682  23.202  23.650  1.00  0.00     0.117 C 
ATOM     82  N   UNL A   1      32.828  22.338  23.907  1.00  0.00    -0.370 N 
BRANCH  82  83
ATOM     83  C   UNL A   1      32.584  20.958  24.013  1.00  0.00     0.059 A 
ATOM     84  C   UNL A   1      32.374  20.128  22.914  1.00  0.00     0.049 A 
ATOM     85  C   UNL A   1      32.542  20.320  25.252  1.00  0.00     0.161 A 
ATOM     86  C   UNL A   1      32.157  18.774  23.118  1.00  0.00     0.138 A 
ATOM     87  N   UNL A   1      32.344  18.993  25.428  1.00  0.00    -0.157 NA
ATOM     88  N   UNL A   1      32.154  18.210  24.343  1.00  0.00    -0.159 NA
ENDBRANCH  82  83
ENDBRANCH  74  77
ENDBRANCH  72  73
ENDBRANCH  71  72
ENDBRANCH   1  71
TORSDOF 14
ENDMDL
MODEL 2
REMARK VINA RESULT:     -12.0      5.286     10.451
REMARK SMILES O=C(NCCCNC(=O)C1CCN(c2ccnnc2)CC1)c1ccc(-c2c3nc(c(-c4cc(S(=O)(=O)[O-])ccc4F)c4ccc([nH]4)c(-c4cc(S(=O)(=O)[O-])ccc4F)c4nc(c(-c5cc(S(=O)(=O)[O-])ccc5F)c5ccc2[nH]5)C=C4)C=C3)cc1
REMARK SMILES IDX 4 1 3 2 1 3 2 4 22 6 23 7 84 8 24 9 83 10 25 11 26 12 27 13
REMARK SMILES IDX 77 14 28 15 82 16 76 17 78 18 29 19 81 20 75 21 74 22 30 24
REMARK SMILES IDX 62 25 42 26 61 27 43 28 46 29 60 30 79 31 44 32 45 33 59 35
REMARK SMILES IDX 80 36 47 37 31 38 32 39 40 40 33 41 39 42 41 43 38 44 34 45
REMARK SMILES IDX 35 46 36 47 37 48 63 49 64 50 72 51 65 52 71 53 73 54 70 55
REMARK SMILES IDX 66 56 67 57 68 58 69 59 48 60 49 61 57 62 50 63 56 64 58 65
REMARK SMILES IDX 55 66 51 67 52 68 53 69 54 70 5 71 6 72 7 73 8 74 9 76 10 77
REMARK SMILES IDX 11 78 21 79 12 80 20 81 13 82 14 83 15 84 19 85 16 86 18 87
REMARK SMILES IDX 17 88
REMARK H PARENT 3 5 78 23 46 34 7 75
REMARK Flexibility Score: inf
ROOT
ATOM      1  C   UNL A   1      35.842  22.359  25.948  1.00  0.00     0.118 C 
ENDROOT
BRANCH   1   2
ATOM      2  N   UNL A   1      36.792  21.262  25.807  1.00  0.00    -0.352 N 
ATOM      3  O   UNL A   1      38.757  20.231  25.473  1.00  0.00    -0.269 OA
ATOM      4  C   UNL A   1      38.169  21.246  25.831  1.00  0.00     0.251 C 
ATOM      5  H   UNL A   1      36.378  20.380  25.672  1.00  0.00     0.163 HD
BRANCH   4   6
ATOM      6  C   UNL A   1      38.941  22.436  26.264  1.00  0.00     0.039 A 
ATOM      7  C   UNL A   1      38.554  23.716  25.882  1.00  0.00     0.014 A 
ATOM      8  C   UNL A   1      40.042  22.280  27.115  1.00  0.00     0.014 A 
ATOM      9  C   UNL A   1      39.365  24.805  26.166  1.00  0.00     0.010 A 
ATOM     10  C   UNL A   1      40.775  23.401  27.529  1.00  0.00     0.010 A 
ATOM     11  C   UNL A   1      40.460  24.675  27.033  1.00  0.00    -0.014 A 
BRANCH  11  12
ATOM     12  C   UNL A   1      41.175  25.910  27.457  1.00  0.00     0.031 A 
ATOM     13  C   UNL A   1      42.564  26.221  26.973  1.00  0.00     0.074 A 
ATOM     14  C   UNL A   1      40.516  26.794  28.237  1.00  0.00     0.049 A 
ATOM     15  N   UNL A   1      43.305  27.271  27.221  1.00  0.00    -0.248 NA
ATOM     16  C   UNL A   1      43.211  25.223  26.110  1.00  0.00     0.031 C 
ATOM     17  C   UNL A   1      39.166  26.591  28.778  1.00  0.00     0.029 A 
ATOM     18  N   UNL A   1      40.858  28.045  28.680  1.00  0.00    -0.354 N 
ATOM     19  C   UNL A   1      44.508  27.059  26.556  1.00  0.00     0.074 A 
ATOM     20  C   UNL A   1      44.411  25.758  25.928  1.00  0.00     0.031 C 
ATOM     21  C   UNL A   1      38.768  27.705  29.405  1.00  0.00     0.029 A 
ATOM     22  C   UNL A   1      39.863  28.664  29.404  1.00  0.00     0.049 A 
ATOM     23  H   UNL A   1      41.731  28.462  28.497  1.00  0.00     0.167 HD
ATOM     24  C   UNL A   1      45.586  27.880  26.472  1.00  0.00     0.034 A 
ATOM     25  C   UNL A   1      39.840  29.857  30.027  1.00  0.00     0.034 A 
ATOM     26  C   UNL A   1      45.666  29.173  27.110  1.00  0.00     0.049 A 
ATOM     27  C   UNL A   1      41.062  30.728  29.944  1.00  0.00     0.074 A 
ATOM     28  C   UNL A   1      46.713  30.080  27.102  1.00  0.00     0.029 A 
ATOM     29  N   UNL A   1      44.656  29.748  27.874  1.00  0.00    -0.354 N 
ATOM     30  N   UNL A   1      42.194  30.501  29.319  1.00  0.00    -0.248 NA
ATOM     31  C   UNL A   1      41.004  32.014  30.647  1.00  0.00     0.031 C 
ATOM     32  C   UNL A   1      46.361  31.171  27.904  1.00  0.00     0.029 A 
ATOM     33  C   UNL A   1      45.064  30.984  28.355  1.00  0.00     0.049 A 
ATOM     34  H   UNL A   1      43.778  29.337  28.048  1.00  0.00     0.167 HD
ATOM     35  C   UNL A   1      42.982  31.625  29.548  1.00  0.00     0.074 A 
ATOM     36  C   UNL A   1      42.178  32.540  30.334  1.00  0.00     0.031 C 
ATOM     37  C   UNL A   1      44.255  31.875  29.153  1.00  0.00     0.034 A 
BRANCH  24  38
ATOM     38  C   UNL A   1      46.777  27.382  25.687  1.00  0.00     0.023 A 
ATOM     39  C   UNL A   1      47.047  27.843  24.387  1.00  0.00     0.031 A 
ATOM     40  C   UNL A   1      47.646  26.422  26.236  1.00  0.00     0.131 A 
ATOM     41  C   UNL A   1      48.114  27.297  23.654  1.00  0.00     0.055 A 
ATOM     42  C   UNL A   1      48.752  25.940  25.532  1.00  0.00     0.041 A 
ATOM     43  F   UNL A   1      47.430  25.927  27.465  1.00  0.00    -0.206 F 
ATOM     44  C   UNL A   1      48.984  26.368  24.227  1.00  0.00     0.022 A 
BRANCH  41  45
ATOM     45  S   UNL A   1      48.261  27.723  21.898  1.00  0.00     0.124 S 
ATOM     46  O   UNL A   1      48.461  26.408  21.291  1.00  0.00    -0.237 OA
ATOM     47  O   UNL A   1      46.982  28.364  21.620  1.00  0.00    -0.237 OA
ATOM     48  O   UNL A   1      49.426  28.605  21.857  1.00  0.00    -0.744 OA
ENDBRANCH  41  45
ENDBRANCH  24  38
BRANCH  25  49
ATOM     49  C   UNL A   1      38.647  30.269  30.822  1.00  0.00     0.023 A 
ATOM     50  C   UNL A   1      37.590  30.982  30.239  1.00  0.00     0.031 A 
ATOM     51  C   UNL A   1      38.568  29.984  32.199  1.00  0.00     0.131 A 
ATOM     52  C   UNL A   1      36.522  31.426  31.035  1.00  0.00     0.055 A 
ATOM     53  C   UNL A   1      37.474  30.371  32.974  1.00  0.00     0.041 A 
ATOM     54  F   UNL A   1      39.552  29.305  32.811  1.00  0.00    -0.206 F 
ATOM     55  C   UNL A   1      36.449  31.111  32.395  1.00  0.00     0.022 A 
BRANCH  52  56
ATOM     56  S   UNL A   1      35.278  32.515  30.291  1.00  0.00     0.124 S 
ATOM     57  O   UNL A   1      34.317  32.657  31.378  1.00  0.00    -0.237 OA
ATOM     58  O   UNL A   1      36.067  33.700  29.971  1.00  0.00    -0.237 OA
ATOM     59  O   UNL A   1      34.807  31.752  29.136  1.00  0.00    -0.744 OA
ENDBRANCH  52  56
ENDBRANCH  25  49
BRANCH  37  60
ATOM     60  C   UNL A   1      44.830  33.212  29.549  1.00  0.00     0.023 A 
ATOM     61  C   UNL A   1      44.716  34.338  28.715  1.00  0.00     0.031 A 
ATOM     62  C   UNL A   1      45.542  33.349  30.753  1.00  0.00     0.131 A 
ATOM     63  C   UNL A   1      45.366  35.532  29.059  1.00  0.00     0.055 A 
ATOM     64  C   UNL A   1      46.132  34.558  31.122  1.00  0.00     0.041 A 
ATOM     65  F   UNL A   1      45.685  32.306  31.586  1.00  0.00    -0.206 F 
ATOM     66  C   UNL A   1      46.060  35.653  30.265  1.00  0.00     0.022 A 
BRANCH  63  67
ATOM     67  S   UNL A   1      45.388  36.887  27.855  1.00  0.00     0.124 S 
ATOM     68  O   UNL A   1      46.709  37.465  28.073  1.00  0.00    -0.237 OA
ATOM     69  O   UNL A   1      45.200  36.183  26.590  1.00  0.00    -0.237 OA
ATOM     70  O   UNL A   1      44.266  37.730  28.268  1.00  0.00    -0.744 OA
ENDBRANCH  63  67
ENDBRANCH  37  60
ENDBRANCH  11  12
ENDBRANCH   4   6
ENDBRANCH   1   2
BRANCH   1  71
ATOM     71  C   UNL A   1      34.443  21.873  26.282  1.00  0.00     0.042 C 
BRANCH  71  72
ATOM     72  C   UNL A   1      33.959  22.362  27.637  1.00  0.00     0.117 C 
BRANCH  72  73
ATOM     73  N   UNL A   1      32.551  22.690  27.633  1.00  0.00    -0.356 N 
ATOM     74  C   UNL A   1      31.829  23.617  26.962  1.00  0.00     0.223 C 
ATOM     75  H   UNL A   1      32.012  22.131  28.238  1.00  0.00     0.163 HD
ATOM     76  O   UNL A   1      30.610  23.609  27.178  1.00  0.00    -0.275 OA
BRANCH  74  77
ATOM     77  C   UNL A   1      32.413  24.664  26.012  1.00  0.00     0.082 C 
ATOM     78  C   UNL A   1      32.295  26.132  26.422  1.00  0.00     0.035 C 
ATOM     79  C   UNL A   1      32.116  24.387  24.544  1.00  0.00     0.035 C 
ATOM     80  C   UNL A   1      31.324  27.025  25.647  1.00  0.00     0.117 C 
ATOM     81  C   UNL A   1      30.914  25.139  24.012  1.00  0.00     0.117 C 
ATOM     82  N   UNL A   1      31.031  26.566  24.287  1.00  0.00    -0.370 N 
BRANCH  82  83
ATOM     83  C   UNL A   1      30.222  27.436  23.537  1.00  0.00     0.059 A 
ATOM     84  C   UNL A   1      28.832  27.471  23.635  1.00  0.00     0.049 A 
ATOM     85  C   UNL A   1      30.773  28.342  22.631  1.00  0.00     0.161 A 
ATOM     86  C   UNL A   1      28.121  28.376  22.864  1.00  0.00     0.138 A 
ATOM     87  N   UNL A   1      30.060  29.228  21.899  1.00  0.00    -0.157 NA
ATOM     88  N   UNL A   1      28.715  29.247  22.023  1.00  0.00    -0.159 NA
ENDBRANCH  82  83
ENDBRANCH  74  77
ENDBRANCH  72  73
ENDBRANCH  71  72
ENDBRANCH   1  71
TORSDOF 14
ENDMDL
MODEL 3
REMARK VINA RESULT:     -12.0      1.460      1.747
REMARK SMILES O=C(NCCCNC(=O)C1CCN(c2ccnnc2)CC1)c1ccc(-c2c3nc(c(-c4cc(S(=O)(=O)[O-])ccc4F)c4ccc([nH]4)c(-c4cc(S(=O)(=O)[O-])ccc4F)c4nc(c(-c5cc(S(=O)(=O)[O-])ccc5F)c5ccc2[nH]5)C=C4)C=C3)cc1
REMARK SMILES IDX 4 1 3 2 1 3 2 4 22 6 23 7 84 8 24 9 83 10 25 11 26 12 27 13
REMARK SMILES IDX 77 14 28 15 82 16 76 17 78 18 29 19 81 20 75 21 74 22 30 24
REMARK SMILES IDX 62 25 42 26 61 27 43 28 46 29 60 30 79 31 44 32 45 33 59 35
REMARK SMILES IDX 80 36 47 37 31 38 32 39 40 40 33 41 39 42 41 43 38 44 34 45
REMARK SMILES IDX 35 46 36 47 37 48 63 49 64 50 72 51 65 52 71 53 73 54 70 55
REMARK SMILES IDX 66 56 67 57 68 58 69 59 48 60 49 61 57 62 50 63 56 64 58 65
REMARK SMILES IDX 55 66 51 67 52 68 53 69 54 70 5 71 6 72 7 73 8 74 9 76 10 77
REMARK SMILES IDX 11 78 21 79 12 80 20 81 13 82 14 83 15 84 19 85 16 86 18 87
REMARK SMILES IDX 17 88
REMARK H PARENT 3 5 78 23 46 34 7 75
REMARK Flexibility Score: inf
ROOT
ATOM      1  C   UNL A   1      33.285  28.966  25.193  1.00  0.00     0.118 C 
ENDROOT
BRANCH   1   2
ATOM      2  N   UNL A   1      32.751  30.237  25.667  1.00  0.00    -0.352 N 
ATOM      3  O   UNL A   1      32.373  31.953  27.063  1.00  0.00    -0.269 OA
ATOM      4  C   UNL A   1      33.111  31.032  26.733  1.00  0.00     0.251 C 
ATOM      5  H   UNL A   1      32.004  30.590  25.132  1.00  0.00     0.163 HD
BRANCH   4   6
ATOM      6  C   UNL A   1      34.361  30.777  27.489  1.00  0.00     0.039 A 
ATOM      7  C   UNL A   1      34.641  29.514  28.002  1.00  0.00     0.014 A 
ATOM      8  C   UNL A   1      35.301  31.802  27.646  1.00  0.00     0.014 A 
ATOM      9  C   UNL A   1      35.736  29.325  28.832  1.00  0.00     0.010 A 
ATOM     10  C   UNL A   1      36.486  31.568  28.359  1.00  0.00     0.010 A 
ATOM     11  C   UNL A   1      36.701  30.331  28.985  1.00  0.00    -0.014 A 
BRANCH  11  12
ATOM     12  C   UNL A   1      37.949  30.005  29.728  1.00  0.00     0.031 A 
ATOM     13  C   UNL A   1      38.197  30.524  31.117  1.00  0.00     0.074 A 
ATOM     14  C   UNL A   1      38.833  29.162  29.152  1.00  0.00     0.049 A 
ATOM     15  N   UNL A   1      39.216  30.300  31.909  1.00  0.00    -0.248 NA
ATOM     16  C   UNL A   1      37.182  31.420  31.688  1.00  0.00     0.031 C 
ATOM     17  C   UNL A   1      38.702  28.604  27.800  1.00  0.00     0.029 A 
ATOM     18  N   UNL A   1      39.986  28.594  29.626  1.00  0.00    -0.354 N 
ATOM     19  C   UNL A   1      38.972  31.031  33.066  1.00  0.00     0.074 A 
ATOM     20  C   UNL A   1      37.727  31.740  32.854  1.00  0.00     0.031 C 
ATOM     21  C   UNL A   1      39.683  27.718  27.589  1.00  0.00     0.029 A 
ATOM     22  C   UNL A   1      40.572  27.716  28.742  1.00  0.00     0.049 A 
ATOM     23  H   UNL A   1      40.361  28.793  30.515  1.00  0.00     0.167 HD
ATOM     24  C   UNL A   1      39.714  31.094  34.201  1.00  0.00     0.034 A 
ATOM     25  C   UNL A   1      41.714  27.007  28.829  1.00  0.00     0.034 A 
ATOM     26  C   UNL A   1      40.957  30.383  34.392  1.00  0.00     0.049 A 
ATOM     27  C   UNL A   1      42.532  27.125  30.084  1.00  0.00     0.074 A 
ATOM     28  C   UNL A   1      41.795  30.386  35.494  1.00  0.00     0.029 A 
ATOM     29  N   UNL A   1      41.543  29.538  33.456  1.00  0.00    -0.354 N 
ATOM     30  N   UNL A   1      42.287  27.834  31.163  1.00  0.00    -0.248 NA
ATOM     31  C   UNL A   1      43.776  26.350  30.137  1.00  0.00     0.031 C 
ATOM     32  C   UNL A   1      42.911  29.593  35.203  1.00  0.00     0.029 A 
ATOM     33  C   UNL A   1      42.737  29.033  33.948  1.00  0.00     0.049 A 
ATOM     34  H   UNL A   1      41.164  29.329  32.571  1.00  0.00     0.167 HD
ATOM     35  C   UNL A   1      43.346  27.580  32.028  1.00  0.00     0.074 A 
ATOM     36  C   UNL A   1      44.207  26.625  31.358  1.00  0.00     0.031 C 
ATOM     37  C   UNL A   1      43.592  28.096  33.258  1.00  0.00     0.034 A 
BRANCH  24  38
ATOM     38  C   UNL A   1      39.213  31.993  35.309  1.00  0.00     0.023 A 
ATOM     39  C   UNL A   1      39.627  33.332  35.414  1.00  0.00     0.031 A 
ATOM     40  C   UNL A   1      38.324  31.502  36.282  1.00  0.00     0.131 A 
ATOM     41  C   UNL A   1      39.208  34.113  36.503  1.00  0.00     0.055 A 
ATOM     42  C   UNL A   1      37.848  32.307  37.319  1.00  0.00     0.041 A 
ATOM     43  F   UNL A   1      37.908  30.226  36.247  1.00  0.00    -0.206 F 
ATOM     44  C   UNL A   1      38.301  33.618  37.442  1.00  0.00     0.022 A 
BRANCH  41  45
ATOM     45  S   UNL A   1      39.975  35.738  36.745  1.00  0.00     0.124 S 
ATOM     46  O   UNL A   1      39.277  36.220  37.935  1.00  0.00    -0.237 OA
ATOM     47  O   UNL A   1      41.382  35.400  36.924  1.00  0.00    -0.237 OA
ATOM     48  O   UNL A   1      39.656  36.453  35.510  1.00  0.00    -0.744 OA
ENDBRANCH  41  45
ENDBRANCH  24  38
BRANCH  25  49
ATOM     49  C   UNL A   1      42.174  26.173  27.680  1.00  0.00     0.023 A 
ATOM     50  C   UNL A   1      41.784  24.833  27.549  1.00  0.00     0.031 A 
ATOM     51  C   UNL A   1      43.048  26.704  26.712  1.00  0.00     0.131 A 
ATOM     52  C   UNL A   1      42.303  24.054  26.502  1.00  0.00     0.055 A 
ATOM     53  C   UNL A   1      43.509  25.945  25.636  1.00  0.00     0.041 A 
ATOM     54  F   UNL A   1      43.454  27.981  26.789  1.00  0.00    -0.206 F 
ATOM     55  C   UNL A   1      43.148  24.605  25.535  1.00  0.00     0.022 A 
BRANCH  52  56
ATOM     56  S   UNL A   1      41.939  22.278  26.479  1.00  0.00     0.124 S 
ATOM     57  O   UNL A   1      40.487  22.272  26.354  1.00  0.00    -0.237 OA
ATOM     58  O   UNL A   1      42.686  21.832  25.307  1.00  0.00    -0.237 OA
ATOM     59  O   UNL A   1      42.458  21.808  27.762  1.00  0.00    -0.744 OA
ENDBRANCH  52  56
ENDBRANCH  25  49
BRANCH  37  60
ATOM     60  C   UNL A   1      44.832  27.599  33.958  1.00  0.00     0.023 A 
ATOM     61  C   UNL A   1      44.812  26.442  34.756  1.00  0.00     0.031 A 
ATOM     62  C   UNL A   1      46.035  28.319  33.865  1.00  0.00     0.131 A 
ATOM     63  C   UNL A   1      45.952  26.078  35.488  1.00  0.00     0.055 A 
ATOM     64  C   UNL A   1      47.185  27.916  34.544  1.00  0.00     0.041 A 
ATOM     65  F   UNL A   1      46.110  29.434  33.120  1.00  0.00    -0.206 F 
ATOM     66  C   UNL A   1      47.143  26.799  35.375  1.00  0.00     0.022 A 
BRANCH  63  67
ATOM     67  S   UNL A   1      45.822  24.716  36.678  1.00  0.00     0.124 S 
ATOM     68  O   UNL A   1      46.576  25.234  37.815  1.00  0.00    -0.237 OA
ATOM     69  O   UNL A   1      44.379  24.605  36.868  1.00  0.00    -0.237 OA
ATOM     70  O   UNL A   1      46.444  23.591  35.981  1.00  0.00    -0.744 OA
ENDBRANCH  63  67
ENDBRANCH  37  60
ENDBRANCH  11  12
ENDBRANCH   4   6
ENDBRANCH   1   2
BRANCH   1  71
ATOM     71  C   UNL A   1      33.632  29.000  23.715  1.00  0.00     0.042 C 
BRANCH  71  72
ATOM     72  C   UNL A   1      32.474  28.570  22.831  1.00  0.00     0.117 C 
BRANCH  72  73
ATOM     73  N   UNL A   1      32.838  27.503  21.926  1.00  0.00    -0.356 N 
ATOM     74  C   UNL A   1      32.982  26.168  22.096  1.00  0.00     0.223 C 
ATOM     75  H   UNL A   1      33.017  27.805  21.007  1.00  0.00     0.163 HD
ATOM     76  O   UNL A   1      33.284  25.526  21.082  1.00  0.00    -0.275 OA
BRANCH  74  77
ATOM     77  C   UNL A   1      32.836  25.433  23.430  1.00  0.00     0.082 C 
ATOM     78  C   UNL A   1      34.030  24.615  23.919  1.00  0.00     0.035 C 
ATOM     79  C   UNL A   1      31.484  24.755  23.606  1.00  0.00     0.035 C 
ATOM     80  C   UNL A   1      33.922  23.089  23.895  1.00  0.00     0.117 C 
ATOM     81  C   UNL A   1      31.487  23.286  23.240  1.00  0.00     0.117 C 
ATOM     82  N   UNL A   1      32.550  22.577  23.942  1.00  0.00    -0.370 N 
BRANCH  82  83
ATOM     83  C   UNL A   1      32.449  21.178  24.024  1.00  0.00     0.059 A 
ATOM     84  C   UNL A   1      32.218  20.358  22.921  1.00  0.00     0.049 A 
ATOM     85  C   UNL A   1      32.581  20.509  25.240  1.00  0.00     0.161 A 
ATOM     86  C   UNL A   1      32.150  18.985  23.099  1.00  0.00     0.138 A 
ATOM     87  N   UNL A   1      32.526  19.166  25.389  1.00  0.00    -0.157 NA
ATOM     88  N   UNL A   1      32.312  18.395  24.301  1.00  0.00    -0.159 NA
ENDBRANCH  82  83
ENDBRANCH  74  77
ENDBRANCH  72  73
ENDBRANCH  71  72
ENDBRANCH   1  71
TORSDOF 14
ENDMDL
