MODEL 1
REMARK VINA RESULT:     -10.9      0.000      0.000
REMARK SMILES CCCN(CCC)c1ccc(C(=O)NCCCNC(=O)c2ccc(-c3c4nc(c(-c5cc(S(=O)(=O)[O-])ccc5F)c5ccc([nH]5)c(-c5cc(S(=O)(=O)[O-])ccc5F)c5nc(c(-c6cc(S(=O)(=O)[O-])ccc6F)c6ccc3[nH]6)C=C5)C=C4)cc2)cc1[N+](=O)[O-]
REMARK SMILES IDX 16 1 15 2 14 3 12 4 13 5 11 7 8 8 9 9 85 10 10 11 84 12 4 13
REMARK SMILES IDX 3 14 2 15 1 16 5 17 6 18 7 19 86 20 87 21 88 22 17 23 18 24
REMARK SMILES IDX 19 25 20 27 21 28 22 29 83 30 23 31 82 32 24 33 25 34 26 35
REMARK SMILES IDX 76 36 27 37 81 38 75 39 77 40 28 41 80 42 74 43 73 44 29 46
REMARK SMILES IDX 61 47 41 48 60 49 42 50 45 51 59 52 78 53 43 54 44 55 58 57
REMARK SMILES IDX 79 58 46 59 30 60 31 61 39 62 32 63 38 64 40 65 37 66 33 67
REMARK SMILES IDX 34 68 35 69 36 70 62 71 63 72 71 73 64 74 70 75 72 76 69 77
REMARK SMILES IDX 65 78 66 79 67 80 68 81 47 82 48 83 56 84 49 85 55 86 57 87
REMARK SMILES IDX 54 88 50 89 51 90 52 91 53 92
REMARK H PARENT 14 6 18 26 77 45 45 56
REMARK Flexibility Score: inf
ROOT
ATOM      1  C   UNL A   1      31.590  31.405  26.482  1.00  0.00     0.042 C 
ENDROOT
BRANCH   1   2
ATOM      2  C   UNL A   1      31.819  30.062  25.796  1.00  0.00     0.118 C 
BRANCH   2   3
ATOM      3  N   UNL A   1      31.272  30.031  24.447  1.00  0.00    -0.352 N 
ATOM      4  C   UNL A   1      31.129  28.967  23.595  1.00  0.00     0.251 C 
ATOM      5  O   UNL A   1      30.477  29.076  22.560  1.00  0.00    -0.269 OA
ATOM      6  H   UNL A   1      30.961  30.898  24.097  1.00  0.00     0.163 HD
BRANCH   4   7
ATOM      7  C   UNL A   1      31.720  27.660  23.940  1.00  0.00     0.046 A 
ATOM      8  C   UNL A   1      32.926  25.175  24.560  1.00  0.00     0.116 A 
ATOM      9  C   UNL A   1      33.631  26.180  23.874  1.00  0.00     0.034 A 
ATOM     10  C   UNL A   1      31.595  25.463  24.908  1.00  0.00     0.293 A 
ATOM     11  C   UNL A   1      33.045  27.414  23.581  1.00  0.00     0.016 A 
ATOM     12  C   UNL A   1      30.989  26.692  24.625  1.00  0.00     0.101 A 
BRANCH   8  13
ATOM     13  N   UNL A   1      33.568  23.996  24.891  1.00  0.00    -0.366 N 
BRANCH  13  14
ATOM     14  C   UNL A   1      33.861  22.995  23.862  1.00  0.00     0.116 C 
BRANCH  14  15
ATOM     15  C   UNL A   1      35.260  22.395  24.047  1.00  0.00     0.018 C 
ATOM     16  C   UNL A   1      36.357  23.210  23.372  1.00  0.00     0.006 C 
ENDBRANCH  14  15
ENDBRANCH  13  14
BRANCH  13  17
ATOM     17  C   UNL A   1      34.253  23.921  26.193  1.00  0.00     0.116 C 
BRANCH  17  18
ATOM     18  C   UNL A   1      33.442  23.136  27.233  1.00  0.00     0.018 C 
ATOM     19  C   UNL A   1      33.998  21.739  27.489  1.00  0.00     0.006 C 
ENDBRANCH  17  18
ENDBRANCH  13  17
ENDBRANCH   8  13
BRANCH  10  20
ATOM     20  N   UNL A   1      30.741  24.434  25.470  1.00  0.00     0.065 N 
ATOM     21  O   UNL A   1      30.321  24.638  26.621  1.00  0.00    -0.258 OA
ATOM     22  O   UNL A   1      30.545  23.410  24.805  1.00  0.00    -0.258 OA
ENDBRANCH  10  20
ENDBRANCH   4   7
ENDBRANCH   2   3
ENDBRANCH   1   2
BRANCH   1  23
ATOM     23  C   UNL A   1      32.852  32.009  27.086  1.00  0.00     0.118 C 
BRANCH  23  24
ATOM     24  N   UNL A   1      32.682  33.413  27.422  1.00  0.00    -0.352 N 
ATOM     25  C   UNL A   1      33.296  34.166  28.393  1.00  0.00     0.251 C 
ATOM     26  H   UNL A   1      32.027  33.898  26.870  1.00  0.00     0.163 HD
ATOM     27  O   UNL A   1      32.848  35.279  28.655  1.00  0.00    -0.269 OA
BRANCH  25  28
ATOM     28  C   UNL A   1      34.470  33.641  29.128  1.00  0.00     0.039 A 
ATOM     29  C   UNL A   1      34.261  32.723  30.162  1.00  0.00     0.014 A 
ATOM     30  C   UNL A   1      35.766  34.077  28.837  1.00  0.00     0.014 A 
ATOM     31  C   UNL A   1      35.351  32.208  30.867  1.00  0.00     0.010 A 
ATOM     32  C   UNL A   1      36.857  33.508  29.491  1.00  0.00     0.010 A 
ATOM     33  C   UNL A   1      36.661  32.575  30.521  1.00  0.00    -0.014 A 
BRANCH  33  34
ATOM     34  C   UNL A   1      37.835  32.013  31.238  1.00  0.00     0.031 A 
ATOM     35  C   UNL A   1      38.647  30.913  30.608  1.00  0.00     0.074 A 
ATOM     36  C   UNL A   1      38.133  32.450  32.478  1.00  0.00     0.049 A 
ATOM     37  N   UNL A   1      39.651  30.235  31.102  1.00  0.00    -0.248 NA
ATOM     38  C   UNL A   1      38.256  30.503  29.251  1.00  0.00     0.031 C 
ATOM     39  C   UNL A   1      37.396  33.483  33.208  1.00  0.00     0.029 A 
ATOM     40  N   UNL A   1      39.124  32.073  33.348  1.00  0.00    -0.354 N 
ATOM     41  C   UNL A   1      39.998  29.305  30.127  1.00  0.00     0.074 A 
ATOM     42  C   UNL A   1      39.061  29.473  29.037  1.00  0.00     0.031 C 
ATOM     43  C   UNL A   1      37.971  33.670  34.407  1.00  0.00     0.029 A 
ATOM     44  C   UNL A   1      39.089  32.742  34.550  1.00  0.00     0.049 A 
ATOM     45  H   UNL A   1      39.798  31.388  33.133  1.00  0.00     0.167 HD
ATOM     46  C   UNL A   1      41.018  28.410  30.132  1.00  0.00     0.034 A 
ATOM     47  C   UNL A   1      39.860  32.613  35.647  1.00  0.00     0.034 A 
ATOM     48  C   UNL A   1      41.955  28.269  31.221  1.00  0.00     0.049 A 
ATOM     49  C   UNL A   1      40.984  31.608  35.633  1.00  0.00     0.074 A 
ATOM     50  C   UNL A   1      43.056  27.437  31.309  1.00  0.00     0.029 A 
ATOM     51  N   UNL A   1      41.896  28.976  32.416  1.00  0.00    -0.354 N 
ATOM     52  N   UNL A   1      41.329  30.768  34.684  1.00  0.00    -0.248 NA
ATOM     53  C   UNL A   1      41.830  31.543  36.832  1.00  0.00     0.031 C 
ATOM     54  C   UNL A   1      43.627  27.594  32.577  1.00  0.00     0.029 A 
ATOM     55  C   UNL A   1      42.926  28.578  33.256  1.00  0.00     0.049 A 
ATOM     56  H   UNL A   1      41.222  29.659  32.636  1.00  0.00     0.167 HD
ATOM     57  C   UNL A   1      42.450  30.097  35.163  1.00  0.00     0.074 A 
ATOM     58  C   UNL A   1      42.731  30.640  36.476  1.00  0.00     0.031 C 
ATOM     59  C   UNL A   1      43.186  29.122  34.569  1.00  0.00     0.034 A 
BRANCH  46  60
ATOM     60  C   UNL A   1      41.149  27.500  28.934  1.00  0.00     0.023 A 
ATOM     61  C   UNL A   1      42.138  27.703  27.954  1.00  0.00     0.031 A 
ATOM     62  C   UNL A   1      40.255  26.429  28.751  1.00  0.00     0.131 A 
ATOM     63  C   UNL A   1      42.160  26.902  26.802  1.00  0.00     0.055 A 
ATOM     64  C   UNL A   1      40.334  25.584  27.642  1.00  0.00     0.041 A 
ATOM     65  F   UNL A   1      39.278  26.196  29.640  1.00  0.00    -0.206 F 
ATOM     66  C   UNL A   1      41.281  25.828  26.651  1.00  0.00     0.022 A 
BRANCH  63  67
ATOM     67  S   UNL A   1      43.258  27.376  25.439  1.00  0.00     0.124 S 
ATOM     68  O   UNL A   1      44.257  28.185  26.134  1.00  0.00    -0.237 OA
ATOM     69  O   UNL A   1      43.717  26.086  24.939  1.00  0.00    -0.237 OA
ATOM     70  O   UNL A   1      42.384  28.121  24.536  1.00  0.00    -0.744 OA
ENDBRANCH  63  67
ENDBRANCH  46  60
BRANCH  47  71
ATOM     71  C   UNL A   1      39.597  33.446  36.856  1.00  0.00     0.023 A 
ATOM     72  C   UNL A   1      38.895  32.927  37.954  1.00  0.00     0.031 A 
ATOM     73  C   UNL A   1      40.017  34.787  36.915  1.00  0.00     0.131 A 
ATOM     74  C   UNL A   1      38.593  33.755  39.046  1.00  0.00     0.055 A 
ATOM     75  C   UNL A   1      39.757  35.593  38.025  1.00  0.00     0.041 A 
ATOM     76  F   UNL A   1      40.698  35.331  35.893  1.00  0.00    -0.206 F 
ATOM     77  C   UNL A   1      39.030  35.080  39.094  1.00  0.00     0.022 A 
BRANCH  74  78
ATOM     78  S   UNL A   1      37.547  33.094  40.373  1.00  0.00     0.124 S 
ATOM     79  O   UNL A   1      38.286  31.900  40.769  1.00  0.00    -0.237 OA
ATOM     80  O   UNL A   1      37.544  34.194  41.332  1.00  0.00    -0.237 OA
ATOM     81  O   UNL A   1      36.270  32.846  39.708  1.00  0.00    -0.744 OA
ENDBRANCH  74  78
ENDBRANCH  47  71
BRANCH  59  82
ATOM     82  C   UNL A   1      44.392  28.619  35.324  1.00  0.00     0.023 A 
ATOM     83  C   UNL A   1      44.290  27.601  36.289  1.00  0.00     0.031 A 
ATOM     84  C   UNL A   1      45.659  29.179  35.082  1.00  0.00     0.131 A 
ATOM     85  C   UNL A   1      45.425  27.214  37.016  1.00  0.00     0.055 A 
ATOM     86  C   UNL A   1      46.795  28.749  35.767  1.00  0.00     0.041 A 
ATOM     87  F   UNL A   1      45.811  30.156  34.174  1.00  0.00    -0.206 F 
ATOM     88  C   UNL A   1      46.680  27.770  36.750  1.00  0.00     0.022 A 
BRANCH  85  89
ATOM     89  S   UNL A   1      45.226  26.034  38.379  1.00  0.00     0.124 S 
ATOM     90  O   UNL A   1      46.584  25.941  38.902  1.00  0.00    -0.237 OA
ATOM     91  O   UNL A   1      44.257  26.707  39.236  1.00  0.00    -0.237 OA
ATOM     92  O   UNL A   1      44.732  24.826  37.718  1.00  0.00    -0.744 OA
ENDBRANCH  85  89
ENDBRANCH  59  82
ENDBRANCH  33  34
ENDBRANCH  25  28
ENDBRANCH  23  24
ENDBRANCH   1  23
TORSDOF 19
ENDMDL
MODEL 2
REMARK VINA RESULT:     -10.8      1.740      2.170
REMARK SMILES CCCN(CCC)c1ccc(C(=O)NCCCNC(=O)c2ccc(-c3c4nc(c(-c5cc(S(=O)(=O)[O-])ccc5F)c5ccc([nH]5)c(-c5cc(S(=O)(=O)[O-])ccc5F)c5nc(c(-c6cc(S(=O)(=O)[O-])ccc6F)c6ccc3[nH]6)C=C5)C=C4)cc2)cc1[N+](=O)[O-]
REMARK SMILES IDX 16 1 15 2 14 3 12 4 13 5 11 7 8 8 9 9 85 10 10 11 84 12 4 13
REMARK SMILES IDX 3 14 2 15 1 16 5 17 6 18 7 19 86 20 87 21 88 22 17 23 18 24
REMARK SMILES IDX 19 25 20 27 21 28 22 29 83 30 23 31 82 32 24 33 25 34 26 35
REMARK SMILES IDX 76 36 27 37 81 38 75 39 77 40 28 41 80 42 74 43 73 44 29 46
REMARK SMILES IDX 61 47 41 48 60 49 42 50 45 51 59 52 78 53 43 54 44 55 58 57
REMARK SMILES IDX 79 58 46 59 30 60 31 61 39 62 32 63 38 64 40 65 37 66 33 67
REMARK SMILES IDX 34 68 35 69 36 70 62 71 63 72 71 73 64 74 70 75 72 76 69 77
REMARK SMILES IDX 65 78 66 79 67 80 68 81 47 82 48 83 56 84 49 85 55 86 57 87
REMARK SMILES IDX 54 88 50 89 51 90 52 91 53 92
REMARK H PARENT 14 6 18 26 77 45 45 56
REMARK Flexibility Score: inf
ROOT
ATOM      1  C   UNL A   1      31.180  31.628  26.266  1.00  0.00     0.042 C 
ENDROOT
BRANCH   1   2
ATOM      2  C   UNL A   1      31.365  30.471  25.289  1.00  0.00     0.118 C 
BRANCH   2   3
ATOM      3  N   UNL A   1      30.378  30.490  24.219  1.00  0.00    -0.352 N 
ATOM      4  C   UNL A   1      29.918  29.453  23.449  1.00  0.00     0.251 C 
ATOM      5  O   UNL A   1      28.947  29.604  22.712  1.00  0.00    -0.269 OA
ATOM      6  H   UNL A   1      29.985  31.371  24.022  1.00  0.00     0.163 HD
BRANCH   4   7
ATOM      7  C   UNL A   1      30.560  28.129  23.533  1.00  0.00     0.046 A 
ATOM      8  C   UNL A   1      31.760  25.575  23.772  1.00  0.00     0.116 A 
ATOM      9  C   UNL A   1      30.926  26.090  24.781  1.00  0.00     0.034 A 
ATOM     10  C   UNL A   1      31.974  26.395  22.651  1.00  0.00     0.293 A 
ATOM     11  C   UNL A   1      30.319  27.342  24.660  1.00  0.00     0.016 A 
ATOM     12  C   UNL A   1      31.375  27.652  22.509  1.00  0.00     0.101 A 
BRANCH   8  13
ATOM     13  N   UNL A   1      32.283  24.302  23.902  1.00  0.00    -0.366 N 
BRANCH  13  14
ATOM     14  C   UNL A   1      31.577  23.147  23.342  1.00  0.00     0.116 C 
BRANCH  14  15
ATOM     15  C   UNL A   1      32.558  22.077  22.847  1.00  0.00     0.018 C 
ATOM     16  C   UNL A   1      32.445  20.762  23.608  1.00  0.00     0.006 C 
ENDBRANCH  14  15
ENDBRANCH  13  14
BRANCH  13  17
ATOM     17  C   UNL A   1      33.698  24.170  24.289  1.00  0.00     0.116 C 
BRANCH  17  18
ATOM     18  C   UNL A   1      33.906  24.324  25.802  1.00  0.00     0.018 C 
ATOM     19  C   UNL A   1      33.435  23.109  26.594  1.00  0.00     0.006 C 
ENDBRANCH  17  18
ENDBRANCH  13  17
ENDBRANCH   8  13
BRANCH  10  20
ATOM     20  N   UNL A   1      32.943  26.022  21.638  1.00  0.00     0.065 N 
ATOM     21  O   UNL A   1      34.087  26.484  21.776  1.00  0.00    -0.258 OA
ATOM     22  O   UNL A   1      32.556  25.336  20.684  1.00  0.00    -0.258 OA
ENDBRANCH  10  20
ENDBRANCH   4   7
ENDBRANCH   2   3
ENDBRANCH   1   2
BRANCH   1  23
ATOM     23  C   UNL A   1      32.474  32.085  26.929  1.00  0.00     0.118 C 
BRANCH  23  24
ATOM     24  N   UNL A   1      32.432  33.490  27.304  1.00  0.00    -0.352 N 
ATOM     25  C   UNL A   1      33.165  34.171  28.244  1.00  0.00     0.251 C 
ATOM     26  H   UNL A   1      31.780  34.035  26.807  1.00  0.00     0.163 HD
ATOM     27  O   UNL A   1      32.821  35.307  28.558  1.00  0.00    -0.269 OA
BRANCH  25  28
ATOM     28  C   UNL A   1      34.343  33.543  28.887  1.00  0.00     0.039 A 
ATOM     29  C   UNL A   1      35.614  34.051  28.605  1.00  0.00     0.014 A 
ATOM     30  C   UNL A   1      34.208  32.434  29.728  1.00  0.00     0.014 A 
ATOM     31  C   UNL A   1      36.741  33.481  29.203  1.00  0.00     0.010 A 
ATOM     32  C   UNL A   1      35.324  31.914  30.380  1.00  0.00     0.010 A 
ATOM     33  C   UNL A   1      36.604  32.424  30.116  1.00  0.00    -0.014 A 
BRANCH  33  34
ATOM     34  C   UNL A   1      37.788  31.826  30.787  1.00  0.00     0.031 A 
ATOM     35  C   UNL A   1      38.615  30.790  30.072  1.00  0.00     0.074 A 
ATOM     36  C   UNL A   1      38.082  32.170  32.056  1.00  0.00     0.049 A 
ATOM     37  N   UNL A   1      39.629  30.090  30.512  1.00  0.00    -0.248 NA
ATOM     38  C   UNL A   1      38.226  30.480  28.689  1.00  0.00     0.031 C 
ATOM     39  C   UNL A   1      37.332  33.133  32.865  1.00  0.00     0.029 A 
ATOM     40  N   UNL A   1      39.081  31.742  32.894  1.00  0.00    -0.354 N 
ATOM     41  C   UNL A   1      39.987  29.244  29.467  1.00  0.00     0.074 A 
ATOM     42  C   UNL A   1      39.045  29.482  28.395  1.00  0.00     0.031 C 
ATOM     43  C   UNL A   1      37.907  33.235  34.074  1.00  0.00     0.029 A 
ATOM     44  C   UNL A   1      39.039  32.315  34.144  1.00  0.00     0.049 A 
ATOM     45  H   UNL A   1      39.764  31.086  32.625  1.00  0.00     0.167 HD
ATOM     46  C   UNL A   1      41.020  28.366  29.402  1.00  0.00     0.034 A 
ATOM     47  C   UNL A   1      39.815  32.113  35.226  1.00  0.00     0.034 A 
ATOM     48  C   UNL A   1      41.962  28.155  30.475  1.00  0.00     0.049 A 
ATOM     49  C   UNL A   1      40.953  31.129  35.134  1.00  0.00     0.074 A 
ATOM     50  C   UNL A   1      43.075  27.335  30.498  1.00  0.00     0.029 A 
ATOM     51  N   UNL A   1      41.896  28.767  31.722  1.00  0.00    -0.354 N 
ATOM     52  N   UNL A   1      41.307  30.370  34.122  1.00  0.00    -0.248 NA
ATOM     53  C   UNL A   1      41.802  30.984  36.323  1.00  0.00     0.031 C 
ATOM     54  C   UNL A   1      43.647  27.402  31.773  1.00  0.00     0.029 A 
ATOM     55  C   UNL A   1      42.934  28.321  32.528  1.00  0.00     0.049 A 
ATOM     56  H   UNL A   1      41.212  29.421  31.994  1.00  0.00     0.167 HD
ATOM     57  C   UNL A   1      42.440  29.680  34.546  1.00  0.00     0.074 A 
ATOM     58  C   UNL A   1      42.715  30.125  35.897  1.00  0.00     0.031 C 
ATOM     59  C   UNL A   1      43.188  28.765  33.878  1.00  0.00     0.034 A 
BRANCH  46  60
ATOM     60  C   UNL A   1      41.162  27.553  28.136  1.00  0.00     0.023 A 
ATOM     61  C   UNL A   1      40.809  26.192  28.086  1.00  0.00     0.031 A 
ATOM     62  C   UNL A   1      41.684  28.138  26.969  1.00  0.00     0.131 A 
ATOM     63  C   UNL A   1      41.055  25.445  26.925  1.00  0.00     0.055 A 
ATOM     64  C   UNL A   1      41.850  27.409  25.789  1.00  0.00     0.041 A 
ATOM     65  F   UNL A   1      42.059  29.426  26.959  1.00  0.00    -0.206 F 
ATOM     66  C   UNL A   1      41.549  26.050  25.767  1.00  0.00     0.022 A 
BRANCH  63  67
ATOM     67  S   UNL A   1      40.856  23.644  26.996  1.00  0.00     0.124 S 
ATOM     68  O   UNL A   1      41.744  23.207  25.921  1.00  0.00    -0.237 OA
ATOM     69  O   UNL A   1      41.290  23.330  28.351  1.00  0.00    -0.237 OA
ATOM     70  O   UNL A   1      39.432  23.445  26.734  1.00  0.00    -0.744 OA
ENDBRANCH  63  67
ENDBRANCH  46  60
BRANCH  47  71
ATOM     71  C   UNL A   1      39.542  32.846  36.496  1.00  0.00     0.023 A 
ATOM     72  C   UNL A   1      38.631  32.348  37.439  1.00  0.00     0.031 A 
ATOM     73  C   UNL A   1      40.167  34.077  36.768  1.00  0.00     0.131 A 
ATOM     74  C   UNL A   1      38.334  33.095  38.589  1.00  0.00     0.055 A 
ATOM     75  C   UNL A   1      39.906  34.793  37.938  1.00  0.00     0.041 A 
ATOM     76  F   UNL A   1      41.051  34.596  35.902  1.00  0.00    -0.206 F 
ATOM     77  C   UNL A   1      38.975  34.308  38.851  1.00  0.00     0.022 A 
BRANCH  74  78
ATOM     78  S   UNL A   1      37.035  32.495  39.704  1.00  0.00     0.124 S 
ATOM     79  O   UNL A   1      37.143  33.428  40.819  1.00  0.00    -0.237 OA
ATOM     80  O   UNL A   1      35.842  32.620  38.873  1.00  0.00    -0.237 OA
ATOM     81  O   UNL A   1      37.446  31.123  39.996  1.00  0.00    -0.744 OA
ENDBRANCH  74  78
ENDBRANCH  47  71
BRANCH  59  82
ATOM     82  C   UNL A   1      44.403  28.224  34.590  1.00  0.00     0.023 A 
ATOM     83  C   UNL A   1      44.339  27.069  35.390  1.00  0.00     0.031 A 
ATOM     84  C   UNL A   1      45.639  28.883  34.476  1.00  0.00     0.131 A 
ATOM     85  C   UNL A   1      45.477  26.642  36.090  1.00  0.00     0.055 A 
ATOM     86  C   UNL A   1      46.782  28.420  35.128  1.00  0.00     0.041 A 
ATOM     87  F   UNL A   1      45.756  29.991  33.727  1.00  0.00    -0.206 F 
ATOM     88  C   UNL A   1      46.702  27.300  35.951  1.00  0.00     0.022 A 
BRANCH  85  89
ATOM     89  S   UNL A   1      45.315  25.262  37.257  1.00  0.00     0.124 S 
ATOM     90  O   UNL A   1      46.682  25.114  37.743  1.00  0.00    -0.237 OA
ATOM     91  O   UNL A   1      44.348  25.779  38.219  1.00  0.00    -0.237 OA
ATOM     92  O   UNL A   1      44.831  24.163  36.423  1.00  0.00    -0.744 OA
ENDBRANCH  85  89
ENDBRANCH  59  82
ENDBRANCH  33  34
ENDBRANCH  25  28
ENDBRANCH  23  24
ENDBRANCH   1  23
TORSDOF 19
ENDMDL
MODEL 3
REMARK VINA RESULT:     -10.8      5.525     11.585
REMARK SMILES CCCN(CCC)c1ccc(C(=O)NCCCNC(=O)c2ccc(-c3c4nc(c(-c5cc(S(=O)(=O)[O-])ccc5F)c5ccc([nH]5)c(-c5cc(S(=O)(=O)[O-])ccc5F)c5nc(c(-c6cc(S(=O)(=O)[O-])ccc6F)c6ccc3[nH]6)C=C5)C=C4)cc2)cc1[N+](=O)[O-]
REMARK SMILES IDX 16 1 15 2 14 3 12 4 13 5 11 7 8 8 9 9 85 10 10 11 84 12 4 13
REMARK SMILES IDX 3 14 2 15 1 16 5 17 6 18 7 19 86 20 87 21 88 22 17 23 18 24
REMARK SMILES IDX 19 25 20 27 21 28 22 29 83 30 23 31 82 32 24 33 25 34 26 35
REMARK SMILES IDX 76 36 27 37 81 38 75 39 77 40 28 41 80 42 74 43 73 44 29 46
REMARK SMILES IDX 61 47 41 48 60 49 42 50 45 51 59 52 78 53 43 54 44 55 58 57
REMARK SMILES IDX 79 58 46 59 30 60 31 61 39 62 32 63 38 64 40 65 37 66 33 67
REMARK SMILES IDX 34 68 35 69 36 70 62 71 63 72 71 73 64 74 70 75 72 76 69 77
REMARK SMILES IDX 65 78 66 79 67 80 68 81 47 82 48 83 56 84 49 85 55 86 57 87
REMARK SMILES IDX 54 88 50 89 51 90 52 91 53 92
REMARK H PARENT 14 6 18 26 77 45 45 56
REMARK Flexibility Score: inf
ROOT
ATOM      1  C   UNL A   1      37.914  19.833  24.961  1.00  0.00     0.042 C 
ENDROOT
BRANCH   1   2
ATOM      2  C   UNL A   1      36.658  20.695  25.043  1.00  0.00     0.118 C 
BRANCH   2   3
ATOM      3  N   UNL A   1      35.451  19.898  25.200  1.00  0.00    -0.352 N 
ATOM      4  C   UNL A   1      34.139  20.290  25.124  1.00  0.00     0.251 C 
ATOM      5  O   UNL A   1      33.237  19.457  25.097  1.00  0.00    -0.269 OA
ATOM      6  H   UNL A   1      35.596  18.942  25.386  1.00  0.00     0.163 HD
BRANCH   4   7
ATOM      7  C   UNL A   1      33.800  21.722  25.028  1.00  0.00     0.046 A 
ATOM      8  C   UNL A   1      33.163  24.479  24.927  1.00  0.00     0.116 A 
ATOM      9  C   UNL A   1      33.578  23.867  26.123  1.00  0.00     0.034 A 
ATOM     10  C   UNL A   1      33.069  23.652  23.794  1.00  0.00     0.293 A 
ATOM     11  C   UNL A   1      33.910  22.510  26.174  1.00  0.00     0.016 A 
ATOM     12  C   UNL A   1      33.397  22.292  23.823  1.00  0.00     0.101 A 
BRANCH   8  13
ATOM     13  N   UNL A   1      32.913  25.839  24.907  1.00  0.00    -0.366 N 
BRANCH  13  14
ATOM     14  C   UNL A   1      31.950  26.430  25.840  1.00  0.00     0.116 C 
BRANCH  14  15
ATOM     15  C   UNL A   1      32.606  27.509  26.712  1.00  0.00     0.018 C 
ATOM     16  C   UNL A   1      31.640  28.147  27.703  1.00  0.00     0.006 C 
ENDBRANCH  14  15
ENDBRANCH  13  14
BRANCH  13  17
ATOM     17  C   UNL A   1      33.865  26.708  24.197  1.00  0.00     0.116 C 
BRANCH  17  18
ATOM     18  C   UNL A   1      33.168  27.642  23.197  1.00  0.00     0.018 C 
ATOM     19  C   UNL A   1      34.074  28.763  22.700  1.00  0.00     0.006 C 
ENDBRANCH  17  18
ENDBRANCH  13  17
ENDBRANCH   8  13
BRANCH  10  20
ATOM     20  N   UNL A   1      32.497  24.154  22.559  1.00  0.00     0.065 N 
ATOM     21  O   UNL A   1      33.285  24.312  21.614  1.00  0.00    -0.258 OA
ATOM     22  O   UNL A   1      31.296  24.450  22.551  1.00  0.00    -0.258 OA
ENDBRANCH  10  20
ENDBRANCH   4   7
ENDBRANCH   2   3
ENDBRANCH   1   2
BRANCH   1  23
ATOM     23  C   UNL A   1      39.088  20.379  25.765  1.00  0.00     0.118 C 
BRANCH  23  24
ATOM     24  N   UNL A   1      40.145  19.394  25.931  1.00  0.00    -0.352 N 
ATOM     25  C   UNL A   1      41.494  19.574  26.115  1.00  0.00     0.251 C 
ATOM     26  H   UNL A   1      39.848  18.456  25.908  1.00  0.00     0.163 HD
ATOM     27  O   UNL A   1      42.242  18.607  26.012  1.00  0.00    -0.269 OA
BRANCH  25  28
ATOM     28  C   UNL A   1      42.044  20.916  26.415  1.00  0.00     0.039 A 
ATOM     29  C   UNL A   1      42.358  21.768  25.352  1.00  0.00     0.014 A 
ATOM     30  C   UNL A   1      42.293  21.323  27.729  1.00  0.00     0.014 A 
ATOM     31  C   UNL A   1      42.872  23.041  25.608  1.00  0.00     0.010 A 
ATOM     32  C   UNL A   1      42.737  22.620  27.985  1.00  0.00     0.010 A 
ATOM     33  C   UNL A   1      43.042  23.489  26.928  1.00  0.00    -0.014 A 
BRANCH  33  34
ATOM     34  C   UNL A   1      43.558  24.851  27.220  1.00  0.00     0.031 A 
ATOM     35  C   UNL A   1      42.633  25.905  27.769  1.00  0.00     0.074 A 
ATOM     36  C   UNL A   1      44.839  25.156  26.935  1.00  0.00     0.049 A 
ATOM     37  N   UNL A   1      42.866  27.170  28.010  1.00  0.00    -0.248 NA
ATOM     38  C   UNL A   1      41.254  25.484  28.055  1.00  0.00     0.031 C 
ATOM     39  C   UNL A   1      45.820  24.231  26.364  1.00  0.00     0.029 A 
ATOM     40  N   UNL A   1      45.535  26.331  27.075  1.00  0.00    -0.354 N 
ATOM     41  C   UNL A   1      41.660  27.700  28.457  1.00  0.00     0.074 A 
ATOM     42  C   UNL A   1      40.687  26.630  28.400  1.00  0.00     0.031 C 
ATOM     43  C   UNL A   1      46.994  24.868  26.220  1.00  0.00     0.029 A 
ATOM     44  C   UNL A   1      46.840  26.256  26.645  1.00  0.00     0.049 A 
ATOM     45  H   UNL A   1      45.138  27.151  27.449  1.00  0.00     0.167 HD
ATOM     46  C   UNL A   1      41.395  28.957  28.895  1.00  0.00     0.034 A 
ATOM     47  C   UNL A   1      47.799  27.200  26.587  1.00  0.00     0.034 A 
ATOM     48  C   UNL A   1      42.383  30.007  28.962  1.00  0.00     0.049 A 
ATOM     49  C   UNL A   1      47.481  28.591  27.074  1.00  0.00     0.074 A 
ATOM     50  C   UNL A   1      42.240  31.297  29.440  1.00  0.00     0.029 A 
ATOM     51  N   UNL A   1      43.700  29.888  28.532  1.00  0.00    -0.354 N 
ATOM     52  N   UNL A   1      46.347  29.064  27.538  1.00  0.00    -0.248 NA
ATOM     53  C   UNL A   1      48.575  29.570  27.041  1.00  0.00     0.031 C 
ATOM     54  C   UNL A   1      43.447  31.976  29.244  1.00  0.00     0.029 A 
ATOM     55  C   UNL A   1      44.370  31.090  28.710  1.00  0.00     0.049 A 
ATOM     56  H   UNL A   1      44.099  29.071  28.156  1.00  0.00     0.167 HD
ATOM     57  C   UNL A   1      46.603  30.390  27.879  1.00  0.00     0.074 A 
ATOM     58  C   UNL A   1      47.999  30.634  27.581  1.00  0.00     0.031 C 
ATOM     59  C   UNL A   1      45.760  31.321  28.397  1.00  0.00     0.034 A 
BRANCH  46  60
ATOM     60  C   UNL A   1      39.974  29.264  29.307  1.00  0.00     0.023 A 
ATOM     61  C   UNL A   1      39.596  29.348  30.659  1.00  0.00     0.031 A 
ATOM     62  C   UNL A   1      38.975  29.447  28.334  1.00  0.00     0.131 A 
ATOM     63  C   UNL A   1      38.248  29.528  31.001  1.00  0.00     0.055 A 
ATOM     64  C   UNL A   1      37.648  29.709  28.682  1.00  0.00     0.041 A 
ATOM     65  F   UNL A   1      39.268  29.360  27.028  1.00  0.00    -0.206 F 
ATOM     66  C   UNL A   1      37.274  29.735  30.022  1.00  0.00     0.022 A 
BRANCH  63  67
ATOM     67  S   UNL A   1      37.764  29.342  32.740  1.00  0.00     0.124 S 
ATOM     68  O   UNL A   1      38.925  29.899  33.429  1.00  0.00    -0.237 OA
ATOM     69  O   UNL A   1      36.539  30.130  32.813  1.00  0.00    -0.237 OA
ATOM     70  O   UNL A   1      37.589  27.900  32.896  1.00  0.00    -0.744 OA
ENDBRANCH  63  67
ENDBRANCH  46  60
BRANCH  47  71
ATOM     71  C   UNL A   1      49.148  26.872  26.042  1.00  0.00     0.023 A 
ATOM     72  C   UNL A   1      49.552  27.338  24.782  1.00  0.00     0.031 A 
ATOM     73  C   UNL A   1      50.040  26.058  26.762  1.00  0.00     0.131 A 
ATOM     74  C   UNL A   1      50.795  26.951  24.258  1.00  0.00     0.055 A 
ATOM     75  C   UNL A   1      51.296  25.717  26.259  1.00  0.00     0.041 A 
ATOM     76  F   UNL A   1      49.705  25.591  27.975  1.00  0.00    -0.206 F 
ATOM     77  C   UNL A   1      51.675  26.154  24.993  1.00  0.00     0.022 A 
BRANCH  74  78
ATOM     78  S   UNL A   1      51.213  27.442  22.563  1.00  0.00     0.124 S 
ATOM     79  O   UNL A   1      52.590  26.975  22.448  1.00  0.00    -0.237 OA
ATOM     80  O   UNL A   1      50.221  26.711  21.782  1.00  0.00    -0.237 OA
ATOM     81  O   UNL A   1      51.046  28.893  22.577  1.00  0.00    -0.744 OA
ENDBRANCH  74  78
ENDBRANCH  47  71
BRANCH  59  82
ATOM     82  C   UNL A   1      46.348  32.673  28.715  1.00  0.00     0.023 A 
ATOM     83  C   UNL A   1      46.365  33.714  27.770  1.00  0.00     0.031 A 
ATOM     84  C   UNL A   1      46.913  32.917  29.979  1.00  0.00     0.131 A 
ATOM     85  C   UNL A   1      46.984  34.932  28.085  1.00  0.00     0.055 A 
ATOM     86  C   UNL A   1      47.476  34.150  30.307  1.00  0.00     0.041 A 
ATOM     87  F   UNL A   1      46.927  31.957  30.917  1.00  0.00    -0.206 F 
ATOM     88  C   UNL A   1      47.525  35.163  29.353  1.00  0.00     0.022 A 
BRANCH  85  89
ATOM     89  S   UNL A   1      47.153  36.186  26.785  1.00  0.00     0.124 S 
ATOM     90  O   UNL A   1      46.447  37.323  27.365  1.00  0.00    -0.237 OA
ATOM     91  O   UNL A   1      48.600  36.325  26.670  1.00  0.00    -0.237 OA
ATOM     92  O   UNL A   1      46.497  35.573  25.630  1.00  0.00    -0.744 OA
ENDBRANCH  85  89
ENDBRANCH  59  82
ENDBRANCH  33  34
ENDBRANCH  25  28
ENDBRANCH  23  24
ENDBRANCH   1  23
TORSDOF 19
ENDMDL
