MODEL 1
REMARK VINA RESULT:     -14.4      0.000      0.000
REMARK SMILES Cc1cccc(C(=O)Nc2cc(C(=O)NCCCNC(=O)c3ccc(-c4c5nc(c(-c6cc(S(=O)(=O)[O-])ccc6F)c6ccc([nH]6)c(-c6cc(S(=O)(=O)[O-])ccc6F)c6nc(c(-c7cc(S(=O)(=O)[O-])ccc7F)c7ccc4[nH]7)C=C6)C=C5)cc3)ccc2N2CC[NH+](CC(=O)NC(C)(C)C)CC2)c1
REMARK SMILES IDX 16 1 15 2 13 3 14 4 12 6 10 7 11 8 87 9 86 10 85 11 9 12
REMARK SMILES IDX 7 13 8 14 6 16 1 17 2 18 3 19 102 20 4 21 5 22 88 23 89 24
REMARK SMILES IDX 101 25 90 26 100 27 91 28 92 30 93 31 94 32 95 33 96 35
REMARK SMILES IDX 97 36 98 37 99 38 17 39 18 40 19 41 20 42 21 44 22 45 23 46
REMARK SMILES IDX 84 47 24 48 83 49 25 50 26 51 27 52 77 53 28 54 82 55 76 56
REMARK SMILES IDX 78 57 29 58 81 59 75 60 74 61 30 63 62 64 42 65 61 66 43 67
REMARK SMILES IDX 46 68 60 69 79 70 44 71 45 72 59 74 80 75 47 76 31 77 32 78
REMARK SMILES IDX 40 79 33 80 39 81 41 82 38 83 34 84 35 85 36 86 37 87 63 88
REMARK SMILES IDX 64 89 72 90 65 91 71 92 73 93 70 94 66 95 67 96 68 97 69 98
REMARK SMILES IDX 48 99 49 100 57 101 50 102 56 103 58 104 55 105 51 106
REMARK SMILES IDX 52 107 53 108 54 109
REMARK H PARENT 15 5 9 15 91 29 95 34 19 43 78 62 46 73
REMARK Flexibility Score: inf
ROOT
ATOM      1  C   UNL A   1      39.493  21.768  26.008  1.00  0.00     0.118 C 
ENDROOT
BRANCH   1   2
ATOM      2  N   UNL A   1      38.702  20.571  25.685  1.00  0.00    -0.352 N 
ATOM      3  C   UNL A   1      37.510  20.339  25.032  1.00  0.00     0.251 C 
ATOM      4  O   UNL A   1      37.225  19.172  24.751  1.00  0.00    -0.269 OA
ATOM      5  H   UNL A   1      39.121  19.743  26.012  1.00  0.00     0.163 HD
BRANCH   3   6
ATOM      6  C   UNL A   1      36.532  21.398  24.645  1.00  0.00     0.042 A 
ATOM      7  C   UNL A   1      34.317  22.374  24.689  1.00  0.00     0.065 A 
ATOM      8  C   UNL A   1      35.199  21.347  24.989  1.00  0.00     0.042 A 
ATOM      9  C   UNL A   1      34.710  23.495  23.924  1.00  0.00     0.061 A 
ATOM     10  C   UNL A   1      36.052  23.533  23.526  1.00  0.00     0.029 A 
ATOM     11  C   UNL A   1      36.954  22.513  23.902  1.00  0.00     0.016 A 
BRANCH   7  12
ATOM     12  N   UNL A   1      33.010  22.287  25.199  1.00  0.00    -0.320 N 
ATOM     13  C   UNL A   1      32.104  21.239  25.140  1.00  0.00     0.255 C 
ATOM     14  O   UNL A   1      31.037  21.377  25.746  1.00  0.00    -0.269 OA
ATOM     15  H   UNL A   1      32.690  23.092  25.669  1.00  0.00     0.170 HD
BRANCH  13  16
ATOM     16  C   UNL A   1      32.385  19.920  24.479  1.00  0.00     0.040 A 
ATOM     17  C   UNL A   1      34.064  16.543  25.061  1.00  0.00     0.044 C 
ATOM     18  C   UNL A   1      33.261  17.638  24.418  1.00  0.00    -0.050 A 
ATOM     19  C   UNL A   1      33.029  17.594  23.042  1.00  0.00     0.003 A 
ATOM     20  C   UNL A   1      32.864  18.776  25.140  1.00  0.00     0.017 A 
ATOM     21  C   UNL A   1      32.447  18.678  22.391  1.00  0.00     0.001 A 
ATOM     22  C   UNL A   1      32.140  19.840  23.102  1.00  0.00     0.014 A 
ENDBRANCH  13  16
ENDBRANCH   7  12
BRANCH   9  23
ATOM     23  N   UNL A   1      33.825  24.539  23.700  1.00  0.00    -0.359 N 
ATOM     24  C   UNL A   1      33.173  24.854  22.421  1.00  0.00     0.178 C 
ATOM     25  C   UNL A   1      34.030  25.740  24.508  1.00  0.00     0.178 C 
ATOM     26  C   UNL A   1      31.890  25.733  22.662  1.00  0.00     0.284 C 
ATOM     27  C   UNL A   1      32.649  26.284  24.899  1.00  0.00     0.284 C 
ATOM     28  N   UNL A   1      31.880  26.753  23.744  1.00  0.00    -0.324 N 
ATOM     29  H   UNL A   1      30.896  26.836  24.002  1.00  0.00     0.348 HD
BRANCH  28  30
ATOM     30  C   UNL A   1      32.195  28.142  23.365  1.00  0.00     0.363 C 
BRANCH  30  31
ATOM     31  C   UNL A   1      31.590  29.229  24.245  1.00  0.00     0.275 C 
ATOM     32  O   UNL A   1      32.176  29.569  25.282  1.00  0.00    -0.268 OA
ATOM     33  N   UNL A   1      30.425  29.882  23.976  1.00  0.00    -0.347 N 
ATOM     34  H   UNL A   1      30.295  30.617  24.616  1.00  0.00     0.164 HD
BRANCH  33  35
ATOM     35  C   UNL A   1      29.284  29.833  23.014  1.00  0.00     0.032 C 
ATOM     36  C   UNL A   1      28.548  28.480  23.070  1.00  0.00     0.034 C 
ATOM     37  C   UNL A   1      28.270  30.892  23.501  1.00  0.00     0.034 C 
ATOM     38  C   UNL A   1      29.642  30.170  21.565  1.00  0.00     0.034 C 
ENDBRANCH  33  35
ENDBRANCH  30  31
ENDBRANCH  28  30
ENDBRANCH   9  23
ENDBRANCH   3   6
ENDBRANCH   1   2
BRANCH   1  39
ATOM     39  C   UNL A   1      40.368  21.628  27.261  1.00  0.00     0.042 C 
BRANCH  39  40
ATOM     40  C   UNL A   1      41.012  22.923  27.708  1.00  0.00     0.118 C 
BRANCH  40  41
ATOM     41  N   UNL A   1      42.031  23.450  26.795  1.00  0.00    -0.352 N 
ATOM     42  C   UNL A   1      42.049  24.709  26.209  1.00  0.00     0.251 C 
ATOM     43  H   UNL A   1      42.779  22.848  26.575  1.00  0.00     0.163 HD
ATOM     44  O   UNL A   1      42.922  25.078  25.446  1.00  0.00    -0.269 OA
BRANCH  42  45
ATOM     45  C   UNL A   1      40.999  25.651  26.662  1.00  0.00     0.039 A 
ATOM     46  C   UNL A   1      40.984  26.896  26.029  1.00  0.00     0.014 A 
ATOM     47  C   UNL A   1      40.443  25.468  27.926  1.00  0.00     0.014 A 
ATOM     48  C   UNL A   1      40.651  28.021  26.774  1.00  0.00     0.010 A 
ATOM     49  C   UNL A   1      40.222  26.598  28.695  1.00  0.00     0.010 A 
ATOM     50  C   UNL A   1      40.398  27.874  28.138  1.00  0.00    -0.014 A 
BRANCH  50  51
ATOM     51  C   UNL A   1      40.432  29.004  29.065  1.00  0.00     0.031 A 
ATOM     52  C   UNL A   1      39.317  29.972  29.078  1.00  0.00     0.074 A 
ATOM     53  C   UNL A   1      41.483  29.198  29.894  1.00  0.00     0.049 A 
ATOM     54  N   UNL A   1      39.427  31.212  29.421  1.00  0.00    -0.248 NA
ATOM     55  C   UNL A   1      37.976  29.615  28.632  1.00  0.00     0.031 C 
ATOM     56  C   UNL A   1      41.566  30.146  31.003  1.00  0.00     0.029 A 
ATOM     57  N   UNL A   1      42.789  28.740  29.733  1.00  0.00    -0.354 N 
ATOM     58  C   UNL A   1      38.160  31.742  29.487  1.00  0.00     0.074 A 
ATOM     59  C   UNL A   1      37.297  30.720  28.945  1.00  0.00     0.031 C 
ATOM     60  C   UNL A   1      42.858  30.401  31.261  1.00  0.00     0.029 A 
ATOM     61  C   UNL A   1      43.648  29.726  30.249  1.00  0.00     0.049 A 
ATOM     62  H   UNL A   1      43.060  27.883  29.330  1.00  0.00     0.167 HD
ATOM     63  C   UNL A   1      37.953  32.940  30.105  1.00  0.00     0.034 A 
ATOM     64  C   UNL A   1      44.607  30.313  29.478  1.00  0.00     0.034 A 
ATOM     65  C   UNL A   1      39.205  33.549  30.548  1.00  0.00     0.049 A 
ATOM     66  C   UNL A   1      44.447  31.806  29.334  1.00  0.00     0.074 A 
ATOM     67  C   UNL A   1      39.852  33.583  31.771  1.00  0.00     0.029 A 
ATOM     68  N   UNL A   1      40.124  33.997  29.604  1.00  0.00    -0.354 N 
ATOM     69  N   UNL A   1      43.367  32.465  29.652  1.00  0.00    -0.248 NA
ATOM     70  C   UNL A   1      45.489  32.667  28.785  1.00  0.00     0.031 C 
ATOM     71  C   UNL A   1      41.193  33.990  31.546  1.00  0.00     0.029 A 
ATOM     72  C   UNL A   1      41.352  34.236  30.192  1.00  0.00     0.049 A 
ATOM     73  H   UNL A   1      39.927  34.126  28.648  1.00  0.00     0.167 HD
ATOM     74  C   UNL A   1      43.517  33.782  29.297  1.00  0.00     0.074 A 
ATOM     75  C   UNL A   1      44.884  33.866  28.812  1.00  0.00     0.031 C 
ATOM     76  C   UNL A   1      42.491  34.681  29.397  1.00  0.00     0.034 A 
BRANCH  63  77
ATOM     77  C   UNL A   1      36.586  33.383  30.573  1.00  0.00     0.023 A 
ATOM     78  C   UNL A   1      35.714  34.024  29.670  1.00  0.00     0.031 A 
ATOM     79  C   UNL A   1      36.110  33.263  31.893  1.00  0.00     0.131 A 
ATOM     80  C   UNL A   1      34.511  34.609  30.106  1.00  0.00     0.055 A 
ATOM     81  C   UNL A   1      34.955  33.914  32.345  1.00  0.00     0.041 A 
ATOM     82  F   UNL A   1      36.722  32.473  32.788  1.00  0.00    -0.206 F 
ATOM     83  C   UNL A   1      34.155  34.607  31.451  1.00  0.00     0.022 A 
BRANCH  80  84
ATOM     84  S   UNL A   1      33.401  35.363  28.885  1.00  0.00     0.124 S 
ATOM     85  O   UNL A   1      32.515  36.166  29.720  1.00  0.00    -0.237 OA
ATOM     86  O   UNL A   1      34.334  36.099  28.037  1.00  0.00    -0.237 OA
ATOM     87  O   UNL A   1      32.768  34.210  28.244  1.00  0.00    -0.744 OA
ENDBRANCH  80  84
ENDBRANCH  63  77
BRANCH  64  88
ATOM     88  C   UNL A   1      45.170  29.406  28.443  1.00  0.00     0.023 A 
ATOM     89  C   UNL A   1      46.127  28.467  28.876  1.00  0.00     0.031 A 
ATOM     90  C   UNL A   1      44.511  29.169  27.229  1.00  0.00     0.131 A 
ATOM     91  C   UNL A   1      46.267  27.247  28.203  1.00  0.00     0.055 A 
ATOM     92  C   UNL A   1      44.704  27.975  26.524  1.00  0.00     0.041 A 
ATOM     93  F   UNL A   1      43.571  30.016  26.786  1.00  0.00    -0.206 F 
ATOM     94  C   UNL A   1      45.544  26.986  27.038  1.00  0.00     0.022 A 
BRANCH  91  95
ATOM     95  S   UNL A   1      47.163  25.891  29.014  1.00  0.00     0.124 S 
ATOM     96  O   UNL A   1      46.309  25.581  30.154  1.00  0.00    -0.237 OA
ATOM     97  O   UNL A   1      47.223  24.863  27.978  1.00  0.00    -0.237 OA
ATOM     98  O   UNL A   1      48.454  26.498  29.331  1.00  0.00    -0.744 OA
ENDBRANCH  91  95
ENDBRANCH  64  88
BRANCH  76  99
ATOM     99  C   UNL A   1      42.505  36.083  28.820  1.00  0.00     0.023 A 
ATOM    100  C   UNL A   1      43.076  37.181  29.481  1.00  0.00     0.031 A 
ATOM    101  C   UNL A   1      41.987  36.353  27.531  1.00  0.00     0.131 A 
ATOM    102  C   UNL A   1      43.014  38.477  28.940  1.00  0.00     0.055 A 
ATOM    103  C   UNL A   1      42.009  37.627  26.952  1.00  0.00     0.041 A 
ATOM    104  F   UNL A   1      41.442  35.388  26.775  1.00  0.00    -0.206 F 
ATOM    105  C   UNL A   1      42.504  38.706  27.667  1.00  0.00     0.022 A 
BRANCH 102 106
ATOM    106  S   UNL A   1      43.541  39.864  29.983  1.00  0.00     0.124 S 
ATOM    107  O   UNL A   1      44.705  40.360  29.253  1.00  0.00    -0.237 OA
ATOM    108  O   UNL A   1      42.368  40.732  29.967  1.00  0.00    -0.237 OA
ATOM    109  O   UNL A   1      43.836  39.237  31.270  1.00  0.00    -0.744 OA
ENDBRANCH 102 106
ENDBRANCH  76  99
ENDBRANCH  50  51
ENDBRANCH  42  45
ENDBRANCH  40  41
ENDBRANCH  39  40
ENDBRANCH   1  39
TORSDOF 19
ENDMDL
MODEL 2
REMARK VINA RESULT:     -14.0      4.283     10.530
REMARK SMILES Cc1cccc(C(=O)Nc2cc(C(=O)NCCCNC(=O)c3ccc(-c4c5nc(c(-c6cc(S(=O)(=O)[O-])ccc6F)c6ccc([nH]6)c(-c6cc(S(=O)(=O)[O-])ccc6F)c6nc(c(-c7cc(S(=O)(=O)[O-])ccc7F)c7ccc4[nH]7)C=C6)C=C5)cc3)ccc2N2CC[NH+](CC(=O)NC(C)(C)C)CC2)c1
REMARK SMILES IDX 16 1 15 2 13 3 14 4 12 6 10 7 11 8 87 9 86 10 85 11 9 12
REMARK SMILES IDX 7 13 8 14 6 16 1 17 2 18 3 19 102 20 4 21 5 22 88 23 89 24
REMARK SMILES IDX 101 25 90 26 100 27 91 28 92 30 93 31 94 32 95 33 96 35
REMARK SMILES IDX 97 36 98 37 99 38 17 39 18 40 19 41 20 42 21 44 22 45 23 46
REMARK SMILES IDX 84 47 24 48 83 49 25 50 26 51 27 52 77 53 28 54 82 55 76 56
REMARK SMILES IDX 78 57 29 58 81 59 75 60 74 61 30 63 62 64 42 65 61 66 43 67
REMARK SMILES IDX 46 68 60 69 79 70 44 71 45 72 59 74 80 75 47 76 31 77 32 78
REMARK SMILES IDX 40 79 33 80 39 81 41 82 38 83 34 84 35 85 36 86 37 87 63 88
REMARK SMILES IDX 64 89 72 90 65 91 71 92 73 93 70 94 66 95 67 96 68 97 69 98
REMARK SMILES IDX 48 99 49 100 57 101 50 102 56 103 58 104 55 105 51 106
REMARK SMILES IDX 52 107 53 108 54 109
REMARK H PARENT 15 5 9 15 91 29 95 34 19 43 78 62 46 73
REMARK Flexibility Score: inf
ROOT
ATOM      1  C   UNL A   1      34.358  31.342  27.912  1.00  0.00     0.118 C 
ENDROOT
BRANCH   1   2
ATOM      2  N   UNL A   1      33.136  31.784  27.223  1.00  0.00    -0.352 N 
ATOM      3  C   UNL A   1      32.040  31.147  26.682  1.00  0.00     0.251 C 
ATOM      4  O   UNL A   1      31.075  31.841  26.353  1.00  0.00    -0.269 OA
ATOM      5  H   UNL A   1      33.091  32.762  27.125  1.00  0.00     0.163 HD
BRANCH   3   6
ATOM      6  C   UNL A   1      31.935  29.675  26.460  1.00  0.00     0.042 A 
ATOM      7  C   UNL A   1      31.839  27.739  25.008  1.00  0.00     0.065 A 
ATOM      8  C   UNL A   1      31.858  29.111  25.205  1.00  0.00     0.042 A 
ATOM      9  C   UNL A   1      31.798  26.831  26.091  1.00  0.00     0.061 A 
ATOM     10  C   UNL A   1      31.826  27.395  27.372  1.00  0.00     0.029 A 
ATOM     11  C   UNL A   1      31.919  28.793  27.553  1.00  0.00     0.016 A 
BRANCH   7  12
ATOM     12  N   UNL A   1      31.894  27.263  23.686  1.00  0.00    -0.320 N 
ATOM     13  C   UNL A   1      31.034  27.497  22.625  1.00  0.00     0.255 C 
ATOM     14  O   UNL A   1      31.348  27.029  21.526  1.00  0.00    -0.269 OA
ATOM     15  H   UNL A   1      32.658  26.676  23.485  1.00  0.00     0.170 HD
BRANCH  13  16
ATOM     16  C   UNL A   1      29.811  28.365  22.708  1.00  0.00     0.040 A 
ATOM     17  C   UNL A   1      28.671  32.006  22.580  1.00  0.00     0.044 C 
ATOM     18  C   UNL A   1      28.628  30.504  22.637  1.00  0.00    -0.050 A 
ATOM     19  C   UNL A   1      27.474  29.874  23.107  1.00  0.00     0.003 A 
ATOM     20  C   UNL A   1      29.767  29.728  22.367  1.00  0.00     0.017 A 
ATOM     21  C   UNL A   1      27.467  28.502  23.340  1.00  0.00     0.001 A 
ATOM     22  C   UNL A   1      28.632  27.753  23.156  1.00  0.00     0.014 A 
ENDBRANCH  13  16
ENDBRANCH   7  12
BRANCH   9  23
ATOM     23  N   UNL A   1      31.851  25.464  25.865  1.00  0.00    -0.359 N 
ATOM     24  C   UNL A   1      30.751  24.514  26.082  1.00  0.00     0.178 C 
ATOM     25  C   UNL A   1      33.154  24.830  26.059  1.00  0.00     0.178 C 
ATOM     26  C   UNL A   1      30.992  23.198  25.253  1.00  0.00     0.284 C 
ATOM     27  C   UNL A   1      33.330  23.773  24.959  1.00  0.00     0.284 C 
ATOM     28  N   UNL A   1      32.372  22.672  25.077  1.00  0.00    -0.324 N 
ATOM     29  H   UNL A   1      32.335  22.158  24.196  1.00  0.00     0.348 HD
BRANCH  28  30
ATOM     30  C   UNL A   1      32.814  21.617  26.006  1.00  0.00     0.363 C 
BRANCH  30  31
ATOM     31  C   UNL A   1      34.144  20.950  25.675  1.00  0.00     0.275 C 
ATOM     32  O   UNL A   1      35.200  21.566  25.874  1.00  0.00    -0.268 OA
ATOM     33  N   UNL A   1      34.273  19.692  25.168  1.00  0.00    -0.347 N 
ATOM     34  H   UNL A   1      35.222  19.433  25.145  1.00  0.00     0.164 HD
BRANCH  33  35
ATOM     35  C   UNL A   1      33.428  18.584  24.634  1.00  0.00     0.032 C 
ATOM     36  C   UNL A   1      32.526  19.059  23.479  1.00  0.00     0.034 C 
ATOM     37  C   UNL A   1      34.406  17.558  24.019  1.00  0.00     0.034 C 
ATOM     38  C   UNL A   1      32.587  17.849  25.680  1.00  0.00     0.034 C 
ENDBRANCH  33  35
ENDBRANCH  30  31
ENDBRANCH  28  30
ENDBRANCH   9  23
ENDBRANCH   3   6
ENDBRANCH   1   2
BRANCH   1  39
ATOM     39  C   UNL A   1      35.085  32.454  28.682  1.00  0.00     0.042 C 
BRANCH  39  40
ATOM     40  C   UNL A   1      35.096  32.254  30.183  1.00  0.00     0.118 C 
BRANCH  40  41
ATOM     41  N   UNL A   1      34.024  32.947  30.904  1.00  0.00    -0.352 N 
ATOM     42  C   UNL A   1      34.141  33.632  32.106  1.00  0.00     0.251 C 
ATOM     43  H   UNL A   1      33.130  32.923  30.493  1.00  0.00     0.163 HD
ATOM     44  O   UNL A   1      33.202  34.176  32.659  1.00  0.00    -0.269 OA
BRANCH  42  45
ATOM     45  C   UNL A   1      35.516  33.784  32.636  1.00  0.00     0.039 A 
ATOM     46  C   UNL A   1      36.395  34.526  31.842  1.00  0.00     0.014 A 
ATOM     47  C   UNL A   1      35.978  32.852  33.562  1.00  0.00     0.014 A 
ATOM     48  C   UNL A   1      37.730  34.142  31.786  1.00  0.00     0.010 A 
ATOM     49  C   UNL A   1      37.278  32.401  33.418  1.00  0.00     0.010 A 
ATOM     50  C   UNL A   1      38.131  32.999  32.478  1.00  0.00    -0.014 A 
BRANCH  50  51
ATOM     51  C   UNL A   1      39.379  32.300  32.175  1.00  0.00     0.031 A 
ATOM     52  C   UNL A   1      39.338  31.012  31.453  1.00  0.00     0.074 A 
ATOM     53  C   UNL A   1      40.574  32.796  32.570  1.00  0.00     0.049 A 
ATOM     54  N   UNL A   1      40.225  30.081  31.567  1.00  0.00    -0.248 NA
ATOM     55  C   UNL A   1      38.232  30.650  30.577  1.00  0.00     0.031 C 
ATOM     56  C   UNL A   1      41.899  32.328  32.168  1.00  0.00     0.029 A 
ATOM     57  N   UNL A   1      40.823  33.677  33.621  1.00  0.00    -0.354 N 
ATOM     58  C   UNL A   1      39.954  29.127  30.614  1.00  0.00     0.074 A 
ATOM     59  C   UNL A   1      38.678  29.507  30.054  1.00  0.00     0.031 C 
ATOM     60  C   UNL A   1      42.793  32.704  33.094  1.00  0.00     0.029 A 
ATOM     61  C   UNL A   1      42.060  33.318  34.186  1.00  0.00     0.049 A 
ATOM     62  H   UNL A   1      40.240  34.414  33.915  1.00  0.00     0.167 HD
ATOM     63  C   UNL A   1      40.888  28.182  30.309  1.00  0.00     0.034 A 
ATOM     64  C   UNL A   1      42.172  32.974  35.500  1.00  0.00     0.034 A 
ATOM     65  C   UNL A   1      42.070  28.288  31.161  1.00  0.00     0.049 A 
ATOM     66  C   UNL A   1      42.683  31.573  35.725  1.00  0.00     0.074 A 
ATOM     67  C   UNL A   1      43.311  28.874  30.979  1.00  0.00     0.029 A 
ATOM     68  N   UNL A   1      41.968  28.000  32.518  1.00  0.00    -0.354 N 
ATOM     69  N   UNL A   1      42.748  30.655  34.799  1.00  0.00    -0.248 NA
ATOM     70  C   UNL A   1      43.129  31.089  37.027  1.00  0.00     0.031 C 
ATOM     71  C   UNL A   1      43.928  28.999  32.250  1.00  0.00     0.029 A 
ATOM     72  C   UNL A   1      43.078  28.460  33.201  1.00  0.00     0.049 A 
ATOM     73  H   UNL A   1      41.209  27.531  32.935  1.00  0.00     0.167 HD
ATOM     74  C   UNL A   1      43.154  29.471  35.361  1.00  0.00     0.074 A 
ATOM     75  C   UNL A   1      43.434  29.812  36.745  1.00  0.00     0.031 C 
ATOM     76  C   UNL A   1      43.187  28.304  34.648  1.00  0.00     0.034 A 
BRANCH  63  77
ATOM     77  C   UNL A   1      40.840  27.379  29.029  1.00  0.00     0.023 A 
ATOM     78  C   UNL A   1      41.808  27.604  28.030  1.00  0.00     0.031 A 
ATOM     79  C   UNL A   1      39.844  26.437  28.708  1.00  0.00     0.131 A 
ATOM     80  C   UNL A   1      41.696  27.012  26.758  1.00  0.00     0.055 A 
ATOM     81  C   UNL A   1      39.685  25.910  27.419  1.00  0.00     0.041 A 
ATOM     82  F   UNL A   1      39.012  25.953  29.642  1.00  0.00    -0.206 F 
ATOM     83  C   UNL A   1      40.607  26.210  26.429  1.00  0.00     0.022 A 
BRANCH  80  84
ATOM     84  S   UNL A   1      43.008  27.288  25.536  1.00  0.00     0.124 S 
ATOM     85  O   UNL A   1      42.395  28.253  24.631  1.00  0.00    -0.237 OA
ATOM     86  O   UNL A   1      44.101  27.782  26.366  1.00  0.00    -0.237 OA
ATOM     87  O   UNL A   1      43.224  25.958  24.964  1.00  0.00    -0.744 OA
ENDBRANCH  80  84
ENDBRANCH  63  77
BRANCH  64  88
ATOM     88  C   UNL A   1      41.212  33.690  36.383  1.00  0.00     0.023 A 
ATOM     89  C   UNL A   1      39.940  33.107  36.540  1.00  0.00     0.031 A 
ATOM     90  C   UNL A   1      41.641  34.617  37.342  1.00  0.00     0.131 A 
ATOM     91  C   UNL A   1      39.217  33.310  37.722  1.00  0.00     0.055 A 
ATOM     92  C   UNL A   1      40.882  34.869  38.492  1.00  0.00     0.041 A 
ATOM     93  F   UNL A   1      42.854  35.181  37.254  1.00  0.00    -0.206 F 
ATOM     94  C   UNL A   1      39.692  34.174  38.711  1.00  0.00     0.022 A 
BRANCH  91  95
ATOM     95  S   UNL A   1      37.813  32.220  38.096  1.00  0.00     0.124 S 
ATOM     96  O   UNL A   1      38.057  31.076  37.226  1.00  0.00    -0.237 OA
ATOM     97  O   UNL A   1      37.961  31.962  39.526  1.00  0.00    -0.237 OA
ATOM     98  O   UNL A   1      36.659  33.047  37.753  1.00  0.00    -0.744 OA
ENDBRANCH  91  95
ENDBRANCH  64  88
BRANCH  76  99
ATOM     99  C   UNL A   1      43.403  26.928  35.244  1.00  0.00     0.023 A 
ATOM    100  C   UNL A   1      44.517  26.128  34.950  1.00  0.00     0.031 A 
ATOM    101  C   UNL A   1      42.504  26.390  36.196  1.00  0.00     0.131 A 
ATOM    102  C   UNL A   1      44.649  24.831  35.477  1.00  0.00     0.055 A 
ATOM    103  C   UNL A   1      42.684  25.136  36.791  1.00  0.00     0.041 A 
ATOM    104  F   UNL A   1      41.413  27.062  36.594  1.00  0.00    -0.206 F 
ATOM    105  C   UNL A   1      43.751  24.336  36.415  1.00  0.00     0.022 A 
BRANCH 102 106
ATOM    106  S   UNL A   1      45.981  23.780  34.835  1.00  0.00     0.124 S 
ATOM    107  O   UNL A   1      46.054  22.736  35.853  1.00  0.00    -0.237 OA
ATOM    108  O   UNL A   1      45.455  23.362  33.539  1.00  0.00    -0.237 OA
ATOM    109  O   UNL A   1      47.133  24.677  34.780  1.00  0.00    -0.744 OA
ENDBRANCH 102 106
ENDBRANCH  76  99
ENDBRANCH  50  51
ENDBRANCH  42  45
ENDBRANCH  40  41
ENDBRANCH  39  40
ENDBRANCH   1  39
TORSDOF 19
ENDMDL
MODEL 3
REMARK VINA RESULT:     -13.0      1.726      2.110
REMARK SMILES Cc1cccc(C(=O)Nc2cc(C(=O)NCCCNC(=O)c3ccc(-c4c5nc(c(-c6cc(S(=O)(=O)[O-])ccc6F)c6ccc([nH]6)c(-c6cc(S(=O)(=O)[O-])ccc6F)c6nc(c(-c7cc(S(=O)(=O)[O-])ccc7F)c7ccc4[nH]7)C=C6)C=C5)cc3)ccc2N2CC[NH+](CC(=O)NC(C)(C)C)CC2)c1
REMARK SMILES IDX 16 1 15 2 13 3 14 4 12 6 10 7 11 8 87 9 86 10 85 11 9 12
REMARK SMILES IDX 7 13 8 14 6 16 1 17 2 18 3 19 102 20 4 21 5 22 88 23 89 24
REMARK SMILES IDX 101 25 90 26 100 27 91 28 92 30 93 31 94 32 95 33 96 35
REMARK SMILES IDX 97 36 98 37 99 38 17 39 18 40 19 41 20 42 21 44 22 45 23 46
REMARK SMILES IDX 84 47 24 48 83 49 25 50 26 51 27 52 77 53 28 54 82 55 76 56
REMARK SMILES IDX 78 57 29 58 81 59 75 60 74 61 30 63 62 64 42 65 61 66 43 67
REMARK SMILES IDX 46 68 60 69 79 70 44 71 45 72 59 74 80 75 47 76 31 77 32 78
REMARK SMILES IDX 40 79 33 80 39 81 41 82 38 83 34 84 35 85 36 86 37 87 63 88
REMARK SMILES IDX 64 89 72 90 65 91 71 92 73 93 70 94 66 95 67 96 68 97 69 98
REMARK SMILES IDX 48 99 49 100 57 101 50 102 56 103 58 104 55 105 51 106
REMARK SMILES IDX 52 107 53 108 54 109
REMARK H PARENT 15 5 9 15 91 29 95 34 19 43 78 62 46 73
REMARK Flexibility Score: inf
ROOT
ATOM      1  C   UNL A   1      39.241  21.959  26.678  1.00  0.00     0.118 C 
ENDROOT
BRANCH   1   2
ATOM      2  N   UNL A   1      38.735  20.774  25.969  1.00  0.00    -0.352 N 
ATOM      3  C   UNL A   1      37.752  20.548  25.030  1.00  0.00     0.251 C 
ATOM      4  O   UNL A   1      37.721  19.444  24.481  1.00  0.00    -0.269 OA
ATOM      5  H   UNL A   1      39.209  19.950  26.226  1.00  0.00     0.163 HD
BRANCH   3   6
ATOM      6  C   UNL A   1      36.713  21.543  24.630  1.00  0.00     0.042 A 
ATOM      7  C   UNL A   1      34.473  22.454  24.753  1.00  0.00     0.065 A 
ATOM      8  C   UNL A   1      35.409  21.481  25.070  1.00  0.00     0.042 A 
ATOM      9  C   UNL A   1      34.774  23.520  23.875  1.00  0.00     0.061 A 
ATOM     10  C   UNL A   1      36.083  23.566  23.382  1.00  0.00     0.029 A 
ATOM     11  C   UNL A   1      37.044  22.606  23.773  1.00  0.00     0.016 A 
BRANCH   7  12
ATOM     12  N   UNL A   1      33.207  22.371  25.360  1.00  0.00    -0.320 N 
ATOM     13  C   UNL A   1      32.274  21.347  25.323  1.00  0.00     0.255 C 
ATOM     14  O   UNL A   1      31.261  21.478  26.017  1.00  0.00    -0.269 OA
ATOM     15  H   UNL A   1      32.945  23.158  25.890  1.00  0.00     0.170 HD
BRANCH  13  16
ATOM     16  C   UNL A   1      32.469  20.056  24.581  1.00  0.00     0.040 A 
ATOM     17  C   UNL A   1      33.973  16.565  24.930  1.00  0.00     0.044 C 
ATOM     18  C   UNL A   1      33.218  17.738  24.369  1.00  0.00    -0.050 A 
ATOM     19  C   UNL A   1      32.958  17.786  22.998  1.00  0.00     0.003 A 
ATOM     20  C   UNL A   1      32.898  18.850  25.164  1.00  0.00     0.017 A 
ATOM     21  C   UNL A   1      32.423  18.936  22.424  1.00  0.00     0.001 A 
ATOM     22  C   UNL A   1      32.194  20.069  23.207  1.00  0.00     0.014 A 
ENDBRANCH  13  16
ENDBRANCH   7  12
BRANCH   9  23
ATOM     23  N   UNL A   1      33.840  24.516  23.633  1.00  0.00    -0.359 N 
ATOM     24  C   UNL A   1      33.170  24.773  22.349  1.00  0.00     0.178 C 
ATOM     25  C   UNL A   1      33.989  25.742  24.415  1.00  0.00     0.178 C 
ATOM     26  C   UNL A   1      31.848  25.595  22.576  1.00  0.00     0.284 C 
ATOM     27  C   UNL A   1      32.584  26.228  24.799  1.00  0.00     0.284 C 
ATOM     28  N   UNL A   1      31.791  26.636  23.637  1.00  0.00    -0.324 N 
ATOM     29  H   UNL A   1      30.806  26.678  23.897  1.00  0.00     0.348 HD
BRANCH  28  30
ATOM     30  C   UNL A   1      32.039  28.029  23.228  1.00  0.00     0.363 C 
BRANCH  30  31
ATOM     31  C   UNL A   1      31.518  29.106  24.172  1.00  0.00     0.275 C 
ATOM     32  O   UNL A   1      32.159  29.380  25.195  1.00  0.00    -0.268 OA
ATOM     33  N   UNL A   1      30.374  29.818  23.976  1.00  0.00    -0.347 N 
ATOM     34  H   UNL A   1      30.301  30.533  24.648  1.00  0.00     0.164 HD
BRANCH  33  35
ATOM     35  C   UNL A   1      29.194  29.855  23.061  1.00  0.00     0.032 C 
ATOM     36  C   UNL A   1      29.615  30.058  21.593  1.00  0.00     0.034 C 
ATOM     37  C   UNL A   1      28.555  28.450  23.132  1.00  0.00     0.034 C 
ATOM     38  C   UNL A   1      28.114  30.872  23.437  1.00  0.00     0.034 C 
ENDBRANCH  33  35
ENDBRANCH  30  31
ENDBRANCH  28  30
ENDBRANCH   9  23
ENDBRANCH   3   6
ENDBRANCH   1   2
BRANCH   1  39
ATOM     39  C   UNL A   1      39.855  23.028  25.762  1.00  0.00     0.042 C 
BRANCH  39  40
ATOM     40  C   UNL A   1      41.358  23.156  25.890  1.00  0.00     0.118 C 
BRANCH  40  41
ATOM     41  N   UNL A   1      41.879  22.961  27.246  1.00  0.00    -0.352 N 
ATOM     42  C   UNL A   1      41.940  23.912  28.256  1.00  0.00     0.251 C 
ATOM     43  H   UNL A   1      42.220  22.063  27.462  1.00  0.00     0.163 HD
ATOM     44  O   UNL A   1      42.399  23.685  29.361  1.00  0.00    -0.269 OA
BRANCH  42  45
ATOM     45  C   UNL A   1      41.290  25.211  27.965  1.00  0.00     0.039 A 
ATOM     46  C   UNL A   1      42.141  26.235  27.541  1.00  0.00     0.014 A 
ATOM     47  C   UNL A   1      40.055  25.482  28.549  1.00  0.00     0.014 A 
ATOM     48  C   UNL A   1      41.873  27.537  27.947  1.00  0.00     0.010 A 
ATOM     49  C   UNL A   1      39.852  26.758  29.046  1.00  0.00     0.010 A 
ATOM     50  C   UNL A   1      40.798  27.766  28.806  1.00  0.00    -0.014 A 
BRANCH  50  51
ATOM     51  C   UNL A   1      40.672  28.994  29.589  1.00  0.00     0.031 A 
ATOM     52  C   UNL A   1      39.600  29.959  29.269  1.00  0.00     0.074 A 
ATOM     53  C   UNL A   1      41.539  29.281  30.587  1.00  0.00     0.049 A 
ATOM     54  N   UNL A   1      39.670  31.230  29.487  1.00  0.00    -0.248 NA
ATOM     55  C   UNL A   1      38.368  29.555  28.603  1.00  0.00     0.031 C 
ATOM     56  C   UNL A   1      41.421  30.349  31.578  1.00  0.00     0.029 A 
ATOM     57  N   UNL A   1      42.840  28.806  30.746  1.00  0.00    -0.354 N 
ATOM     58  C   UNL A   1      38.428  31.765  29.236  1.00  0.00     0.074 A 
ATOM     59  C   UNL A   1      37.667  30.689  28.647  1.00  0.00     0.031 C 
ATOM     60  C   UNL A   1      42.640  30.630  32.062  1.00  0.00     0.029 A 
ATOM     61  C   UNL A   1      43.601  29.844  31.312  1.00  0.00     0.049 A 
ATOM     62  H   UNL A   1      43.165  27.908  30.504  1.00  0.00     0.167 HD
ATOM     63  C   UNL A   1      38.130  33.026  29.661  1.00  0.00     0.034 A 
ATOM     64  C   UNL A   1      44.709  30.338  30.691  1.00  0.00     0.034 A 
ATOM     65  C   UNL A   1      39.281  33.680  30.278  1.00  0.00     0.049 A 
ATOM     66  C   UNL A   1      44.617  31.805  30.352  1.00  0.00     0.074 A 
ATOM     67  C   UNL A   1      39.671  33.852  31.595  1.00  0.00     0.029 A 
ATOM     68  N   UNL A   1      40.382  34.016  29.496  1.00  0.00    -0.354 N 
ATOM     69  N   UNL A   1      43.511  32.498  30.370  1.00  0.00    -0.248 NA
ATOM     70  C   UNL A   1      45.769  32.597  29.933  1.00  0.00     0.031 C 
ATOM     71  C   UNL A   1      41.039  34.230  31.603  1.00  0.00     0.029 A 
ATOM     72  C   UNL A   1      41.472  34.320  30.290  1.00  0.00     0.049 A 
ATOM     73  H   UNL A   1      40.384  34.037  28.512  1.00  0.00     0.167 HD
ATOM     74  C   UNL A   1      43.761  33.765  29.908  1.00  0.00     0.074 A 
ATOM     75  C   UNL A   1      45.199  33.792  29.704  1.00  0.00     0.031 C 
ATOM     76  C   UNL A   1      42.758  34.671  29.697  1.00  0.00     0.034 A 
BRANCH  63  77
ATOM     77  C   UNL A   1      36.707  33.521  29.791  1.00  0.00     0.023 A 
ATOM     78  C   UNL A   1      36.204  33.864  31.062  1.00  0.00     0.031 A 
ATOM     79  C   UNL A   1      35.789  33.617  28.729  1.00  0.00     0.131 A 
ATOM     80  C   UNL A   1      34.840  34.156  31.253  1.00  0.00     0.055 A 
ATOM     81  C   UNL A   1      34.418  33.827  28.927  1.00  0.00     0.041 A 
ATOM     82  F   UNL A   1      36.190  33.555  27.450  1.00  0.00    -0.206 F 
ATOM     83  C   UNL A   1      33.933  34.083  30.200  1.00  0.00     0.022 A 
BRANCH  80  84
ATOM     84  S   UNL A   1      34.264  34.652  32.900  1.00  0.00     0.124 S 
ATOM     85  O   UNL A   1      35.083  35.827  33.178  1.00  0.00    -0.237 OA
ATOM     86  O   UNL A   1      32.844  34.894  32.667  1.00  0.00    -0.237 OA
ATOM     87  O   UNL A   1      34.561  33.484  33.730  1.00  0.00    -0.744 OA
ENDBRANCH  80  84
ENDBRANCH  63  77
BRANCH  64  88
ATOM     88  C   UNL A   1      45.447  29.318  29.898  1.00  0.00     0.023 A 
ATOM     89  C   UNL A   1      45.276  29.357  28.501  1.00  0.00     0.031 A 
ATOM     90  C   UNL A   1      46.567  28.652  30.412  1.00  0.00     0.131 A 
ATOM     91  C   UNL A   1      46.299  28.907  27.657  1.00  0.00     0.055 A 
ATOM     92  C   UNL A   1      47.557  28.144  29.562  1.00  0.00     0.041 A 
ATOM     93  F   UNL A   1      46.791  28.610  31.733  1.00  0.00    -0.206 F 
ATOM     94  C   UNL A   1      47.451  28.318  28.181  1.00  0.00     0.022 A 
BRANCH  91  95
ATOM     95  S   UNL A   1      46.258  29.364  25.900  1.00  0.00     0.124 S 
ATOM     96  O   UNL A   1      46.052  30.806  25.949  1.00  0.00    -0.237 OA
ATOM     97  O   UNL A   1      47.566  28.934  25.411  1.00  0.00    -0.237 OA
ATOM     98  O   UNL A   1      45.138  28.578  25.385  1.00  0.00    -0.744 OA
ENDBRANCH  91  95
ENDBRANCH  64  88
BRANCH  76  99
ATOM     99  C   UNL A   1      42.921  35.998  28.984  1.00  0.00     0.023 A 
ATOM    100  C   UNL A   1      43.340  37.172  29.628  1.00  0.00     0.031 A 
ATOM    101  C   UNL A   1      42.715  36.112  27.588  1.00  0.00     0.131 A 
ATOM    102  C   UNL A   1      43.420  38.396  28.943  1.00  0.00     0.055 A 
ATOM    103  C   UNL A   1      42.885  37.312  26.888  1.00  0.00     0.041 A 
ATOM    104  F   UNL A   1      42.344  35.060  26.842  1.00  0.00    -0.206 F 
ATOM    105  C   UNL A   1      43.217  38.472  27.569  1.00  0.00     0.022 A 
BRANCH 102 106
ATOM    106  S   UNL A   1      43.713  39.900  29.912  1.00  0.00     0.124 S 
ATOM    107  O   UNL A   1      43.839  39.363  31.265  1.00  0.00    -0.237 OA
ATOM    108  O   UNL A   1      44.942  40.421  29.323  1.00  0.00    -0.237 OA
ATOM    109  O   UNL A   1      42.517  40.705  29.672  1.00  0.00    -0.744 OA
ENDBRANCH 102 106
ENDBRANCH  76  99
ENDBRANCH  50  51
ENDBRANCH  42  45
ENDBRANCH  40  41
ENDBRANCH  39  40
ENDBRANCH   1  39
TORSDOF 19
ENDMDL
