MODEL 1
REMARK VINA RESULT:     -12.0      0.000      0.000
REMARK SMILES O=C(NCCCNC(=O)[C@H]1C[C@H]2CCCC[C@@H]2[N@@H+]1CC[C@@H]1CCCO1)c1ccc(-c2c3nc(c(-c4cc(S(=O)(=O)[O-])ccc4F)c4ccc([nH]4)c(-c4cc(S(=O)(=O)[O-])ccc4F)c4nc(c(-c5cc(S(=O)(=O)[O-])ccc5F)c5ccc2[nH]5)C=C4)C=C3)cc1
REMARK SMILES IDX 5 1 4 2 3 3 1 4 2 5 26 7 27 8 88 9 28 10 87 11 29 12 30 13
REMARK SMILES IDX 31 14 81 15 32 16 86 17 80 18 82 19 33 20 85 21 79 22 78 23
REMARK SMILES IDX 34 25 66 26 46 27 65 28 47 29 50 30 64 31 83 32 48 33 49 34
REMARK SMILES IDX 63 36 84 37 51 38 35 39 36 40 44 41 37 42 43 43 45 44 42 45
REMARK SMILES IDX 38 46 39 47 40 48 41 49 67 50 68 51 76 52 69 53 75 54 77 55
REMARK SMILES IDX 74 56 70 57 71 58 72 59 73 60 52 61 53 62 61 63 54 64 60 65
REMARK SMILES IDX 62 66 59 67 55 68 56 69 57 70 58 71 6 72 7 73 8 74 9 76
REMARK SMILES IDX 10 77 11 78 18 79 12 80 17 81 13 83 16 84 14 85 15 86 19 87
REMARK SMILES IDX 20 88 21 89 22 90 25 91 23 92 24 93
REMARK H PARENT 3 6 82 24 50 35 7 75 18 82
REMARK Flexibility Score: inf
ROOT
ATOM      1  C   UNL A   1      31.610  31.444  26.881  1.00  0.00     0.042 C 
ENDROOT
BRANCH   1   2
ATOM      2  C   UNL A   1      32.887  32.154  27.272  1.00  0.00     0.118 C 
BRANCH   2   3
ATOM      3  N   UNL A   1      32.646  33.563  27.559  1.00  0.00    -0.352 N 
ATOM      4  O   UNL A   1      32.689  35.427  28.823  1.00  0.00    -0.269 OA
ATOM      5  C   UNL A   1      33.194  34.346  28.546  1.00  0.00     0.251 C 
ATOM      6  H   UNL A   1      32.003  34.014  26.967  1.00  0.00     0.163 HD
BRANCH   5   7
ATOM      7  C   UNL A   1      34.396  33.866  29.256  1.00  0.00     0.039 A 
ATOM      8  C   UNL A   1      34.263  32.959  30.311  1.00  0.00     0.014 A 
ATOM      9  C   UNL A   1      35.660  34.297  28.849  1.00  0.00     0.014 A 
ATOM     10  C   UNL A   1      35.374  32.583  31.045  1.00  0.00     0.010 A 
ATOM     11  C   UNL A   1      36.793  33.823  29.515  1.00  0.00     0.010 A 
ATOM     12  C   UNL A   1      36.654  32.962  30.615  1.00  0.00    -0.014 A 
BRANCH  12  13
ATOM     13  C   UNL A   1      37.827  32.303  31.232  1.00  0.00     0.031 A 
ATOM     14  C   UNL A   1      38.542  31.180  30.545  1.00  0.00     0.074 A 
ATOM     15  C   UNL A   1      38.223  32.749  32.442  1.00  0.00     0.049 A 
ATOM     16  N   UNL A   1      39.553  30.473  30.975  1.00  0.00    -0.248 NA
ATOM     17  C   UNL A   1      38.062  30.795  29.209  1.00  0.00     0.031 C 
ATOM     18  C   UNL A   1      37.581  33.841  33.186  1.00  0.00     0.029 A 
ATOM     19  N   UNL A   1      39.250  32.359  33.259  1.00  0.00    -0.354 N 
ATOM     20  C   UNL A   1      39.819  29.542  29.979  1.00  0.00     0.074 A 
ATOM     21  C   UNL A   1      38.854  29.768  28.923  1.00  0.00     0.031 C 
ATOM     22  C   UNL A   1      38.245  34.049  34.330  1.00  0.00     0.029 A 
ATOM     23  C   UNL A   1      39.296  33.050  34.449  1.00  0.00     0.049 A 
ATOM     24  H   UNL A   1      39.894  31.654  33.019  1.00  0.00     0.167 HD
ATOM     25  C   UNL A   1      40.779  28.586  29.965  1.00  0.00     0.034 A 
ATOM     26  C   UNL A   1      40.060  32.863  35.540  1.00  0.00     0.034 A 
ATOM     27  C   UNL A   1      41.731  28.396  31.034  1.00  0.00     0.049 A 
ATOM     28  C   UNL A   1      41.074  31.752  35.511  1.00  0.00     0.074 A 
ATOM     29  C   UNL A   1      42.795  27.513  31.090  1.00  0.00     0.029 A 
ATOM     30  N   UNL A   1      41.721  29.081  32.244  1.00  0.00    -0.354 N 
ATOM     31  N   UNL A   1      41.355  30.921  34.534  1.00  0.00    -0.248 NA
ATOM     32  C   UNL A   1      41.871  31.550  36.726  1.00  0.00     0.031 C 
ATOM     33  C   UNL A   1      43.368  27.598  32.362  1.00  0.00     0.029 A 
ATOM     34  C   UNL A   1      42.719  28.594  33.073  1.00  0.00     0.049 A 
ATOM     35  H   UNL A   1      41.095  29.803  32.478  1.00  0.00     0.167 HD
ATOM     36  C   UNL A   1      42.369  30.103  35.017  1.00  0.00     0.074 A 
ATOM     37  C   UNL A   1      42.674  30.565  36.355  1.00  0.00     0.031 C 
ATOM     38  C   UNL A   1      42.990  29.058  34.412  1.00  0.00     0.034 A 
BRANCH  25  39
ATOM     39  C   UNL A   1      40.826  27.634  28.797  1.00  0.00     0.023 A 
ATOM     40  C   UNL A   1      41.788  27.740  27.779  1.00  0.00     0.031 A 
ATOM     41  C   UNL A   1      39.909  26.569  28.732  1.00  0.00     0.131 A 
ATOM     42  C   UNL A   1      41.793  26.813  26.724  1.00  0.00     0.055 A 
ATOM     43  C   UNL A   1      39.960  25.614  27.715  1.00  0.00     0.041 A 
ATOM     44  F   UNL A   1      38.954  26.432  29.666  1.00  0.00    -0.206 F 
ATOM     45  C   UNL A   1      40.902  25.736  26.700  1.00  0.00     0.022 A 
BRANCH  42  46
ATOM     46  S   UNL A   1      42.927  27.080  25.334  1.00  0.00     0.124 S 
ATOM     47  O   UNL A   1      42.277  28.182  24.628  1.00  0.00    -0.237 OA
ATOM     48  O   UNL A   1      44.181  27.402  26.005  1.00  0.00    -0.237 OA
ATOM     49  O   UNL A   1      42.909  25.801  24.626  1.00  0.00    -0.744 OA
ENDBRANCH  42  46
ENDBRANCH  25  39
BRANCH  26  50
ATOM     50  C   UNL A   1      39.843  33.681  36.768  1.00  0.00     0.023 A 
ATOM     51  C   UNL A   1      39.192  33.147  37.888  1.00  0.00     0.031 A 
ATOM     52  C   UNL A   1      40.229  35.035  36.814  1.00  0.00     0.131 A 
ATOM     53  C   UNL A   1      38.889  33.976  38.979  1.00  0.00     0.055 A 
ATOM     54  C   UNL A   1      39.992  35.835  37.932  1.00  0.00     0.041 A 
ATOM     55  F   UNL A   1      40.853  35.602  35.769  1.00  0.00    -0.206 F 
ATOM     56  C   UNL A   1      39.299  35.311  39.016  1.00  0.00     0.022 A 
BRANCH  53  57
ATOM     57  S   UNL A   1      37.826  33.316  40.292  1.00  0.00     0.124 S 
ATOM     58  O   UNL A   1      36.618  32.974  39.551  1.00  0.00    -0.237 OA
ATOM     59  O   UNL A   1      38.617  32.192  40.783  1.00  0.00    -0.237 OA
ATOM     60  O   UNL A   1      37.694  34.438  41.219  1.00  0.00    -0.744 OA
ENDBRANCH  53  57
ENDBRANCH  26  50
BRANCH  38  61
ATOM     61  C   UNL A   1      44.070  28.366  35.204  1.00  0.00     0.023 A 
ATOM     62  C   UNL A   1      43.803  27.197  35.937  1.00  0.00     0.031 A 
ATOM     63  C   UNL A   1      45.374  28.887  35.232  1.00  0.00     0.131 A 
ATOM     64  C   UNL A   1      44.816  26.614  36.710  1.00  0.00     0.055 A 
ATOM     65  C   UNL A   1      46.395  28.266  35.952  1.00  0.00     0.041 A 
ATOM     66  F   UNL A   1      45.681  30.004  34.554  1.00  0.00    -0.206 F 
ATOM     67  C   UNL A   1      46.116  27.129  36.705  1.00  0.00     0.022 A 
BRANCH  64  68
ATOM     68  S   UNL A   1      44.394  25.218  37.787  1.00  0.00     0.124 S 
ATOM     69  O   UNL A   1      45.412  24.238  37.422  1.00  0.00    -0.237 OA
ATOM     70  O   UNL A   1      44.517  25.800  39.119  1.00  0.00    -0.237 OA
ATOM     71  O   UNL A   1      43.031  24.876  37.385  1.00  0.00    -0.744 OA
ENDBRANCH  64  68
ENDBRANCH  38  61
ENDBRANCH  12  13
ENDBRANCH   5   7
ENDBRANCH   2   3
ENDBRANCH   1   2
BRANCH   1  72
ATOM     72  C   UNL A   1      31.841  30.452  25.756  1.00  0.00     0.118 C 
BRANCH  72  73
ATOM     73  N   UNL A   1      32.815  29.442  26.121  1.00  0.00    -0.351 N 
ATOM     74  C   UNL A   1      33.171  28.250  25.568  1.00  0.00     0.278 C 
ATOM     75  H   UNL A   1      33.323  29.663  26.936  1.00  0.00     0.163 HD
ATOM     76  O   UNL A   1      33.982  27.575  26.222  1.00  0.00    -0.268 OA
BRANCH  74  77
ATOM     77  C   UNL A   1      32.701  27.751  24.179  1.00  0.00     0.274 C 
ATOM     78  C   UNL A   1      33.653  26.823  23.408  1.00  0.00     0.085 C 
ATOM     79  N   UNL A   1      31.410  27.018  24.345  1.00  0.00    -0.322 N 
ATOM     80  C   UNL A   1      32.811  25.579  23.143  1.00  0.00     0.054 C 
ATOM     81  C   UNL A   1      31.739  25.608  24.232  1.00  0.00     0.188 C 
ATOM     82  H   UNL A   1      30.996  27.164  25.266  1.00  0.00     0.349 HD
ATOM     83  C   UNL A   1      33.475  24.218  23.061  1.00  0.00     0.010 C 
ATOM     84  C   UNL A   1      30.672  24.525  24.150  1.00  0.00     0.065 C 
ATOM     85  C   UNL A   1      32.387  23.164  22.803  1.00  0.00     0.001 C 
ATOM     86  C   UNL A   1      31.305  23.153  23.890  1.00  0.00     0.006 C 
BRANCH  79  87
ATOM     87  C   UNL A   1      30.274  27.562  23.594  1.00  0.00     0.265 C 
BRANCH  87  88
ATOM     88  C   UNL A   1      30.471  28.411  22.315  1.00  0.00     0.093 C 
BRANCH  88  89
ATOM     89  C   UNL A   1      29.846  29.801  22.343  1.00  0.00     0.123 C 
ATOM     90  C   UNL A   1      28.925  30.098  23.507  1.00  0.00     0.034 C 
ATOM     91  O   UNL A   1      29.018  30.078  21.204  1.00  0.00    -0.378 OA
ATOM     92  C   UNL A   1      28.181  31.332  23.014  1.00  0.00     0.031 C 
ATOM     93  C   UNL A   1      28.420  31.348  21.511  1.00  0.00     0.160 C 
ENDBRANCH  88  89
ENDBRANCH  87  88
ENDBRANCH  79  87
ENDBRANCH  74  77
ENDBRANCH  72  73
ENDBRANCH   1  72
TORSDOF 16
ENDMDL
MODEL 2
REMARK VINA RESULT:     -12.0      6.129     11.750
REMARK SMILES O=C(NCCCNC(=O)[C@H]1C[C@H]2CCCC[C@@H]2[N@@H+]1CC[C@@H]1CCCO1)c1ccc(-c2c3nc(c(-c4cc(S(=O)(=O)[O-])ccc4F)c4ccc([nH]4)c(-c4cc(S(=O)(=O)[O-])ccc4F)c4nc(c(-c5cc(S(=O)(=O)[O-])ccc5F)c5ccc2[nH]5)C=C4)C=C3)cc1
REMARK SMILES IDX 5 1 4 2 3 3 1 4 2 5 26 7 27 8 88 9 28 10 87 11 29 12 30 13
REMARK SMILES IDX 31 14 81 15 32 16 86 17 80 18 82 19 33 20 85 21 79 22 78 23
REMARK SMILES IDX 34 25 66 26 46 27 65 28 47 29 50 30 64 31 83 32 48 33 49 34
REMARK SMILES IDX 63 36 84 37 51 38 35 39 36 40 44 41 37 42 43 43 45 44 42 45
REMARK SMILES IDX 38 46 39 47 40 48 41 49 67 50 68 51 76 52 69 53 75 54 77 55
REMARK SMILES IDX 74 56 70 57 71 58 72 59 73 60 52 61 53 62 61 63 54 64 60 65
REMARK SMILES IDX 62 66 59 67 55 68 56 69 57 70 58 71 6 72 7 73 8 74 9 76
REMARK SMILES IDX 10 77 11 78 18 79 12 80 17 81 13 83 16 84 14 85 15 86 19 87
REMARK SMILES IDX 20 88 21 89 22 90 25 91 23 92 24 93
REMARK H PARENT 3 6 82 24 50 35 7 75 18 82
REMARK Flexibility Score: inf
ROOT
ATOM      1  C   UNL A   1      38.191  20.215  24.890  1.00  0.00     0.042 C 
ENDROOT
BRANCH   1   2
ATOM      2  C   UNL A   1      39.223  20.481  25.964  1.00  0.00     0.118 C 
BRANCH   2   3
ATOM      3  N   UNL A   1      40.221  19.419  26.017  1.00  0.00    -0.352 N 
ATOM      4  O   UNL A   1      42.291  18.550  25.836  1.00  0.00    -0.269 OA
ATOM      5  C   UNL A   1      41.589  19.526  26.071  1.00  0.00     0.251 C 
ATOM      6  H   UNL A   1      39.866  18.501  26.013  1.00  0.00     0.163 HD
BRANCH   5   7
ATOM      7  C   UNL A   1      42.192  20.829  26.418  1.00  0.00     0.039 A 
ATOM      8  C   UNL A   1      42.431  21.772  25.415  1.00  0.00     0.014 A 
ATOM      9  C   UNL A   1      42.492  21.120  27.750  1.00  0.00     0.014 A 
ATOM     10  C   UNL A   1      43.087  22.952  25.718  1.00  0.00     0.010 A 
ATOM     11  C   UNL A   1      43.045  22.362  28.071  1.00  0.00     0.010 A 
ATOM     12  C   UNL A   1      43.343  23.284  27.055  1.00  0.00    -0.014 A 
BRANCH  12  13
ATOM     13  C   UNL A   1      43.763  24.669  27.369  1.00  0.00     0.031 A 
ATOM     14  C   UNL A   1      42.791  25.678  27.899  1.00  0.00     0.074 A 
ATOM     15  C   UNL A   1      45.056  24.988  27.152  1.00  0.00     0.049 A 
ATOM     16  N   UNL A   1      42.994  26.937  28.177  1.00  0.00    -0.248 NA
ATOM     17  C   UNL A   1      41.413  25.221  28.144  1.00  0.00     0.031 C 
ATOM     18  C   UNL A   1      46.074  24.065  26.635  1.00  0.00     0.029 A 
ATOM     19  N   UNL A   1      45.742  26.158  27.338  1.00  0.00    -0.354 N 
ATOM     20  C   UNL A   1      41.770  27.437  28.607  1.00  0.00     0.074 A 
ATOM     21  C   UNL A   1      40.824  26.342  28.543  1.00  0.00     0.031 C 
ATOM     22  C   UNL A   1      47.253  24.694  26.574  1.00  0.00     0.029 A 
ATOM     23  C   UNL A   1      47.062  26.085  26.953  1.00  0.00     0.049 A 
ATOM     24  H   UNL A   1      45.332  26.972  27.712  1.00  0.00     0.167 HD
ATOM     25  C   UNL A   1      41.477  28.697  29.006  1.00  0.00     0.034 A 
ATOM     26  C   UNL A   1      48.000  27.045  26.859  1.00  0.00     0.034 A 
ATOM     27  C   UNL A   1      42.450  29.762  29.065  1.00  0.00     0.049 A 
ATOM     28  C   UNL A   1      47.620  28.446  27.253  1.00  0.00     0.074 A 
ATOM     29  C   UNL A   1      42.281  31.055  29.529  1.00  0.00     0.029 A 
ATOM     30  N   UNL A   1      43.765  29.668  28.624  1.00  0.00    -0.354 N 
ATOM     31  N   UNL A   1      46.473  28.886  27.718  1.00  0.00    -0.248 NA
ATOM     32  C   UNL A   1      48.652  29.478  27.110  1.00  0.00     0.031 C 
ATOM     33  C   UNL A   1      43.461  31.765  29.285  1.00  0.00     0.029 A 
ATOM     34  C   UNL A   1      44.396  30.896  28.748  1.00  0.00     0.049 A 
ATOM     35  H   UNL A   1      44.186  28.850  28.273  1.00  0.00     0.167 HD
ATOM     36  C   UNL A   1      46.652  30.248  27.930  1.00  0.00     0.074 A 
ATOM     37  C   UNL A   1      48.026  30.546  27.579  1.00  0.00     0.031 C 
ATOM     38  C   UNL A   1      45.762  31.172  28.370  1.00  0.00     0.034 A 
BRANCH  25  39
ATOM     39  C   UNL A   1      40.047  29.023  29.357  1.00  0.00     0.023 A 
ATOM     40  C   UNL A   1      39.603  29.114  30.686  1.00  0.00     0.031 A 
ATOM     41  C   UNL A   1      39.123  29.293  28.332  1.00  0.00     0.131 A 
ATOM     42  C   UNL A   1      38.262  29.439  30.954  1.00  0.00     0.055 A 
ATOM     43  C   UNL A   1      37.809  29.677  28.605  1.00  0.00     0.041 A 
ATOM     44  F   UNL A   1      39.488  29.200  27.042  1.00  0.00    -0.206 F 
ATOM     45  C   UNL A   1      37.371  29.746  29.922  1.00  0.00     0.022 A 
BRANCH  42  46
ATOM     46  S   UNL A   1      37.674  29.371  32.668  1.00  0.00     0.124 S 
ATOM     47  O   UNL A   1      38.727  30.099  33.373  1.00  0.00    -0.237 OA
ATOM     48  O   UNL A   1      36.381  30.041  32.586  1.00  0.00    -0.237 OA
ATOM     49  O   UNL A   1      37.617  27.939  32.956  1.00  0.00    -0.744 OA
ENDBRANCH  42  46
ENDBRANCH  25  39
BRANCH  26  50
ATOM     50  C   UNL A   1      49.348  26.737  26.298  1.00  0.00     0.023 A 
ATOM     51  C   UNL A   1      50.453  26.542  27.137  1.00  0.00     0.031 A 
ATOM     52  C   UNL A   1      49.561  26.698  24.907  1.00  0.00     0.131 A 
ATOM     53  C   UNL A   1      51.731  26.382  26.580  1.00  0.00     0.055 A 
ATOM     54  C   UNL A   1      50.822  26.463  24.358  1.00  0.00     0.041 A 
ATOM     55  F   UNL A   1      48.540  26.881  24.054  1.00  0.00    -0.206 F 
ATOM     56  C   UNL A   1      51.921  26.323  25.197  1.00  0.00     0.022 A 
BRANCH  53  57
ATOM     57  S   UNL A   1      53.162  26.389  27.693  1.00  0.00     0.124 S 
ATOM     58  O   UNL A   1      53.749  27.694  27.412  1.00  0.00    -0.237 OA
ATOM     59  O   UNL A   1      52.528  26.239  28.999  1.00  0.00    -0.237 OA
ATOM     60  O   UNL A   1      53.947  25.241  27.245  1.00  0.00    -0.744 OA
ENDBRANCH  53  57
ENDBRANCH  26  50
BRANCH  38  61
ATOM     61  C   UNL A   1      46.267  32.586  28.505  1.00  0.00     0.023 A 
ATOM     62  C   UNL A   1      46.317  33.453  27.400  1.00  0.00     0.031 A 
ATOM     63  C   UNL A   1      46.713  33.065  29.748  1.00  0.00     0.131 A 
ATOM     64  C   UNL A   1      46.849  34.741  27.549  1.00  0.00     0.055 A 
ATOM     65  C   UNL A   1      47.182  34.370  29.904  1.00  0.00     0.041 A 
ATOM     66  F   UNL A   1      46.693  32.276  30.834  1.00  0.00    -0.206 F 
ATOM     67  C   UNL A   1      47.263  35.212  28.798  1.00  0.00     0.022 A 
BRANCH  64  68
ATOM     68  S   UNL A   1      47.069  35.767  26.071  1.00  0.00     0.124 S 
ATOM     69  O   UNL A   1      46.086  36.822  26.288  1.00  0.00    -0.237 OA
ATOM     70  O   UNL A   1      48.469  36.168  26.172  1.00  0.00    -0.237 OA
ATOM     71  O   UNL A   1      46.766  34.852  24.972  1.00  0.00    -0.744 OA
ENDBRANCH  64  68
ENDBRANCH  38  61
ENDBRANCH  12  13
ENDBRANCH   5   7
ENDBRANCH   2   3
ENDBRANCH   1   2
BRANCH   1  72
ATOM     72  C   UNL A   1      36.872  20.902  25.196  1.00  0.00     0.118 C 
BRANCH  72  73
ATOM     73  N   UNL A   1      36.500  21.840  24.155  1.00  0.00    -0.351 N 
ATOM     74  C   UNL A   1      35.403  22.620  23.954  1.00  0.00     0.278 C 
ATOM     75  H   UNL A   1      37.181  21.932  23.449  1.00  0.00     0.163 HD
ATOM     76  O   UNL A   1      35.367  23.230  22.875  1.00  0.00    -0.268 OA
BRANCH  74  77
ATOM     77  C   UNL A   1      34.281  22.844  25.000  1.00  0.00     0.274 C 
ATOM     78  C   UNL A   1      34.100  24.272  25.539  1.00  0.00     0.085 C 
ATOM     79  N   UNL A   1      32.978  22.430  24.400  1.00  0.00    -0.322 N 
ATOM     80  C   UNL A   1      32.640  24.592  25.230  1.00  0.00     0.054 C 
ATOM     81  C   UNL A   1      32.286  23.663  24.069  1.00  0.00     0.188 C 
ATOM     82  H   UNL A   1      33.098  21.904  23.534  1.00  0.00     0.349 HD
ATOM     83  C   UNL A   1      32.224  26.021  24.937  1.00  0.00     0.010 C 
ATOM     84  C   UNL A   1      30.834  23.687  23.612  1.00  0.00     0.065 C 
ATOM     85  C   UNL A   1      30.715  26.036  24.650  1.00  0.00     0.001 C 
ATOM     86  C   UNL A   1      30.327  25.128  23.476  1.00  0.00     0.006 C 
BRANCH  79  87
ATOM     87  C   UNL A   1      32.264  21.365  25.113  1.00  0.00     0.265 C 
BRANCH  87  88
ATOM     88  C   UNL A   1      32.977  20.073  25.578  1.00  0.00     0.093 C 
BRANCH  88  89
ATOM     89  C   UNL A   1      32.849  18.874  24.645  1.00  0.00     0.123 C 
ATOM     90  C   UNL A   1      34.121  18.098  24.374  1.00  0.00     0.034 C 
ATOM     91  O   UNL A   1      32.402  19.222  23.326  1.00  0.00    -0.378 OA
ATOM     92  C   UNL A   1      33.742  17.293  23.137  1.00  0.00     0.031 C 
ATOM     93  C   UNL A   1      32.506  17.993  22.590  1.00  0.00     0.160 C 
ENDBRANCH  88  89
ENDBRANCH  87  88
ENDBRANCH  79  87
ENDBRANCH  74  77
ENDBRANCH  72  73
ENDBRANCH   1  72
TORSDOF 16
ENDMDL
MODEL 3
REMARK VINA RESULT:     -12.0      3.779      9.192
REMARK SMILES O=C(NCCCNC(=O)[C@H]1C[C@H]2CCCC[C@@H]2[N@@H+]1CC[C@@H]1CCCO1)c1ccc(-c2c3nc(c(-c4cc(S(=O)(=O)[O-])ccc4F)c4ccc([nH]4)c(-c4cc(S(=O)(=O)[O-])ccc4F)c4nc(c(-c5cc(S(=O)(=O)[O-])ccc5F)c5ccc2[nH]5)C=C4)C=C3)cc1
REMARK SMILES IDX 5 1 4 2 3 3 1 4 2 5 26 7 27 8 88 9 28 10 87 11 29 12 30 13
REMARK SMILES IDX 31 14 81 15 32 16 86 17 80 18 82 19 33 20 85 21 79 22 78 23
REMARK SMILES IDX 34 25 66 26 46 27 65 28 47 29 50 30 64 31 83 32 48 33 49 34
REMARK SMILES IDX 63 36 84 37 51 38 35 39 36 40 44 41 37 42 43 43 45 44 42 45
REMARK SMILES IDX 38 46 39 47 40 48 41 49 67 50 68 51 76 52 69 53 75 54 77 55
REMARK SMILES IDX 74 56 70 57 71 58 72 59 73 60 52 61 53 62 61 63 54 64 60 65
REMARK SMILES IDX 62 66 59 67 55 68 56 69 57 70 58 71 6 72 7 73 8 74 9 76
REMARK SMILES IDX 10 77 11 78 18 79 12 80 17 81 13 83 16 84 14 85 15 86 19 87
REMARK SMILES IDX 20 88 21 89 22 90 25 91 23 92 24 93
REMARK H PARENT 3 6 82 24 50 35 7 75 18 82
REMARK Flexibility Score: inf
ROOT
ATOM      1  C   UNL A   1      32.982  28.024  26.845  1.00  0.00     0.042 C 
ENDROOT
BRANCH   1   2
ATOM      2  C   UNL A   1      33.992  28.939  26.189  1.00  0.00     0.118 C 
BRANCH   2   3
ATOM      3  N   UNL A   1      33.884  30.302  26.694  1.00  0.00    -0.352 N 
ATOM      4  O   UNL A   1      34.198  31.958  28.187  1.00  0.00    -0.269 OA
ATOM      5  C   UNL A   1      34.592  30.904  27.704  1.00  0.00     0.251 C 
ATOM      6  H   UNL A   1      33.210  30.867  26.252  1.00  0.00     0.163 HD
BRANCH   5   7
ATOM      7  C   UNL A   1      35.832  30.264  28.189  1.00  0.00     0.039 A 
ATOM      8  C   UNL A   1      36.999  30.345  27.425  1.00  0.00     0.014 A 
ATOM      9  C   UNL A   1      35.836  29.609  29.422  1.00  0.00     0.014 A 
ATOM     10  C   UNL A   1      38.135  29.663  27.824  1.00  0.00     0.010 A 
ATOM     11  C   UNL A   1      37.018  29.022  29.881  1.00  0.00     0.010 A 
ATOM     12  C   UNL A   1      38.174  29.049  29.083  1.00  0.00    -0.014 A 
BRANCH  12  13
ATOM     13  C   UNL A   1      39.483  28.597  29.606  1.00  0.00     0.031 A 
ATOM     14  C   UNL A   1      40.182  29.336  30.705  1.00  0.00     0.074 A 
ATOM     15  C   UNL A   1      40.025  27.494  29.048  1.00  0.00     0.049 A 
ATOM     16  N   UNL A   1      41.349  29.093  31.237  1.00  0.00    -0.248 NA
ATOM     17  C   UNL A   1      39.489  30.501  31.279  1.00  0.00     0.031 C 
ATOM     18  C   UNL A   1      39.411  26.711  27.968  1.00  0.00     0.029 A 
ATOM     19  N   UNL A   1      41.197  26.835  29.303  1.00  0.00    -0.354 N 
ATOM     20  C   UNL A   1      41.549  30.083  32.191  1.00  0.00     0.074 A 
ATOM     21  C   UNL A   1      40.382  30.939  32.158  1.00  0.00     0.031 C 
ATOM     22  C   UNL A   1      40.196  25.666  27.677  1.00  0.00     0.029 A 
ATOM     23  C   UNL A   1      41.409  25.756  28.475  1.00  0.00     0.049 A 
ATOM     24  H   UNL A   1      41.827  27.105  30.010  1.00  0.00     0.167 HD
ATOM     25  C   UNL A   1      42.618  30.253  33.006  1.00  0.00     0.034 A 
ATOM     26  C   UNL A   1      42.485  24.960  28.331  1.00  0.00     0.034 A 
ATOM     27  C   UNL A   1      43.761  29.372  33.017  1.00  0.00     0.049 A 
ATOM     28  C   UNL A   1      43.677  25.218  29.212  1.00  0.00     0.074 A 
ATOM     29  C   UNL A   1      44.862  29.404  33.855  1.00  0.00     0.029 A 
ATOM     30  N   UNL A   1      43.965  28.317  32.135  1.00  0.00    -0.354 N 
ATOM     31  N   UNL A   1      43.822  26.122  30.154  1.00  0.00    -0.248 NA
ATOM     32  C   UNL A   1      44.847  24.356  29.012  1.00  0.00     0.031 C 
ATOM     33  C   UNL A   1      45.769  28.431  33.423  1.00  0.00     0.029 A 
ATOM     34  C   UNL A   1      45.201  27.734  32.370  1.00  0.00     0.049 A 
ATOM     35  H   UNL A   1      43.327  28.028  31.443  1.00  0.00     0.167 HD
ATOM     36  C   UNL A   1      45.100  25.929  30.665  1.00  0.00     0.074 A 
ATOM     37  C   UNL A   1      45.666  24.802  29.952  1.00  0.00     0.031 C 
ATOM     38  C   UNL A   1      45.752  26.624  31.631  1.00  0.00     0.034 A 
BRANCH  25  39
ATOM     39  C   UNL A   1      42.641  31.456  33.914  1.00  0.00     0.023 A 
ATOM     40  C   UNL A   1      42.157  31.413  35.231  1.00  0.00     0.031 A 
ATOM     41  C   UNL A   1      43.207  32.661  33.458  1.00  0.00     0.131 A 
ATOM     42  C   UNL A   1      42.221  32.562  36.038  1.00  0.00     0.055 A 
ATOM     43  C   UNL A   1      43.326  33.780  34.284  1.00  0.00     0.041 A 
ATOM     44  F   UNL A   1      43.666  32.766  32.200  1.00  0.00    -0.206 F 
ATOM     45  C   UNL A   1      42.826  33.736  35.581  1.00  0.00     0.022 A 
BRANCH  42  46
ATOM     46  S   UNL A   1      41.425  32.530  37.667  1.00  0.00     0.124 S 
ATOM     47  O   UNL A   1      40.063  32.125  37.326  1.00  0.00    -0.237 OA
ATOM     48  O   UNL A   1      42.222  31.545  38.390  1.00  0.00    -0.237 OA
ATOM     49  O   UNL A   1      41.557  33.907  38.141  1.00  0.00    -0.744 OA
ENDBRANCH  42  46
ENDBRANCH  25  39
BRANCH  26  50
ATOM     50  C   UNL A   1      42.518  23.912  27.271  1.00  0.00     0.023 A 
ATOM     51  C   UNL A   1      41.920  22.661  27.470  1.00  0.00     0.031 A 
ATOM     52  C   UNL A   1      43.209  24.127  26.062  1.00  0.00     0.131 A 
ATOM     53  C   UNL A   1      42.077  21.651  26.508  1.00  0.00     0.055 A 
ATOM     54  C   UNL A   1      43.298  23.144  25.076  1.00  0.00     0.041 A 
ATOM     55  F   UNL A   1      43.805  25.305  25.817  1.00  0.00    -0.206 F 
ATOM     56  C   UNL A   1      42.747  21.889  25.306  1.00  0.00     0.022 A 
BRANCH  53  57
ATOM     57  S   UNL A   1      41.510  19.978  26.916  1.00  0.00     0.124 S 
ATOM     58  O   UNL A   1      40.792  20.205  28.165  1.00  0.00    -0.237 OA
ATOM     59  O   UNL A   1      40.689  19.648  25.755  1.00  0.00    -0.237 OA
ATOM     60  O   UNL A   1      42.752  19.218  27.037  1.00  0.00    -0.744 OA
ENDBRANCH  53  57
ENDBRANCH  26  50
BRANCH  38  61
ATOM     61  C   UNL A   1      47.145  26.160  31.972  1.00  0.00     0.023 A 
ATOM     62  C   UNL A   1      47.376  25.241  33.010  1.00  0.00     0.031 A 
ATOM     63  C   UNL A   1      48.251  26.650  31.258  1.00  0.00     0.131 A 
ATOM     64  C   UNL A   1      48.689  24.879  33.340  1.00  0.00     0.055 A 
ATOM     65  C   UNL A   1      49.551  26.235  31.548  1.00  0.00     0.041 A 
ATOM     66  F   UNL A   1      48.086  27.533  30.260  1.00  0.00    -0.206 F 
ATOM     67  C   UNL A   1      49.777  25.354  32.602  1.00  0.00     0.022 A 
BRANCH  64  68
ATOM     68  S   UNL A   1      48.963  23.839  34.799  1.00  0.00     0.124 S 
ATOM     69  O   UNL A   1      47.709  23.098  34.882  1.00  0.00    -0.237 OA
ATOM     70  O   UNL A   1      50.138  23.063  34.415  1.00  0.00    -0.237 OA
ATOM     71  O   UNL A   1      49.185  24.806  35.872  1.00  0.00    -0.744 OA
ENDBRANCH  64  68
ENDBRANCH  38  61
ENDBRANCH  12  13
ENDBRANCH   5   7
ENDBRANCH   2   3
ENDBRANCH   1   2
BRANCH   1  72
ATOM     72  C   UNL A   1      32.328  27.095  25.839  1.00  0.00     0.118 C 
BRANCH  72  73
ATOM     73  N   UNL A   1      31.448  26.139  26.481  1.00  0.00    -0.351 N 
ATOM     74  C   UNL A   1      31.481  24.784  26.612  1.00  0.00     0.278 C 
ATOM     75  H   UNL A   1      30.665  26.554  26.913  1.00  0.00     0.163 HD
ATOM     76  O   UNL A   1      30.484  24.270  27.139  1.00  0.00    -0.268 OA
BRANCH  74  77
ATOM     77  C   UNL A   1      32.691  23.895  26.228  1.00  0.00     0.274 C 
ATOM     78  C   UNL A   1      32.603  22.401  26.578  1.00  0.00     0.085 C 
ATOM     79  N   UNL A   1      32.907  23.991  24.753  1.00  0.00    -0.322 N 
ATOM     80  C   UNL A   1      32.809  21.703  25.237  1.00  0.00     0.054 C 
ATOM     81  C   UNL A   1      32.401  22.747  24.199  1.00  0.00     0.188 C 
ATOM     82  H   UNL A   1      32.376  24.753  24.331  1.00  0.00     0.349 HD
ATOM     83  C   UNL A   1      32.140  20.368  24.967  1.00  0.00     0.010 C 
ATOM     84  C   UNL A   1      32.609  22.359  22.741  1.00  0.00     0.065 C 
ATOM     85  C   UNL A   1      32.513  19.920  23.547  1.00  0.00     0.001 C 
ATOM     86  C   UNL A   1      32.099  20.937  22.477  1.00  0.00     0.006 C 
BRANCH  79  87
ATOM     87  C   UNL A   1      34.222  24.490  24.338  1.00  0.00     0.265 C 
BRANCH  87  88
ATOM     88  C   UNL A   1      35.360  24.739  25.356  1.00  0.00     0.093 C 
BRANCH  88  89
ATOM     89  C   UNL A   1      36.188  23.516  25.734  1.00  0.00     0.123 C 
ATOM     90  C   UNL A   1      37.691  23.706  25.753  1.00  0.00     0.034 C 
ATOM     91  O   UNL A   1      36.019  22.411  24.835  1.00  0.00    -0.378 OA
ATOM     92  C   UNL A   1      38.191  22.267  25.738  1.00  0.00     0.031 C 
ATOM     93  C   UNL A   1      36.990  21.451  25.279  1.00  0.00     0.160 C 
ENDBRANCH  88  89
ENDBRANCH  87  88
ENDBRANCH  79  87
ENDBRANCH  74  77
ENDBRANCH  72  73
ENDBRANCH   1  72
TORSDOF 16
ENDMDL
