MODEL 1
REMARK VINA RESULT:     -12.7      0.000      0.000
REMARK SMILES C[C@@H]1CN(C(=O)Nc2ccc(O)c(C(=O)NCCCNC(=O)c3ccc(-c4c5nc(c(-c6cc(S(=O)(=O)[O-])ccc6F)c6ccc([nH]6)c(-c6cc(S(=O)(=O)[O-])ccc6F)c6nc(c(-c7cc(S(=O)(=O)[O-])ccc7F)c7ccc4[nH]7)C=C6)C=C5)cc3)c2)C[C@@H]1C
REMARK SMILES IDX 18 1 17 2 16 3 14 4 15 5 13 7 8 8 9 9 86 10 10 11 11 12 7 13
REMARK SMILES IDX 5 14 6 15 4 17 1 18 2 19 3 20 88 21 87 22 89 23 12 24 19 26
REMARK SMILES IDX 20 27 21 28 22 30 23 31 24 32 85 33 25 34 84 35 26 36 27 37
REMARK SMILES IDX 28 38 78 39 29 40 83 41 77 42 79 43 30 44 82 45 76 46 75 47
REMARK SMILES IDX 31 49 63 50 43 51 62 52 44 53 47 54 61 55 80 56 45 57 46 58
REMARK SMILES IDX 60 60 81 61 48 62 32 63 33 64 41 65 34 66 40 67 42 68 39 69
REMARK SMILES IDX 35 70 36 71 37 72 38 73 64 74 65 75 73 76 66 77 72 78 74 79
REMARK SMILES IDX 71 80 67 81 68 82 69 83 70 84 49 85 50 86 58 87 51 88 57 89
REMARK SMILES IDX 59 90 56 91 52 92 53 93 54 94 55 95
REMARK H PARENT 16 6 7 16 12 25 20 29 79 48 47 59
REMARK Flexibility Score: inf
ROOT
ATOM      1  C   UNL A   1      31.478  32.022  26.549  1.00  0.00     0.042 C 
ENDROOT
BRANCH   1   2
ATOM      2  C   UNL A   1      31.473  30.520  26.261  1.00  0.00     0.118 C 
BRANCH   2   3
ATOM      3  N   UNL A   1      32.391  30.184  25.192  1.00  0.00    -0.352 N 
ATOM      4  C   UNL A   1      32.428  29.149  24.297  1.00  0.00     0.255 C 
ATOM      5  O   UNL A   1      33.345  29.176  23.468  1.00  0.00    -0.269 OA
ATOM      6  H   UNL A   1      33.132  30.824  25.089  1.00  0.00     0.163 HD
BRANCH   4   7
ATOM      7  C   UNL A   1      31.417  28.057  24.179  1.00  0.00     0.083 A 
ATOM      8  C   UNL A   1      30.440  26.162  25.367  1.00  0.00     0.043 A 
ATOM      9  C   UNL A   1      29.509  25.988  24.351  1.00  0.00     0.030 A 
ATOM     10  C   UNL A   1      31.326  27.237  25.321  1.00  0.00     0.044 A 
ATOM     11  C   UNL A   1      29.570  26.790  23.218  1.00  0.00     0.049 A 
ATOM     12  C   UNL A   1      30.539  27.796  23.119  1.00  0.00     0.128 A 
BRANCH   8  13
ATOM     13  N   UNL A   1      30.522  25.282  26.447  1.00  0.00    -0.308 N 
ATOM     14  C   UNL A   1      30.953  23.992  26.504  1.00  0.00     0.321 C 
ATOM     15  O   UNL A   1      30.550  23.296  27.440  1.00  0.00    -0.248 OA
ATOM     16  H   UNL A   1      30.219  25.656  27.306  1.00  0.00     0.171 HD
BRANCH  14  17
ATOM     17  N   UNL A   1      31.926  23.547  25.640  1.00  0.00    -0.324 N 
ATOM     18  C   UNL A   1      33.356  23.125  22.233  1.00  0.00     0.010 C 
ATOM     19  C   UNL A   1      33.242  22.970  23.739  1.00  0.00     0.010 C 
ATOM     20  C   UNL A   1      31.806  23.142  24.239  1.00  0.00     0.125 C 
ATOM     21  C   UNL A   1      34.024  23.958  24.614  1.00  0.00     0.010 C 
ATOM     22  C   UNL A   1      33.326  23.767  25.970  1.00  0.00     0.125 C 
ATOM     23  C   UNL A   1      33.943  25.410  24.136  1.00  0.00     0.010 C 
ENDBRANCH  14  17
ENDBRANCH   8  13
BRANCH  12  24
ATOM     24  O   UNL A   1      30.553  28.509  21.962  1.00  0.00    -0.507 OA
ATOM     25  H   UNL A   1      30.614  29.444  21.989  1.00  0.00     0.293 HD
ENDBRANCH  12  24
ENDBRANCH   4   7
ENDBRANCH   2   3
ENDBRANCH   1   2
BRANCH   1  26
ATOM     26  C   UNL A   1      32.722  32.524  27.268  1.00  0.00     0.118 C 
BRANCH  26  27
ATOM     27  N   UNL A   1      32.606  33.920  27.655  1.00  0.00    -0.352 N 
ATOM     28  C   UNL A   1      33.256  34.621  28.641  1.00  0.00     0.251 C 
ATOM     29  H   UNL A   1      31.962  34.444  27.127  1.00  0.00     0.163 HD
ATOM     30  O   UNL A   1      32.831  35.730  28.954  1.00  0.00    -0.269 OA
BRANCH  28  31
ATOM     31  C   UNL A   1      34.437  34.055  29.340  1.00  0.00     0.039 A 
ATOM     32  C   UNL A   1      34.226  33.153  30.389  1.00  0.00     0.014 A 
ATOM     33  C   UNL A   1      35.742  34.441  29.018  1.00  0.00     0.014 A 
ATOM     34  C   UNL A   1      35.315  32.600  31.070  1.00  0.00     0.010 A 
ATOM     35  C   UNL A   1      36.830  33.833  29.647  1.00  0.00     0.010 A 
ATOM     36  C   UNL A   1      36.629  32.911  30.684  1.00  0.00    -0.014 A 
BRANCH  36  37
ATOM     37  C   UNL A   1      37.800  32.286  31.358  1.00  0.00     0.031 A 
ATOM     38  C   UNL A   1      38.540  31.153  30.696  1.00  0.00     0.074 A 
ATOM     39  C   UNL A   1      38.153  32.695  32.593  1.00  0.00     0.049 A 
ATOM     40  N   UNL A   1      39.528  30.429  31.156  1.00  0.00    -0.248 NA
ATOM     41  C   UNL A   1      38.093  30.768  29.348  1.00  0.00     0.031 C 
ATOM     42  C   UNL A   1      37.484  33.753  33.354  1.00  0.00     0.029 A 
ATOM     43  N   UNL A   1      39.148  32.263  33.435  1.00  0.00    -0.354 N 
ATOM     44  C   UNL A   1      39.805  29.489  30.168  1.00  0.00     0.074 A 
ATOM     45  C   UNL A   1      38.851  29.709  29.102  1.00  0.00     0.031 C 
ATOM     46  C   UNL A   1      38.093  33.894  34.542  1.00  0.00     0.029 A 
ATOM     47  C   UNL A   1      39.166  32.911  34.650  1.00  0.00     0.049 A 
ATOM     48  H   UNL A   1      39.790  31.558  33.192  1.00  0.00     0.167 HD
ATOM     49  C   UNL A   1      40.775  28.541  30.147  1.00  0.00     0.034 A 
ATOM     50  C   UNL A   1      39.943  32.721  35.735  1.00  0.00     0.034 A 
ATOM     51  C   UNL A   1      41.734  28.351  31.208  1.00  0.00     0.049 A 
ATOM     52  C   UNL A   1      41.015  31.662  35.685  1.00  0.00     0.074 A 
ATOM     53  C   UNL A   1      42.806  27.475  31.254  1.00  0.00     0.029 A 
ATOM     54  N   UNL A   1      41.734  29.038  32.415  1.00  0.00    -0.354 N 
ATOM     55  N   UNL A   1      41.306  30.827  34.713  1.00  0.00    -0.248 NA
ATOM     56  C   UNL A   1      41.872  31.528  36.870  1.00  0.00     0.031 C 
ATOM     57  C   UNL A   1      43.410  27.585  32.511  1.00  0.00     0.029 A 
ATOM     58  C   UNL A   1      42.764  28.583  33.223  1.00  0.00     0.049 A 
ATOM     59  H   UNL A   1      41.095  29.747  32.660  1.00  0.00     0.167 HD
ATOM     60  C   UNL A   1      42.396  30.088  35.163  1.00  0.00     0.074 A 
ATOM     61  C   UNL A   1      42.724  30.591  36.481  1.00  0.00     0.031 C 
ATOM     62  C   UNL A   1      43.071  29.087  34.541  1.00  0.00     0.034 A 
BRANCH  49  63
ATOM     63  C   UNL A   1      40.829  27.617  28.954  1.00  0.00     0.023 A 
ATOM     64  C   UNL A   1      41.786  27.775  27.935  1.00  0.00     0.031 A 
ATOM     65  C   UNL A   1      39.911  26.559  28.834  1.00  0.00     0.131 A 
ATOM     66  C   UNL A   1      41.763  26.929  26.815  1.00  0.00     0.055 A 
ATOM     67  C   UNL A   1      39.940  25.675  27.753  1.00  0.00     0.041 A 
ATOM     68  F   UNL A   1      38.963  26.369  29.765  1.00  0.00    -0.206 F 
ATOM     69  C   UNL A   1      40.863  25.865  26.730  1.00  0.00     0.022 A 
BRANCH  66  70
ATOM     70  S   UNL A   1      42.853  27.311  25.416  1.00  0.00     0.124 S 
ATOM     71  O   UNL A   1      44.086  27.695  26.100  1.00  0.00    -0.237 OA
ATOM     72  O   UNL A   1      42.892  26.046  24.691  1.00  0.00    -0.237 OA
ATOM     73  O   UNL A   1      42.163  28.402  24.731  1.00  0.00    -0.744 OA
ENDBRANCH  66  70
ENDBRANCH  49  63
BRANCH  50  74
ATOM     74  C   UNL A   1      39.727  33.527  36.971  1.00  0.00     0.023 A 
ATOM     75  C   UNL A   1      39.052  32.991  38.079  1.00  0.00     0.031 A 
ATOM     76  C   UNL A   1      40.148  34.867  37.043  1.00  0.00     0.131 A 
ATOM     77  C   UNL A   1      38.772  33.803  39.190  1.00  0.00     0.055 A 
ATOM     78  C   UNL A   1      39.916  35.655  38.171  1.00  0.00     0.041 A 
ATOM     79  F   UNL A   1      40.803  35.430  36.015  1.00  0.00    -0.206 F 
ATOM     80  C   UNL A   1      39.211  35.128  39.249  1.00  0.00     0.022 A 
BRANCH  77  81
ATOM     81  S   UNL A   1      37.739  33.130  40.520  1.00  0.00     0.124 S 
ATOM     82  O   UNL A   1      38.496  31.949  40.918  1.00  0.00    -0.237 OA
ATOM     83  O   UNL A   1      37.720  34.233  41.474  1.00  0.00    -0.237 OA
ATOM     84  O   UNL A   1      36.464  32.861  39.857  1.00  0.00    -0.744 OA
ENDBRANCH  77  81
ENDBRANCH  50  74
BRANCH  62  85
ATOM     85  C   UNL A   1      44.252  28.501  35.273  1.00  0.00     0.023 A 
ATOM     86  C   UNL A   1      44.115  27.404  36.142  1.00  0.00     0.031 A 
ATOM     87  C   UNL A   1      45.532  29.059  35.109  1.00  0.00     0.131 A 
ATOM     88  C   UNL A   1      45.227  26.937  36.858  1.00  0.00     0.055 A 
ATOM     89  C   UNL A   1      46.647  28.551  35.777  1.00  0.00     0.041 A 
ATOM     90  F   UNL A   1      45.721  30.110  34.293  1.00  0.00    -0.206 F 
ATOM     91  C   UNL A   1      46.495  27.492  36.668  1.00  0.00     0.022 A 
BRANCH  88  92
ATOM     92  S   UNL A   1      44.978  25.650  38.111  1.00  0.00     0.124 S 
ATOM     93  O   UNL A   1      44.707  26.440  39.307  1.00  0.00    -0.237 OA
ATOM     94  O   UNL A   1      43.847  24.902  37.571  1.00  0.00    -0.237 OA
ATOM     95  O   UNL A   1      46.248  24.928  38.119  1.00  0.00    -0.744 OA
ENDBRANCH  88  92
ENDBRANCH  62  85
ENDBRANCH  36  37
ENDBRANCH  28  31
ENDBRANCH  26  27
ENDBRANCH   1  26
TORSDOF 16
ENDMDL
MODEL 2
REMARK VINA RESULT:     -12.3      5.667     11.625
REMARK SMILES C[C@@H]1CN(C(=O)Nc2ccc(O)c(C(=O)NCCCNC(=O)c3ccc(-c4c5nc(c(-c6cc(S(=O)(=O)[O-])ccc6F)c6ccc([nH]6)c(-c6cc(S(=O)(=O)[O-])ccc6F)c6nc(c(-c7cc(S(=O)(=O)[O-])ccc7F)c7ccc4[nH]7)C=C6)C=C5)cc3)c2)C[C@@H]1C
REMARK SMILES IDX 18 1 17 2 16 3 14 4 15 5 13 7 8 8 9 9 86 10 10 11 11 12 7 13
REMARK SMILES IDX 5 14 6 15 4 17 1 18 2 19 3 20 88 21 87 22 89 23 12 24 19 26
REMARK SMILES IDX 20 27 21 28 22 30 23 31 24 32 85 33 25 34 84 35 26 36 27 37
REMARK SMILES IDX 28 38 78 39 29 40 83 41 77 42 79 43 30 44 82 45 76 46 75 47
REMARK SMILES IDX 31 49 63 50 43 51 62 52 44 53 47 54 61 55 80 56 45 57 46 58
REMARK SMILES IDX 60 60 81 61 48 62 32 63 33 64 41 65 34 66 40 67 42 68 39 69
REMARK SMILES IDX 35 70 36 71 37 72 38 73 64 74 65 75 73 76 66 77 72 78 74 79
REMARK SMILES IDX 71 80 67 81 68 82 69 83 70 84 49 85 50 86 58 87 51 88 57 89
REMARK SMILES IDX 59 90 56 91 52 92 53 93 54 94 55 95
REMARK H PARENT 16 6 7 16 12 25 20 29 79 48 47 59
REMARK Flexibility Score: inf
ROOT
ATOM      1  C   UNL A   1      37.983  19.882  25.003  1.00  0.00     0.042 C 
ENDROOT
BRANCH   1   2
ATOM      2  C   UNL A   1      36.883  20.922  24.789  1.00  0.00     0.118 C 
BRANCH   2   3
ATOM      3  N   UNL A   1      36.065  21.078  25.974  1.00  0.00    -0.352 N 
ATOM      4  C   UNL A   1      34.764  21.463  26.155  1.00  0.00     0.255 C 
ATOM      5  O   UNL A   1      34.348  21.455  27.319  1.00  0.00    -0.269 OA
ATOM      6  H   UNL A   1      36.536  20.866  26.812  1.00  0.00     0.163 HD
BRANCH   4   7
ATOM      7  C   UNL A   1      33.791  21.798  25.073  1.00  0.00     0.083 A 
ATOM      8  C   UNL A   1      33.417  23.284  23.173  1.00  0.00     0.043 A 
ATOM      9  C   UNL A   1      32.262  22.587  22.839  1.00  0.00     0.030 A 
ATOM     10  C   UNL A   1      34.216  22.840  24.225  1.00  0.00     0.044 A 
ATOM     11  C   UNL A   1      31.827  21.549  23.653  1.00  0.00     0.049 A 
ATOM     12  C   UNL A   1      32.569  21.179  24.780  1.00  0.00     0.128 A 
BRANCH   8  13
ATOM     13  N   UNL A   1      33.808  24.432  22.484  1.00  0.00    -0.308 N 
ATOM     14  C   UNL A   1      33.215  25.654  22.395  1.00  0.00     0.321 C 
ATOM     15  O   UNL A   1      33.498  26.357  21.422  1.00  0.00    -0.248 OA
ATOM     16  H   UNL A   1      34.649  24.343  21.979  1.00  0.00     0.171 HD
BRANCH  14  17
ATOM     17  N   UNL A   1      32.460  26.137  23.440  1.00  0.00    -0.324 N 
ATOM     18  C   UNL A   1      31.732  28.641  26.091  1.00  0.00     0.010 C 
ATOM     19  C   UNL A   1      31.574  27.369  25.276  1.00  0.00     0.010 C 
ATOM     20  C   UNL A   1      32.872  26.951  24.582  1.00  0.00     0.125 C 
ATOM     21  C   UNL A   1      30.566  27.390  24.119  1.00  0.00     0.010 C 
ATOM     22  C   UNL A   1      31.010  26.156  23.319  1.00  0.00     0.125 C 
ATOM     23  C   UNL A   1      30.621  28.664  23.271  1.00  0.00     0.010 C 
ENDBRANCH  14  17
ENDBRANCH   8  13
BRANCH  12  24
ATOM     24  O   UNL A   1      32.053  20.179  25.542  1.00  0.00    -0.507 OA
ATOM     25  H   UNL A   1      31.207  20.277  25.934  1.00  0.00     0.293 HD
ENDBRANCH  12  24
ENDBRANCH   4   7
ENDBRANCH   2   3
ENDBRANCH   1   2
BRANCH   1  26
ATOM     26  C   UNL A   1      39.093  20.321  25.947  1.00  0.00     0.118 C 
BRANCH  26  27
ATOM     27  N   UNL A   1      40.191  19.370  25.982  1.00  0.00    -0.352 N 
ATOM     28  C   UNL A   1      41.545  19.586  26.062  1.00  0.00     0.251 C 
ATOM     29  H   UNL A   1      39.922  18.424  25.944  1.00  0.00     0.163 HD
ATOM     30  O   UNL A   1      42.306  18.649  25.834  1.00  0.00    -0.269 OA
BRANCH  28  31
ATOM     31  C   UNL A   1      42.096  20.924  26.395  1.00  0.00     0.039 A 
ATOM     32  C   UNL A   1      42.314  21.836  25.355  1.00  0.00     0.014 A 
ATOM     33  C   UNL A   1      42.452  21.273  27.701  1.00  0.00     0.014 A 
ATOM     34  C   UNL A   1      42.830  23.105  25.632  1.00  0.00     0.010 A 
ATOM     35  C   UNL A   1      42.897  22.564  27.986  1.00  0.00     0.010 A 
ATOM     36  C   UNL A   1      43.097  23.493  26.954  1.00  0.00    -0.014 A 
BRANCH  36  37
ATOM     37  C   UNL A   1      43.592  24.860  27.273  1.00  0.00     0.031 A 
ATOM     38  C   UNL A   1      42.648  25.898  27.823  1.00  0.00     0.074 A 
ATOM     39  C   UNL A   1      44.873  25.184  27.004  1.00  0.00     0.049 A 
ATOM     40  N   UNL A   1      42.868  27.161  28.085  1.00  0.00    -0.248 NA
ATOM     41  C   UNL A   1      41.269  25.464  28.090  1.00  0.00     0.031 C 
ATOM     42  C   UNL A   1      45.869  24.277  26.429  1.00  0.00     0.029 A 
ATOM     43  N   UNL A   1      45.555  26.366  27.161  1.00  0.00    -0.354 N 
ATOM     44  C   UNL A   1      41.653  27.678  28.524  1.00  0.00     0.074 A 
ATOM     45  C   UNL A   1      40.690  26.600  28.451  1.00  0.00     0.031 C 
ATOM     46  C   UNL A   1      47.034  24.931  26.292  1.00  0.00     0.029 A 
ATOM     47  C   UNL A   1      46.860  26.313  26.726  1.00  0.00     0.049 A 
ATOM     48  H   UNL A   1      45.149  27.174  27.549  1.00  0.00     0.167 HD
ATOM     49  C   UNL A   1      41.372  28.931  28.961  1.00  0.00     0.034 A 
ATOM     50  C   UNL A   1      47.804  27.274  26.663  1.00  0.00     0.034 A 
ATOM     51  C   UNL A   1      42.352  29.987  29.051  1.00  0.00     0.049 A 
ATOM     52  C   UNL A   1      47.466  28.658  27.157  1.00  0.00     0.074 A 
ATOM     53  C   UNL A   1      42.193  31.268  29.554  1.00  0.00     0.029 A 
ATOM     54  N   UNL A   1      43.668  29.893  28.620  1.00  0.00    -0.354 N 
ATOM     55  N   UNL A   1      46.328  29.110  27.633  1.00  0.00    -0.248 NA
ATOM     56  C   UNL A   1      48.542  29.657  27.119  1.00  0.00     0.031 C 
ATOM     57  C   UNL A   1      43.390  31.965  29.365  1.00  0.00     0.029 A 
ATOM     58  C   UNL A   1      44.322  31.100  28.814  1.00  0.00     0.049 A 
ATOM     59  H   UNL A   1      44.078  29.084  28.234  1.00  0.00     0.167 HD
ATOM     60  C   UNL A   1      46.562  30.439  27.974  1.00  0.00     0.074 A 
ATOM     61  C   UNL A   1      47.952  30.707  27.671  1.00  0.00     0.031 C 
ATOM     62  C   UNL A   1      45.707  31.355  28.496  1.00  0.00     0.034 A 
BRANCH  49  63
ATOM     63  C   UNL A   1      39.945  29.238  29.347  1.00  0.00     0.023 A 
ATOM     64  C   UNL A   1      39.548  29.353  30.691  1.00  0.00     0.031 A 
ATOM     65  C   UNL A   1      38.966  29.419  28.354  1.00  0.00     0.131 A 
ATOM     66  C   UNL A   1      38.199  29.581  31.006  1.00  0.00     0.055 A 
ATOM     67  C   UNL A   1      37.640  29.719  28.672  1.00  0.00     0.041 A 
ATOM     68  F   UNL A   1      39.282  29.303  27.055  1.00  0.00    -0.206 F 
ATOM     69  C   UNL A   1      37.247  29.790  30.005  1.00  0.00     0.022 A 
BRANCH  66  70
ATOM     70  S   UNL A   1      37.683  29.486  32.742  1.00  0.00     0.124 S 
ATOM     71  O   UNL A   1      36.434  30.244  32.720  1.00  0.00    -0.237 OA
ATOM     72  O   UNL A   1      37.555  28.050  32.956  1.00  0.00    -0.237 OA
ATOM     73  O   UNL A   1      38.781  30.130  33.461  1.00  0.00    -0.744 OA
ENDBRANCH  66  70
ENDBRANCH  49  63
BRANCH  50  74
ATOM     74  C   UNL A   1      49.149  26.978  26.090  1.00  0.00     0.023 A 
ATOM     75  C   UNL A   1      49.492  27.387  24.792  1.00  0.00     0.031 A 
ATOM     76  C   UNL A   1      50.095  26.233  26.816  1.00  0.00     0.131 A 
ATOM     77  C   UNL A   1      50.726  27.006  24.240  1.00  0.00     0.055 A 
ATOM     78  C   UNL A   1      51.343  25.904  26.284  1.00  0.00     0.041 A 
ATOM     79  F   UNL A   1      49.823  25.820  28.065  1.00  0.00    -0.206 F 
ATOM     80  C   UNL A   1      51.659  26.278  24.982  1.00  0.00     0.022 A 
BRANCH  77  81
ATOM     81  S   UNL A   1      51.055  27.394  22.499  1.00  0.00     0.124 S 
ATOM     82  O   UNL A   1      51.016  28.852  22.506  1.00  0.00    -0.237 OA
ATOM     83  O   UNL A   1      52.366  26.788  22.298  1.00  0.00    -0.237 OA
ATOM     84  O   UNL A   1      49.954  26.743  21.792  1.00  0.00    -0.744 OA
ENDBRANCH  77  81
ENDBRANCH  50  74
BRANCH  62  85
ATOM     85  C   UNL A   1      46.271  32.720  28.803  1.00  0.00     0.023 A 
ATOM     86  C   UNL A   1      46.146  33.793  27.903  1.00  0.00     0.031 A 
ATOM     87  C   UNL A   1      46.956  32.945  30.011  1.00  0.00     0.131 A 
ATOM     88  C   UNL A   1      46.748  35.025  28.198  1.00  0.00     0.055 A 
ATOM     89  C   UNL A   1      47.500  34.191  30.326  1.00  0.00     0.041 A 
ATOM     90  F   UNL A   1      47.107  31.955  30.907  1.00  0.00    -0.206 F 
ATOM     91  C   UNL A   1      47.409  35.236  29.411  1.00  0.00     0.022 A 
BRANCH  88  92
ATOM     92  S   UNL A   1      46.734  36.325  26.934  1.00  0.00     0.124 S 
ATOM     93  O   UNL A   1      47.567  35.740  25.888  1.00  0.00    -0.237 OA
ATOM     94  O   UNL A   1      45.313  36.446  26.624  1.00  0.00    -0.237 OA
ATOM     95  O   UNL A   1      47.317  37.476  27.619  1.00  0.00    -0.744 OA
ENDBRANCH  88  92
ENDBRANCH  62  85
ENDBRANCH  36  37
ENDBRANCH  28  31
ENDBRANCH  26  27
ENDBRANCH   1  26
TORSDOF 16
ENDMDL
MODEL 3
REMARK VINA RESULT:     -12.2      2.135      2.929
REMARK SMILES C[C@@H]1CN(C(=O)Nc2ccc(O)c(C(=O)NCCCNC(=O)c3ccc(-c4c5nc(c(-c6cc(S(=O)(=O)[O-])ccc6F)c6ccc([nH]6)c(-c6cc(S(=O)(=O)[O-])ccc6F)c6nc(c(-c7cc(S(=O)(=O)[O-])ccc7F)c7ccc4[nH]7)C=C6)C=C5)cc3)c2)C[C@@H]1C
REMARK SMILES IDX 18 1 17 2 16 3 14 4 15 5 13 7 8 8 9 9 86 10 10 11 11 12 7 13
REMARK SMILES IDX 5 14 6 15 4 17 1 18 2 19 3 20 88 21 87 22 89 23 12 24 19 26
REMARK SMILES IDX 20 27 21 28 22 30 23 31 24 32 85 33 25 34 84 35 26 36 27 37
REMARK SMILES IDX 28 38 78 39 29 40 83 41 77 42 79 43 30 44 82 45 76 46 75 47
REMARK SMILES IDX 31 49 63 50 43 51 62 52 44 53 47 54 61 55 80 56 45 57 46 58
REMARK SMILES IDX 60 60 81 61 48 62 32 63 33 64 41 65 34 66 40 67 42 68 39 69
REMARK SMILES IDX 35 70 36 71 37 72 38 73 64 74 65 75 73 76 66 77 72 78 74 79
REMARK SMILES IDX 71 80 67 81 68 82 69 83 70 84 49 85 50 86 58 87 51 88 57 89
REMARK SMILES IDX 59 90 56 91 52 92 53 93 54 94 55 95
REMARK H PARENT 16 6 7 16 12 25 20 29 79 48 47 59
REMARK Flexibility Score: inf
ROOT
ATOM      1  C   UNL A   1      31.770  28.537  26.250  1.00  0.00     0.042 C 
ENDROOT
BRANCH   1   2
ATOM      2  C   UNL A   1      31.541  27.268  25.428  1.00  0.00     0.118 C 
BRANCH   2   3
ATOM      3  N   UNL A   1      30.969  27.573  24.132  1.00  0.00    -0.352 N 
ATOM      4  C   UNL A   1      31.043  26.945  22.918  1.00  0.00     0.255 C 
ATOM      5  O   UNL A   1      30.393  27.455  21.999  1.00  0.00    -0.269 OA
ATOM      6  H   UNL A   1      30.422  28.392  24.123  1.00  0.00     0.163 HD
BRANCH   4   7
ATOM      7  C   UNL A   1      31.756  25.664  22.637  1.00  0.00     0.083 A 
ATOM      8  C   UNL A   1      31.876  23.313  23.282  1.00  0.00     0.043 A 
ATOM      9  C   UNL A   1      32.785  23.066  22.261  1.00  0.00     0.030 A 
ATOM     10  C   UNL A   1      31.304  24.577  23.412  1.00  0.00     0.044 A 
ATOM     11  C   UNL A   1      33.239  24.119  21.476  1.00  0.00     0.049 A 
ATOM     12  C   UNL A   1      32.752  25.414  21.685  1.00  0.00     0.128 A 
BRANCH   8  13
ATOM     13  N   UNL A   1      31.513  22.324  24.197  1.00  0.00    -0.308 N 
ATOM     14  C   UNL A   1      32.283  21.517  24.977  1.00  0.00     0.321 C 
ATOM     15  O   UNL A   1      31.783  20.462  25.376  1.00  0.00    -0.248 OA
ATOM     16  H   UNL A   1      30.542  22.189  24.294  1.00  0.00     0.171 HD
BRANCH  14  17
ATOM     17  N   UNL A   1      33.509  21.950  25.427  1.00  0.00    -0.324 N 
ATOM     18  C   UNL A   1      37.015  23.057  24.868  1.00  0.00     0.010 C 
ATOM     19  C   UNL A   1      35.773  22.658  25.646  1.00  0.00     0.010 C 
ATOM     20  C   UNL A   1      34.832  21.767  24.832  1.00  0.00     0.125 C 
ATOM     21  C   UNL A   1      34.844  23.782  26.123  1.00  0.00     0.010 C 
ATOM     22  C   UNL A   1      33.566  22.992  26.442  1.00  0.00     0.125 C 
ATOM     23  C   UNL A   1      34.591  24.866  25.072  1.00  0.00     0.010 C 
ENDBRANCH  14  17
ENDBRANCH   8  13
BRANCH  12  24
ATOM     24  O   UNL A   1      33.277  26.391  20.899  1.00  0.00    -0.507 OA
ATOM     25  H   UNL A   1      34.134  26.725  21.077  1.00  0.00     0.293 HD
ENDBRANCH  12  24
ENDBRANCH   4   7
ENDBRANCH   2   3
ENDBRANCH   1   2
BRANCH   1  26
ATOM     26  C   UNL A   1      32.707  29.548  25.604  1.00  0.00     0.118 C 
BRANCH  26  27
ATOM     27  N   UNL A   1      32.377  30.914  25.971  1.00  0.00    -0.352 N 
ATOM     28  C   UNL A   1      32.892  31.712  26.963  1.00  0.00     0.251 C 
ATOM     29  H   UNL A   1      31.675  31.333  25.422  1.00  0.00     0.163 HD
ATOM     30  O   UNL A   1      32.300  32.749  27.253  1.00  0.00    -0.269 OA
BRANCH  28  31
ATOM     31  C   UNL A   1      34.126  31.333  27.696  1.00  0.00     0.039 A 
ATOM     32  C   UNL A   1      35.057  32.333  28.001  1.00  0.00     0.014 A 
ATOM     33  C   UNL A   1      34.407  30.006  28.035  1.00  0.00     0.014 A 
ATOM     34  C   UNL A   1      36.231  32.012  28.690  1.00  0.00     0.010 A 
ATOM     35  C   UNL A   1      35.541  29.698  28.787  1.00  0.00     0.010 A 
ATOM     36  C   UNL A   1      36.469  30.696  29.118  1.00  0.00    -0.014 A 
BRANCH  36  37
ATOM     37  C   UNL A   1      37.684  30.348  29.904  1.00  0.00     0.031 A 
ATOM     38  C   UNL A   1      38.721  29.421  29.325  1.00  0.00     0.074 A 
ATOM     39  C   UNL A   1      37.819  30.815  31.162  1.00  0.00     0.049 A 
ATOM     40  N   UNL A   1      39.802  28.937  29.882  1.00  0.00    -0.248 NA
ATOM     41  C   UNL A   1      38.501  28.958  27.947  1.00  0.00     0.031 C 
ATOM     42  C   UNL A   1      36.859  31.684  31.846  1.00  0.00     0.029 A 
ATOM     43  N   UNL A   1      38.805  30.613  32.097  1.00  0.00    -0.354 N 
ATOM     44  C   UNL A   1      40.376  28.096  28.935  1.00  0.00     0.074 A 
ATOM     45  C   UNL A   1      39.499  28.103  27.783  1.00  0.00     0.031 C 
ATOM     46  C   UNL A   1      37.308  31.949  33.084  1.00  0.00     0.029 A 
ATOM     47  C   UNL A   1      38.562  31.235  33.301  1.00  0.00     0.049 A 
ATOM     48  H   UNL A   1      39.611  30.075  31.921  1.00  0.00     0.167 HD
ATOM     49  C   UNL A   1      41.535  27.394  29.014  1.00  0.00     0.034 A 
ATOM     50  C   UNL A   1      39.259  31.217  34.455  1.00  0.00     0.034 A 
ATOM     51  C   UNL A   1      42.410  27.418  30.161  1.00  0.00     0.049 A 
ATOM     52  C   UNL A   1      40.544  30.430  34.515  1.00  0.00     0.074 A 
ATOM     53  C   UNL A   1      43.645  26.810  30.315  1.00  0.00     0.029 A 
ATOM     54  N   UNL A   1      42.142  28.074  31.355  1.00  0.00    -0.354 N 
ATOM     55  N   UNL A   1      41.106  29.695  33.584  1.00  0.00    -0.248 NA
ATOM     56  C   UNL A   1      41.296  30.483  35.776  1.00  0.00     0.031 C 
ATOM     57  C   UNL A   1      44.089  27.042  31.620  1.00  0.00     0.029 A 
ATOM     58  C   UNL A   1      43.169  27.859  32.260  1.00  0.00     0.049 A 
ATOM     59  H   UNL A   1      41.338  28.616  31.532  1.00  0.00     0.167 HD
ATOM     60  C   UNL A   1      42.291  29.220  34.140  1.00  0.00     0.074 A 
ATOM     61  C   UNL A   1      42.371  29.770  35.477  1.00  0.00     0.031 C 
ATOM     62  C   UNL A   1      43.230  28.405  33.595  1.00  0.00     0.034 A 
BRANCH  49  63
ATOM     63  C   UNL A   1      41.908  26.520  27.841  1.00  0.00     0.023 A 
ATOM     64  C   UNL A   1      41.512  25.173  27.762  1.00  0.00     0.031 A 
ATOM     65  C   UNL A   1      42.672  27.043  26.782  1.00  0.00     0.131 A 
ATOM     66  C   UNL A   1      41.932  24.381  26.682  1.00  0.00     0.055 A 
ATOM     67  C   UNL A   1      43.024  26.270  25.674  1.00  0.00     0.041 A 
ATOM     68  F   UNL A   1      43.095  28.317  26.810  1.00  0.00    -0.206 F 
ATOM     69  C   UNL A   1      42.663  24.928  25.624  1.00  0.00     0.022 A 
BRANCH  66  70
ATOM     70  S   UNL A   1      41.605  22.598  26.733  1.00  0.00     0.124 S 
ATOM     71  O   UNL A   1      42.325  22.201  27.941  1.00  0.00    -0.237 OA
ATOM     72  O   UNL A   1      40.150  22.545  26.809  1.00  0.00    -0.237 OA
ATOM     73  O   UNL A   1      42.184  22.107  25.484  1.00  0.00    -0.744 OA
ENDBRANCH  66  70
ENDBRANCH  49  63
BRANCH  50  74
ATOM     74  C   UNL A   1      38.751  31.939  35.657  1.00  0.00     0.023 A 
ATOM     75  C   UNL A   1      38.194  31.243  36.742  1.00  0.00     0.031 A 
ATOM     76  C   UNL A   1      38.768  33.344  35.717  1.00  0.00     0.131 A 
ATOM     77  C   UNL A   1      37.631  31.952  37.815  1.00  0.00     0.055 A 
ATOM     78  C   UNL A   1      38.258  34.043  36.811  1.00  0.00     0.041 A 
ATOM     79  F   UNL A   1      39.295  34.061  34.710  1.00  0.00    -0.206 F 
ATOM     80  C   UNL A   1      37.670  33.348  37.862  1.00  0.00     0.022 A 
BRANCH  77  81
ATOM     81  S   UNL A   1      36.757  31.024  39.106  1.00  0.00     0.124 S 
ATOM     82  O   UNL A   1      36.652  29.701  38.502  1.00  0.00    -0.237 OA
ATOM     83  O   UNL A   1      37.673  31.144  40.235  1.00  0.00    -0.237 OA
ATOM     84  O   UNL A   1      35.496  31.748  39.249  1.00  0.00    -0.744 OA
ENDBRANCH  77  81
ENDBRANCH  50  74
BRANCH  62  85
ATOM     85  C   UNL A   1      44.441  28.097  34.439  1.00  0.00     0.023 A 
ATOM     86  C   UNL A   1      44.490  26.971  35.280  1.00  0.00     0.031 A 
ATOM     87  C   UNL A   1      45.557  28.952  34.411  1.00  0.00     0.131 A 
ATOM     88  C   UNL A   1      45.608  26.762  36.101  1.00  0.00     0.055 A 
ATOM     89  C   UNL A   1      46.692  28.705  35.186  1.00  0.00     0.041 A 
ATOM     90  F   UNL A   1      45.564  30.043  33.628  1.00  0.00    -0.206 F 
ATOM     91  C   UNL A   1      46.715  27.612  36.047  1.00  0.00     0.022 A 
BRANCH  88  92
ATOM     92  S   UNL A   1      45.558  25.412  37.312  1.00  0.00     0.124 S 
ATOM     93  O   UNL A   1      44.144  25.382  37.674  1.00  0.00    -0.237 OA
ATOM     94  O   UNL A   1      46.041  24.276  36.534  1.00  0.00    -0.237 OA
ATOM     95  O   UNL A   1      46.459  25.866  38.369  1.00  0.00    -0.744 OA
ENDBRANCH  88  92
ENDBRANCH  62  85
ENDBRANCH  36  37
ENDBRANCH  28  31
ENDBRANCH  26  27
ENDBRANCH   1  26
TORSDOF 16
ENDMDL
