MODEL 1
REMARK VINA RESULT:     -13.5      0.000      0.000
REMARK SMILES O=C(NCCCNC(=O)c1ccc(-c2c3nc(c(-c4cc(S(=O)(=O)[O-])ccc4F)c4ccc([nH]4)c(-c4cc(S(=O)(=O)[O-])ccc4F)c4nc(c(-c5cc(S(=O)(=O)[O-])ccc5F)c5ccc2[nH]5)C=C4)C=C3)cc1)C1=N[C@@H]2NC=NN2[C@@H]([C@H]2C=NN=C2c2ccc(F)cc2)C1
REMARK SMILES IDX 5 1 4 2 3 3 1 4 2 5 73 7 74 8 93 9 75 10 80 11 76 12 79 13
REMARK SMILES IDX 77 14 78 16 81 17 82 18 85 19 83 20 84 21 86 22 87 23 92 24
REMARK SMILES IDX 88 25 91 26 89 27 90 28 6 29 7 30 8 31 9 33 10 34 11 35
REMARK SMILES IDX 72 36 12 37 71 38 13 39 14 40 15 41 65 42 16 43 70 44 64 45
REMARK SMILES IDX 66 46 17 47 69 48 63 49 62 50 18 52 50 53 30 54 49 55 31 56
REMARK SMILES IDX 34 57 48 58 67 59 32 60 33 61 47 63 68 64 35 65 19 66 20 67
REMARK SMILES IDX 28 68 21 69 27 70 29 71 26 72 22 73 23 74 24 75 25 76 51 77
REMARK SMILES IDX 52 78 60 79 53 80 59 81 61 82 58 83 54 84 55 85 56 86 57 87
REMARK SMILES IDX 36 88 37 89 45 90 38 91 44 92 46 93 43 94 39 95 40 96 41 97
REMARK SMILES IDX 42 98
REMARK H PARENT 3 6 76 15 7 32 66 51 34 62
REMARK Flexibility Score: inf
ROOT
ATOM      1  C   UNL A   1      35.204  23.014  24.663  1.00  0.00     0.042 C 
ENDROOT
BRANCH   1   2
ATOM      2  C   UNL A   1      33.792  22.556  24.332  1.00  0.00     0.118 C 
BRANCH   2   3
ATOM      3  N   UNL A   1      33.481  22.451  22.918  1.00  0.00    -0.351 N 
ATOM      4  O   UNL A   1      33.286  23.107  20.777  1.00  0.00    -0.268 OA
ATOM      5  C   UNL A   1      33.277  23.423  21.964  1.00  0.00     0.265 C 
ATOM      6  H   UNL A   1      33.402  21.528  22.584  1.00  0.00     0.163 HD
BRANCH   5   7
ATOM      7  C   UNL A   1      32.946  24.882  22.322  1.00  0.00     0.106 C 
ATOM      8  N   UNL A   1      33.585  25.791  21.669  1.00  0.00    -0.237 NA
ATOM      9  C   UNL A   1      31.938  25.174  23.395  1.00  0.00     0.090 C 
ATOM     10  C   UNL A   1      33.174  27.168  21.787  1.00  0.00     0.319 C 
ATOM     11  C   UNL A   1      32.029  26.627  23.839  1.00  0.00     0.127 C 
ATOM     12  N   UNL A   1      34.179  28.133  22.134  1.00  0.00    -0.335 N 
ATOM     13  N   UNL A   1      32.027  27.522  22.661  1.00  0.00    -0.249 NA
ATOM     14  C   UNL A   1      33.485  29.118  22.765  1.00  0.00     0.217 C 
ATOM     15  H   UNL A   1      35.146  28.091  21.955  1.00  0.00     0.165 HD
ATOM     16  N   UNL A   1      32.234  28.865  23.049  1.00  0.00    -0.164 NA
BRANCH  11  17
ATOM     17  C   UNL A   1      30.920  27.065  24.811  1.00  0.00     0.109 C 
ATOM     18  C   UNL A   1      30.002  25.960  25.221  1.00  0.00     0.120 C 
ATOM     19  C   UNL A   1      31.406  27.422  26.182  1.00  0.00     0.081 C 
ATOM     20  N   UNL A   1      29.969  25.772  26.500  1.00  0.00    -0.162 NA
ATOM     21  N   UNL A   1      30.868  26.693  27.113  1.00  0.00    -0.155 NA
BRANCH  19  22
ATOM     22  C   UNL A   1      32.470  28.412  26.416  1.00  0.00    -0.001 A 
ATOM     23  C   UNL A   1      33.818  28.038  26.468  1.00  0.00     0.013 A 
ATOM     24  C   UNL A   1      32.085  29.720  26.737  1.00  0.00     0.013 A 
ATOM     25  C   UNL A   1      34.771  28.959  26.906  1.00  0.00     0.040 A 
ATOM     26  C   UNL A   1      33.042  30.636  27.169  1.00  0.00     0.040 A 
ATOM     27  C   UNL A   1      34.372  30.243  27.264  1.00  0.00     0.123 A 
ATOM     28  F   UNL A   1      35.284  31.111  27.719  1.00  0.00    -0.207 F 
ENDBRANCH  19  22
ENDBRANCH  11  17
ENDBRANCH   5   7
ENDBRANCH   2   3
ENDBRANCH   1   2
BRANCH   1  29
ATOM     29  C   UNL A   1      35.818  22.433  25.924  1.00  0.00     0.118 C 
BRANCH  29  30
ATOM     30  N   UNL A   1      36.811  21.400  25.673  1.00  0.00    -0.352 N 
ATOM     31  C   UNL A   1      38.189  21.413  25.774  1.00  0.00     0.251 C 
ATOM     32  H   UNL A   1      36.435  20.540  25.376  1.00  0.00     0.163 HD
ATOM     33  O   UNL A   1      38.818  20.445  25.377  1.00  0.00    -0.269 OA
BRANCH  31  34
ATOM     34  C   UNL A   1      38.906  22.597  26.314  1.00  0.00     0.039 A 
ATOM     35  C   UNL A   1      40.015  22.400  27.146  1.00  0.00     0.014 A 
ATOM     36  C   UNL A   1      38.492  23.896  26.026  1.00  0.00     0.014 A 
ATOM     37  C   UNL A   1      40.759  23.498  27.596  1.00  0.00     0.010 A 
ATOM     38  C   UNL A   1      39.295  24.978  26.377  1.00  0.00     0.010 A 
ATOM     39  C   UNL A   1      40.439  24.795  27.169  1.00  0.00    -0.014 A 
BRANCH  39  40
ATOM     40  C   UNL A   1      41.249  25.989  27.547  1.00  0.00     0.031 A 
ATOM     41  C   UNL A   1      40.632  27.070  28.396  1.00  0.00     0.074 A 
ATOM     42  C   UNL A   1      42.490  26.157  27.048  1.00  0.00     0.049 A 
ATOM     43  N   UNL A   1      41.077  28.267  28.674  1.00  0.00    -0.248 NA
ATOM     44  C   UNL A   1      39.311  26.771  28.971  1.00  0.00     0.031 C 
ATOM     45  C   UNL A   1      43.202  25.199  26.199  1.00  0.00     0.029 A 
ATOM     46  N   UNL A   1      43.370  27.206  27.167  1.00  0.00    -0.354 N 
ATOM     47  C   UNL A   1      40.080  28.877  29.430  1.00  0.00     0.074 A 
ATOM     48  C   UNL A   1      38.980  27.937  29.502  1.00  0.00     0.031 C 
ATOM     49  C   UNL A   1      44.410  25.694  25.892  1.00  0.00     0.029 A 
ATOM     50  C   UNL A   1      44.541  27.030  26.466  1.00  0.00     0.049 A 
ATOM     51  H   UNL A   1      43.179  28.009  27.702  1.00  0.00     0.167 HD
ATOM     52  C   UNL A   1      40.087  30.094  30.029  1.00  0.00     0.034 A 
ATOM     53  C   UNL A   1      45.591  27.856  26.285  1.00  0.00     0.034 A 
ATOM     54  C   UNL A   1      41.200  31.010  29.964  1.00  0.00     0.049 A 
ATOM     55  C   UNL A   1      45.565  29.225  26.921  1.00  0.00     0.074 A 
ATOM     56  C   UNL A   1      41.334  32.249  30.567  1.00  0.00     0.029 A 
ATOM     57  N   UNL A   1      42.371  30.790  29.249  1.00  0.00    -0.354 N 
ATOM     58  N   UNL A   1      44.623  29.781  27.647  1.00  0.00    -0.248 NA
ATOM     59  C   UNL A   1      46.745  30.074  26.717  1.00  0.00     0.031 C 
ATOM     60  C   UNL A   1      42.550  32.807  30.159  1.00  0.00     0.029 A 
ATOM     61  C   UNL A   1      43.219  31.881  29.373  1.00  0.00     0.049 A 
ATOM     62  H   UNL A   1      42.570  29.978  28.728  1.00  0.00     0.167 HD
ATOM     63  C   UNL A   1      45.118  31.027  28.024  1.00  0.00     0.074 A 
ATOM     64  C   UNL A   1      46.440  31.140  27.444  1.00  0.00     0.031 C 
ATOM     65  C   UNL A   1      44.537  31.984  28.792  1.00  0.00     0.034 A 
BRANCH  52  66
ATOM     66  C   UNL A   1      38.840  30.506  30.779  1.00  0.00     0.023 A 
ATOM     67  C   UNL A   1      37.898  31.387  30.217  1.00  0.00     0.031 A 
ATOM     68  C   UNL A   1      38.612  30.056  32.090  1.00  0.00     0.131 A 
ATOM     69  C   UNL A   1      36.834  31.867  30.995  1.00  0.00     0.055 A 
ATOM     70  C   UNL A   1      37.495  30.460  32.827  1.00  0.00     0.041 A 
ATOM     71  F   UNL A   1      39.483  29.230  32.692  1.00  0.00    -0.206 F 
ATOM     72  C   UNL A   1      36.610  31.388  32.287  1.00  0.00     0.022 A 
BRANCH  69  73
ATOM     73  S   UNL A   1      35.863  33.261  30.359  1.00  0.00     0.124 S 
ATOM     74  O   UNL A   1      35.991  34.228  31.447  1.00  0.00    -0.237 OA
ATOM     75  O   UNL A   1      36.559  33.592  29.122  1.00  0.00    -0.237 OA
ATOM     76  O   UNL A   1      34.525  32.697  30.193  1.00  0.00    -0.744 OA
ENDBRANCH  69  73
ENDBRANCH  52  66
BRANCH  53  77
ATOM     77  C   UNL A   1      46.757  27.427  25.459  1.00  0.00     0.023 A 
ATOM     78  C   UNL A   1      46.935  27.917  24.155  1.00  0.00     0.031 A 
ATOM     79  C   UNL A   1      47.691  26.494  25.943  1.00  0.00     0.131 A 
ATOM     80  C   UNL A   1      47.994  27.442  23.365  1.00  0.00     0.055 A 
ATOM     81  C   UNL A   1      48.774  26.066  25.174  1.00  0.00     0.041 A 
ATOM     82  F   UNL A   1      47.569  25.992  27.183  1.00  0.00    -0.206 F 
ATOM     83  C   UNL A   1      48.924  26.531  23.871  1.00  0.00     0.022 A 
BRANCH  80  84
ATOM     84  S   UNL A   1      48.090  27.971  21.633  1.00  0.00     0.124 S 
ATOM     85  O   UNL A   1      48.325  26.703  20.950  1.00  0.00    -0.237 OA
ATOM     86  O   UNL A   1      46.780  28.578  21.428  1.00  0.00    -0.237 OA
ATOM     87  O   UNL A   1      49.216  28.903  21.624  1.00  0.00    -0.744 OA
ENDBRANCH  80  84
ENDBRANCH  53  77
BRANCH  65  88
ATOM     88  C   UNL A   1      45.358  33.210  29.114  1.00  0.00     0.023 A 
ATOM     89  C   UNL A   1      45.398  34.329  28.265  1.00  0.00     0.031 A 
ATOM     90  C   UNL A   1      46.103  33.257  30.307  1.00  0.00     0.131 A 
ATOM     91  C   UNL A   1      46.203  35.430  28.600  1.00  0.00     0.055 A 
ATOM     92  C   UNL A   1      46.853  34.378  30.664  1.00  0.00     0.041 A 
ATOM     93  F   UNL A   1      46.103  32.213  31.153  1.00  0.00    -0.206 F 
ATOM     94  C   UNL A   1      46.914  35.469  29.804  1.00  0.00     0.022 A 
BRANCH  91  95
ATOM     95  S   UNL A   1      46.372  36.786  27.407  1.00  0.00     0.124 S 
ATOM     96  O   UNL A   1      47.077  36.135  26.307  1.00  0.00    -0.237 OA
ATOM     97  O   UNL A   1      44.982  37.149  27.147  1.00  0.00    -0.237 OA
ATOM     98  O   UNL A   1      47.148  37.789  28.134  1.00  0.00    -0.744 OA
ENDBRANCH  91  95
ENDBRANCH  65  88
ENDBRANCH  39  40
ENDBRANCH  31  34
ENDBRANCH  29  30
ENDBRANCH   1  29
TORSDOF 15
ENDMDL
MODEL 2
REMARK VINA RESULT:     -13.4      4.993     10.150
REMARK SMILES O=C(NCCCNC(=O)c1ccc(-c2c3nc(c(-c4cc(S(=O)(=O)[O-])ccc4F)c4ccc([nH]4)c(-c4cc(S(=O)(=O)[O-])ccc4F)c4nc(c(-c5cc(S(=O)(=O)[O-])ccc5F)c5ccc2[nH]5)C=C4)C=C3)cc1)C1=N[C@@H]2NC=NN2[C@@H]([C@H]2C=NN=C2c2ccc(F)cc2)C1
REMARK SMILES IDX 5 1 4 2 3 3 1 4 2 5 73 7 74 8 93 9 75 10 80 11 76 12 79 13
REMARK SMILES IDX 77 14 78 16 81 17 82 18 85 19 83 20 84 21 86 22 87 23 92 24
REMARK SMILES IDX 88 25 91 26 89 27 90 28 6 29 7 30 8 31 9 33 10 34 11 35
REMARK SMILES IDX 72 36 12 37 71 38 13 39 14 40 15 41 65 42 16 43 70 44 64 45
REMARK SMILES IDX 66 46 17 47 69 48 63 49 62 50 18 52 50 53 30 54 49 55 31 56
REMARK SMILES IDX 34 57 48 58 67 59 32 60 33 61 47 63 68 64 35 65 19 66 20 67
REMARK SMILES IDX 28 68 21 69 27 70 29 71 26 72 22 73 23 74 24 75 25 76 51 77
REMARK SMILES IDX 52 78 60 79 53 80 59 81 61 82 58 83 54 84 55 85 56 86 57 87
REMARK SMILES IDX 36 88 37 89 45 90 38 91 44 92 46 93 43 94 39 95 40 96 41 97
REMARK SMILES IDX 42 98
REMARK H PARENT 3 6 76 15 7 32 66 51 34 62
REMARK Flexibility Score: inf
ROOT
ATOM      1  C   UNL A   1      32.199  28.081  26.023  1.00  0.00     0.042 C 
ENDROOT
BRANCH   1   2
ATOM      2  C   UNL A   1      31.455  27.226  25.010  1.00  0.00     0.118 C 
BRANCH   2   3
ATOM      3  N   UNL A   1      30.225  26.617  25.484  1.00  0.00    -0.351 N 
ATOM      4  O   UNL A   1      28.915  25.227  26.667  1.00  0.00    -0.268 OA
ATOM      5  C   UNL A   1      30.000  25.420  26.124  1.00  0.00     0.265 C 
ATOM      6  H   UNL A   1      29.415  27.152  25.319  1.00  0.00     0.163 HD
BRANCH   5   7
ATOM      7  C   UNL A   1      31.019  24.267  26.114  1.00  0.00     0.106 C 
ATOM      8  N   UNL A   1      31.287  23.730  27.255  1.00  0.00    -0.237 NA
ATOM      9  C   UNL A   1      31.650  23.844  24.821  1.00  0.00     0.090 C 
ATOM     10  C   UNL A   1      32.054  22.509  27.299  1.00  0.00     0.319 C 
ATOM     11  C   UNL A   1      32.867  22.967  25.075  1.00  0.00     0.127 C 
ATOM     12  N   UNL A   1      33.210  22.484  28.150  1.00  0.00    -0.335 N 
ATOM     13  N   UNL A   1      32.530  21.893  26.036  1.00  0.00    -0.249 NA
ATOM     14  C   UNL A   1      34.031  21.572  27.562  1.00  0.00     0.217 C 
ATOM     15  H   UNL A   1      33.371  23.006  28.968  1.00  0.00     0.165 HD
ATOM     16  N   UNL A   1      33.679  21.145  26.377  1.00  0.00    -0.164 NA
BRANCH  11  17
ATOM     17  C   UNL A   1      33.478  22.343  23.809  1.00  0.00     0.109 C 
ATOM     18  C   UNL A   1      32.836  22.798  22.539  1.00  0.00     0.120 C 
ATOM     19  C   UNL A   1      34.865  22.814  23.496  1.00  0.00     0.081 C 
ATOM     20  N   UNL A   1      33.666  23.355  21.719  1.00  0.00    -0.162 NA
ATOM     21  N   UNL A   1      34.954  23.376  22.328  1.00  0.00    -0.155 NA
BRANCH  19  22
ATOM     22  C   UNL A   1      35.967  22.747  24.470  1.00  0.00    -0.001 A 
ATOM     23  C   UNL A   1      36.332  23.858  25.239  1.00  0.00     0.013 A 
ATOM     24  C   UNL A   1      36.742  21.581  24.498  1.00  0.00     0.013 A 
ATOM     25  C   UNL A   1      37.510  23.822  25.985  1.00  0.00     0.040 A 
ATOM     26  C   UNL A   1      37.916  21.549  25.249  1.00  0.00     0.040 A 
ATOM     27  C   UNL A   1      38.297  22.673  25.972  1.00  0.00     0.123 A 
ATOM     28  F   UNL A   1      39.445  22.657  26.660  1.00  0.00    -0.207 F 
ENDBRANCH  19  22
ENDBRANCH  11  17
ENDBRANCH   5   7
ENDBRANCH   2   3
ENDBRANCH   1   2
BRANCH   1  29
ATOM     29  C   UNL A   1      32.928  29.294  25.470  1.00  0.00     0.118 C 
BRANCH  29  30
ATOM     30  N   UNL A   1      32.456  30.560  26.011  1.00  0.00    -0.352 N 
ATOM     31  C   UNL A   1      32.989  31.397  26.972  1.00  0.00     0.251 C 
ATOM     32  H   UNL A   1      31.607  30.874  25.625  1.00  0.00     0.163 HD
ATOM     33  O   UNL A   1      32.329  32.353  27.351  1.00  0.00    -0.269 OA
BRANCH  31  34
ATOM     34  C   UNL A   1      34.320  31.125  27.573  1.00  0.00     0.039 A 
ATOM     35  C   UNL A   1      35.223  32.183  27.731  1.00  0.00     0.014 A 
ATOM     36  C   UNL A   1      34.697  29.843  27.965  1.00  0.00     0.014 A 
ATOM     37  C   UNL A   1      36.450  31.969  28.374  1.00  0.00     0.010 A 
ATOM     38  C   UNL A   1      35.862  29.653  28.703  1.00  0.00     0.010 A 
ATOM     39  C   UNL A   1      36.757  30.713  28.917  1.00  0.00    -0.014 A 
BRANCH  39  40
ATOM     40  C   UNL A   1      38.007  30.453  29.685  1.00  0.00     0.031 A 
ATOM     41  C   UNL A   1      39.069  29.558  29.100  1.00  0.00     0.074 A 
ATOM     42  C   UNL A   1      38.148  30.925  30.940  1.00  0.00     0.049 A 
ATOM     43  N   UNL A   1      40.130  29.042  29.666  1.00  0.00    -0.248 NA
ATOM     44  C   UNL A   1      38.881  29.156  27.698  1.00  0.00     0.031 C 
ATOM     45  C   UNL A   1      37.190  31.788  31.635  1.00  0.00     0.029 A 
ATOM     46  N   UNL A   1      39.146  30.731  31.865  1.00  0.00    -0.354 N 
ATOM     47  C   UNL A   1      40.719  28.231  28.700  1.00  0.00     0.074 A 
ATOM     48  C   UNL A   1      39.854  28.272  27.539  1.00  0.00     0.031 C 
ATOM     49  C   UNL A   1      37.655  32.062  32.864  1.00  0.00     0.029 A 
ATOM     50  C   UNL A   1      38.911  31.348  33.073  1.00  0.00     0.049 A 
ATOM     51  H   UNL A   1      39.952  30.198  31.682  1.00  0.00     0.167 HD
ATOM     52  C   UNL A   1      41.882  27.537  28.764  1.00  0.00     0.034 A 
ATOM     53  C   UNL A   1      39.612  31.325  34.224  1.00  0.00     0.034 A 
ATOM     54  C   UNL A   1      42.743  27.523  29.922  1.00  0.00     0.049 A 
ATOM     55  C   UNL A   1      40.882  30.511  34.293  1.00  0.00     0.074 A 
ATOM     56  C   UNL A   1      43.964  26.891  30.082  1.00  0.00     0.029 A 
ATOM     57  N   UNL A   1      42.471  28.168  31.123  1.00  0.00    -0.354 N 
ATOM     58  N   UNL A   1      41.436  29.764  33.366  1.00  0.00    -0.248 NA
ATOM     59  C   UNL A   1      41.623  30.544  35.560  1.00  0.00     0.031 C 
ATOM     60  C   UNL A   1      44.394  27.093  31.398  1.00  0.00     0.029 A 
ATOM     61  C   UNL A   1      43.487  27.926  32.035  1.00  0.00     0.049 A 
ATOM     62  H   UNL A   1      41.673  28.717  31.300  1.00  0.00     0.167 HD
ATOM     63  C   UNL A   1      42.613  29.275  33.925  1.00  0.00     0.074 A 
ATOM     64  C   UNL A   1      42.688  29.811  35.269  1.00  0.00     0.031 C 
ATOM     65  C   UNL A   1      43.554  28.467  33.373  1.00  0.00     0.034 A 
BRANCH  52  66
ATOM     66  C   UNL A   1      42.268  26.717  27.552  1.00  0.00     0.023 A 
ATOM     67  C   UNL A   1      42.172  25.313  27.550  1.00  0.00     0.031 A 
ATOM     68  C   UNL A   1      42.786  27.338  26.403  1.00  0.00     0.131 A 
ATOM     69  C   UNL A   1      42.680  24.577  26.471  1.00  0.00     0.055 A 
ATOM     70  C   UNL A   1      43.199  26.603  25.289  1.00  0.00     0.041 A 
ATOM     71  F   UNL A   1      42.924  28.672  26.349  1.00  0.00    -0.206 F 
ATOM     72  C   UNL A   1      43.167  25.212  25.327  1.00  0.00     0.022 A 
BRANCH  69  73
ATOM     73  S   UNL A   1      42.865  22.782  26.663  1.00  0.00     0.124 S 
ATOM     74  O   UNL A   1      42.144  22.546  27.913  1.00  0.00    -0.237 OA
ATOM     75  O   UNL A   1      42.233  22.268  25.454  1.00  0.00    -0.237 OA
ATOM     76  O   UNL A   1      44.311  22.594  26.743  1.00  0.00    -0.744 OA
ENDBRANCH  69  73
ENDBRANCH  52  66
BRANCH  53  77
ATOM     77  C   UNL A   1      39.133  32.085  35.415  1.00  0.00     0.023 A 
ATOM     78  C   UNL A   1      38.487  31.428  36.476  1.00  0.00     0.031 A 
ATOM     79  C   UNL A   1      39.281  33.481  35.499  1.00  0.00     0.131 A 
ATOM     80  C   UNL A   1      37.974  32.170  37.551  1.00  0.00     0.055 A 
ATOM     81  C   UNL A   1      38.818  34.208  36.598  1.00  0.00     0.041 A 
ATOM     82  F   UNL A   1      39.891  34.159  34.514  1.00  0.00    -0.206 F 
ATOM     83  C   UNL A   1      38.149  33.553  37.627  1.00  0.00     0.022 A 
BRANCH  80  84
ATOM     84  S   UNL A   1      36.999  31.307  38.814  1.00  0.00     0.124 S 
ATOM     85  O   UNL A   1      37.869  31.411  39.981  1.00  0.00    -0.237 OA
ATOM     86  O   UNL A   1      35.778  32.102  38.851  1.00  0.00    -0.237 OA
ATOM     87  O   UNL A   1      36.849  29.960  38.266  1.00  0.00    -0.744 OA
ENDBRANCH  80  84
ENDBRANCH  53  77
BRANCH  65  88
ATOM     88  C   UNL A   1      44.786  28.172  34.194  1.00  0.00     0.023 A 
ATOM     89  C   UNL A   1      44.879  27.046  35.029  1.00  0.00     0.031 A 
ATOM     90  C   UNL A   1      45.895  29.035  34.122  1.00  0.00     0.131 A 
ATOM     91  C   UNL A   1      46.039  26.837  35.794  1.00  0.00     0.055 A 
ATOM     92  C   UNL A   1      47.067  28.790  34.838  1.00  0.00     0.041 A 
ATOM     93  F   UNL A   1      45.860  30.128  33.342  1.00  0.00    -0.206 F 
ATOM     94  C   UNL A   1      47.140  27.692  35.687  1.00  0.00     0.022 A 
BRANCH  91  95
ATOM     95  S   UNL A   1      46.064  25.474  36.991  1.00  0.00     0.124 S 
ATOM     96  O   UNL A   1      46.347  24.325  36.136  1.00  0.00    -0.237 OA
ATOM     97  O   UNL A   1      47.134  25.874  37.898  1.00  0.00    -0.237 OA
ATOM     98  O   UNL A   1      44.721  25.501  37.569  1.00  0.00    -0.744 OA
ENDBRANCH  91  95
ENDBRANCH  65  88
ENDBRANCH  39  40
ENDBRANCH  31  34
ENDBRANCH  29  30
ENDBRANCH   1  29
TORSDOF 15
ENDMDL
MODEL 3
REMARK VINA RESULT:     -13.4      1.744      2.769
REMARK SMILES O=C(NCCCNC(=O)c1ccc(-c2c3nc(c(-c4cc(S(=O)(=O)[O-])ccc4F)c4ccc([nH]4)c(-c4cc(S(=O)(=O)[O-])ccc4F)c4nc(c(-c5cc(S(=O)(=O)[O-])ccc5F)c5ccc2[nH]5)C=C4)C=C3)cc1)C1=N[C@@H]2NC=NN2[C@@H]([C@H]2C=NN=C2c2ccc(F)cc2)C1
REMARK SMILES IDX 5 1 4 2 3 3 1 4 2 5 73 7 74 8 93 9 75 10 80 11 76 12 79 13
REMARK SMILES IDX 77 14 78 16 81 17 82 18 85 19 83 20 84 21 86 22 87 23 92 24
REMARK SMILES IDX 88 25 91 26 89 27 90 28 6 29 7 30 8 31 9 33 10 34 11 35
REMARK SMILES IDX 72 36 12 37 71 38 13 39 14 40 15 41 65 42 16 43 70 44 64 45
REMARK SMILES IDX 66 46 17 47 69 48 63 49 62 50 18 52 50 53 30 54 49 55 31 56
REMARK SMILES IDX 34 57 48 58 67 59 32 60 33 61 47 63 68 64 35 65 19 66 20 67
REMARK SMILES IDX 28 68 21 69 27 70 29 71 26 72 22 73 23 74 24 75 25 76 51 77
REMARK SMILES IDX 52 78 60 79 53 80 59 81 61 82 58 83 54 84 55 85 56 86 57 87
REMARK SMILES IDX 36 88 37 89 45 90 38 91 44 92 46 93 43 94 39 95 40 96 41 97
REMARK SMILES IDX 42 98
REMARK H PARENT 3 6 76 15 7 32 66 51 34 62
REMARK Flexibility Score: inf
ROOT
ATOM      1  C   UNL A   1      34.621  21.513  25.649  1.00  0.00     0.042 C 
ENDROOT
BRANCH   1   2
ATOM      2  C   UNL A   1      33.869  21.890  26.915  1.00  0.00     0.118 C 
BRANCH   2   3
ATOM      3  N   UNL A   1      32.421  21.799  26.836  1.00  0.00    -0.351 N 
ATOM      4  O   UNL A   1      30.345  22.267  26.114  1.00  0.00    -0.268 OA
ATOM      5  C   UNL A   1      31.491  22.666  26.307  1.00  0.00     0.265 C 
ATOM      6  H   UNL A   1      32.041  20.980  27.226  1.00  0.00     0.163 HD
BRANCH   5   7
ATOM      7  C   UNL A   1      31.798  24.147  26.028  1.00  0.00     0.106 C 
ATOM      8  N   UNL A   1      31.686  24.953  27.027  1.00  0.00    -0.237 NA
ATOM      9  C   UNL A   1      32.185  24.578  24.644  1.00  0.00     0.090 C 
ATOM     10  C   UNL A   1      32.168  26.306  26.903  1.00  0.00     0.319 C 
ATOM     11  C   UNL A   1      32.086  26.090  24.502  1.00  0.00     0.127 C 
ATOM     12  N   UNL A   1      31.261  27.367  27.239  1.00  0.00    -0.335 N 
ATOM     13  N   UNL A   1      32.780  26.755  25.627  1.00  0.00    -0.249 NA
ATOM     14  C   UNL A   1      31.685  28.414  26.482  1.00  0.00     0.217 C 
ATOM     15  H   UNL A   1      30.508  27.341  27.872  1.00  0.00     0.165 HD
ATOM     16  N   UNL A   1      32.592  28.154  25.577  1.00  0.00    -0.164 NA
BRANCH  11  17
ATOM     17  C   UNL A   1      32.628  26.641  23.172  1.00  0.00     0.109 C 
ATOM     18  C   UNL A   1      33.312  25.618  22.326  1.00  0.00     0.120 C 
ATOM     19  C   UNL A   1      31.569  27.024  22.184  1.00  0.00     0.081 C 
ATOM     20  N   UNL A   1      32.780  25.487  21.155  1.00  0.00    -0.162 NA
ATOM     21  N   UNL A   1      31.667  26.372  21.065  1.00  0.00    -0.155 NA
BRANCH  19  22
ATOM     22  C   UNL A   1      30.473  27.951  22.512  1.00  0.00    -0.001 A 
ATOM     23  C   UNL A   1      29.285  27.500  23.100  1.00  0.00     0.013 A 
ATOM     24  C   UNL A   1      30.590  29.277  22.079  1.00  0.00     0.013 A 
ATOM     25  C   UNL A   1      28.193  28.363  23.193  1.00  0.00     0.040 A 
ATOM     26  C   UNL A   1      29.497  30.136  22.179  1.00  0.00     0.040 A 
ATOM     27  C   UNL A   1      28.305  29.667  22.720  1.00  0.00     0.123 A 
ATOM     28  F   UNL A   1      27.243  30.480  22.778  1.00  0.00    -0.207 F 
ENDBRANCH  19  22
ENDBRANCH  11  17
ENDBRANCH   5   7
ENDBRANCH   2   3
ENDBRANCH   1   2
BRANCH   1  29
ATOM     29  C   UNL A   1      36.043  22.035  25.534  1.00  0.00     0.118 C 
BRANCH  29  30
ATOM     30  N   UNL A   1      37.048  20.987  25.441  1.00  0.00    -0.352 N 
ATOM     31  C   UNL A   1      38.407  21.001  25.692  1.00  0.00     0.251 C 
ATOM     32  H   UNL A   1      36.699  20.116  25.147  1.00  0.00     0.163 HD
ATOM     33  O   UNL A   1      39.067  20.012  25.412  1.00  0.00    -0.269 OA
BRANCH  31  34
ATOM     34  C   UNL A   1      39.071  22.207  26.251  1.00  0.00     0.039 A 
ATOM     35  C   UNL A   1      40.147  22.044  27.131  1.00  0.00     0.014 A 
ATOM     36  C   UNL A   1      38.639  23.492  25.934  1.00  0.00     0.014 A 
ATOM     37  C   UNL A   1      40.845  23.164  27.602  1.00  0.00     0.010 A 
ATOM     38  C   UNL A   1      39.399  24.596  26.308  1.00  0.00     0.010 A 
ATOM     39  C   UNL A   1      40.512  24.449  27.149  1.00  0.00    -0.014 A 
BRANCH  39  40
ATOM     40  C   UNL A   1      41.276  25.665  27.550  1.00  0.00     0.031 A 
ATOM     41  C   UNL A   1      40.604  26.725  28.384  1.00  0.00     0.074 A 
ATOM     42  C   UNL A   1      42.524  25.871  27.085  1.00  0.00     0.049 A 
ATOM     43  N   UNL A   1      41.007  27.935  28.676  1.00  0.00    -0.248 NA
ATOM     44  C   UNL A   1      39.278  26.387  28.923  1.00  0.00     0.031 C 
ATOM     45  C   UNL A   1      43.286  24.936  26.254  1.00  0.00     0.029 A 
ATOM     46  N   UNL A   1      43.369  26.946  27.228  1.00  0.00    -0.354 N 
ATOM     47  C   UNL A   1      39.972  28.513  29.406  1.00  0.00     0.074 A 
ATOM     48  C   UNL A   1      38.898  27.541  29.447  1.00  0.00     0.031 C 
ATOM     49  C   UNL A   1      44.487  25.468  25.980  1.00  0.00     0.029 A 
ATOM     50  C   UNL A   1      44.563  26.806  26.559  1.00  0.00     0.049 A 
ATOM     51  H   UNL A   1      43.140  27.742  27.759  1.00  0.00     0.167 HD
ATOM     52  C   UNL A   1      39.927  29.729  30.006  1.00  0.00     0.034 A 
ATOM     53  C   UNL A   1      45.592  27.664  26.406  1.00  0.00     0.034 A 
ATOM     54  C   UNL A   1      41.013  30.678  29.972  1.00  0.00     0.049 A 
ATOM     55  C   UNL A   1      45.508  29.030  27.044  1.00  0.00     0.074 A 
ATOM     56  C   UNL A   1      41.094  31.919  30.579  1.00  0.00     0.029 A 
ATOM     57  N   UNL A   1      42.209  30.494  29.288  1.00  0.00    -0.354 N 
ATOM     58  N   UNL A   1      44.531  29.556  27.745  1.00  0.00    -0.248 NA
ATOM     59  C   UNL A   1      46.668  29.914  26.872  1.00  0.00     0.031 C 
ATOM     60  C   UNL A   1      42.304  32.514  30.205  1.00  0.00     0.029 A 
ATOM     61  C   UNL A   1      43.020  31.610  29.436  1.00  0.00     0.049 A 
ATOM     62  H   UNL A   1      42.446  29.689  28.772  1.00  0.00     0.167 HD
ATOM     63  C   UNL A   1      44.979  30.815  28.137  1.00  0.00     0.074 A 
ATOM     64  C   UNL A   1      46.312  30.968  27.592  1.00  0.00     0.031 C 
ATOM     65  C   UNL A   1      44.350  31.753  28.890  1.00  0.00     0.034 A 
BRANCH  52  66
ATOM     66  C   UNL A   1      38.648  30.102  30.723  1.00  0.00     0.023 A 
ATOM     67  C   UNL A   1      37.600  30.769  30.064  1.00  0.00     0.031 A 
ATOM     68  C   UNL A   1      38.493  29.835  32.094  1.00  0.00     0.131 A 
ATOM     69  C   UNL A   1      36.496  31.235  30.793  1.00  0.00     0.055 A 
ATOM     70  C   UNL A   1      37.345  30.213  32.794  1.00  0.00     0.041 A 
ATOM     71  F   UNL A   1      39.464  29.219  32.786  1.00  0.00    -0.206 F 
ATOM     72  C   UNL A   1      36.347  30.938  32.149  1.00  0.00     0.022 A 
BRANCH  69  73
ATOM     73  S   UNL A   1      35.356  32.392  29.984  1.00  0.00     0.124 S 
ATOM     74  O   UNL A   1      36.249  33.499  29.650  1.00  0.00    -0.237 OA
ATOM     75  O   UNL A   1      34.858  31.609  28.860  1.00  0.00    -0.237 OA
ATOM     76  O   UNL A   1      34.374  32.688  31.025  1.00  0.00    -0.744 OA
ENDBRANCH  69  73
ENDBRANCH  52  66
BRANCH  53  77
ATOM     77  C   UNL A   1      46.792  27.271  25.611  1.00  0.00     0.023 A 
ATOM     78  C   UNL A   1      46.973  27.742  24.301  1.00  0.00     0.031 A 
ATOM     79  C   UNL A   1      47.757  26.391  26.133  1.00  0.00     0.131 A 
ATOM     80  C   UNL A   1      48.067  27.300  23.541  1.00  0.00     0.055 A 
ATOM     81  C   UNL A   1      48.874  25.997  25.392  1.00  0.00     0.041 A 
ATOM     82  F   UNL A   1      47.634  25.910  27.380  1.00  0.00    -0.206 F 
ATOM     83  C   UNL A   1      49.027  26.442  24.083  1.00  0.00     0.022 A 
BRANCH  80  84
ATOM     84  S   UNL A   1      48.173  27.797  21.800  1.00  0.00     0.124 S 
ATOM     85  O   UNL A   1      48.301  26.506  21.131  1.00  0.00    -0.237 OA
ATOM     86  O   UNL A   1      46.908  28.497  21.607  1.00  0.00    -0.237 OA
ATOM     87  O   UNL A   1      49.364  28.642  21.759  1.00  0.00    -0.744 OA
ENDBRANCH  80  84
ENDBRANCH  53  77
BRANCH  65  88
ATOM     88  C   UNL A   1      45.125  33.002  29.235  1.00  0.00     0.023 A 
ATOM     89  C   UNL A   1      45.065  34.163  28.446  1.00  0.00     0.031 A 
ATOM     90  C   UNL A   1      45.928  33.027  30.391  1.00  0.00     0.131 A 
ATOM     91  C   UNL A   1      45.832  35.287  28.799  1.00  0.00     0.055 A 
ATOM     92  C   UNL A   1      46.639  34.166  30.768  1.00  0.00     0.041 A 
ATOM     93  F   UNL A   1      46.024  31.944  31.179  1.00  0.00    -0.206 F 
ATOM     94  C   UNL A   1      46.602  35.301  29.966  1.00  0.00     0.022 A 
BRANCH  91  95
ATOM     95  S   UNL A   1      45.870  36.707  27.672  1.00  0.00     0.124 S 
ATOM     96  O   UNL A   1      46.239  37.797  28.569  1.00  0.00    -0.237 OA
ATOM     97  O   UNL A   1      46.884  36.309  26.700  1.00  0.00    -0.237 OA
ATOM     98  O   UNL A   1      44.505  36.768  27.151  1.00  0.00    -0.744 OA
ENDBRANCH  91  95
ENDBRANCH  65  88
ENDBRANCH  39  40
ENDBRANCH  31  34
ENDBRANCH  29  30
ENDBRANCH   1  29
TORSDOF 15
ENDMDL
