MODEL 1
REMARK VINA RESULT:     -11.5      0.000      0.000
REMARK SMILES CC(C)[C@@H]([NH2+][C@@H]1CSCC(C)(C)C1)C(=O)NCCCNC(=O)c1ccc(-c2c3nc(c(-c4cc(S(=O)(=O)[O-])ccc4F)c4ccc([nH]4)c(-c4cc(S(=O)(=O)[O-])ccc4F)c4nc(c(-c5cc(S(=O)(=O)[O-])ccc5F)c5ccc2[nH]5)C=C4)C=C3)cc1
REMARK SMILES IDX 18 1 17 2 16 3 14 4 15 5 4 7 2 8 1 9 3 10 5 11 6 14 7 15
REMARK SMILES IDX 13 16 8 17 10 18 9 19 11 20 12 21 19 22 20 23 21 24 22 26
REMARK SMILES IDX 23 27 24 28 85 29 25 30 84 31 26 32 27 33 28 34 78 35 29 36
REMARK SMILES IDX 83 37 77 38 79 39 30 40 82 41 76 42 75 43 31 45 63 46 43 47
REMARK SMILES IDX 62 48 44 49 47 50 61 51 80 52 45 53 46 54 60 56 81 57 48 58
REMARK SMILES IDX 32 59 33 60 41 61 34 62 40 63 42 64 39 65 35 66 36 67 37 68
REMARK SMILES IDX 38 69 64 70 65 71 73 72 66 73 72 74 74 75 71 76 67 77 68 78
REMARK SMILES IDX 69 79 70 80 49 81 50 82 58 83 51 84 57 85 59 86 56 87 52 88
REMARK SMILES IDX 53 89 54 90 55 91
REMARK H PARENT 16 6 5 12 5 13 20 25 79 44 47 55
REMARK Flexibility Score: inf
ROOT
ATOM      1  C   UNL A   1      36.012  20.703  25.369  1.00  0.00     0.042 C 
ENDROOT
BRANCH   1   2
ATOM      2  C   UNL A   1      35.155  21.450  26.368  1.00  0.00     0.118 C 
BRANCH   2   3
ATOM      3  N   UNL A   1      33.741  21.151  26.247  1.00  0.00    -0.351 N 
ATOM      4  C   UNL A   1      32.827  21.739  25.416  1.00  0.00     0.278 C 
ATOM      5  O   UNL A   1      31.701  21.240  25.330  1.00  0.00    -0.268 OA
ATOM      6  H   UNL A   1      33.397  20.442  26.836  1.00  0.00     0.163 HD
BRANCH   4   7
ATOM      7  C   UNL A   1      33.162  23.053  24.667  1.00  0.00     0.275 C 
BRANCH   7   8
ATOM      8  C   UNL A   1      33.802  22.691  23.283  1.00  0.00     0.051 C 
ATOM      9  C   UNL A   1      32.917  23.099  22.101  1.00  0.00     0.014 C 
ATOM     10  C   UNL A   1      35.188  23.335  23.098  1.00  0.00     0.014 C 
ENDBRANCH   7   8
BRANCH   7  11
ATOM     11  N   UNL A   1      31.963  23.932  24.551  1.00  0.00    -0.333 N 
ATOM     12  H   UNL A   1      31.154  23.326  24.409  1.00  0.00     0.347 HD
ATOM     13  H   UNL A   1      32.177  24.561  23.777  1.00  0.00     0.347 HD
BRANCH  11  14
ATOM     14  C   UNL A   1      31.656  24.823  25.687  1.00  0.00     0.193 C 
ATOM     15  C   UNL A   1      30.272  25.488  25.763  1.00  0.00     0.134 C 
ATOM     16  C   UNL A   1      32.733  25.936  25.819  1.00  0.00     0.073 C 
ATOM     17  S   UNL A   1      29.906  26.604  24.381  1.00  0.00    -0.155 SA
ATOM     18  C   UNL A   1      32.779  27.033  24.718  1.00  0.00    -0.021 C 
ATOM     19  C   UNL A   1      31.396  27.629  24.350  1.00  0.00     0.076 C 
ATOM     20  C   UNL A   1      33.536  26.523  23.475  1.00  0.00     0.012 C 
ATOM     21  C   UNL A   1      33.628  28.221  25.241  1.00  0.00     0.012 C 
ENDBRANCH  11  14
ENDBRANCH   7  11
ENDBRANCH   4   7
ENDBRANCH   2   3
ENDBRANCH   1   2
BRANCH   1  22
ATOM     22  C   UNL A   1      37.405  21.292  25.239  1.00  0.00     0.118 C 
BRANCH  22  23
ATOM     23  N   UNL A   1      38.454  20.359  25.645  1.00  0.00    -0.352 N 
ATOM     24  C   UNL A   1      39.679  20.603  26.226  1.00  0.00     0.251 C 
ATOM     25  H   UNL A   1      38.254  19.410  25.477  1.00  0.00     0.163 HD
ATOM     26  O   UNL A   1      40.494  19.697  26.335  1.00  0.00    -0.269 OA
BRANCH  24  27
ATOM     27  C   UNL A   1      40.012  21.973  26.681  1.00  0.00     0.039 A 
ATOM     28  C   UNL A   1      41.034  22.153  27.614  1.00  0.00     0.014 A 
ATOM     29  C   UNL A   1      39.342  23.078  26.154  1.00  0.00     0.014 A 
ATOM     30  C   UNL A   1      41.451  23.448  27.940  1.00  0.00     0.010 A 
ATOM     31  C   UNL A   1      39.829  24.357  26.396  1.00  0.00     0.010 A 
ATOM     32  C   UNL A   1      40.890  24.558  27.290  1.00  0.00    -0.014 A 
BRANCH  32  33
ATOM     33  C   UNL A   1      41.388  25.941  27.519  1.00  0.00     0.031 A 
ATOM     34  C   UNL A   1      42.742  26.344  26.996  1.00  0.00     0.074 A 
ATOM     35  C   UNL A   1      40.674  26.793  28.285  1.00  0.00     0.049 A 
ATOM     36  N   UNL A   1      43.421  27.440  27.211  1.00  0.00    -0.248 NA
ATOM     37  C   UNL A   1      43.445  25.361  26.155  1.00  0.00     0.031 C 
ATOM     38  C   UNL A   1      39.378  26.495  28.903  1.00  0.00     0.029 A 
ATOM     39  N   UNL A   1      40.944  28.075  28.696  1.00  0.00    -0.354 N 
ATOM     40  C   UNL A   1      44.642  27.263  26.568  1.00  0.00     0.074 A 
ATOM     41  C   UNL A   1      44.628  25.935  25.996  1.00  0.00     0.031 C 
ATOM     42  C   UNL A   1      38.961  27.567  29.595  1.00  0.00     0.029 A 
ATOM     43  C   UNL A   1      39.977  28.611  29.516  1.00  0.00     0.049 A 
ATOM     44  H   UNL A   1      41.754  28.566  28.427  1.00  0.00     0.167 HD
ATOM     45  C   UNL A   1      45.671  28.137  26.450  1.00  0.00     0.034 A 
ATOM     46  C   UNL A   1      39.923  29.801  30.149  1.00  0.00     0.034 A 
ATOM     47  C   UNL A   1      45.646  29.476  26.981  1.00  0.00     0.049 A 
ATOM     48  C   UNL A   1      41.066  30.769  29.966  1.00  0.00     0.074 A 
ATOM     49  C   UNL A   1      46.589  30.478  26.832  1.00  0.00     0.029 A 
ATOM     50  N   UNL A   1      44.625  30.003  27.760  1.00  0.00    -0.354 N 
ATOM     51  N   UNL A   1      42.182  30.611  29.292  1.00  0.00    -0.248 NA
ATOM     52  C   UNL A   1      40.938  32.078  30.618  1.00  0.00     0.031 C 
ATOM     53  C   UNL A   1      46.168  31.589  27.570  1.00  0.00     0.029 A 
ATOM     54  C   UNL A   1      44.929  31.306  28.122  1.00  0.00     0.049 A 
ATOM     55  H   UNL A   1      43.806  29.522  28.018  1.00  0.00     0.167 HD
ATOM     56  C   UNL A   1      42.871  31.814  29.414  1.00  0.00     0.074 A 
ATOM     57  C   UNL A   1      42.039  32.691  30.209  1.00  0.00     0.031 C 
ATOM     58  C   UNL A   1      44.084  32.164  28.915  1.00  0.00     0.034 A 
BRANCH  45  59
ATOM     59  C   UNL A   1      46.914  27.667  25.735  1.00  0.00     0.023 A 
ATOM     60  C   UNL A   1      47.146  27.962  24.380  1.00  0.00     0.031 A 
ATOM     61  C   UNL A   1      47.883  26.914  26.421  1.00  0.00     0.131 A 
ATOM     62  C   UNL A   1      48.287  27.455  23.739  1.00  0.00     0.055 A 
ATOM     63  C   UNL A   1      49.052  26.476  25.798  1.00  0.00     0.041 A 
ATOM     64  F   UNL A   1      47.706  26.588  27.711  1.00  0.00    -0.206 F 
ATOM     65  C   UNL A   1      49.255  26.736  24.446  1.00  0.00     0.022 A 
BRANCH  62  66
ATOM     66  S   UNL A   1      48.436  27.658  21.944  1.00  0.00     0.124 S 
ATOM     67  O   UNL A   1      49.572  28.572  21.845  1.00  0.00    -0.237 OA
ATOM     68  O   UNL A   1      48.673  26.293  21.490  1.00  0.00    -0.237 OA
ATOM     69  O   UNL A   1      47.148  28.230  21.555  1.00  0.00    -0.744 OA
ENDBRANCH  62  66
ENDBRANCH  45  59
BRANCH  46  70
ATOM     70  C   UNL A   1      38.769  30.149  31.028  1.00  0.00     0.023 A 
ATOM     71  C   UNL A   1      37.671  30.869  30.530  1.00  0.00     0.031 A 
ATOM     72  C   UNL A   1      38.775  29.824  32.396  1.00  0.00     0.131 A 
ATOM     73  C   UNL A   1      36.658  31.296  31.403  1.00  0.00     0.055 A 
ATOM     74  C   UNL A   1      37.736  30.200  33.250  1.00  0.00     0.041 A 
ATOM     75  F   UNL A   1      39.795  29.130  32.925  1.00  0.00    -0.206 F 
ATOM     76  C   UNL A   1      36.677  30.956  32.757  1.00  0.00     0.022 A 
BRANCH  73  77
ATOM     77  S   UNL A   1      35.369  32.400  30.762  1.00  0.00     0.124 S 
ATOM     78  O   UNL A   1      34.365  32.330  31.817  1.00  0.00    -0.237 OA
ATOM     79  O   UNL A   1      36.088  33.665  30.645  1.00  0.00    -0.237 OA
ATOM     80  O   UNL A   1      34.989  31.781  29.495  1.00  0.00    -0.744 OA
ENDBRANCH  73  77
ENDBRANCH  46  70
BRANCH  58  81
ATOM     81  C   UNL A   1      44.549  33.574  29.177  1.00  0.00     0.023 A 
ATOM     82  C   UNL A   1      44.184  34.640  28.338  1.00  0.00     0.031 A 
ATOM     83  C   UNL A   1      45.372  33.850  30.283  1.00  0.00     0.131 A 
ATOM     84  C   UNL A   1      44.688  35.925  28.586  1.00  0.00     0.055 A 
ATOM     85  C   UNL A   1      45.821  35.141  30.558  1.00  0.00     0.041 A 
ATOM     86  F   UNL A   1      45.749  32.867  31.117  1.00  0.00    -0.206 F 
ATOM     87  C   UNL A   1      45.491  36.186  29.700  1.00  0.00     0.022 A 
BRANCH  84  88
ATOM     88  S   UNL A   1      44.347  37.240  27.384  1.00  0.00     0.124 S 
ATOM     89  O   UNL A   1      45.598  37.300  26.637  1.00  0.00    -0.237 OA
ATOM     90  O   UNL A   1      43.197  36.711  26.660  1.00  0.00    -0.237 OA
ATOM     91  O   UNL A   1      44.067  38.406  28.221  1.00  0.00    -0.744 OA
ENDBRANCH  84  88
ENDBRANCH  58  81
ENDBRANCH  32  33
ENDBRANCH  24  27
ENDBRANCH  22  23
ENDBRANCH   1  22
TORSDOF 16
ENDMDL
MODEL 2
REMARK VINA RESULT:     -11.4      5.655      8.818
REMARK SMILES CC(C)[C@@H]([NH2+][C@@H]1CSCC(C)(C)C1)C(=O)NCCCNC(=O)c1ccc(-c2c3nc(c(-c4cc(S(=O)(=O)[O-])ccc4F)c4ccc([nH]4)c(-c4cc(S(=O)(=O)[O-])ccc4F)c4nc(c(-c5cc(S(=O)(=O)[O-])ccc5F)c5ccc2[nH]5)C=C4)C=C3)cc1
REMARK SMILES IDX 18 1 17 2 16 3 14 4 15 5 4 7 2 8 1 9 3 10 5 11 6 14 7 15
REMARK SMILES IDX 13 16 8 17 10 18 9 19 11 20 12 21 19 22 20 23 21 24 22 26
REMARK SMILES IDX 23 27 24 28 85 29 25 30 84 31 26 32 27 33 28 34 78 35 29 36
REMARK SMILES IDX 83 37 77 38 79 39 30 40 82 41 76 42 75 43 31 45 63 46 43 47
REMARK SMILES IDX 62 48 44 49 47 50 61 51 80 52 45 53 46 54 60 56 81 57 48 58
REMARK SMILES IDX 32 59 33 60 41 61 34 62 40 63 42 64 39 65 35 66 36 67 37 68
REMARK SMILES IDX 38 69 64 70 65 71 73 72 66 73 72 74 74 75 71 76 67 77 68 78
REMARK SMILES IDX 69 79 70 80 49 81 50 82 58 83 51 84 57 85 59 86 56 87 52 88
REMARK SMILES IDX 53 89 54 90 55 91
REMARK H PARENT 16 6 5 12 5 13 20 25 79 44 47 55
REMARK Flexibility Score: inf
ROOT
ATOM      1  C   UNL A   1      32.014  31.083  26.577  1.00  0.00     0.042 C 
ENDROOT
BRANCH   1   2
ATOM      2  C   UNL A   1      32.484  29.708  26.156  1.00  0.00     0.118 C 
BRANCH   2   3
ATOM      3  N   UNL A   1      33.273  29.717  24.940  1.00  0.00    -0.351 N 
ATOM      4  C   UNL A   1      33.143  28.901  23.850  1.00  0.00     0.278 C 
ATOM      5  O   UNL A   1      33.795  29.165  22.834  1.00  0.00    -0.268 OA
ATOM      6  H   UNL A   1      33.988  30.392  24.893  1.00  0.00     0.163 HD
BRANCH   4   7
ATOM      7  C   UNL A   1      32.273  27.621  23.913  1.00  0.00     0.275 C 
BRANCH   7   8
ATOM      8  C   UNL A   1      31.269  27.640  22.709  1.00  0.00     0.051 C 
ATOM      9  C   UNL A   1      31.482  26.468  21.747  1.00  0.00     0.014 C 
ATOM     10  C   UNL A   1      29.803  27.625  23.177  1.00  0.00     0.014 C 
ENDBRANCH   7   8
BRANCH   7  11
ATOM     11  N   UNL A   1      33.117  26.393  23.957  1.00  0.00    -0.333 N 
ATOM     12  H   UNL A   1      33.949  26.574  23.394  1.00  0.00     0.347 HD
ATOM     13  H   UNL A   1      32.510  25.649  23.612  1.00  0.00     0.347 HD
BRANCH  11  14
ATOM     14  C   UNL A   1      33.572  25.924  25.281  1.00  0.00     0.193 C 
ATOM     15  C   UNL A   1      34.739  24.926  25.361  1.00  0.00     0.134 C 
ATOM     16  C   UNL A   1      32.383  25.339  26.094  1.00  0.00     0.073 C 
ATOM     17  S   UNL A   1      34.413  23.334  24.558  1.00  0.00    -0.155 SA
ATOM     18  C   UNL A   1      31.767  23.995  25.613  1.00  0.00    -0.021 C 
ATOM     19  C   UNL A   1      32.808  22.899  25.273  1.00  0.00     0.076 C 
ATOM     20  C   UNL A   1      30.783  24.236  24.450  1.00  0.00     0.012 C 
ATOM     21  C   UNL A   1      30.896  23.414  26.757  1.00  0.00     0.012 C 
ENDBRANCH  11  14
ENDBRANCH   7  11
ENDBRANCH   4   7
ENDBRANCH   2   3
ENDBRANCH   1   2
BRANCH   1  22
ATOM     22  C   UNL A   1      33.088  31.869  27.309  1.00  0.00     0.118 C 
BRANCH  22  23
ATOM     23  N   UNL A   1      32.718  33.266  27.523  1.00  0.00    -0.352 N 
ATOM     24  C   UNL A   1      33.199  34.178  28.438  1.00  0.00     0.251 C 
ATOM     25  H   UNL A   1      32.018  33.608  26.923  1.00  0.00     0.163 HD
ATOM     26  O   UNL A   1      32.638  35.257  28.575  1.00  0.00    -0.269 OA
BRANCH  24  27
ATOM     27  C   UNL A   1      34.371  33.826  29.273  1.00  0.00     0.039 A 
ATOM     28  C   UNL A   1      34.178  33.096  30.448  1.00  0.00     0.014 A 
ATOM     29  C   UNL A   1      35.660  34.181  28.873  1.00  0.00     0.014 A 
ATOM     30  C   UNL A   1      35.287  32.637  31.164  1.00  0.00     0.010 A 
ATOM     31  C   UNL A   1      36.758  33.633  29.525  1.00  0.00     0.010 A 
ATOM     32  C   UNL A   1      36.585  32.853  30.677  1.00  0.00    -0.014 A 
BRANCH  32  33
ATOM     33  C   UNL A   1      37.784  32.277  31.344  1.00  0.00     0.031 A 
ATOM     34  C   UNL A   1      38.548  31.163  30.678  1.00  0.00     0.074 A 
ATOM     35  C   UNL A   1      38.117  32.681  32.589  1.00  0.00     0.049 A 
ATOM     36  N   UNL A   1      39.521  30.429  31.149  1.00  0.00    -0.248 NA
ATOM     37  C   UNL A   1      38.130  30.798  29.314  1.00  0.00     0.031 C 
ATOM     38  C   UNL A   1      37.413  33.706  33.365  1.00  0.00     0.029 A 
ATOM     39  N   UNL A   1      39.117  32.263  33.432  1.00  0.00    -0.354 N 
ATOM     40  C   UNL A   1      39.803  29.492  30.159  1.00  0.00     0.074 A 
ATOM     41  C   UNL A   1      38.866  29.722  29.082  1.00  0.00     0.031 C 
ATOM     42  C   UNL A   1      38.013  33.849  34.557  1.00  0.00     0.029 A 
ATOM     43  C   UNL A   1      39.112  32.894  34.656  1.00  0.00     0.049 A 
ATOM     44  H   UNL A   1      39.778  31.577  33.184  1.00  0.00     0.167 HD
ATOM     45  C   UNL A   1      40.768  28.541  30.144  1.00  0.00     0.034 A 
ATOM     46  C   UNL A   1      39.890  32.710  35.741  1.00  0.00     0.034 A 
ATOM     47  C   UNL A   1      41.729  28.361  31.203  1.00  0.00     0.049 A 
ATOM     48  C   UNL A   1      40.983  31.671  35.680  1.00  0.00     0.074 A 
ATOM     49  C   UNL A   1      42.810  27.499  31.246  1.00  0.00     0.029 A 
ATOM     50  N   UNL A   1      41.726  29.057  32.404  1.00  0.00    -0.354 N 
ATOM     51  N   UNL A   1      41.282  30.844  34.705  1.00  0.00    -0.248 NA
ATOM     52  C   UNL A   1      41.850  31.550  36.859  1.00  0.00     0.031 C 
ATOM     53  C   UNL A   1      43.425  27.629  32.496  1.00  0.00     0.029 A 
ATOM     54  C   UNL A   1      42.770  28.623  33.206  1.00  0.00     0.049 A 
ATOM     55  H   UNL A   1      41.078  29.755  32.652  1.00  0.00     0.167 HD
ATOM     56  C   UNL A   1      42.391  30.128  35.143  1.00  0.00     0.074 A 
ATOM     57  C   UNL A   1      42.718  30.632  36.460  1.00  0.00     0.031 C 
ATOM     58  C   UNL A   1      43.080  29.140  34.516  1.00  0.00     0.034 A 
BRANCH  45  59
ATOM     59  C   UNL A   1      40.824  27.614  28.954  1.00  0.00     0.023 A 
ATOM     60  C   UNL A   1      41.771  27.779  27.929  1.00  0.00     0.031 A 
ATOM     61  C   UNL A   1      39.915  26.546  28.847  1.00  0.00     0.131 A 
ATOM     62  C   UNL A   1      41.749  26.929  26.812  1.00  0.00     0.055 A 
ATOM     63  C   UNL A   1      39.945  25.659  27.771  1.00  0.00     0.041 A 
ATOM     64  F   UNL A   1      38.977  26.352  29.788  1.00  0.00    -0.206 F 
ATOM     65  C   UNL A   1      40.858  25.854  26.738  1.00  0.00     0.022 A 
BRANCH  62  66
ATOM     66  S   UNL A   1      42.828  27.313  25.408  1.00  0.00     0.124 S 
ATOM     67  O   UNL A   1      42.779  26.066  24.650  1.00  0.00    -0.237 OA
ATOM     68  O   UNL A   1      42.160  28.458  24.799  1.00  0.00    -0.237 OA
ATOM     69  O   UNL A   1      44.116  27.604  26.035  1.00  0.00    -0.744 OA
ENDBRANCH  62  66
ENDBRANCH  45  59
BRANCH  46  70
ATOM     70  C   UNL A   1      39.667  33.503  36.986  1.00  0.00     0.023 A 
ATOM     71  C   UNL A   1      38.995  32.948  38.087  1.00  0.00     0.031 A 
ATOM     72  C   UNL A   1      40.065  34.849  37.070  1.00  0.00     0.131 A 
ATOM     73  C   UNL A   1      38.684  33.750  39.196  1.00  0.00     0.055 A 
ATOM     74  C   UNL A   1      39.806  35.627  38.200  1.00  0.00     0.041 A 
ATOM     75  F   UNL A   1      40.718  35.429  36.051  1.00  0.00    -0.206 F 
ATOM     76  C   UNL A   1      39.095  35.083  39.265  1.00  0.00     0.022 A 
BRANCH  73  77
ATOM     77  S   UNL A   1      37.634  33.055  40.502  1.00  0.00     0.124 S 
ATOM     78  O   UNL A   1      36.406  32.763  39.773  1.00  0.00    -0.237 OA
ATOM     79  O   UNL A   1      38.414  31.900  40.933  1.00  0.00    -0.237 OA
ATOM     80  O   UNL A   1      37.540  34.140  41.476  1.00  0.00    -0.744 OA
ENDBRANCH  73  77
ENDBRANCH  46  70
BRANCH  58  81
ATOM     81  C   UNL A   1      44.283  28.585  35.233  1.00  0.00     0.023 A 
ATOM     82  C   UNL A   1      44.166  27.565  36.192  1.00  0.00     0.031 A 
ATOM     83  C   UNL A   1      45.565  29.090  34.953  1.00  0.00     0.131 A 
ATOM     84  C   UNL A   1      45.305  27.119  36.879  1.00  0.00     0.055 A 
ATOM     85  C   UNL A   1      46.702  28.601  35.597  1.00  0.00     0.041 A 
ATOM     86  F   UNL A   1      45.733  30.065  34.045  1.00  0.00    -0.206 F 
ATOM     87  C   UNL A   1      46.574  27.620  36.576  1.00  0.00     0.022 A 
BRANCH  84  88
ATOM     88  S   UNL A   1      45.096  25.933  38.234  1.00  0.00     0.124 S 
ATOM     89  O   UNL A   1      43.939  26.477  38.938  1.00  0.00    -0.237 OA
ATOM     90  O   UNL A   1      44.876  24.679  37.522  1.00  0.00    -0.237 OA
ATOM     91  O   UNL A   1      46.360  26.017  38.963  1.00  0.00    -0.744 OA
ENDBRANCH  84  88
ENDBRANCH  58  81
ENDBRANCH  32  33
ENDBRANCH  24  27
ENDBRANCH  22  23
ENDBRANCH   1  22
TORSDOF 16
ENDMDL
MODEL 3
REMARK VINA RESULT:     -11.1      2.016      8.138
REMARK SMILES CC(C)[C@@H]([NH2+][C@@H]1CSCC(C)(C)C1)C(=O)NCCCNC(=O)c1ccc(-c2c3nc(c(-c4cc(S(=O)(=O)[O-])ccc4F)c4ccc([nH]4)c(-c4cc(S(=O)(=O)[O-])ccc4F)c4nc(c(-c5cc(S(=O)(=O)[O-])ccc5F)c5ccc2[nH]5)C=C4)C=C3)cc1
REMARK SMILES IDX 18 1 17 2 16 3 14 4 15 5 4 7 2 8 1 9 3 10 5 11 6 14 7 15
REMARK SMILES IDX 13 16 8 17 10 18 9 19 11 20 12 21 19 22 20 23 21 24 22 26
REMARK SMILES IDX 23 27 24 28 85 29 25 30 84 31 26 32 27 33 28 34 78 35 29 36
REMARK SMILES IDX 83 37 77 38 79 39 30 40 82 41 76 42 75 43 31 45 63 46 43 47
REMARK SMILES IDX 62 48 44 49 47 50 61 51 80 52 45 53 46 54 60 56 81 57 48 58
REMARK SMILES IDX 32 59 33 60 41 61 34 62 40 63 42 64 39 65 35 66 36 67 37 68
REMARK SMILES IDX 38 69 64 70 65 71 73 72 66 73 72 74 74 75 71 76 67 77 68 78
REMARK SMILES IDX 69 79 70 80 49 81 50 82 58 83 51 84 57 85 59 86 56 87 52 88
REMARK SMILES IDX 53 89 54 90 55 91
REMARK H PARENT 16 6 5 12 5 13 20 25 79 44 47 55
REMARK Flexibility Score: inf
ROOT
ATOM      1  C   UNL A   1      37.568  20.786  25.173  1.00  0.00     0.042 C 
ENDROOT
BRANCH   1   2
ATOM      2  C   UNL A   1      36.628  21.972  25.178  1.00  0.00     0.118 C 
BRANCH   2   3
ATOM      3  N   UNL A   1      35.991  22.194  26.462  1.00  0.00    -0.351 N 
ATOM      4  C   UNL A   1      34.675  22.475  26.708  1.00  0.00     0.278 C 
ATOM      5  O   UNL A   1      34.278  22.466  27.877  1.00  0.00    -0.268 OA
ATOM      6  H   UNL A   1      36.577  22.137  27.251  1.00  0.00     0.163 HD
BRANCH   4   7
ATOM      7  C   UNL A   1      33.721  22.886  25.559  1.00  0.00     0.275 C 
BRANCH   7   8
ATOM      8  C   UNL A   1      32.716  21.711  25.298  1.00  0.00     0.051 C 
ATOM      9  C   UNL A   1      31.279  22.067  25.691  1.00  0.00     0.014 C 
ATOM     10  C   UNL A   1      32.722  21.259  23.827  1.00  0.00     0.014 C 
ENDBRANCH   7   8
BRANCH   7  11
ATOM     11  N   UNL A   1      33.046  24.183  25.851  1.00  0.00    -0.333 N 
ATOM     12  H   UNL A   1      32.823  24.193  26.847  1.00  0.00     0.347 HD
ATOM     13  H   UNL A   1      32.243  24.204  25.224  1.00  0.00     0.347 HD
BRANCH  11  14
ATOM     14  C   UNL A   1      33.791  25.422  25.552  1.00  0.00     0.193 C 
ATOM     15  C   UNL A   1      33.329  26.744  26.188  1.00  0.00     0.134 C 
ATOM     16  C   UNL A   1      33.901  25.640  24.018  1.00  0.00     0.073 C 
ATOM     17  S   UNL A   1      31.658  27.257  25.707  1.00  0.00    -0.155 SA
ATOM     18  C   UNL A   1      32.603  26.001  23.242  1.00  0.00    -0.021 C 
ATOM     19  C   UNL A   1      31.747  27.109  23.906  1.00  0.00     0.076 C 
ATOM     20  C   UNL A   1      31.776  24.732  22.948  1.00  0.00     0.012 C 
ATOM     21  C   UNL A   1      32.998  26.549  21.846  1.00  0.00     0.012 C 
ENDBRANCH  11  14
ENDBRANCH   7  11
ENDBRANCH   4   7
ENDBRANCH   2   3
ENDBRANCH   1   2
BRANCH   1  22
ATOM     22  C   UNL A   1      38.919  21.109  25.785  1.00  0.00     0.118 C 
BRANCH  22  23
ATOM     23  N   UNL A   1      39.774  19.931  25.920  1.00  0.00    -0.352 N 
ATOM     24  C   UNL A   1      41.133  19.844  26.133  1.00  0.00     0.251 C 
ATOM     25  H   UNL A   1      39.308  19.068  25.845  1.00  0.00     0.163 HD
ATOM     26  O   UNL A   1      41.696  18.762  26.044  1.00  0.00    -0.269 OA
BRANCH  24  27
ATOM     27  C   UNL A   1      41.905  21.073  26.432  1.00  0.00     0.039 A 
ATOM     28  C   UNL A   1      42.303  21.902  25.381  1.00  0.00     0.014 A 
ATOM     29  C   UNL A   1      42.197  21.425  27.750  1.00  0.00     0.014 A 
ATOM     30  C   UNL A   1      42.905  23.132  25.663  1.00  0.00     0.010 A 
ATOM     31  C   UNL A   1      42.694  22.692  28.031  1.00  0.00     0.010 A 
ATOM     32  C   UNL A   1      43.052  23.562  26.991  1.00  0.00    -0.014 A 
BRANCH  32  33
ATOM     33  C   UNL A   1      43.574  24.913  27.330  1.00  0.00     0.031 A 
ATOM     34  C   UNL A   1      42.647  25.950  27.906  1.00  0.00     0.074 A 
ATOM     35  C   UNL A   1      44.848  25.236  27.019  1.00  0.00     0.049 A 
ATOM     36  N   UNL A   1      42.861  27.220  28.131  1.00  0.00    -0.248 NA
ATOM     37  C   UNL A   1      41.281  25.508  28.232  1.00  0.00     0.031 C 
ATOM     38  C   UNL A   1      45.825  24.337  26.397  1.00  0.00     0.029 A 
ATOM     39  N   UNL A   1      45.537  26.416  27.163  1.00  0.00    -0.354 N 
ATOM     40  C   UNL A   1      41.651  27.735  28.583  1.00  0.00     0.074 A 
ATOM     41  C   UNL A   1      40.695  26.651  28.556  1.00  0.00     0.031 C 
ATOM     42  C   UNL A   1      46.985  24.990  26.231  1.00  0.00     0.029 A 
ATOM     43  C   UNL A   1      46.827  26.368  26.684  1.00  0.00     0.049 A 
ATOM     44  H   UNL A   1      45.144  27.221  27.570  1.00  0.00     0.167 HD
ATOM     45  C   UNL A   1      41.370  28.993  29.001  1.00  0.00     0.034 A 
ATOM     46  C   UNL A   1      47.769  27.328  26.603  1.00  0.00     0.034 A 
ATOM     47  C   UNL A   1      42.348  30.049  29.073  1.00  0.00     0.049 A 
ATOM     48  C   UNL A   1      47.440  28.710  27.113  1.00  0.00     0.074 A 
ATOM     49  C   UNL A   1      42.197  31.329  29.576  1.00  0.00     0.029 A 
ATOM     50  N   UNL A   1      43.660  29.946  28.632  1.00  0.00    -0.354 N 
ATOM     51  N   UNL A   1      46.309  29.159  27.608  1.00  0.00    -0.248 NA
ATOM     52  C   UNL A   1      48.515  29.709  27.067  1.00  0.00     0.031 C 
ATOM     53  C   UNL A   1      43.399  32.019  29.385  1.00  0.00     0.029 A 
ATOM     54  C   UNL A   1      44.321  31.149  28.826  1.00  0.00     0.049 A 
ATOM     55  H   UNL A   1      44.062  29.139  28.238  1.00  0.00     0.167 HD
ATOM     56  C   UNL A   1      46.550  30.483  27.960  1.00  0.00     0.074 A 
ATOM     57  C   UNL A   1      47.935  30.754  27.639  1.00  0.00     0.031 C 
ATOM     58  C   UNL A   1      45.703  31.397  28.500  1.00  0.00     0.034 A 
BRANCH  45  59
ATOM     59  C   UNL A   1      39.946  29.301  29.398  1.00  0.00     0.023 A 
ATOM     60  C   UNL A   1      39.568  29.458  30.743  1.00  0.00     0.031 A 
ATOM     61  C   UNL A   1      38.952  29.441  28.413  1.00  0.00     0.131 A 
ATOM     62  C   UNL A   1      38.223  29.686  31.070  1.00  0.00     0.055 A 
ATOM     63  C   UNL A   1      37.630  29.741  28.740  1.00  0.00     0.041 A 
ATOM     64  F   UNL A   1      39.252  29.283  27.114  1.00  0.00    -0.206 F 
ATOM     65  C   UNL A   1      37.255  29.854  30.076  1.00  0.00     0.022 A 
BRANCH  62  66
ATOM     66  S   UNL A   1      37.737  29.652  32.815  1.00  0.00     0.124 S 
ATOM     67  O   UNL A   1      36.623  30.598  32.829  1.00  0.00    -0.237 OA
ATOM     68  O   UNL A   1      37.387  28.251  33.020  1.00  0.00    -0.237 OA
ATOM     69  O   UNL A   1      38.938  30.104  33.515  1.00  0.00    -0.744 OA
ENDBRANCH  62  66
ENDBRANCH  45  59
BRANCH  46  70
ATOM     70  C   UNL A   1      49.105  27.042  26.003  1.00  0.00     0.023 A 
ATOM     71  C   UNL A   1      49.410  27.439  24.691  1.00  0.00     0.031 A 
ATOM     72  C   UNL A   1      50.075  26.307  26.709  1.00  0.00     0.131 A 
ATOM     73  C   UNL A   1      50.624  27.047  24.104  1.00  0.00     0.055 A 
ATOM     74  C   UNL A   1      51.305  25.970  26.142  1.00  0.00     0.041 A 
ATOM     75  F   UNL A   1      49.840  25.908  27.969  1.00  0.00    -0.206 F 
ATOM     76  C   UNL A   1      51.578  26.325  24.824  1.00  0.00     0.022 A 
BRANCH  73  77
ATOM     77  S   UNL A   1      50.890  27.399  22.344  1.00  0.00     0.124 S 
ATOM     78  O   UNL A   1      52.221  26.845  22.128  1.00  0.00    -0.237 OA
ATOM     79  O   UNL A   1      49.785  26.675  21.723  1.00  0.00    -0.237 OA
ATOM     80  O   UNL A   1      50.799  28.855  22.271  1.00  0.00    -0.744 OA
ENDBRANCH  73  77
ENDBRANCH  46  70
BRANCH  58  81
ATOM     81  C   UNL A   1      46.277  32.754  28.820  1.00  0.00     0.023 A 
ATOM     82  C   UNL A   1      46.251  33.806  27.889  1.00  0.00     0.031 A 
ATOM     83  C   UNL A   1      46.862  32.992  30.077  1.00  0.00     0.131 A 
ATOM     84  C   UNL A   1      46.850  35.033  28.209  1.00  0.00     0.055 A 
ATOM     85  C   UNL A   1      47.403  34.234  30.409  1.00  0.00     0.041 A 
ATOM     86  F   UNL A   1      46.912  32.021  31.002  1.00  0.00    -0.206 F 
ATOM     87  C   UNL A   1      47.411  35.259  29.468  1.00  0.00     0.022 A 
BRANCH  84  88
ATOM     88  S   UNL A   1      46.959  36.308  26.923  1.00  0.00     0.124 S 
ATOM     89  O   UNL A   1      46.855  35.517  25.702  1.00  0.00    -0.237 OA
ATOM     90  O   UNL A   1      45.815  37.160  27.230  1.00  0.00    -0.237 OA
ATOM     91  O   UNL A   1      48.265  36.920  27.156  1.00  0.00    -0.744 OA
ENDBRANCH  84  88
ENDBRANCH  58  81
ENDBRANCH  32  33
ENDBRANCH  24  27
ENDBRANCH  22  23
ENDBRANCH   1  22
TORSDOF 16
ENDMDL
