MODEL 1
REMARK VINA RESULT:     -12.8      0.000      0.000
REMARK SMILES O=C(NCCCNC(=O)c1ccc(-c2c3nc(c(-c4cc(S(=O)(=O)[O-])ccc4F)c4ccc([nH]4)c(-c4cc(S(=O)(=O)[O-])ccc4F)c4nc(c(-c5cc(S(=O)(=O)[O-])ccc5F)c5ccc2[nH]5)C=C4)C=C3)cc1)C1=Cc2cc(Cl)c(Cl)cc2O[C@@H]1C(F)(F)F
REMARK SMILES IDX 6 1 5 2 4 3 3 4 1 5 2 6 73 8 74 9 84 10 75 11 83 12 76 13
REMARK SMILES IDX 82 14 77 15 81 16 78 17 79 18 80 19 85 20 86 21 87 22 88 23
REMARK SMILES IDX 7 24 8 25 9 27 10 28 11 29 72 30 12 31 71 32 13 33 14 34
REMARK SMILES IDX 15 35 65 36 16 37 70 38 64 39 66 40 17 41 69 42 63 43 62 44
REMARK SMILES IDX 18 46 50 47 30 48 49 49 31 50 34 51 48 52 67 53 32 54 33 55
REMARK SMILES IDX 47 57 68 58 35 59 19 60 20 61 28 62 21 63 27 64 29 65 26 66
REMARK SMILES IDX 22 67 23 68 24 69 25 70 51 71 52 72 60 73 53 74 59 75 61 76
REMARK SMILES IDX 58 77 54 78 55 79 56 80 57 81 36 82 37 83 45 84 38 85 44 86
REMARK SMILES IDX 46 87 43 88 39 89 40 90 41 91 42 92
REMARK H PARENT 3 7 7 26 66 45 34 56
REMARK Flexibility Score: inf
ROOT
ATOM      1  C   UNL A   1      37.377  21.406  24.976  1.00  0.00     0.118 C 
ENDROOT
BRANCH   1   2
ATOM      2  C   UNL A   1      36.107  21.419  25.821  1.00  0.00     0.042 C 
BRANCH   2   3
ATOM      3  C   UNL A   1      34.844  21.296  24.977  1.00  0.00     0.118 C 
BRANCH   3   4
ATOM      4  N   UNL A   1      34.820  22.204  23.826  1.00  0.00    -0.352 N 
ATOM      5  O   UNL A   1      34.525  24.182  22.748  1.00  0.00    -0.270 OA
ATOM      6  C   UNL A   1      34.271  23.457  23.699  1.00  0.00     0.251 C 
ATOM      7  H   UNL A   1      35.268  21.863  23.018  1.00  0.00     0.163 HD
BRANCH   6   8
ATOM      8  C   UNL A   1      33.405  23.917  24.800  1.00  0.00     0.067 C 
ATOM      9  C   UNL A   1      33.931  24.827  25.629  1.00  0.00     0.025 C 
ATOM     10  C   UNL A   1      31.935  23.672  24.664  1.00  0.00     0.314 C 
ATOM     11  C   UNL A   1      33.037  25.963  25.882  1.00  0.00     0.019 A 
ATOM     12  O   UNL A   1      31.158  24.895  24.721  1.00  0.00    -0.475 OA
ATOM     13  C   UNL A   1      33.626  27.155  26.314  1.00  0.00     0.034 A 
ATOM     14  C   UNL A   1      31.761  25.989  25.292  1.00  0.00     0.129 A 
ATOM     15  C   UNL A   1      33.003  28.377  26.045  1.00  0.00     0.060 A 
ATOM     16  C   UNL A   1      31.121  27.206  25.065  1.00  0.00     0.069 A 
ATOM     17  Cl  UNL A   1      33.883  29.814  26.419  1.00  0.00    -0.083 Cl
ATOM     18  C   UNL A   1      31.761  28.402  25.400  1.00  0.00     0.063 A 
ATOM     19  Cl  UNL A   1      31.009  29.875  24.903  1.00  0.00    -0.083 Cl
BRANCH  10  20
ATOM     20  C   UNL A   1      31.432  22.665  25.709  1.00  0.00     0.429 C 
ATOM     21  F   UNL A   1      31.440  21.403  25.210  1.00  0.00    -0.167 F 
ATOM     22  F   UNL A   1      32.210  22.647  26.817  1.00  0.00    -0.167 F 
ATOM     23  F   UNL A   1      30.166  22.926  26.109  1.00  0.00    -0.167 F 
ENDBRANCH  10  20
ENDBRANCH   6   8
ENDBRANCH   3   4
ENDBRANCH   2   3
ENDBRANCH   1   2
BRANCH   1  24
ATOM     24  N   UNL A   1      38.386  20.460  25.446  1.00  0.00    -0.352 N 
ATOM     25  C   UNL A   1      39.556  20.667  26.154  1.00  0.00     0.251 C 
ATOM     26  H   UNL A   1      38.201  19.520  25.222  1.00  0.00     0.163 HD
ATOM     27  O   UNL A   1      40.296  19.725  26.369  1.00  0.00    -0.269 OA
BRANCH  25  28
ATOM     28  C   UNL A   1      39.923  22.033  26.606  1.00  0.00     0.039 A 
ATOM     29  C   UNL A   1      40.996  22.193  27.489  1.00  0.00     0.014 A 
ATOM     30  C   UNL A   1      39.234  23.153  26.146  1.00  0.00     0.014 A 
ATOM     31  C   UNL A   1      41.438  23.480  27.819  1.00  0.00     0.010 A 
ATOM     32  C   UNL A   1      39.748  24.422  26.377  1.00  0.00     0.010 A 
ATOM     33  C   UNL A   1      40.856  24.606  27.218  1.00  0.00    -0.014 A 
BRANCH  33  34
ATOM     34  C   UNL A   1      41.362  25.988  27.451  1.00  0.00     0.031 A 
ATOM     35  C   UNL A   1      42.706  26.391  26.898  1.00  0.00     0.074 A 
ATOM     36  C   UNL A   1      40.676  26.836  28.245  1.00  0.00     0.049 A 
ATOM     37  N   UNL A   1      43.418  27.462  27.137  1.00  0.00    -0.248 NA
ATOM     38  C   UNL A   1      43.360  25.428  25.999  1.00  0.00     0.031 C 
ATOM     39  C   UNL A   1      39.390  26.548  28.885  1.00  0.00     0.029 A 
ATOM     40  N   UNL A   1      40.972  28.110  28.664  1.00  0.00    -0.354 N 
ATOM     41  C   UNL A   1      44.617  27.280  26.454  1.00  0.00     0.074 A 
ATOM     42  C   UNL A   1      44.560  25.965  25.854  1.00  0.00     0.031 C 
ATOM     43  C   UNL A   1      38.995  27.623  29.588  1.00  0.00     0.029 A 
ATOM     44  C   UNL A   1      40.022  28.656  29.498  1.00  0.00     0.049 A 
ATOM     45  H   UNL A   1      41.789  28.589  28.394  1.00  0.00     0.167 HD
ATOM     46  C   UNL A   1      45.656  28.141  26.316  1.00  0.00     0.034 A 
ATOM     47  C   UNL A   1      39.988  29.847  30.129  1.00  0.00     0.034 A 
ATOM     48  C   UNL A   1      45.670  29.468  26.880  1.00  0.00     0.049 A 
ATOM     49  C   UNL A   1      41.143  30.798  29.943  1.00  0.00     0.074 A 
ATOM     50  C   UNL A   1      46.632  30.454  26.744  1.00  0.00     0.029 A 
ATOM     51  N   UNL A   1      44.669  29.999  27.683  1.00  0.00    -0.354 N 
ATOM     52  N   UNL A   1      42.253  30.626  29.261  1.00  0.00    -0.248 NA
ATOM     53  C   UNL A   1      41.038  32.105  30.602  1.00  0.00     0.031 C 
ATOM     54  C   UNL A   1      46.241  31.557  27.509  1.00  0.00     0.029 A 
ATOM     55  C   UNL A   1      45.000  31.289  28.066  1.00  0.00     0.049 A 
ATOM     56  H   UNL A   1      43.845  29.528  27.943  1.00  0.00     0.167 HD
ATOM     57  C   UNL A   1      42.961  31.817  29.386  1.00  0.00     0.074 A 
ATOM     58  C   UNL A   1      42.148  32.702  30.194  1.00  0.00     0.031 C 
ATOM     59  C   UNL A   1      44.175  32.154  28.877  1.00  0.00     0.034 A 
BRANCH  46  60
ATOM     60  C   UNL A   1      46.859  27.661  25.535  1.00  0.00     0.023 A 
ATOM     61  C   UNL A   1      47.090  28.066  24.209  1.00  0.00     0.031 A 
ATOM     62  C   UNL A   1      47.767  26.753  26.110  1.00  0.00     0.131 A 
ATOM     63  C   UNL A   1      48.140  27.498  23.473  1.00  0.00     0.055 A 
ATOM     64  C   UNL A   1      48.865  26.261  25.400  1.00  0.00     0.041 A 
ATOM     65  F   UNL A   1      47.592  26.312  27.365  1.00  0.00    -0.206 F 
ATOM     66  C   UNL A   1      49.046  26.618  24.067  1.00  0.00     0.022 A 
BRANCH  63  67
ATOM     67  S   UNL A   1      48.204  27.801  21.686  1.00  0.00     0.124 S 
ATOM     68  O   UNL A   1      46.852  28.292  21.423  1.00  0.00    -0.237 OA
ATOM     69  O   UNL A   1      49.274  28.785  21.570  1.00  0.00    -0.237 OA
ATOM     70  O   UNL A   1      48.500  26.484  21.125  1.00  0.00    -0.744 OA
ENDBRANCH  63  67
ENDBRANCH  46  60
BRANCH  47  71
ATOM     71  C   UNL A   1      38.831  30.214  30.996  1.00  0.00     0.023 A 
ATOM     72  C   UNL A   1      37.740  30.928  30.477  1.00  0.00     0.031 A 
ATOM     73  C   UNL A   1      38.816  29.894  32.366  1.00  0.00     0.131 A 
ATOM     74  C   UNL A   1      36.702  31.341  31.328  1.00  0.00     0.055 A 
ATOM     75  C   UNL A   1      37.756  30.261  33.198  1.00  0.00     0.041 A 
ATOM     76  F   UNL A   1      39.831  29.207  32.915  1.00  0.00    -0.206 F 
ATOM     77  C   UNL A   1      36.697  31.001  32.682  1.00  0.00     0.022 A 
BRANCH  74  78
ATOM     78  S   UNL A   1      35.398  32.406  30.653  1.00  0.00     0.124 S 
ATOM     79  O   UNL A   1      36.079  33.693  30.570  1.00  0.00    -0.237 OA
ATOM     80  O   UNL A   1      35.102  31.753  29.382  1.00  0.00    -0.237 OA
ATOM     81  O   UNL A   1      34.338  32.323  31.656  1.00  0.00    -0.744 OA
ENDBRANCH  74  78
ENDBRANCH  47  71
BRANCH  59  82
ATOM     82  C   UNL A   1      44.663  33.556  29.143  1.00  0.00     0.023 A 
ATOM     83  C   UNL A   1      44.217  34.650  28.382  1.00  0.00     0.031 A 
ATOM     84  C   UNL A   1      45.593  33.796  30.169  1.00  0.00     0.131 A 
ATOM     85  C   UNL A   1      44.745  35.927  28.622  1.00  0.00     0.055 A 
ATOM     86  C   UNL A   1      46.069  35.078  30.444  1.00  0.00     0.041 A 
ATOM     87  F   UNL A   1      46.052  32.785  30.926  1.00  0.00    -0.206 F 
ATOM     88  C   UNL A   1      45.654  36.151  29.659  1.00  0.00     0.022 A 
BRANCH  85  89
ATOM     89  S   UNL A   1      44.291  37.280  27.504  1.00  0.00     0.124 S 
ATOM     90  O   UNL A   1      43.732  38.262  28.427  1.00  0.00    -0.237 OA
ATOM     91  O   UNL A   1      45.573  37.631  26.901  1.00  0.00    -0.237 OA
ATOM     92  O   UNL A   1      43.327  36.664  26.594  1.00  0.00    -0.744 OA
ENDBRANCH  85  89
ENDBRANCH  59  82
ENDBRANCH  33  34
ENDBRANCH  25  28
ENDBRANCH   1  24
TORSDOF 14
ENDMDL
MODEL 2
REMARK VINA RESULT:     -12.8      5.210      9.831
REMARK SMILES O=C(NCCCNC(=O)c1ccc(-c2c3nc(c(-c4cc(S(=O)(=O)[O-])ccc4F)c4ccc([nH]4)c(-c4cc(S(=O)(=O)[O-])ccc4F)c4nc(c(-c5cc(S(=O)(=O)[O-])ccc5F)c5ccc2[nH]5)C=C4)C=C3)cc1)C1=Cc2cc(Cl)c(Cl)cc2O[C@@H]1C(F)(F)F
REMARK SMILES IDX 6 1 5 2 4 3 3 4 1 5 2 6 73 8 74 9 84 10 75 11 83 12 76 13
REMARK SMILES IDX 82 14 77 15 81 16 78 17 79 18 80 19 85 20 86 21 87 22 88 23
REMARK SMILES IDX 7 24 8 25 9 27 10 28 11 29 72 30 12 31 71 32 13 33 14 34
REMARK SMILES IDX 15 35 65 36 16 37 70 38 64 39 66 40 17 41 69 42 63 43 62 44
REMARK SMILES IDX 18 46 50 47 30 48 49 49 31 50 34 51 48 52 67 53 32 54 33 55
REMARK SMILES IDX 47 57 68 58 35 59 19 60 20 61 28 62 21 63 27 64 29 65 26 66
REMARK SMILES IDX 22 67 23 68 24 69 25 70 51 71 52 72 60 73 53 74 59 75 61 76
REMARK SMILES IDX 58 77 54 78 55 79 56 80 57 81 36 82 37 83 45 84 38 85 44 86
REMARK SMILES IDX 46 87 43 88 39 89 40 90 41 91 42 92
REMARK H PARENT 3 7 7 26 66 45 34 56
REMARK Flexibility Score: inf
ROOT
ATOM      1  C   UNL A   1      34.292  29.141  26.450  1.00  0.00     0.118 C 
ENDROOT
BRANCH   1   2
ATOM      2  C   UNL A   1      33.347  28.074  26.992  1.00  0.00     0.042 C 
BRANCH   2   3
ATOM      3  C   UNL A   1      32.913  27.080  25.921  1.00  0.00     0.118 C 
BRANCH   3   4
ATOM      4  N   UNL A   1      33.323  27.465  24.566  1.00  0.00    -0.352 N 
ATOM      5  O   UNL A   1      33.158  28.552  22.578  1.00  0.00    -0.270 OA
ATOM      6  C   UNL A   1      32.614  28.099  23.575  1.00  0.00     0.251 C 
ATOM      7  H   UNL A   1      34.251  27.234  24.332  1.00  0.00     0.163 HD
BRANCH   6   8
ATOM      8  C   UNL A   1      31.166  28.265  23.796  1.00  0.00     0.067 C 
ATOM      9  C   UNL A   1      30.782  29.401  24.391  1.00  0.00     0.025 C 
ATOM     10  C   UNL A   1      30.246  27.398  22.996  1.00  0.00     0.314 C 
ATOM     11  C   UNL A   1      29.666  30.063  23.708  1.00  0.00     0.019 A 
ATOM     12  O   UNL A   1      29.315  28.166  22.192  1.00  0.00    -0.475 OA
ATOM     13  C   UNL A   1      29.502  31.433  23.931  1.00  0.00     0.034 A 
ATOM     14  C   UNL A   1      29.099  29.470  22.565  1.00  0.00     0.129 A 
ATOM     15  C   UNL A   1      28.888  32.229  22.960  1.00  0.00     0.060 A 
ATOM     16  C   UNL A   1      28.449  30.258  21.618  1.00  0.00     0.069 A 
ATOM     17  Cl  UNL A   1      28.907  33.937  23.207  1.00  0.00    -0.083 Cl
ATOM     18  C   UNL A   1      28.382  31.643  21.793  1.00  0.00     0.063 A 
ATOM     19  Cl  UNL A   1      27.750  32.582  20.488  1.00  0.00    -0.083 Cl
BRANCH  10  20
ATOM     20  C   UNL A   1      29.493  26.400  23.888  1.00  0.00     0.429 C 
ATOM     21  F   UNL A   1      29.886  26.511  25.181  1.00  0.00    -0.167 F 
ATOM     22  F   UNL A   1      28.155  26.607  23.871  1.00  0.00    -0.167 F 
ATOM     23  F   UNL A   1      29.706  25.115  23.518  1.00  0.00    -0.167 F 
ENDBRANCH  10  20
ENDBRANCH   6   8
ENDBRANCH   3   4
ENDBRANCH   2   3
ENDBRANCH   1   2
BRANCH   1  24
ATOM     24  N   UNL A   1      33.972  30.493  26.901  1.00  0.00    -0.352 N 
ATOM     25  C   UNL A   1      34.594  31.303  27.834  1.00  0.00     0.251 C 
ATOM     26  H   UNL A   1      33.183  30.893  26.469  1.00  0.00     0.163 HD
ATOM     27  O   UNL A   1      34.098  32.379  28.114  1.00  0.00    -0.269 OA
BRANCH  25  28
ATOM     28  C   UNL A   1      35.830  30.843  28.516  1.00  0.00     0.039 A 
ATOM     29  C   UNL A   1      35.738  29.855  29.501  1.00  0.00     0.014 A 
ATOM     30  C   UNL A   1      37.077  31.363  28.174  1.00  0.00     0.014 A 
ATOM     31  C   UNL A   1      36.904  29.317  30.058  1.00  0.00     0.010 A 
ATOM     32  C   UNL A   1      38.232  30.746  28.636  1.00  0.00     0.010 A 
ATOM     33  C   UNL A   1      38.165  29.716  29.586  1.00  0.00    -0.014 A 
BRANCH  33  34
ATOM     34  C   UNL A   1      39.431  29.095  30.067  1.00  0.00     0.031 A 
ATOM     35  C   UNL A   1      40.160  29.703  31.238  1.00  0.00     0.074 A 
ATOM     36  C   UNL A   1      39.979  28.064  29.392  1.00  0.00     0.049 A 
ATOM     37  N   UNL A   1      41.358  29.448  31.697  1.00  0.00    -0.248 NA
ATOM     38  C   UNL A   1      39.466  30.787  31.951  1.00  0.00     0.031 C 
ATOM     39  C   UNL A   1      39.400  27.418  28.210  1.00  0.00     0.029 A 
ATOM     40  N   UNL A   1      41.157  27.385  29.590  1.00  0.00    -0.354 N 
ATOM     41  C   UNL A   1      41.575  30.366  32.720  1.00  0.00     0.074 A 
ATOM     42  C   UNL A   1      40.414  31.228  32.762  1.00  0.00     0.031 C 
ATOM     43  C   UNL A   1      40.207  26.421  27.811  1.00  0.00     0.029 A 
ATOM     44  C   UNL A   1      41.388  26.390  28.668  1.00  0.00     0.049 A 
ATOM     45  H   UNL A   1      41.779  27.593  30.325  1.00  0.00     0.167 HD
ATOM     46  C   UNL A   1      42.631  30.463  33.566  1.00  0.00     0.034 A 
ATOM     47  C   UNL A   1      42.437  25.556  28.521  1.00  0.00     0.034 A 
ATOM     48  C   UNL A   1      43.757  29.561  33.541  1.00  0.00     0.049 A 
ATOM     49  C   UNL A   1      43.590  25.667  29.485  1.00  0.00     0.074 A 
ATOM     50  C   UNL A   1      44.846  29.515  34.394  1.00  0.00     0.029 A 
ATOM     51  N   UNL A   1      43.932  28.539  32.618  1.00  0.00    -0.354 N 
ATOM     52  N   UNL A   1      43.762  26.516  30.474  1.00  0.00    -0.248 NA
ATOM     53  C   UNL A   1      44.685  24.702  29.323  1.00  0.00     0.031 C 
ATOM     54  C   UNL A   1      45.706  28.504  33.953  1.00  0.00     0.029 A 
ATOM     55  C   UNL A   1      45.121  27.871  32.868  1.00  0.00     0.049 A 
ATOM     56  H   UNL A   1      43.305  28.320  31.892  1.00  0.00     0.167 HD
ATOM     57  C   UNL A   1      44.971  26.164  31.068  1.00  0.00     0.074 A 
ATOM     58  C   UNL A   1      45.475  25.019  30.337  1.00  0.00     0.031 C 
ATOM     59  C   UNL A   1      45.608  26.733  32.124  1.00  0.00     0.034 A 
BRANCH  46  60
ATOM     60  C   UNL A   1      42.616  31.591  34.574  1.00  0.00     0.023 A 
ATOM     61  C   UNL A   1      41.776  31.565  35.700  1.00  0.00     0.031 A 
ATOM     62  C   UNL A   1      43.422  32.728  34.385  1.00  0.00     0.131 A 
ATOM     63  C   UNL A   1      41.690  32.685  36.540  1.00  0.00     0.055 A 
ATOM     64  C   UNL A   1      43.400  33.803  35.276  1.00  0.00     0.041 A 
ATOM     65  F   UNL A   1      44.231  32.824  33.318  1.00  0.00    -0.206 F 
ATOM     66  C   UNL A   1      42.516  33.794  36.352  1.00  0.00     0.022 A 
BRANCH  63  67
ATOM     67  S   UNL A   1      40.368  32.734  37.782  1.00  0.00     0.124 S 
ATOM     68  O   UNL A   1      41.090  32.347  38.993  1.00  0.00    -0.237 OA
ATOM     69  O   UNL A   1      39.926  34.121  37.718  1.00  0.00    -0.237 OA
ATOM     70  O   UNL A   1      39.406  31.746  37.296  1.00  0.00    -0.744 OA
ENDBRANCH  63  67
ENDBRANCH  46  60
BRANCH  47  71
ATOM     71  C   UNL A   1      42.457  24.547  27.422  1.00  0.00     0.023 A 
ATOM     72  C   UNL A   1      41.658  23.395  27.488  1.00  0.00     0.031 A 
ATOM     73  C   UNL A   1      43.304  24.697  26.309  1.00  0.00     0.131 A 
ATOM     74  C   UNL A   1      41.756  22.414  26.488  1.00  0.00     0.055 A 
ATOM     75  C   UNL A   1      43.358  23.744  25.290  1.00  0.00     0.041 A 
ATOM     76  F   UNL A   1      44.085  25.783  26.191  1.00  0.00    -0.206 F 
ATOM     77  C   UNL A   1      42.591  22.587  25.382  1.00  0.00     0.022 A 
BRANCH  74  78
ATOM     78  S   UNL A   1      40.836  20.865  26.698  1.00  0.00     0.124 S 
ATOM     79  O   UNL A   1      41.663  19.925  25.950  1.00  0.00    -0.237 OA
ATOM     80  O   UNL A   1      40.836  20.707  28.149  1.00  0.00    -0.237 OA
ATOM     81  O   UNL A   1      39.533  21.160  26.105  1.00  0.00    -0.744 OA
ENDBRANCH  74  78
ENDBRANCH  47  71
BRANCH  59  82
ATOM     82  C   UNL A   1      46.893  26.086  32.576  1.00  0.00     0.023 A 
ATOM     83  C   UNL A   1      46.905  25.059  33.534  1.00  0.00     0.031 A 
ATOM     84  C   UNL A   1      48.122  26.513  32.043  1.00  0.00     0.131 A 
ATOM     85  C   UNL A   1      48.129  24.529  33.972  1.00  0.00     0.055 A 
ATOM     86  C   UNL A   1      49.332  25.940  32.437  1.00  0.00     0.041 A 
ATOM     87  F   UNL A   1      48.166  27.491  31.124  1.00  0.00    -0.206 F 
ATOM     88  C   UNL A   1      49.340  24.951  33.417  1.00  0.00     0.022 A 
BRANCH  85  89
ATOM     89  S   UNL A   1      48.122  23.340  35.341  1.00  0.00     0.124 S 
ATOM     90  O   UNL A   1      47.828  24.198  36.485  1.00  0.00    -0.237 OA
ATOM     91  O   UNL A   1      47.063  22.417  34.948  1.00  0.00    -0.237 OA
ATOM     92  O   UNL A   1      49.473  22.781  35.316  1.00  0.00    -0.744 OA
ENDBRANCH  85  89
ENDBRANCH  59  82
ENDBRANCH  33  34
ENDBRANCH  25  28
ENDBRANCH   1  24
TORSDOF 14
ENDMDL
MODEL 3
REMARK VINA RESULT:     -12.8      5.118      9.844
REMARK SMILES O=C(NCCCNC(=O)c1ccc(-c2c3nc(c(-c4cc(S(=O)(=O)[O-])ccc4F)c4ccc([nH]4)c(-c4cc(S(=O)(=O)[O-])ccc4F)c4nc(c(-c5cc(S(=O)(=O)[O-])ccc5F)c5ccc2[nH]5)C=C4)C=C3)cc1)C1=Cc2cc(Cl)c(Cl)cc2O[C@@H]1C(F)(F)F
REMARK SMILES IDX 6 1 5 2 4 3 3 4 1 5 2 6 73 8 74 9 84 10 75 11 83 12 76 13
REMARK SMILES IDX 82 14 77 15 81 16 78 17 79 18 80 19 85 20 86 21 87 22 88 23
REMARK SMILES IDX 7 24 8 25 9 27 10 28 11 29 72 30 12 31 71 32 13 33 14 34
REMARK SMILES IDX 15 35 65 36 16 37 70 38 64 39 66 40 17 41 69 42 63 43 62 44
REMARK SMILES IDX 18 46 50 47 30 48 49 49 31 50 34 51 48 52 67 53 32 54 33 55
REMARK SMILES IDX 47 57 68 58 35 59 19 60 20 61 28 62 21 63 27 64 29 65 26 66
REMARK SMILES IDX 22 67 23 68 24 69 25 70 51 71 52 72 60 73 53 74 59 75 61 76
REMARK SMILES IDX 58 77 54 78 55 79 56 80 57 81 36 82 37 83 45 84 38 85 44 86
REMARK SMILES IDX 46 87 43 88 39 89 40 90 41 91 42 92
REMARK H PARENT 3 7 7 26 66 45 34 56
REMARK Flexibility Score: inf
ROOT
ATOM      1  C   UNL A   1      33.352  29.285  26.435  1.00  0.00     0.118 C 
ENDROOT
BRANCH   1   2
ATOM      2  C   UNL A   1      32.435  28.365  27.233  1.00  0.00     0.042 C 
BRANCH   2   3
ATOM      3  C   UNL A   1      31.629  27.427  26.341  1.00  0.00     0.118 C 
BRANCH   3   4
ATOM      4  N   UNL A   1      31.352  26.127  26.959  1.00  0.00    -0.352 N 
ATOM      5  O   UNL A   1      31.713  23.934  27.432  1.00  0.00    -0.270 OA
ATOM      6  C   UNL A   1      31.876  24.887  26.684  1.00  0.00     0.251 C 
ATOM      7  H   UNL A   1      30.687  26.145  27.686  1.00  0.00     0.163 HD
BRANCH   6   8
ATOM      8  C   UNL A   1      32.702  24.771  25.468  1.00  0.00     0.067 C 
ATOM      9  C   UNL A   1      33.995  25.094  25.595  1.00  0.00     0.025 C 
ATOM     10  C   UNL A   1      32.164  23.934  24.351  1.00  0.00     0.314 C 
ATOM     11  C   UNL A   1      34.900  24.098  25.010  1.00  0.00     0.019 A 
ATOM     12  O   UNL A   1      33.053  22.846  23.991  1.00  0.00    -0.475 OA
ATOM     13  C   UNL A   1      36.215  24.073  25.484  1.00  0.00     0.034 A 
ATOM     14  C   UNL A   1      34.367  22.965  24.371  1.00  0.00     0.129 A 
ATOM     15  C   UNL A   1      36.950  22.886  25.434  1.00  0.00     0.060 A 
ATOM     16  C   UNL A   1      35.118  21.794  24.283  1.00  0.00     0.069 A 
ATOM     17  Cl  UNL A   1      38.486  22.872  26.224  1.00  0.00    -0.083 Cl
ATOM     18  C   UNL A   1      36.392  21.741  24.855  1.00  0.00     0.063 A 
ATOM     19  Cl  UNL A   1      37.184  20.206  24.896  1.00  0.00    -0.083 Cl
BRANCH  10  20
ATOM     20  C   UNL A   1      31.829  24.787  23.118  1.00  0.00     0.429 C 
ATOM     21  F   UNL A   1      30.527  24.642  22.767  1.00  0.00    -0.167 F 
ATOM     22  F   UNL A   1      32.026  26.107  23.342  1.00  0.00    -0.167 F 
ATOM     23  F   UNL A   1      32.572  24.446  22.038  1.00  0.00    -0.167 F 
ENDBRANCH  10  20
ENDBRANCH   6   8
ENDBRANCH   3   4
ENDBRANCH   2   3
ENDBRANCH   1   2
BRANCH   1  24
ATOM     24  N   UNL A   1      33.451  30.635  26.983  1.00  0.00    -0.352 N 
ATOM     25  C   UNL A   1      34.412  31.211  27.794  1.00  0.00     0.251 C 
ATOM     26  H   UNL A   1      32.711  31.234  26.733  1.00  0.00     0.163 HD
ATOM     27  O   UNL A   1      34.245  32.346  28.201  1.00  0.00    -0.269 OA
BRANCH  25  28
ATOM     28  C   UNL A   1      35.612  30.434  28.197  1.00  0.00     0.039 A 
ATOM     29  C   UNL A   1      36.748  30.463  27.382  1.00  0.00     0.014 A 
ATOM     30  C   UNL A   1      35.630  29.702  29.382  1.00  0.00     0.014 A 
ATOM     31  C   UNL A   1      37.928  29.846  27.812  1.00  0.00     0.010 A 
ATOM     32  C   UNL A   1      36.831  29.196  29.862  1.00  0.00     0.010 A 
ATOM     33  C   UNL A   1      37.998  29.258  29.085  1.00  0.00    -0.014 A 
BRANCH  33  34
ATOM     34  C   UNL A   1      39.261  28.688  29.634  1.00  0.00     0.031 A 
ATOM     35  C   UNL A   1      39.949  29.376  30.786  1.00  0.00     0.074 A 
ATOM     36  C   UNL A   1      39.843  27.629  29.034  1.00  0.00     0.049 A 
ATOM     37  N   UNL A   1      41.138  29.168  31.289  1.00  0.00    -0.248 NA
ATOM     38  C   UNL A   1      39.220  30.488  31.416  1.00  0.00     0.031 C 
ATOM     39  C   UNL A   1      39.305  26.907  27.878  1.00  0.00     0.029 A 
ATOM     40  N   UNL A   1      41.025  26.984  29.302  1.00  0.00    -0.354 N 
ATOM     41  C   UNL A   1      41.314  30.147  32.262  1.00  0.00     0.074 A 
ATOM     42  C   UNL A   1      40.139  30.991  32.223  1.00  0.00     0.031 C 
ATOM     43  C   UNL A   1      40.138  25.902  27.558  1.00  0.00     0.029 A 
ATOM     44  C   UNL A   1      41.296  25.940  28.445  1.00  0.00     0.049 A 
ATOM     45  H   UNL A   1      41.624  27.244  30.039  1.00  0.00     0.167 HD
ATOM     46  C   UNL A   1      42.346  30.311  33.128  1.00  0.00     0.034 A 
ATOM     47  C   UNL A   1      42.361  25.118  28.374  1.00  0.00     0.034 A 
ATOM     48  C   UNL A   1      43.485  29.429  33.184  1.00  0.00     0.049 A 
ATOM     49  C   UNL A   1      43.487  25.303  29.360  1.00  0.00     0.074 A 
ATOM     50  C   UNL A   1      44.551  29.451  34.066  1.00  0.00     0.029 A 
ATOM     51  N   UNL A   1      43.701  28.358  32.327  1.00  0.00    -0.354 N 
ATOM     52  N   UNL A   1      43.619  26.211  30.301  1.00  0.00    -0.248 NA
ATOM     53  C   UNL A   1      44.600  24.349  29.282  1.00  0.00     0.031 C 
ATOM     54  C   UNL A   1      45.439  28.431  33.707  1.00  0.00     0.029 A 
ATOM     55  C   UNL A   1      44.893  27.726  32.646  1.00  0.00     0.049 A 
ATOM     56  H   UNL A   1      43.096  28.086  31.599  1.00  0.00     0.167 HD
ATOM     57  C   UNL A   1      44.817  25.915  30.945  1.00  0.00     0.074 A 
ATOM     58  C   UNL A   1      45.358  24.739  30.296  1.00  0.00     0.031 C 
ATOM     59  C   UNL A   1      45.417  26.555  31.982  1.00  0.00     0.034 A 
BRANCH  46  60
ATOM     60  C   UNL A   1      42.286  31.495  34.067  1.00  0.00     0.023 A 
ATOM     61  C   UNL A   1      41.507  31.473  35.237  1.00  0.00     0.031 A 
ATOM     62  C   UNL A   1      42.984  32.679  33.768  1.00  0.00     0.131 A 
ATOM     63  C   UNL A   1      41.370  32.633  36.013  1.00  0.00     0.055 A 
ATOM     64  C   UNL A   1      42.917  33.803  34.595  1.00  0.00     0.041 A 
ATOM     65  F   UNL A   1      43.730  32.772  32.656  1.00  0.00    -0.206 F 
ATOM     66  C   UNL A   1      42.091  33.791  35.716  1.00  0.00     0.022 A 
BRANCH  63  67
ATOM     67  S   UNL A   1      40.111  32.654  37.319  1.00  0.00     0.124 S 
ATOM     68  O   UNL A   1      39.480  33.954  37.097  1.00  0.00    -0.237 OA
ATOM     69  O   UNL A   1      39.301  31.487  36.995  1.00  0.00    -0.237 OA
ATOM     70  O   UNL A   1      40.893  32.553  38.550  1.00  0.00    -0.744 OA
ENDBRANCH  63  67
ENDBRANCH  46  60
BRANCH  47  71
ATOM     71  C   UNL A   1      42.426  24.047  27.337  1.00  0.00     0.023 A 
ATOM     72  C   UNL A   1      41.831  22.795  27.557  1.00  0.00     0.031 A 
ATOM     73  C   UNL A   1      43.118  24.243  26.128  1.00  0.00     0.131 A 
ATOM     74  C   UNL A   1      41.978  21.771  26.608  1.00  0.00     0.055 A 
ATOM     75  C   UNL A   1      43.215  23.238  25.163  1.00  0.00     0.041 A 
ATOM     76  F   UNL A   1      43.700  25.423  25.862  1.00  0.00    -0.206 F 
ATOM     77  C   UNL A   1      42.655  21.989  25.406  1.00  0.00     0.022 A 
BRANCH  74  78
ATOM     78  S   UNL A   1      41.342  20.120  27.006  1.00  0.00     0.124 S 
ATOM     79  O   UNL A   1      40.823  20.319  28.354  1.00  0.00    -0.237 OA
ATOM     80  O   UNL A   1      40.346  19.918  25.958  1.00  0.00    -0.237 OA
ATOM     81  O   UNL A   1      42.525  19.267  26.912  1.00  0.00    -0.744 OA
ENDBRANCH  74  78
ENDBRANCH  47  71
BRANCH  59  82
ATOM     82  C   UNL A   1      46.699  25.957  32.504  1.00  0.00     0.023 A 
ATOM     83  C   UNL A   1      46.702  24.985  33.518  1.00  0.00     0.031 A 
ATOM     84  C   UNL A   1      47.936  26.376  31.982  1.00  0.00     0.131 A 
ATOM     85  C   UNL A   1      47.922  24.502  34.018  1.00  0.00     0.055 A 
ATOM     86  C   UNL A   1      49.143  25.849  32.440  1.00  0.00     0.041 A 
ATOM     87  F   UNL A   1      47.989  27.303  31.011  1.00  0.00    -0.206 F 
ATOM     88  C   UNL A   1      49.140  24.915  33.473  1.00  0.00     0.022 A 
BRANCH  85  89
ATOM     89  S   UNL A   1      47.896  23.391  35.450  1.00  0.00     0.124 S 
ATOM     90  O   UNL A   1      47.602  22.104  34.829  1.00  0.00    -0.237 OA
ATOM     91  O   UNL A   1      49.243  23.545  35.989  1.00  0.00    -0.237 OA
ATOM     92  O   UNL A   1      46.827  23.935  36.286  1.00  0.00    -0.744 OA
ENDBRANCH  85  89
ENDBRANCH  59  82
ENDBRANCH  33  34
ENDBRANCH  25  28
ENDBRANCH   1  24
TORSDOF 14
ENDMDL
